MODEL 1
REMARK VINA RESULT:    -3.962      0.000      0.000
REMARK INTER + INTRA:          -9.280
REMARK INTER:                  -6.974
REMARK INTRA:                  -2.307
REMARK UNBOUND:                -2.307
REMARK SMILES CCCCCCC=CCCCCCCCC(=O)[O-]
REMARK SMILES IDX 10 1 11 2 12 3 13 4 14 5 15 6 16 7 17 8 18 9 9 10 8 11 7 12
REMARK SMILES IDX 6 13 5 14 4 15 3 16 2 17 1 18
REMARK H PARENT
REMARK Flexibility Score: inf
ROOT
ATOM      1  C   UNL     1      -0.597  -6.771   3.042  1.00  0.00     0.004 C 
ENDROOT
BRANCH   1   2
ATOM      2  C   UNL     1      -1.582  -5.628   2.724  1.00  0.00     0.000 C 
BRANCH   2   3
ATOM      3  C   UNL     1      -2.985  -5.786   3.338  1.00  0.00     0.000 C 
BRANCH   3   4
ATOM      4  C   UNL     1      -3.206  -4.888   4.563  1.00  0.00     0.000 C 
BRANCH   4   5
ATOM      5  C   UNL     1      -4.203  -3.764   4.248  1.00  0.00     0.006 C 
BRANCH   5   6
ATOM      6  C   UNL     1      -4.587  -2.958   5.496  1.00  0.00     0.053 C 
BRANCH   6   7
ATOM      7  C   UNL     1      -5.980  -3.270   5.950  1.00  0.00     0.041 C 
ATOM      8  O   UNL     1      -6.957  -3.086   5.176  1.00  0.00    -0.550 OA
ATOM      9  O   UNL     1      -6.198  -3.795   7.217  1.00  0.00    -0.550 OA
ENDBRANCH   6   7
ENDBRANCH   5   6
ENDBRANCH   4   5
ENDBRANCH   3   4
ENDBRANCH   2   3
ENDBRANCH   1   2
BRANCH   1  10
ATOM     10  C   UNL     1      -1.181  -7.895   3.913  1.00  0.00     0.027 C 
BRANCH  10  11
ATOM     11  C   UNL     1      -0.239  -8.307   5.019  1.00  0.00    -0.031 C 
ATOM     12  C   UNL     1      -0.352  -7.922   6.304  1.00  0.00    -0.031 C 
BRANCH  12  13
ATOM     13  C   UNL     1      -1.489  -7.100   6.855  1.00  0.00     0.027 C 
BRANCH  13  14
ATOM     14  C   UNL     1      -0.956  -5.891   7.637  1.00  0.00     0.004 C 
BRANCH  14  15
ATOM     15  C   UNL     1       0.365  -5.347   7.065  1.00  0.00     0.000 C 
BRANCH  15  16
ATOM     16  C   UNL     1       0.210  -4.376   5.877  1.00  0.00    -0.000 C 
BRANCH  16  17
ATOM     17  C   UNL     1       1.411  -4.332   4.915  1.00  0.00    -0.003 C 
ATOM     18  C   UNL     1       2.319  -5.555   5.038  1.00  0.00     0.004 C 
ENDBRANCH  16  17
ENDBRANCH  15  16
ENDBRANCH  14  15
ENDBRANCH  13  14
ENDBRANCH  12  13
ENDBRANCH  10  11
ENDBRANCH   1  10
TORSDOF 13
ENDMDL
MODEL 2
REMARK VINA RESULT:    -3.952     11.331     13.605
REMARK INTER + INTRA:          -9.263
REMARK INTER:                  -7.918
REMARK INTRA:                  -1.344
REMARK UNBOUND:                -2.307
REMARK SMILES CCCCCCC=CCCCCCCCC(=O)[O-]
REMARK SMILES IDX 10 1 11 2 12 3 13 4 14 5 15 6 16 7 17 8 18 9 9 10 8 11 7 12
REMARK SMILES IDX 6 13 5 14 4 15 3 16 2 17 1 18
REMARK H PARENT
REMARK Flexibility Score: inf
ROOT
ATOM      1  C   UNL     1       3.309   4.505   1.217  1.00  0.00     0.004 C 
ENDROOT
BRANCH   1   2
ATOM      2  C   UNL     1       2.447   5.403   2.128  1.00  0.00     0.000 C 
BRANCH   2   3
ATOM      3  C   UNL     1       2.998   5.608   3.551  1.00  0.00     0.000 C 
BRANCH   3   4
ATOM      4  C   UNL     1       3.357   4.289   4.250  1.00  0.00     0.000 C 
BRANCH   4   5
ATOM      5  C   UNL     1       4.827   4.285   4.694  1.00  0.00     0.006 C 
BRANCH   5   6
ATOM      6  C   UNL     1       5.463   2.893   4.594  1.00  0.00     0.053 C 
BRANCH   6   7
ATOM      7  C   UNL     1       6.013   2.439   5.912  1.00  0.00     0.041 C 
ATOM      8  O   UNL     1       6.536   3.269   6.701  1.00  0.00    -0.550 OA
ATOM      9  O   UNL     1       5.919   1.103   6.282  1.00  0.00    -0.550 OA
ENDBRANCH   6   7
ENDBRANCH   5   6
ENDBRANCH   4   5
ENDBRANCH   3   4
ENDBRANCH   2   3
ENDBRANCH   1   2
BRANCH   1  10
ATOM     10  C   UNL     1       2.510   3.663   0.208  1.00  0.00     0.027 C 
BRANCH  10  11
ATOM     11  C   UNL     1       1.315   4.409  -0.336  1.00  0.00    -0.031 C 
ATOM     12  C   UNL     1       1.302   5.095  -1.494  1.00  0.00    -0.031 C 
BRANCH  12  13
ATOM     13  C   UNL     1       2.448   5.146  -2.471  1.00  0.00     0.027 C 
BRANCH  13  14
ATOM     14  C   UNL     1       3.046   6.559  -2.533  1.00  0.00     0.004 C 
BRANCH  14  15
ATOM     15  C   UNL     1       4.297   6.716  -1.652  1.00  0.00     0.000 C 
BRANCH  15  16
ATOM     16  C   UNL     1       5.621   6.287  -2.317  1.00  0.00    -0.000 C 
BRANCH  16  17
ATOM     17  C   UNL     1       6.138   4.900  -1.896  1.00  0.00    -0.003 C 
ATOM     18  C   UNL     1       7.654   4.763  -2.032  1.00  0.00     0.004 C 
ENDBRANCH  16  17
ENDBRANCH  15  16
ENDBRANCH  14  15
ENDBRANCH  13  14
ENDBRANCH  12  13
ENDBRANCH  10  11
ENDBRANCH   1  10
TORSDOF 13
ENDMDL
MODEL 3
REMARK VINA RESULT:    -3.925     12.506     14.602
REMARK INTER + INTRA:          -9.215
REMARK INTER:                  -7.857
REMARK INTRA:                  -1.358
REMARK UNBOUND:                -2.307
REMARK SMILES CCCCCCC=CCCCCCCCC(=O)[O-]
REMARK SMILES IDX 10 1 11 2 12 3 13 4 14 5 15 6 16 7 17 8 18 9 9 10 8 11 7 12
REMARK SMILES IDX 6 13 5 14 4 15 3 16 2 17 1 18
REMARK H PARENT
REMARK Flexibility Score: inf
ROOT
ATOM      1  C   UNL     1       1.064   5.395   1.324  1.00  0.00     0.004 C 
ENDROOT
BRANCH   1   2
ATOM      2  C   UNL     1       2.601   5.271   1.273  1.00  0.00     0.000 C 
BRANCH   2   3
ATOM      3  C   UNL     1       3.193   5.060  -0.132  1.00  0.00     0.000 C 
BRANCH   3   4
ATOM      4  C   UNL     1       2.258   5.537  -1.252  1.00  0.00     0.000 C 
BRANCH   4   5
ATOM      5  C   UNL     1       3.031   6.342  -2.308  1.00  0.00     0.006 C 
BRANCH   5   6
ATOM      6  C   UNL     1       4.458   6.676  -1.855  1.00  0.00     0.053 C 
BRANCH   6   7
ATOM      7  C   UNL     1       5.455   6.448  -2.951  1.00  0.00     0.041 C 
ATOM      8  O   UNL     1       5.157   5.726  -3.939  1.00  0.00    -0.550 OA
ATOM      9  O   UNL     1       6.701   7.058  -2.896  1.00  0.00    -0.550 OA
ENDBRANCH   6   7
ENDBRANCH   5   6
ENDBRANCH   4   5
ENDBRANCH   3   4
ENDBRANCH   2   3
ENDBRANCH   1   2
BRANCH   1  10
ATOM     10  C   UNL     1       0.530   6.256   2.481  1.00  0.00     0.027 C 
BRANCH  10  11
ATOM     11  C   UNL     1       1.525   6.374   3.610  1.00  0.00    -0.031 C 
ATOM     12  C   UNL     1       1.547   7.375   4.509  1.00  0.00    -0.031 C 
BRANCH  12  13
ATOM     13  C   UNL     1       0.526   8.481   4.585  1.00  0.00     0.027 C 
BRANCH  13  14
ATOM     14  C   UNL     1       0.183   8.804   6.047  1.00  0.00     0.004 C 
BRANCH  14  15
ATOM     15  C   UNL     1      -1.320   8.671   6.350  1.00  0.00     0.000 C 
BRANCH  15  16
ATOM     16  C   UNL     1      -2.172   8.115   5.191  1.00  0.00    -0.000 C 
BRANCH  16  17
ATOM     17  C   UNL     1      -2.735   6.701   5.420  1.00  0.00    -0.003 C 
ATOM     18  C   UNL     1      -1.644   5.645   5.591  1.00  0.00     0.004 C 
ENDBRANCH  16  17
ENDBRANCH  15  16
ENDBRANCH  14  15
ENDBRANCH  13  14
ENDBRANCH  12  13
ENDBRANCH  10  11
ENDBRANCH   1  10
TORSDOF 13
ENDMDL
MODEL 4
REMARK VINA RESULT:    -3.872      3.233      6.013
REMARK INTER + INTRA:          -9.121
REMARK INTER:                  -8.190
REMARK INTRA:                  -0.931
REMARK UNBOUND:                -2.307
REMARK SMILES CCCCCCC=CCCCCCCCC(=O)[O-]
REMARK SMILES IDX 10 1 11 2 12 3 13 4 14 5 15 6 16 7 17 8 18 9 9 10 8 11 7 12
REMARK SMILES IDX 6 13 5 14 4 15 3 16 2 17 1 18
REMARK H PARENT
REMARK Flexibility Score: inf
ROOT
ATOM      1  C   UNL     1      -1.448  -7.731   4.223  1.00  0.00     0.004 C 
ENDROOT
BRANCH   1   2
ATOM      2  C   UNL     1      -0.792  -7.633   5.615  1.00  0.00     0.000 C 
BRANCH   2   3
ATOM      3  C   UNL     1      -0.975  -6.282   6.330  1.00  0.00     0.000 C 
BRANCH   3   4
ATOM      4  C   UNL     1      -2.354  -6.136   6.988  1.00  0.00     0.000 C 
BRANCH   4   5
ATOM      5  C   UNL     1      -2.992  -4.786   6.632  1.00  0.00     0.006 C 
BRANCH   5   6
ATOM      6  C   UNL     1      -3.688  -4.135   7.834  1.00  0.00     0.053 C 
BRANCH   6   7
ATOM      7  C   UNL     1      -5.118  -4.570   7.949  1.00  0.00     0.041 C 
ATOM      8  O   UNL     1      -5.454  -5.424   8.811  1.00  0.00    -0.550 OA
ATOM      9  O   UNL     1      -6.084  -4.007   7.124  1.00  0.00    -0.550 OA
ENDBRANCH   6   7
ENDBRANCH   5   6
ENDBRANCH   4   5
ENDBRANCH   3   4
ENDBRANCH   2   3
ENDBRANCH   1   2
BRANCH   1  10
ATOM     10  C   UNL     1      -1.315  -6.464   3.362  1.00  0.00     0.027 C 
BRANCH  10  11
ATOM     11  C   UNL     1      -2.649  -5.803   3.110  1.00  0.00    -0.031 C 
ATOM     12  C   UNL     1      -3.000  -5.203   1.958  1.00  0.00    -0.031 C 
BRANCH  12  13
ATOM     13  C   UNL     1      -2.153  -5.179   0.711  1.00  0.00     0.027 C 
BRANCH  13  14
ATOM     14  C   UNL     1      -3.035  -5.073  -0.541  1.00  0.00     0.004 C 
BRANCH  14  15
ATOM     15  C   UNL     1      -2.444  -5.819  -1.751  1.00  0.00     0.000 C 
BRANCH  15  16
ATOM     16  C   UNL     1      -3.484  -6.447  -2.701  1.00  0.00    -0.000 C 
BRANCH  16  17
ATOM     17  C   UNL     1      -4.835  -5.713  -2.760  1.00  0.00    -0.003 C 
ATOM     18  C   UNL     1      -6.027  -6.636  -2.507  1.00  0.00     0.004 C 
ENDBRANCH  16  17
ENDBRANCH  15  16
ENDBRANCH  14  15
ENDBRANCH  13  14
ENDBRANCH  12  13
ENDBRANCH  10  11
ENDBRANCH   1  10
TORSDOF 13
ENDMDL
MODEL 5
REMARK VINA RESULT:    -3.847      1.299      3.392
REMARK INTER + INTRA:          -9.078
REMARK INTER:                  -6.867
REMARK INTRA:                  -2.211
REMARK UNBOUND:                -2.307
REMARK SMILES CCCCCCC=CCCCCCCCC(=O)[O-]
REMARK SMILES IDX 10 1 11 2 12 3 13 4 14 5 15 6 16 7 17 8 18 9 9 10 8 11 7 12
REMARK SMILES IDX 6 13 5 14 4 15 3 16 2 17 1 18
REMARK H PARENT
REMARK Flexibility Score: inf
ROOT
ATOM      1  C   UNL     1      -1.579  -6.583   7.626  1.00  0.00     0.004 C 
ENDROOT
BRANCH   1   2
ATOM      2  C   UNL     1      -0.698  -5.383   7.224  1.00  0.00     0.000 C 
BRANCH   2   3
ATOM      3  C   UNL     1      -1.394  -4.329   6.344  1.00  0.00     0.000 C 
BRANCH   3   4
ATOM      4  C   UNL     1      -2.730  -3.850   6.928  1.00  0.00     0.000 C 
BRANCH   4   5
ATOM      5  C   UNL     1      -3.911  -4.372   6.096  1.00  0.00     0.006 C 
BRANCH   5   6
ATOM      6  C   UNL     1      -4.627  -3.250   5.333  1.00  0.00     0.053 C 
BRANCH   6   7
ATOM      7  C   UNL     1      -6.075  -3.161   5.709  1.00  0.00     0.041 C 
ATOM      8  O   UNL     1      -6.407  -2.845   6.883  1.00  0.00    -0.550 OA
ATOM      9  O   UNL     1      -7.057  -3.395   4.756  1.00  0.00    -0.550 OA
ENDBRANCH   6   7
ENDBRANCH   5   6
ENDBRANCH   4   5
ENDBRANCH   3   4
ENDBRANCH   2   3
ENDBRANCH   1   2
BRANCH   1  10
ATOM     10  C   UNL     1      -1.018  -7.955   7.215  1.00  0.00     0.027 C 
BRANCH  10  11
ATOM     11  C   UNL     1       0.446  -8.097   7.554  1.00  0.00    -0.031 C 
ATOM     12  C   UNL     1       1.423  -8.310   6.653  1.00  0.00    -0.031 C 
BRANCH  12  13
ATOM     13  C   UNL     1       1.220  -8.345   5.160  1.00  0.00     0.027 C 
BRANCH  13  14
ATOM     14  C   UNL     1       1.399  -6.945   4.555  1.00  0.00     0.004 C 
BRANCH  14  15
ATOM     15  C   UNL     1       0.324  -6.606   3.507  1.00  0.00     0.000 C 
BRANCH  15  16
ATOM     16  C   UNL     1      -0.933  -7.499   3.552  1.00  0.00    -0.000 C 
BRANCH  16  17
ATOM     17  C   UNL     1      -2.250  -6.753   3.830  1.00  0.00    -0.003 C 
ATOM     18  C   UNL     1      -2.550  -5.669   2.795  1.00  0.00     0.004 C 
ENDBRANCH  16  17
ENDBRANCH  15  16
ENDBRANCH  14  15
ENDBRANCH  13  14
ENDBRANCH  12  13
ENDBRANCH  10  11
ENDBRANCH   1  10
TORSDOF 13
ENDMDL
MODEL 6
REMARK VINA RESULT:    -3.820      4.046      6.777
REMARK INTER + INTRA:          -9.030
REMARK INTER:                  -7.376
REMARK INTRA:                  -1.655
REMARK UNBOUND:                -2.307
REMARK SMILES CCCCCCC=CCCCCCCCC(=O)[O-]
REMARK SMILES IDX 10 1 11 2 12 3 13 4 14 5 15 6 16 7 17 8 18 9 9 10 8 11 7 12
REMARK SMILES IDX 6 13 5 14 4 15 3 16 2 17 1 18
REMARK H PARENT
REMARK Flexibility Score: inf
ROOT
ATOM      1  C   UNL     1      -2.334  -4.384   0.764  1.00  0.00     0.004 C 
ENDROOT
BRANCH   1   2
ATOM      2  C   UNL     1      -3.075  -5.218   1.829  1.00  0.00     0.000 C 
BRANCH   2   3
ATOM      3  C   UNL     1      -2.297  -5.443   3.139  1.00  0.00     0.000 C 
BRANCH   3   4
ATOM      4  C   UNL     1      -3.118  -5.093   4.389  1.00  0.00     0.000 C 
BRANCH   4   5
ATOM      5  C   UNL     1      -3.882  -3.775   4.193  1.00  0.00     0.006 C 
BRANCH   5   6
ATOM      6  C   UNL     1      -5.286  -3.819   4.809  1.00  0.00     0.053 C 
BRANCH   6   7
ATOM      7  C   UNL     1      -5.306  -3.229   6.186  1.00  0.00     0.041 C 
ATOM      8  O   UNL     1      -4.251  -2.763   6.692  1.00  0.00    -0.550 OA
ATOM      9  O   UNL     1      -6.497  -3.163   6.897  1.00  0.00    -0.550 OA
ENDBRANCH   6   7
ENDBRANCH   5   6
ENDBRANCH   4   5
ENDBRANCH   3   4
ENDBRANCH   2   3
ENDBRANCH   1   2
BRANCH   1  10
ATOM     10  C   UNL     1      -1.480  -5.208  -0.214  1.00  0.00     0.027 C 
BRANCH  10  11
ATOM     11  C   UNL     1      -1.615  -4.722  -1.637  1.00  0.00    -0.031 C 
ATOM     12  C   UNL     1      -2.245  -5.393  -2.619  1.00  0.00    -0.031 C 
BRANCH  12  13
ATOM     13  C   UNL     1      -2.994  -6.687  -2.428  1.00  0.00     0.027 C 
BRANCH  13  14
ATOM     14  C   UNL     1      -4.391  -6.424  -1.847  1.00  0.00     0.004 C 
BRANCH  14  15
ATOM     15  C   UNL     1      -5.392  -5.923  -2.903  1.00  0.00     0.000 C 
BRANCH  15  16
ATOM     16  C   UNL     1      -5.903  -4.484  -2.685  1.00  0.00    -0.000 C 
BRANCH  16  17
ATOM     17  C   UNL     1      -5.366  -3.790  -1.421  1.00  0.00    -0.003 C 
ATOM     18  C   UNL     1      -4.580  -2.516  -1.729  1.00  0.00     0.004 C 
ENDBRANCH  16  17
ENDBRANCH  15  16
ENDBRANCH  14  15
ENDBRANCH  13  14
ENDBRANCH  12  13
ENDBRANCH  10  11
ENDBRANCH   1  10
TORSDOF 13
ENDMDL
MODEL 7
REMARK VINA RESULT:    -3.819      4.717      7.708
REMARK INTER + INTRA:          -9.028
REMARK INTER:                  -7.780
REMARK INTRA:                  -1.248
REMARK UNBOUND:                -2.307
REMARK SMILES CCCCCCC=CCCCCCCCC(=O)[O-]
REMARK SMILES IDX 10 1 11 2 12 3 13 4 14 5 15 6 16 7 17 8 18 9 9 10 8 11 7 12
REMARK SMILES IDX 6 13 5 14 4 15 3 16 2 17 1 18
REMARK H PARENT
REMARK Flexibility Score: inf
ROOT
ATOM      1  C   UNL     1      -3.277  -4.388   2.917  1.00  0.00     0.004 C 
ENDROOT
BRANCH   1   2
ATOM      2  C   UNL     1      -3.288  -4.960   4.349  1.00  0.00     0.000 C 
BRANCH   2   3
ATOM      3  C   UNL     1      -1.901  -5.128   4.996  1.00  0.00     0.000 C 
BRANCH   3   4
ATOM      4  C   UNL     1      -1.652  -6.550   5.517  1.00  0.00     0.000 C 
BRANCH   4   5
ATOM      5  C   UNL     1      -1.044  -7.438   4.422  1.00  0.00     0.006 C 
BRANCH   5   6
ATOM      6  C   UNL     1      -0.104  -8.507   4.993  1.00  0.00     0.053 C 
BRANCH   6   7
ATOM      7  C   UNL     1       1.329  -8.075   4.931  1.00  0.00     0.041 C 
ATOM      8  O   UNL     1       1.623  -6.901   4.583  1.00  0.00    -0.550 OA
ATOM      9  O   UNL     1       2.338  -8.960   5.287  1.00  0.00    -0.550 OA
ENDBRANCH   6   7
ENDBRANCH   5   6
ENDBRANCH   4   5
ENDBRANCH   3   4
ENDBRANCH   2   3
ENDBRANCH   1   2
BRANCH   1  10
ATOM     10  C   UNL     1      -2.928  -5.410   1.822  1.00  0.00     0.027 C 
BRANCH  10  11
ATOM     11  C   UNL     1      -1.531  -5.216   1.285  1.00  0.00    -0.031 C 
ATOM     12  C   UNL     1      -1.238  -4.885   0.014  1.00  0.00    -0.031 C 
BRANCH  12  13
ATOM     13  C   UNL     1      -2.261  -4.564  -1.045  1.00  0.00     0.027 C 
BRANCH  13  14
ATOM     14  C   UNL     1      -1.999  -5.381  -2.319  1.00  0.00     0.004 C 
BRANCH  14  15
ATOM     15  C   UNL     1      -3.017  -6.518  -2.518  1.00  0.00     0.000 C 
BRANCH  15  16
ATOM     16  C   UNL     1      -4.341  -6.350  -1.744  1.00  0.00    -0.000 C 
BRANCH  16  17
ATOM     17  C   UNL     1      -5.614  -6.517  -2.592  1.00  0.00    -0.003 C 
ATOM     18  C   UNL     1      -5.918  -5.295  -3.457  1.00  0.00     0.004 C 
ENDBRANCH  16  17
ENDBRANCH  15  16
ENDBRANCH  14  15
ENDBRANCH  13  14
ENDBRANCH  12  13
ENDBRANCH  10  11
ENDBRANCH   1  10
TORSDOF 13
ENDMDL
MODEL 8
REMARK VINA RESULT:    -3.809     12.167     13.815
REMARK INTER + INTRA:          -9.011
REMARK INTER:                  -7.391
REMARK INTRA:                  -1.619
REMARK UNBOUND:                -2.307
REMARK SMILES CCCCCCC=CCCCCCCCC(=O)[O-]
REMARK SMILES IDX 10 1 11 2 12 3 13 4 14 5 15 6 16 7 17 8 18 9 9 10 8 11 7 12
REMARK SMILES IDX 6 13 5 14 4 15 3 16 2 17 1 18
REMARK H PARENT
REMARK Flexibility Score: inf
ROOT
ATOM      1  C   UNL     1       1.107   4.439  -0.605  1.00  0.00     0.004 C 
ENDROOT
BRANCH   1   2
ATOM      2  C   UNL     1       1.275   5.401   0.589  1.00  0.00     0.000 C 
BRANCH   2   3
ATOM      3  C   UNL     1       2.606   5.270   1.351  1.00  0.00     0.000 C 
BRANCH   3   4
ATOM      4  C   UNL     1       2.545   5.859   2.767  1.00  0.00     0.000 C 
BRANCH   4   5
ATOM      5  C   UNL     1       1.178   6.505   3.035  1.00  0.00     0.006 C 
BRANCH   5   6
ATOM      6  C   UNL     1       1.124   7.210   4.396  1.00  0.00     0.053 C 
BRANCH   6   7
ATOM      7  C   UNL     1      -0.224   7.812   4.655  1.00  0.00     0.041 C 
ATOM      8  O   UNL     1      -1.261   7.101   4.583  1.00  0.00    -0.550 OA
ATOM      9  O   UNL     1      -0.331   9.151   5.007  1.00  0.00    -0.550 OA
ENDBRANCH   6   7
ENDBRANCH   5   6
ENDBRANCH   4   5
ENDBRANCH   3   4
ENDBRANCH   2   3
ENDBRANCH   1   2
BRANCH   1  10
ATOM     10  C   UNL     1       2.282   4.441  -1.598  1.00  0.00     0.027 C 
BRANCH  10  11
ATOM     11  C   UNL     1       2.285   5.670  -2.475  1.00  0.00    -0.031 C 
ATOM     12  C   UNL     1       3.231   6.627  -2.450  1.00  0.00    -0.031 C 
BRANCH  12  13
ATOM     13  C   UNL     1       4.482   6.572  -1.610  1.00  0.00     0.027 C 
BRANCH  13  14
ATOM     14  C   UNL     1       5.722   6.870  -2.465  1.00  0.00     0.004 C 
BRANCH  14  15
ATOM     15  C   UNL     1       6.483   5.596  -2.875  1.00  0.00     0.000 C 
BRANCH  15  16
ATOM     16  C   UNL     1       6.530   4.491  -1.800  1.00  0.00    -0.000 C 
BRANCH  16  17
ATOM     17  C   UNL     1       5.739   3.217  -2.145  1.00  0.00    -0.003 C 
ATOM     18  C   UNL     1       5.184   3.227  -3.569  1.00  0.00     0.004 C 
ENDBRANCH  16  17
ENDBRANCH  15  16
ENDBRANCH  14  15
ENDBRANCH  13  14
ENDBRANCH  12  13
ENDBRANCH  10  11
ENDBRANCH   1  10
TORSDOF 13
ENDMDL
MODEL 9
REMARK VINA RESULT:    -3.783     11.797     13.920
REMARK INTER + INTRA:          -8.965
REMARK INTER:                  -7.274
REMARK INTRA:                  -1.692
REMARK UNBOUND:                -2.307
REMARK SMILES CCCCCCC=CCCCCCCCC(=O)[O-]
REMARK SMILES IDX 10 1 11 2 12 3 13 4 14 5 15 6 16 7 17 8 18 9 9 10 8 11 7 12
REMARK SMILES IDX 6 13 5 14 4 15 3 16 2 17 1 18
REMARK H PARENT
REMARK Flexibility Score: inf
ROOT
ATOM      1  C   UNL     1       1.202   4.426  -0.579  1.00  0.00     0.004 C 
ENDROOT
BRANCH   1   2
ATOM      2  C   UNL     1       1.464   5.272   0.684  1.00  0.00     0.000 C 
BRANCH   2   3
ATOM      3  C   UNL     1       2.879   5.138   1.277  1.00  0.00     0.000 C 
BRANCH   3   4
ATOM      4  C   UNL     1       2.968   5.629   2.728  1.00  0.00     0.000 C 
BRANCH   4   5
ATOM      5  C   UNL     1       2.970   4.447   3.709  1.00  0.00     0.006 C 
BRANCH   5   6
ATOM      6  C   UNL     1       3.923   4.671   4.889  1.00  0.00     0.053 C 
BRANCH   6   7
ATOM      7  C   UNL     1       5.091   3.733   4.844  1.00  0.00     0.041 C 
ATOM      8  O   UNL     1       5.037   2.686   4.146  1.00  0.00    -0.550 OA
ATOM      9  O   UNL     1       6.251   4.033   5.546  1.00  0.00    -0.550 OA
ENDBRANCH   6   7
ENDBRANCH   5   6
ENDBRANCH   4   5
ENDBRANCH   3   4
ENDBRANCH   2   3
ENDBRANCH   1   2
BRANCH   1  10
ATOM     10  C   UNL     1       2.330   4.469  -1.624  1.00  0.00     0.027 C 
BRANCH  10  11
ATOM     11  C   UNL     1       2.302   5.737  -2.441  1.00  0.00    -0.031 C 
ATOM     12  C   UNL     1       3.251   6.691  -2.409  1.00  0.00    -0.031 C 
BRANCH  12  13
ATOM     13  C   UNL     1       4.534   6.596  -1.623  1.00  0.00     0.027 C 
BRANCH  13  14
ATOM     14  C   UNL     1       5.750   6.736  -2.550  1.00  0.00     0.004 C 
BRANCH  14  15
ATOM     15  C   UNL     1       6.653   5.490  -2.541  1.00  0.00     0.000 C 
BRANCH  15  16
ATOM     16  C   UNL     1       6.084   4.278  -1.775  1.00  0.00    -0.000 C 
BRANCH  16  17
ATOM     17  C   UNL     1       5.619   3.110  -2.662  1.00  0.00    -0.003 C 
ATOM     18  C   UNL     1       5.219   3.553  -4.069  1.00  0.00     0.004 C 
ENDBRANCH  16  17
ENDBRANCH  15  16
ENDBRANCH  14  15
ENDBRANCH  13  14
ENDBRANCH  12  13
ENDBRANCH  10  11
ENDBRANCH   1  10
TORSDOF 13
ENDMDL
