MODEL 1
REMARK VINA RESULT:    -5.472      0.000      0.000
REMARK INTER + INTRA:          -6.388
REMARK INTER:                  -6.272
REMARK INTRA:                  -0.116
REMARK UNBOUND:                -0.116
REMARK SMILES COc1cc(C(C)=O)ccc1O
REMARK SMILES IDX 5 1 4 2 3 3 11 4 10 5 9 6 6 7 7 8 8 9 2 10 1 11 12 12
REMARK H PARENT 12 13
REMARK Flexibility Score: inf
ROOT
ATOM      1  C   UNL     1      20.114  46.307   9.787  1.00  0.00     0.021 A 
ATOM      2  C   UNL     1      19.192  47.194   9.198  1.00  0.00     0.062 A 
ATOM      3  C   UNL     1      19.378  47.665   7.882  1.00  0.00     0.161 A 
ATOM      4  C   UNL     1      20.503  47.239   7.154  1.00  0.00     0.157 A 
ATOM      5  C   UNL     1      21.419  46.360   7.734  1.00  0.00     0.051 A 
ATOM      6  C   UNL     1      21.231  45.896   9.037  1.00  0.00     0.016 A 
ENDROOT
BRANCH   1   7
ATOM      7  C   UNL     1      19.897  45.821  11.179  1.00  0.00     0.159 C 
ATOM      8  C   UNL     1      20.992  45.174  11.972  1.00  0.00     0.093 C 
ATOM      9  O   UNL     1      18.765  45.952  11.718  1.00  0.00    -0.295 OA
ENDBRANCH   1   7
BRANCH   3  10
ATOM     10  O   UNL     1      18.473  48.549   7.273  1.00  0.00    -0.493 OA
ATOM     11  C   UNL     1      17.677  49.500   7.972  1.00  0.00     0.278 C 
ENDBRANCH   3  10
BRANCH   4  12
ATOM     12  O   UNL     1      20.726  47.680   5.850  1.00  0.00    -0.504 OA
ATOM     13  H   UNL     1      20.226  47.297   5.057  1.00  0.00     0.293 HD
ENDBRANCH   4  12
TORSDOF 3
ENDMDL
MODEL 2
REMARK VINA RESULT:    -4.948      2.316      4.797
REMARK INTER + INTRA:          -5.787
REMARK INTER:                  -5.674
REMARK INTRA:                  -0.113
REMARK UNBOUND:                -0.116
REMARK SMILES COc1cc(C(C)=O)ccc1O
REMARK SMILES IDX 5 1 4 2 3 3 11 4 10 5 9 6 6 7 7 8 8 9 2 10 1 11 12 12
REMARK H PARENT 12 13
REMARK Flexibility Score: inf
ROOT
ATOM      1  C   UNL     1      20.341  46.769   8.259  1.00  0.00     0.021 A 
ATOM      2  C   UNL     1      21.736  46.632   8.119  1.00  0.00     0.062 A 
ATOM      3  C   UNL     1      22.467  45.766   8.958  1.00  0.00     0.161 A 
ATOM      4  C   UNL     1      21.788  45.032   9.946  1.00  0.00     0.157 A 
ATOM      5  C   UNL     1      20.405  45.165  10.088  1.00  0.00     0.051 A 
ATOM      6  C   UNL     1      19.686  46.024   9.255  1.00  0.00     0.016 A 
ENDROOT
BRANCH   1   7
ATOM      7  C   UNL     1      19.589  47.690   7.361  1.00  0.00     0.159 C 
ATOM      8  C   UNL     1      19.885  47.785   5.895  1.00  0.00     0.093 C 
ATOM      9  O   UNL     1      18.674  48.416   7.835  1.00  0.00    -0.295 OA
ENDBRANCH   1   7
BRANCH   3  10
ATOM     10  O   UNL     1      23.858  45.612   8.837  1.00  0.00    -0.493 OA
ATOM     11  C   UNL     1      24.822  46.480   9.423  1.00  0.00     0.278 C 
ENDBRANCH   3  10
BRANCH   4  12
ATOM     12  O   UNL     1      22.471  44.164  10.797  1.00  0.00    -0.504 OA
ATOM     13  H   UNL     1      22.898  43.307  10.465  1.00  0.00     0.293 HD
ENDBRANCH   4  12
TORSDOF 3
ENDMDL
MODEL 3
REMARK VINA RESULT:    -4.926      2.356      5.404
REMARK INTER + INTRA:          -5.762
REMARK INTER:                  -5.658
REMARK INTRA:                  -0.104
REMARK UNBOUND:                -0.116
REMARK SMILES COc1cc(C(C)=O)ccc1O
REMARK SMILES IDX 5 1 4 2 3 3 11 4 10 5 9 6 6 7 7 8 8 9 2 10 1 11 12 12
REMARK H PARENT 12 13
REMARK Flexibility Score: inf
ROOT
ATOM      1  C   UNL     1      20.524  45.890   9.434  1.00  0.00     0.021 A 
ATOM      2  C   UNL     1      21.673  45.097   9.623  1.00  0.00     0.062 A 
ATOM      3  C   UNL     1      22.049  44.661  10.910  1.00  0.00     0.161 A 
ATOM      4  C   UNL     1      21.262  45.026  12.016  1.00  0.00     0.157 A 
ATOM      5  C   UNL     1      20.122  45.811  11.833  1.00  0.00     0.051 A 
ATOM      6  C   UNL     1      19.754  46.241  10.558  1.00  0.00     0.016 A 
ENDROOT
BRANCH   1   7
ATOM      7  C   UNL     1      20.145  46.340   8.066  1.00  0.00     0.159 C 
ATOM      8  C   UNL     1      20.908  47.409   7.343  1.00  0.00     0.093 C 
ATOM      9  O   UNL     1      19.156  45.815   7.487  1.00  0.00    -0.295 OA
ENDBRANCH   1   7
BRANCH   3  10
ATOM     10  O   UNL     1      23.190  43.870  11.123  1.00  0.00    -0.493 OA
ATOM     11  C   UNL     1      24.513  44.240  10.751  1.00  0.00     0.278 C 
ENDBRANCH   3  10
BRANCH   4  12
ATOM     12  O   UNL     1      21.597  44.616  13.306  1.00  0.00    -0.504 OA
ATOM     13  H   UNL     1      22.532  44.725  13.682  1.00  0.00     0.293 HD
ENDBRANCH   4  12
TORSDOF 3
ENDMDL
MODEL 4
REMARK VINA RESULT:    -4.918      2.291      3.017
REMARK INTER + INTRA:          -5.752
REMARK INTER:                  -5.624
REMARK INTRA:                  -0.129
REMARK UNBOUND:                -0.116
REMARK SMILES COc1cc(C(C)=O)ccc1O
REMARK SMILES IDX 5 1 4 2 3 3 11 4 10 5 9 6 6 7 7 8 8 9 2 10 1 11 12 12
REMARK H PARENT 12 13
REMARK Flexibility Score: inf
ROOT
ATOM      1  C   UNL     1      22.290  45.451   9.605  1.00  0.00     0.021 A 
ATOM      2  C   UNL     1      20.978  45.504  10.114  1.00  0.00     0.062 A 
ATOM      3  C   UNL     1      19.967  46.219   9.439  1.00  0.00     0.161 A 
ATOM      4  C   UNL     1      20.280  46.885   8.242  1.00  0.00     0.157 A 
ATOM      5  C   UNL     1      21.580  46.835   7.733  1.00  0.00     0.051 A 
ATOM      6  C   UNL     1      22.577  46.127   8.405  1.00  0.00     0.016 A 
ENDROOT
BRANCH   1   7
ATOM      7  C   UNL     1      23.342  44.690  10.334  1.00  0.00     0.159 C 
ATOM      8  C   UNL     1      24.750  45.195  10.449  1.00  0.00     0.093 C 
ATOM      9  O   UNL     1      23.056  43.588  10.875  1.00  0.00    -0.295 OA
ENDBRANCH   1   7
BRANCH   3  10
ATOM     10  O   UNL     1      18.651  46.285   9.926  1.00  0.00    -0.493 OA
ATOM     11  C   UNL     1      18.249  47.028  11.071  1.00  0.00     0.278 C 
ENDBRANCH   3  10
BRANCH   4  12
ATOM     12  O   UNL     1      19.311  47.604   7.541  1.00  0.00    -0.504 OA
ATOM     13  H   UNL     1      18.390  47.783   7.924  1.00  0.00     0.293 HD
ENDBRANCH   4  12
TORSDOF 3
ENDMDL
MODEL 5
REMARK VINA RESULT:    -4.842      3.136      4.600
REMARK INTER + INTRA:          -5.665
REMARK INTER:                  -5.571
REMARK INTRA:                  -0.094
REMARK UNBOUND:                -0.116
REMARK SMILES COc1cc(C(C)=O)ccc1O
REMARK SMILES IDX 5 1 4 2 3 3 11 4 10 5 9 6 6 7 7 8 8 9 2 10 1 11 12 12
REMARK H PARENT 12 13
REMARK Flexibility Score: inf
ROOT
ATOM      1  C   UNL     1      23.882  45.735   9.472  1.00  0.00     0.021 A 
ATOM      2  C   UNL     1      22.895  46.096   8.535  1.00  0.00     0.062 A 
ATOM      3  C   UNL     1      21.545  45.741   8.731  1.00  0.00     0.161 A 
ATOM      4  C   UNL     1      21.186  45.016   9.881  1.00  0.00     0.157 A 
ATOM      5  C   UNL     1      22.162  44.656  10.813  1.00  0.00     0.051 A 
ATOM      6  C   UNL     1      23.497  45.009  10.614  1.00  0.00     0.016 A 
ENDROOT
BRANCH   1   7
ATOM      7  C   UNL     1      25.303  46.120   9.244  1.00  0.00     0.159 C 
ATOM      8  C   UNL     1      26.154  45.439   8.214  1.00  0.00     0.093 C 
ATOM      9  O   UNL     1      25.818  47.044   9.929  1.00  0.00    -0.295 OA
ENDBRANCH   1   7
BRANCH   3  10
ATOM     10  O   UNL     1      20.542  46.090   7.812  1.00  0.00    -0.493 OA
ATOM     11  C   UNL     1      20.525  47.293   7.052  1.00  0.00     0.278 C 
ENDBRANCH   3  10
BRANCH   4  12
ATOM     12  O   UNL     1      19.862  44.644  10.116  1.00  0.00    -0.504 OA
ATOM     13  H   UNL     1      19.587  44.118  10.936  1.00  0.00     0.293 HD
ENDBRANCH   4  12
TORSDOF 3
ENDMDL
MODEL 6
REMARK VINA RESULT:    -4.782      2.604      4.884
REMARK INTER + INTRA:          -5.596
REMARK INTER:                  -5.464
REMARK INTRA:                  -0.132
REMARK UNBOUND:                -0.116
REMARK SMILES COc1cc(C(C)=O)ccc1O
REMARK SMILES IDX 5 1 4 2 3 3 11 4 10 5 9 6 6 7 7 8 8 9 2 10 1 11 12 12
REMARK H PARENT 12 13
REMARK Flexibility Score: inf
ROOT
ATOM      1  C   UNL     1      21.196  45.874   8.574  1.00  0.00     0.021 A 
ATOM      2  C   UNL     1      21.044  45.219   9.811  1.00  0.00     0.062 A 
ATOM      3  C   UNL     1      22.164  44.912  10.611  1.00  0.00     0.161 A 
ATOM      4  C   UNL     1      23.448  45.267  10.160  1.00  0.00     0.157 A 
ATOM      5  C   UNL     1      23.603  45.917   8.935  1.00  0.00     0.051 A 
ATOM      6  C   UNL     1      22.491  46.218   8.146  1.00  0.00     0.016 A 
ENDROOT
BRANCH   1   7
ATOM      7  C   UNL     1      19.999  46.189   7.745  1.00  0.00     0.159 C 
ATOM      8  C   UNL     1      19.927  47.420   6.893  1.00  0.00     0.093 C 
ATOM      9  O   UNL     1      19.011  45.406   7.751  1.00  0.00    -0.295 OA
ENDBRANCH   1   7
BRANCH   3  10
ATOM     10  O   UNL     1      22.039  44.260  11.848  1.00  0.00    -0.493 OA
ATOM     11  C   UNL     1      21.605  44.885  13.052  1.00  0.00     0.278 C 
ENDBRANCH   3  10
BRANCH   4  12
ATOM     12  O   UNL     1      24.583  44.983  10.919  1.00  0.00    -0.504 OA
ATOM     13  H   UNL     1      25.514  44.989  10.521  1.00  0.00     0.293 HD
ENDBRANCH   4  12
TORSDOF 3
ENDMDL
MODEL 7
REMARK VINA RESULT:    -4.689      2.360      3.830
REMARK INTER + INTRA:          -5.490
REMARK INTER:                  -5.381
REMARK INTRA:                  -0.108
REMARK UNBOUND:                -0.116
REMARK SMILES COc1cc(C(C)=O)ccc1O
REMARK SMILES IDX 5 1 4 2 3 3 11 4 10 5 9 6 6 7 7 8 8 9 2 10 1 11 12 12
REMARK H PARENT 12 13
REMARK Flexibility Score: inf
ROOT
ATOM      1  C   UNL     1      22.119  44.827  11.220  1.00  0.00     0.021 A 
ATOM      2  C   UNL     1      21.958  45.102   9.848  1.00  0.00     0.062 A 
ATOM      3  C   UNL     1      20.803  45.757   9.371  1.00  0.00     0.161 A 
ATOM      4  C   UNL     1      19.804  46.137  10.284  1.00  0.00     0.157 A 
ATOM      5  C   UNL     1      19.960  45.866  11.644  1.00  0.00     0.051 A 
ATOM      6  C   UNL     1      21.103  45.217  12.112  1.00  0.00     0.016 A 
ENDROOT
BRANCH   1   7
ATOM      7  C   UNL     1      23.346  44.134  11.702  1.00  0.00     0.159 C 
ATOM      8  C   UNL     1      24.389  43.618  10.756  1.00  0.00     0.093 C 
ATOM      9  O   UNL     1      23.527  43.969  12.939  1.00  0.00    -0.295 OA
ENDBRANCH   1   7
BRANCH   3  10
ATOM     10  O   UNL     1      20.620  46.043   8.009  1.00  0.00    -0.493 OA
ATOM     11  C   UNL     1      21.083  47.223   7.360  1.00  0.00     0.278 C 
ENDBRANCH   3  10
BRANCH   4  12
ATOM     12  O   UNL     1      18.646  46.787   9.855  1.00  0.00    -0.504 OA
ATOM     13  H   UNL     1      17.925  47.087  10.501  1.00  0.00     0.293 HD
ENDBRANCH   4  12
TORSDOF 3
ENDMDL
MODEL 8
REMARK VINA RESULT:    -4.625      9.769     11.540
REMARK INTER + INTRA:          -5.417
REMARK INTER:                  -5.295
REMARK INTRA:                  -0.122
REMARK UNBOUND:                -0.116
REMARK SMILES COc1cc(C(C)=O)ccc1O
REMARK SMILES IDX 5 1 4 2 3 3 11 4 10 5 9 6 6 7 7 8 8 9 2 10 1 11 12 12
REMARK H PARENT 12 13
REMARK Flexibility Score: inf
ROOT
ATOM      1  C   UNL     1      25.864  38.723   3.276  1.00  0.00     0.021 A 
ATOM      2  C   UNL     1      26.236  39.495   2.157  1.00  0.00     0.062 A 
ATOM      3  C   UNL     1      26.014  40.887   2.131  1.00  0.00     0.161 A 
ATOM      4  C   UNL     1      25.412  41.507   3.240  1.00  0.00     0.157 A 
ATOM      5  C   UNL     1      25.042  40.746   4.351  1.00  0.00     0.051 A 
ATOM      6  C   UNL     1      25.263  39.368   4.372  1.00  0.00     0.016 A 
ENDROOT
BRANCH   1   7
ATOM      7  C   UNL     1      26.108  37.254   3.282  1.00  0.00     0.159 C 
ATOM      8  C   UNL     1      26.889  36.585   4.373  1.00  0.00     0.093 C 
ATOM      9  O   UNL     1      25.651  36.539   2.349  1.00  0.00    -0.295 OA
ENDBRANCH   1   7
BRANCH   3  10
ATOM     10  O   UNL     1      26.376  41.677   1.029  1.00  0.00    -0.493 OA
ATOM     11  C   UNL     1      27.717  41.934   0.623  1.00  0.00     0.278 C 
ENDBRANCH   3  10
BRANCH   4  12
ATOM     12  O   UNL     1      25.173  42.881   3.257  1.00  0.00    -0.504 OA
ATOM     13  H   UNL     1      25.876  43.547   3.555  1.00  0.00     0.293 HD
ENDBRANCH   4  12
TORSDOF 3
ENDMDL
MODEL 9
REMARK VINA RESULT:    -4.521      3.242      5.307
REMARK INTER + INTRA:          -5.297
REMARK INTER:                  -5.184
REMARK INTRA:                  -0.113
REMARK UNBOUND:                -0.116
REMARK SMILES COc1cc(C(C)=O)ccc1O
REMARK SMILES IDX 5 1 4 2 3 3 11 4 10 5 9 6 6 7 7 8 8 9 2 10 1 11 12 12
REMARK H PARENT 12 13
REMARK Flexibility Score: inf
ROOT
ATOM      1  C   UNL     1      21.488  45.815   8.816  1.00  0.00     0.021 A 
ATOM      2  C   UNL     1      22.819  46.116   8.467  1.00  0.00     0.062 A 
ATOM      3  C   UNL     1      23.891  45.735   9.300  1.00  0.00     0.161 A 
ATOM      4  C   UNL     1      23.620  45.046  10.495  1.00  0.00     0.157 A 
ATOM      5  C   UNL     1      22.302  44.746  10.845  1.00  0.00     0.051 A 
ATOM      6  C   UNL     1      21.245  45.125  10.018  1.00  0.00     0.016 A 
ENDROOT
BRANCH   1   7
ATOM      7  C   UNL     1      20.371  46.227   7.921  1.00  0.00     0.159 C 
ATOM      8  C   UNL     1      20.506  47.370   6.960  1.00  0.00     0.093 C 
ATOM      9  O   UNL     1      19.275  45.606   7.962  1.00  0.00    -0.295 OA
ENDBRANCH   1   7
BRANCH   3  10
ATOM     10  O   UNL     1      25.226  46.023   8.973  1.00  0.00    -0.493 OA
ATOM     11  C   UNL     1      26.040  45.226   8.119  1.00  0.00     0.278 C 
ENDBRANCH   3  10
BRANCH   4  12
ATOM     12  O   UNL     1      24.650  44.650  11.349  1.00  0.00    -0.504 OA
ATOM     13  H   UNL     1      25.423  44.077  11.032  1.00  0.00     0.293 HD
ENDBRANCH   4  12
TORSDOF 3
ENDMDL
