MODEL 1
REMARK VINA RESULT:    -5.762      0.000      0.000
REMARK INTER + INTRA:          -6.231
REMARK INTER:                  -6.772
REMARK INTRA:                   0.541
REMARK UNBOUND:                 0.541
REMARK SMILES O=c1c(O)c(-c2ccc(O)c(O)c2)oc2cc(O)ccc12
REMARK SMILES IDX 5 1 3 2 2 3 1 4 21 5 15 6 14 7 16 8 17 9 19 10 20 11 6 12
REMARK SMILES IDX 7 13 8 14 9 15 13 16 11 17 10 18 12 20 4 22 18 24
REMARK H PARENT 10 19 12 21 4 23 18 25
REMARK Flexibility Score: inf
ROOT
ATOM      1  C   UNL     1      -1.942 -11.519  -4.939  1.00  0.00     0.180 A 
ATOM      2  C   UNL     1      -1.822 -11.631  -3.538  1.00  0.00     0.208 A 
ATOM      3  C   UNL     1      -0.545 -11.790  -2.979  1.00  0.00     0.235 A 
ATOM      4  O   UNL     1      -0.410 -11.882  -1.728  1.00  0.00    -0.285 OA
ATOM      5  C   UNL     1       0.575 -11.853  -3.823  1.00  0.00     0.069 A 
ATOM      6  C   UNL     1       0.369 -11.755  -5.216  1.00  0.00     0.142 A 
ATOM      7  O   UNL     1      -0.856 -11.598  -5.704  1.00  0.00    -0.452 OA
ATOM      8  C   UNL     1       1.459 -11.824  -6.090  1.00  0.00     0.094 A 
ATOM      9  C   UNL     1       2.756 -11.985  -5.592  1.00  0.00     0.119 A 
ATOM     10  C   UNL     1       2.964 -12.080  -4.209  1.00  0.00     0.047 A 
ATOM     11  C   UNL     1       1.881 -12.015  -3.327  1.00  0.00     0.020 A 
ENDROOT
BRANCH   1  12
ATOM     12  C   UNL     1      -3.252 -11.331  -5.604  1.00  0.00     0.025 A 
ATOM     13  C   UNL     1      -3.372 -11.354  -7.002  1.00  0.00     0.016 A 
ATOM     14  C   UNL     1      -4.623 -11.198  -7.605  1.00  0.00     0.051 A 
ATOM     15  C   UNL     1      -5.774 -11.030  -6.828  1.00  0.00     0.157 A 
ATOM     16  C   UNL     1      -4.408 -11.184  -4.822  1.00  0.00     0.062 A 
ATOM     17  C   UNL     1      -5.667 -11.028  -5.418  1.00  0.00     0.158 A 
BRANCH  15  18
ATOM     18  O   UNL     1      -6.992 -10.875  -7.493  1.00  0.00    -0.504 OA
ATOM     19  H   UNL     1      -7.439  -9.983  -7.652  1.00  0.00     0.293 HD
ENDBRANCH  15  18
BRANCH  17  20
ATOM     20  O   UNL     1      -6.771 -10.875  -4.577  1.00  0.00    -0.504 OA
ATOM     21  H   UNL     1      -6.713 -10.847  -3.569  1.00  0.00     0.293 HD
ENDBRANCH  17  20
ENDBRANCH   1  12
BRANCH   2  22
ATOM     22  O   UNL     1      -2.960 -11.615  -2.727  1.00  0.00    -0.502 OA
ATOM     23  H   UNL     1      -3.223 -10.804  -2.180  1.00  0.00     0.293 HD
ENDBRANCH   2  22
BRANCH   9  24
ATOM     24  O   UNL     1       3.829 -12.051  -6.477  1.00  0.00    -0.508 OA
ATOM     25  H   UNL     1       4.016 -11.308  -7.139  1.00  0.00     0.293 HD
ENDBRANCH   9  24
TORSDOF 5
ENDMDL
MODEL 2
REMARK VINA RESULT:    -5.311     13.452     16.317
REMARK INTER + INTRA:          -5.701
REMARK INTER:                  -5.376
REMARK INTRA:                  -0.324
REMARK UNBOUND:                 0.541
REMARK SMILES O=c1c(O)c(-c2ccc(O)c(O)c2)oc2cc(O)ccc12
REMARK SMILES IDX 5 1 3 2 2 3 1 4 21 5 15 6 14 7 16 8 17 9 19 10 20 11 6 12
REMARK SMILES IDX 7 13 8 14 9 15 13 16 11 17 10 18 12 20 4 22 18 24
REMARK H PARENT 10 19 12 21 4 23 18 25
REMARK Flexibility Score: inf
ROOT
ATOM      1  C   UNL     1     -13.135 -14.128 -16.296  1.00  0.00     0.180 A 
ATOM      2  C   UNL     1     -13.715 -13.066 -17.022  1.00  0.00     0.208 A 
ATOM      3  C   UNL     1     -12.914 -11.970 -17.374  1.00  0.00     0.235 A 
ATOM      4  O   UNL     1     -13.406 -11.014 -18.033  1.00  0.00    -0.285 OA
ATOM      5  C   UNL     1     -11.566 -11.946 -16.981  1.00  0.00     0.069 A 
ATOM      6  C   UNL     1     -11.067 -13.036 -16.236  1.00  0.00     0.142 A 
ATOM      7  O   UNL     1     -11.857 -14.058 -15.930  1.00  0.00    -0.452 OA
ATOM      8  C   UNL     1      -9.732 -13.043 -15.816  1.00  0.00     0.094 A 
ATOM      9  C   UNL     1      -8.886 -11.976 -16.134  1.00  0.00     0.119 A 
ATOM     10  C   UNL     1      -9.378 -10.894 -16.876  1.00  0.00     0.047 A 
ATOM     11  C   UNL     1     -10.710 -10.875 -17.298  1.00  0.00     0.020 A 
ENDROOT
BRANCH   1  12
ATOM     12  C   UNL     1     -13.910 -15.327 -15.902  1.00  0.00     0.025 A 
ATOM     13  C   UNL     1     -13.987 -16.453 -16.737  1.00  0.00     0.016 A 
ATOM     14  C   UNL     1     -14.704 -17.582 -16.333  1.00  0.00     0.051 A 
ATOM     15  C   UNL     1     -15.344 -17.614 -15.090  1.00  0.00     0.157 A 
ATOM     16  C   UNL     1     -14.533 -15.365 -14.646  1.00  0.00     0.062 A 
ATOM     17  C   UNL     1     -15.254 -16.493 -14.232  1.00  0.00     0.158 A 
BRANCH  15  18
ATOM     18  O   UNL     1     -16.049 -18.771 -14.749  1.00  0.00    -0.504 OA
ATOM     19  H   UNL     1     -15.774 -19.702 -15.029  1.00  0.00     0.293 HD
ENDBRANCH  15  18
BRANCH  17  20
ATOM     20  O   UNL     1     -15.858 -16.455 -12.974  1.00  0.00    -0.504 OA
ATOM     21  H   UNL     1     -15.406 -16.755 -12.122  1.00  0.00     0.293 HD
ENDBRANCH  17  20
ENDBRANCH   1  12
BRANCH   2  22
ATOM     22  O   UNL     1     -15.071 -13.096 -17.357  1.00  0.00    -0.502 OA
ATOM     23  H   UNL     1     -15.475 -13.840 -17.914  1.00  0.00     0.293 HD
ENDBRANCH   2  22
BRANCH   9  24
ATOM     24  O   UNL     1      -7.559 -12.000 -15.709  1.00  0.00    -0.508 OA
ATOM     25  H   UNL     1      -7.246 -12.640 -14.989  1.00  0.00     0.293 HD
ENDBRANCH   9  24
TORSDOF 5
ENDMDL
MODEL 3
REMARK VINA RESULT:    -5.019      1.754      3.417
REMARK INTER + INTRA:          -5.357
REMARK INTER:                  -5.433
REMARK INTRA:                   0.075
REMARK UNBOUND:                 0.541
REMARK SMILES O=c1c(O)c(-c2ccc(O)c(O)c2)oc2cc(O)ccc12
REMARK SMILES IDX 5 1 3 2 2 3 1 4 21 5 15 6 14 7 16 8 17 9 19 10 20 11 6 12
REMARK SMILES IDX 7 13 8 14 9 15 13 16 11 17 10 18 12 20 4 22 18 24
REMARK H PARENT 10 19 12 21 4 23 18 25
REMARK Flexibility Score: inf
ROOT
ATOM      1  C   UNL     1      -3.319 -11.566  -5.181  1.00  0.00     0.180 A 
ATOM      2  C   UNL     1      -2.346 -11.253  -6.153  1.00  0.00     0.208 A 
ATOM      3  C   UNL     1      -0.991 -11.298  -5.794  1.00  0.00     0.235 A 
ATOM      4  O   UNL     1      -0.102 -11.033  -6.648  1.00  0.00    -0.285 OA
ATOM      5  C   UNL     1      -0.637 -11.634  -4.477  1.00  0.00     0.069 A 
ATOM      6  C   UNL     1      -1.670 -11.911  -3.557  1.00  0.00     0.142 A 
ATOM      7  O   UNL     1      -2.941 -11.865  -3.939  1.00  0.00    -0.452 OA
ATOM      8  C   UNL     1      -1.358 -12.239  -2.233  1.00  0.00     0.094 A 
ATOM      9  C   UNL     1      -0.025 -12.296  -1.815  1.00  0.00     0.119 A 
ATOM     10  C   UNL     1       1.004 -12.023  -2.727  1.00  0.00     0.047 A 
ATOM     11  C   UNL     1       0.703 -11.693  -4.052  1.00  0.00     0.020 A 
ENDROOT
BRANCH   1  12
ATOM     12  C   UNL     1      -4.768 -11.559  -5.486  1.00  0.00     0.025 A 
ATOM     13  C   UNL     1      -5.685 -10.888  -4.663  1.00  0.00     0.016 A 
ATOM     14  C   UNL     1      -7.044 -10.875  -4.985  1.00  0.00     0.051 A 
ATOM     15  C   UNL     1      -7.511 -11.517  -6.136  1.00  0.00     0.157 A 
ATOM     16  C   UNL     1      -5.230 -12.185  -6.654  1.00  0.00     0.062 A 
ATOM     17  C   UNL     1      -6.592 -12.177  -6.985  1.00  0.00     0.158 A 
BRANCH  15  18
ATOM     18  O   UNL     1      -8.882 -11.471  -6.399  1.00  0.00    -0.504 OA
ATOM     19  H   UNL     1      -9.285 -11.049  -7.223  1.00  0.00     0.293 HD
ENDBRANCH  15  18
BRANCH  17  20
ATOM     20  O   UNL     1      -6.981 -12.832  -8.156  1.00  0.00    -0.504 OA
ATOM     21  H   UNL     1      -6.641 -12.591  -9.076  1.00  0.00     0.293 HD
ENDBRANCH  17  20
ENDBRANCH   1  12
BRANCH   2  22
ATOM     22  O   UNL     1      -2.731 -10.875  -7.442  1.00  0.00    -0.502 OA
ATOM     23  H   UNL     1      -2.263 -10.135  -7.952  1.00  0.00     0.293 HD
ENDBRANCH   2  22
BRANCH   9  24
ATOM     24  O   UNL     1       0.268 -12.625  -0.493  1.00  0.00    -0.508 OA
ATOM     25  H   UNL     1      -0.254 -12.228   0.279  1.00  0.00     0.293 HD
ENDBRANCH   9  24
TORSDOF 5
ENDMDL
MODEL 4
REMARK VINA RESULT:    -4.812      1.973      3.740
REMARK INTER + INTRA:          -5.114
REMARK INTER:                  -5.574
REMARK INTRA:                   0.460
REMARK UNBOUND:                 0.541
REMARK SMILES O=c1c(O)c(-c2ccc(O)c(O)c2)oc2cc(O)ccc12
REMARK SMILES IDX 5 1 3 2 2 3 1 4 21 5 15 6 14 7 16 8 17 9 19 10 20 11 6 12
REMARK SMILES IDX 7 13 8 14 9 15 13 16 11 17 10 18 12 20 4 22 18 24
REMARK H PARENT 10 19 12 21 4 23 18 25
REMARK Flexibility Score: inf
ROOT
ATOM      1  C   UNL     1      -0.029 -11.751  -4.051  1.00  0.00     0.180 A 
ATOM      2  C   UNL     1       1.202 -11.908  -4.722  1.00  0.00     0.208 A 
ATOM      3  C   UNL     1       2.357 -12.158  -3.967  1.00  0.00     0.235 A 
ATOM      4  O   UNL     1       3.468 -12.313  -4.544  1.00  0.00    -0.285 OA
ATOM      5  C   UNL     1       2.265 -12.225  -2.568  1.00  0.00     0.069 A 
ATOM      6  C   UNL     1       1.001 -12.034  -1.970  1.00  0.00     0.142 A 
ATOM      7  O   UNL     1      -0.070 -11.808  -2.721  1.00  0.00    -0.452 OA
ATOM      8  C   UNL     1       0.871 -12.083  -0.578  1.00  0.00     0.094 A 
ATOM      9  C   UNL     1       1.988 -12.325   0.228  1.00  0.00     0.119 A 
ATOM     10  C   UNL     1       3.245 -12.518  -0.363  1.00  0.00     0.047 A 
ATOM     11  C   UNL     1       3.386 -12.468  -1.753  1.00  0.00     0.020 A 
ENDROOT
BRANCH   1  12
ATOM     12  C   UNL     1      -1.295 -11.503  -4.778  1.00  0.00     0.025 A 
ATOM     13  C   UNL     1      -1.350 -11.525  -6.180  1.00  0.00     0.016 A 
ATOM     14  C   UNL     1      -2.561 -11.312  -6.842  1.00  0.00     0.051 A 
ATOM     15  C   UNL     1      -3.738 -11.086  -6.123  1.00  0.00     0.157 A 
ATOM     16  C   UNL     1      -2.479 -11.298  -4.052  1.00  0.00     0.062 A 
ATOM     17  C   UNL     1      -3.699 -11.084  -4.709  1.00  0.00     0.158 A 
BRANCH  15  18
ATOM     18  O   UNL     1      -4.914 -10.875  -6.845  1.00  0.00    -0.504 OA
ATOM     19  H   UNL     1      -4.946 -10.743  -7.846  1.00  0.00     0.293 HD
ENDBRANCH  15  18
BRANCH  17  20
ATOM     20  O   UNL     1      -4.834 -10.876  -3.922  1.00  0.00    -0.504 OA
ATOM     21  H   UNL     1      -5.779 -11.026  -4.244  1.00  0.00     0.293 HD
ENDBRANCH  17  20
ENDBRANCH   1  12
BRANCH   2  22
ATOM     22  O   UNL     1       1.270 -11.786  -6.113  1.00  0.00    -0.502 OA
ATOM     23  H   UNL     1       1.270 -12.592  -6.727  1.00  0.00     0.293 HD
ENDBRANCH   2  22
BRANCH   9  24
ATOM     24  O   UNL     1       1.841 -12.372   1.613  1.00  0.00    -0.508 OA
ATOM     25  H   UNL     1       1.392 -13.155   2.071  1.00  0.00     0.293 HD
ENDBRANCH   9  24
TORSDOF 5
ENDMDL
MODEL 5
REMARK VINA RESULT:    -4.793      2.335      7.099
REMARK INTER + INTRA:          -5.092
REMARK INTER:                  -5.031
REMARK INTRA:                  -0.061
REMARK UNBOUND:                 0.541
REMARK SMILES O=c1c(O)c(-c2ccc(O)c(O)c2)oc2cc(O)ccc12
REMARK SMILES IDX 5 1 3 2 2 3 1 4 21 5 15 6 14 7 16 8 17 9 19 10 20 11 6 12
REMARK SMILES IDX 7 13 8 14 9 15 13 16 11 17 10 18 12 20 4 22 18 24
REMARK H PARENT 10 19 12 21 4 23 18 25
REMARK Flexibility Score: inf
ROOT
ATOM      1  C   UNL     1      -2.993 -11.539  -4.883  1.00  0.00     0.180 A 
ATOM      2  C   UNL     1      -2.546 -11.318  -6.203  1.00  0.00     0.208 A 
ATOM      3  C   UNL     1      -3.496 -11.086  -7.209  1.00  0.00     0.235 A 
ATOM      4  O   UNL     1      -3.121 -10.875  -8.395  1.00  0.00    -0.285 OA
ATOM      5  C   UNL     1      -4.861 -11.097  -6.884  1.00  0.00     0.069 A 
ATOM      6  C   UNL     1      -5.228 -11.348  -5.545  1.00  0.00     0.142 A 
ATOM      7  O   UNL     1      -4.298 -11.556  -4.621  1.00  0.00    -0.452 OA
ATOM      8  C   UNL     1      -6.580 -11.378  -5.184  1.00  0.00     0.094 A 
ATOM      9  C   UNL     1      -7.573 -11.157  -6.144  1.00  0.00     0.119 A 
ATOM     10  C   UNL     1      -7.211 -10.905  -7.475  1.00  0.00     0.047 A 
ATOM     11  C   UNL     1      -5.864 -10.875  -7.846  1.00  0.00     0.020 A 
ENDROOT
BRANCH   1  12
ATOM     12  C   UNL     1      -2.053 -11.774  -3.764  1.00  0.00     0.025 A 
ATOM     13  C   UNL     1      -1.005 -10.881  -3.489  1.00  0.00     0.016 A 
ATOM     14  C   UNL     1      -0.145 -11.112  -2.413  1.00  0.00     0.051 A 
ATOM     15  C   UNL     1      -0.321 -12.225  -1.585  1.00  0.00     0.157 A 
ATOM     16  C   UNL     1      -2.244 -12.880  -2.922  1.00  0.00     0.062 A 
ATOM     17  C   UNL     1      -1.387 -13.119  -1.839  1.00  0.00     0.158 A 
BRANCH  15  18
ATOM     18  O   UNL     1       0.576 -12.400  -0.529  1.00  0.00    -0.504 OA
ATOM     19  H   UNL     1       1.237 -13.162  -0.470  1.00  0.00     0.293 HD
ENDBRANCH  15  18
BRANCH  17  20
ATOM     20  O   UNL     1      -1.631 -14.246  -1.052  1.00  0.00    -0.504 OA
ATOM     21  H   UNL     1      -0.907 -14.785  -0.598  1.00  0.00     0.293 HD
ENDBRANCH  17  20
ENDBRANCH   1  12
BRANCH   2  22
ATOM     22  O   UNL     1      -1.182 -11.362  -6.505  1.00  0.00    -0.502 OA
ATOM     23  H   UNL     1      -0.836 -11.685  -7.400  1.00  0.00     0.293 HD
ENDBRANCH   2  22
BRANCH   9  24
ATOM     24  O   UNL     1      -8.914 -11.189  -5.767  1.00  0.00    -0.508 OA
ATOM     25  H   UNL     1      -9.521 -11.952  -6.039  1.00  0.00     0.293 HD
ENDBRANCH   9  24
TORSDOF 5
ENDMDL
MODEL 6
REMARK VINA RESULT:    -4.442     12.849     16.419
REMARK INTER + INTRA:          -4.679
REMARK INTER:                  -4.360
REMARK INTRA:                  -0.319
REMARK UNBOUND:                 0.541
REMARK SMILES O=c1c(O)c(-c2ccc(O)c(O)c2)oc2cc(O)ccc12
REMARK SMILES IDX 5 1 3 2 2 3 1 4 21 5 15 6 14 7 16 8 17 9 19 10 20 11 6 12
REMARK SMILES IDX 7 13 8 14 9 15 13 16 11 17 10 18 12 20 4 22 18 24
REMARK H PARENT 10 19 12 21 4 23 18 25
REMARK Flexibility Score: inf
ROOT
ATOM      1  C   UNL     1     -12.044 -14.221 -15.835  1.00  0.00     0.180 A 
ATOM      2  C   UNL     1     -12.511 -15.003 -16.912  1.00  0.00     0.208 A 
ATOM      3  C   UNL     1     -13.664 -15.781 -16.733  1.00  0.00     0.235 A 
ATOM      4  O   UNL     1     -14.109 -16.480 -17.684  1.00  0.00    -0.285 OA
ATOM      5  C   UNL     1     -14.312 -15.779 -15.487  1.00  0.00     0.069 A 
ATOM      6  C   UNL     1     -13.768 -14.988 -14.453  1.00  0.00     0.142 A 
ATOM      7  O   UNL     1     -12.679 -14.259 -14.665  1.00  0.00    -0.452 OA
ATOM      8  C   UNL     1     -14.379 -14.967 -13.193  1.00  0.00     0.094 A 
ATOM      9  C   UNL     1     -15.530 -15.725 -12.954  1.00  0.00     0.119 A 
ATOM     10  C   UNL     1     -16.073 -16.510 -13.980  1.00  0.00     0.047 A 
ATOM     11  C   UNL     1     -15.470 -16.539 -15.241  1.00  0.00     0.020 A 
ENDROOT
BRANCH   1  12
ATOM     12  C   UNL     1     -10.845 -13.360 -15.950  1.00  0.00     0.025 A 
ATOM     13  C   UNL     1     -10.924 -12.064 -16.485  1.00  0.00     0.016 A 
ATOM     14  C   UNL     1      -9.783 -11.263 -16.561  1.00  0.00     0.051 A 
ATOM     15  C   UNL     1      -8.549 -11.729 -16.097  1.00  0.00     0.157 A 
ATOM     16  C   UNL     1      -9.613 -13.823 -15.463  1.00  0.00     0.062 A 
ATOM     17  C   UNL     1      -8.463 -13.025 -15.536  1.00  0.00     0.158 A 
BRANCH  15  18
ATOM     18  O   UNL     1      -7.447 -10.879 -16.206  1.00  0.00    -0.504 OA
ATOM     19  H   UNL     1      -7.506  -9.912 -16.490  1.00  0.00     0.293 HD
ENDBRANCH  15  18
BRANCH  17  20
ATOM     20  O   UNL     1      -7.269 -13.556 -15.042  1.00  0.00    -0.504 OA
ATOM     21  H   UNL     1      -7.163 -13.936 -14.113  1.00  0.00     0.293 HD
ENDBRANCH  17  20
ENDBRANCH   1  12
BRANCH   2  22
ATOM     22  O   UNL     1     -11.817 -15.023 -18.125  1.00  0.00    -0.502 OA
ATOM     23  H   UNL     1     -12.289 -15.111 -19.017  1.00  0.00     0.293 HD
ENDBRANCH   2  22
BRANCH   9  24
ATOM     24  O   UNL     1     -16.125 -15.693 -11.695  1.00  0.00    -0.508 OA
ATOM     25  H   UNL     1     -15.800 -16.284 -10.940  1.00  0.00     0.293 HD
ENDBRANCH   9  24
TORSDOF 5
ENDMDL
MODEL 7
REMARK VINA RESULT:    -4.393      2.442      7.181
REMARK INTER + INTRA:          -4.623
REMARK INTER:                  -4.456
REMARK INTRA:                  -0.166
REMARK UNBOUND:                 0.541
REMARK SMILES O=c1c(O)c(-c2ccc(O)c(O)c2)oc2cc(O)ccc12
REMARK SMILES IDX 5 1 3 2 2 3 1 4 21 5 15 6 14 7 16 8 17 9 19 10 20 11 6 12
REMARK SMILES IDX 7 13 8 14 9 15 13 16 11 17 10 18 12 20 4 22 18 24
REMARK H PARENT 10 19 12 21 4 23 18 25
REMARK Flexibility Score: inf
ROOT
ATOM      1  C   UNL     1      -0.006 -11.722  -2.988  1.00  0.00     0.180 A 
ATOM      2  C   UNL     1       0.734 -11.701  -4.189  1.00  0.00     0.208 A 
ATOM      3  C   UNL     1       0.051 -11.517  -5.400  1.00  0.00     0.235 A 
ATOM      4  O   UNL     1       0.691 -11.484  -6.487  1.00  0.00    -0.285 OA
ATOM      5  C   UNL     1      -1.346 -11.379  -5.391  1.00  0.00     0.069 A 
ATOM      6  C   UNL     1      -2.016 -11.434  -4.150  1.00  0.00     0.142 A 
ATOM      7  O   UNL     1      -1.332 -11.602  -3.025  1.00  0.00    -0.452 OA
ATOM      8  C   UNL     1      -3.409 -11.311  -4.101  1.00  0.00     0.094 A 
ATOM      9  C   UNL     1      -4.144 -11.130  -5.277  1.00  0.00     0.119 A 
ATOM     10  C   UNL     1      -3.482 -11.072  -6.511  1.00  0.00     0.047 A 
ATOM     11  C   UNL     1      -2.091 -11.197  -6.571  1.00  0.00     0.020 A 
ENDROOT
BRANCH   1  12
ATOM     12  C   UNL     1       0.642 -11.893  -1.667  1.00  0.00     0.025 A 
ATOM     13  C   UNL     1       0.613 -10.875  -0.701  1.00  0.00     0.016 A 
ATOM     14  C   UNL     1       1.212 -11.069   0.546  1.00  0.00     0.051 A 
ATOM     15  C   UNL     1       1.837 -12.280   0.857  1.00  0.00     0.157 A 
ATOM     16  C   UNL     1       1.250 -13.117  -1.350  1.00  0.00     0.062 A 
ATOM     17  C   UNL     1       1.853 -13.321  -0.101  1.00  0.00     0.158 A 
BRANCH  15  18
ATOM     18  O   UNL     1       2.421 -12.408   2.119  1.00  0.00    -0.504 OA
ATOM     19  H   UNL     1       2.138 -11.873   2.928  1.00  0.00     0.293 HD
ENDBRANCH  15  18
BRANCH  17  20
ATOM     20  O   UNL     1       2.450 -14.560   0.139  1.00  0.00    -0.504 OA
ATOM     21  H   UNL     1       3.350 -14.677   0.581  1.00  0.00     0.293 HD
ENDBRANCH  17  20
ENDBRANCH   1  12
BRANCH   2  22
ATOM     22  O   UNL     1       2.118 -11.891  -4.170  1.00  0.00    -0.502 OA
ATOM     23  H   UNL     1       2.537 -12.813  -4.161  1.00  0.00     0.293 HD
ENDBRANCH   2  22
BRANCH   9  24
ATOM     24  O   UNL     1      -5.530 -11.008  -5.210  1.00  0.00    -0.508 OA
ATOM     25  H   UNL     1      -5.971 -10.231  -4.733  1.00  0.00     0.293 HD
ENDBRANCH   9  24
TORSDOF 5
ENDMDL
MODEL 8
REMARK VINA RESULT:    -3.984     14.427     16.877
REMARK INTER + INTRA:          -4.142
REMARK INTER:                  -4.083
REMARK INTRA:                  -0.059
REMARK UNBOUND:                 0.541
REMARK SMILES O=c1c(O)c(-c2ccc(O)c(O)c2)oc2cc(O)ccc12
REMARK SMILES IDX 5 1 3 2 2 3 1 4 21 5 15 6 14 7 16 8 17 9 19 10 20 11 6 12
REMARK SMILES IDX 7 13 8 14 9 15 13 16 11 17 10 18 12 20 4 22 18 24
REMARK H PARENT 10 19 12 21 4 23 18 25
REMARK Flexibility Score: inf
ROOT
ATOM      1  C   UNL     1     -14.662 -14.375 -14.500  1.00  0.00     0.180 A 
ATOM      2  C   UNL     1     -13.791 -13.422 -15.070  1.00  0.00     0.208 A 
ATOM      3  C   UNL     1     -13.445 -12.288 -14.320  1.00  0.00     0.235 A 
ATOM      4  O   UNL     1     -12.660 -11.427 -14.803  1.00  0.00    -0.285 OA
ATOM      5  C   UNL     1     -13.986 -12.119 -13.036  1.00  0.00     0.069 A 
ATOM      6  C   UNL     1     -14.868 -13.106 -12.546  1.00  0.00     0.142 A 
ATOM      7  O   UNL     1     -15.164 -14.168 -13.284  1.00  0.00    -0.452 OA
ATOM      8  C   UNL     1     -15.435 -12.967 -11.274  1.00  0.00     0.094 A 
ATOM      9  C   UNL     1     -15.130 -11.856 -10.481  1.00  0.00     0.119 A 
ATOM     10  C   UNL     1     -14.253 -10.876 -10.964  1.00  0.00     0.047 A 
ATOM     11  C   UNL     1     -13.682 -11.003 -12.234  1.00  0.00     0.020 A 
ENDROOT
BRANCH   1  12
ATOM     12  C   UNL     1     -15.061 -15.606 -15.220  1.00  0.00     0.025 A 
ATOM     13  C   UNL     1     -15.656 -15.550 -16.490  1.00  0.00     0.016 A 
ATOM     14  C   UNL     1     -16.001 -16.726 -17.159  1.00  0.00     0.051 A 
ATOM     15  C   UNL     1     -15.749 -17.976 -16.584  1.00  0.00     0.157 A 
ATOM     16  C   UNL     1     -14.787 -16.859 -14.649  1.00  0.00     0.062 A 
ATOM     17  C   UNL     1     -15.130 -18.044 -15.314  1.00  0.00     0.158 A 
BRANCH  15  18
ATOM     18  O   UNL     1     -16.123 -19.113 -17.303  1.00  0.00    -0.504 OA
ATOM     19  H   UNL     1     -16.727 -19.837 -16.941  1.00  0.00     0.293 HD
ENDBRANCH  15  18
BRANCH  17  20
ATOM     20  O   UNL     1     -14.837 -19.254 -14.680  1.00  0.00    -0.504 OA
ATOM     21  H   UNL     1     -15.536 -19.929 -14.404  1.00  0.00     0.293 HD
ENDBRANCH  17  20
ENDBRANCH   1  12
BRANCH   2  22
ATOM     22  O   UNL     1     -13.309 -13.593 -16.370  1.00  0.00    -0.502 OA
ATOM     23  H   UNL     1     -12.399 -13.253 -16.659  1.00  0.00     0.293 HD
ENDBRANCH   2  22
BRANCH   9  24
ATOM     24  O   UNL     1     -15.703 -11.735  -9.217  1.00  0.00    -0.508 OA
ATOM     25  H   UNL     1     -15.646 -12.482  -8.536  1.00  0.00     0.293 HD
ENDBRANCH   9  24
TORSDOF 5
ENDMDL
