MODEL 1
REMARK VINA RESULT:    -4.947      0.000      0.000
REMARK INTER + INTRA:          -4.947
REMARK INTER:                  -4.947
REMARK INTRA:                   0.000
REMARK UNBOUND:                 0.000
REMARK SMILES C=C1CCC[C@]2(C)CC(=O)C(=C(C)C)C[C@H]12
REMARK SMILES IDX 13 1 12 2 11 3 15 4 16 5 2 6 1 7 3 8 4 9 5 10 6 11 8 12 9 13
REMARK SMILES IDX 10 14 7 15 14 16
REMARK H PARENT
REMARK Flexibility Score: inf
ROOT
ATOM      1  C   UNL     1      16.081  17.719  14.850  1.00  0.00     0.039 C 
ATOM      2  C   UNL     1      15.107  16.669  14.365  1.00  0.00    -0.070 C 
ATOM      3  C   UNL     1      15.537  15.435  13.974  1.00  0.00    -0.006 C 
ATOM      4  C   UNL     1      16.989  15.006  14.033  1.00  0.00     0.047 C 
ATOM      5  C   UNL     1      17.187  13.713  14.873  1.00  0.00     0.025 C 
ATOM      6  C   UNL     1      18.490  13.054  14.448  1.00  0.00    -0.073 C 
ATOM      7  C   UNL     1      19.665  13.499  14.922  1.00  0.00     0.008 C 
ATOM      8  C   UNL     1      18.451  11.976  13.391  1.00  0.00     0.031 C 
ATOM      9  C   UNL     1      17.425  10.875  13.715  1.00  0.00     0.005 C 
ATOM     10  C   UNL     1      16.457  11.232  14.857  1.00  0.00     0.008 C 
ATOM     11  C   UNL     1      15.963  12.707  14.825  1.00  0.00    -0.018 C 
ATOM     12  C   UNL     1      15.085  12.941  13.561  1.00  0.00     0.088 C 
ATOM     13  C   UNL     1      14.627  14.369  13.477  1.00  0.00     0.159 C 
ATOM     14  O   UNL     1      13.529  14.634  12.918  1.00  0.00    -0.295 OA
ATOM     15  C   UNL     1      15.079  12.910  16.085  1.00  0.00     0.012 C 
ATOM     16  C   UNL     1      13.641  17.029  14.375  1.00  0.00     0.039 C 
ENDROOT
TORSDOF 0
ENDMDL
MODEL 2
REMARK VINA RESULT:    -4.877     10.843     12.774
REMARK INTER + INTRA:          -4.877
REMARK INTER:                  -4.877
REMARK INTRA:                   0.000
REMARK UNBOUND:                 0.000
REMARK SMILES C=C1CCC[C@]2(C)CC(=O)C(=C(C)C)C[C@H]12
REMARK SMILES IDX 13 1 12 2 11 3 15 4 16 5 2 6 1 7 3 8 4 9 5 10 6 11 8 12 9 13
REMARK SMILES IDX 10 14 7 15 14 16
REMARK H PARENT
REMARK Flexibility Score: inf
ROOT
ATOM      1  C   UNL     1      19.062  28.088  13.591  1.00  0.00     0.039 C 
ATOM      2  C   UNL     1      18.879  26.662  14.057  1.00  0.00    -0.070 C 
ATOM      3  C   UNL     1      17.736  26.267  14.690  1.00  0.00    -0.006 C 
ATOM      4  C   UNL     1      16.561  27.193  14.933  1.00  0.00     0.047 C 
ATOM      5  C   UNL     1      15.239  26.636  14.334  1.00  0.00     0.025 C 
ATOM      6  C   UNL     1      14.070  27.283  15.060  1.00  0.00    -0.073 C 
ATOM      7  C   UNL     1      13.659  28.517  14.725  1.00  0.00     0.008 C 
ATOM      8  C   UNL     1      13.459  26.569  16.242  1.00  0.00     0.031 C 
ATOM      9  C   UNL     1      13.092  25.109  15.918  1.00  0.00     0.005 C 
ATOM     10  C   UNL     1      13.678  24.590  14.593  1.00  0.00     0.008 C 
ATOM     11  C   UNL     1      15.140  25.054  14.327  1.00  0.00    -0.018 C 
ATOM     12  C   UNL     1      16.093  24.420  15.382  1.00  0.00     0.088 C 
ATOM     13  C   UNL     1      17.507  24.883  15.181  1.00  0.00     0.159 C 
ATOM     14  O   UNL     1      18.458  24.122  15.506  1.00  0.00    -0.295 OA
ATOM     15  C   UNL     1      15.530  24.520  12.923  1.00  0.00     0.012 C 
ATOM     16  C   UNL     1      19.992  25.688  13.753  1.00  0.00     0.039 C 
ENDROOT
TORSDOF 0
ENDMDL
MODEL 3
REMARK VINA RESULT:    -4.774     10.479     12.873
REMARK INTER + INTRA:          -4.774
REMARK INTER:                  -4.774
REMARK INTRA:                   0.000
REMARK UNBOUND:                 0.000
REMARK SMILES C=C1CCC[C@]2(C)CC(=O)C(=C(C)C)C[C@H]12
REMARK SMILES IDX 13 1 12 2 11 3 15 4 16 5 2 6 1 7 3 8 4 9 5 10 6 11 8 12 9 13
REMARK SMILES IDX 10 14 7 15 14 16
REMARK H PARENT
REMARK Flexibility Score: inf
ROOT
ATOM      1  C   UNL     1      15.204  29.505  13.636  1.00  0.00     0.039 C 
ATOM      2  C   UNL     1      15.912  28.336  14.280  1.00  0.00    -0.070 C 
ATOM      3  C   UNL     1      15.213  27.329  14.879  1.00  0.00    -0.006 C 
ATOM      4  C   UNL     1      13.699  27.277  14.911  1.00  0.00     0.047 C 
ATOM      5  C   UNL     1      13.142  25.959  14.303  1.00  0.00     0.025 C 
ATOM      6  C   UNL     1      11.742  25.728  14.850  1.00  0.00    -0.073 C 
ATOM      7  C   UNL     1      10.689  26.373  14.322  1.00  0.00     0.008 C 
ATOM      8  C   UNL     1      11.571  24.859  16.073  1.00  0.00     0.031 C 
ATOM      9  C   UNL     1      12.275  23.497  15.928  1.00  0.00     0.005 C 
ATOM     10  C   UNL     1      13.238  23.410  14.730  1.00  0.00     0.008 C 
ATOM     11  C   UNL     1      14.081  24.698  14.506  1.00  0.00    -0.018 C 
ATOM     12  C   UNL     1      15.057  24.902  15.701  1.00  0.00     0.088 C 
ATOM     13  C   UNL     1      15.857  26.163  15.538  1.00  0.00     0.159 C 
ATOM     14  O   UNL     1      17.015  26.227  16.030  1.00  0.00    -0.295 OA
ATOM     15  C   UNL     1      14.918  24.467  13.219  1.00  0.00     0.012 C 
ATOM     16  C   UNL     1      17.420  28.308  14.190  1.00  0.00     0.039 C 
ENDROOT
TORSDOF 0
ENDMDL
MODEL 4
REMARK VINA RESULT:    -4.725     14.064     16.930
REMARK INTER + INTRA:          -4.725
REMARK INTER:                  -4.725
REMARK INTRA:                   0.000
REMARK UNBOUND:                 0.000
REMARK SMILES C=C1CCC[C@]2(C)CC(=O)C(=C(C)C)C[C@H]12
REMARK SMILES IDX 13 1 12 2 11 3 15 4 16 5 2 6 1 7 3 8 4 9 5 10 6 11 8 12 9 13
REMARK SMILES IDX 10 14 7 15 14 16
REMARK H PARENT
REMARK Flexibility Score: inf
ROOT
ATOM      1  C   UNL     1       5.109  26.813  16.248  1.00  0.00     0.039 C 
ATOM      2  C   UNL     1       5.739  28.151  16.559  1.00  0.00    -0.070 C 
ATOM      3  C   UNL     1       7.068  28.373  16.346  1.00  0.00    -0.006 C 
ATOM      4  C   UNL     1       7.996  27.333  15.751  1.00  0.00     0.047 C 
ATOM      5  C   UNL     1       8.723  27.852  14.478  1.00  0.00     0.025 C 
ATOM      6  C   UNL     1       9.985  27.030  14.273  1.00  0.00    -0.073 C 
ATOM      7  C   UNL     1       9.922  25.818  13.698  1.00  0.00     0.008 C 
ATOM      8  C   UNL     1      11.289  27.542  14.835  1.00  0.00     0.031 C 
ATOM      9  C   UNL     1      11.576  28.997  14.419  1.00  0.00     0.005 C 
ATOM     10  C   UNL     1      10.373  29.720  13.787  1.00  0.00     0.008 C 
ATOM     11  C   UNL     1       9.016  29.410  14.482  1.00  0.00    -0.018 C 
ATOM     12  C   UNL     1       9.024  29.984  15.930  1.00  0.00     0.088 C 
ATOM     13  C   UNL     1       7.743  29.663  16.645  1.00  0.00     0.159 C 
ATOM     14  O   UNL     1       7.317  30.451  17.532  1.00  0.00    -0.295 OA
ATOM     15  C   UNL     1       7.918  30.143  13.666  1.00  0.00     0.012 C 
ATOM     16  C   UNL     1       4.827  29.241  17.071  1.00  0.00     0.039 C 
ENDROOT
TORSDOF 0
ENDMDL
MODEL 5
REMARK VINA RESULT:    -4.702      2.203      3.833
REMARK INTER + INTRA:          -4.702
REMARK INTER:                  -4.702
REMARK INTRA:                   0.000
REMARK UNBOUND:                 0.000
REMARK SMILES C=C1CCC[C@]2(C)CC(=O)C(=C(C)C)C[C@H]12
REMARK SMILES IDX 13 1 12 2 11 3 15 4 16 5 2 6 1 7 3 8 4 9 5 10 6 11 8 12 9 13
REMARK SMILES IDX 10 14 7 15 14 16
REMARK H PARENT
REMARK Flexibility Score: inf
ROOT
ATOM      1  C   UNL     1      13.559  18.337  13.246  1.00  0.00     0.039 C 
ATOM      2  C   UNL     1      14.856  17.911  13.894  1.00  0.00    -0.070 C 
ATOM      3  C   UNL     1      14.949  16.738  14.585  1.00  0.00    -0.006 C 
ATOM      4  C   UNL     1      13.796  15.763  14.720  1.00  0.00     0.047 C 
ATOM      5  C   UNL     1      14.166  14.341  14.213  1.00  0.00     0.025 C 
ATOM      6  C   UNL     1      13.226  13.337  14.862  1.00  0.00    -0.073 C 
ATOM      7  C   UNL     1      11.989  13.148  14.375  1.00  0.00     0.008 C 
ATOM      8  C   UNL     1      13.662  12.646  16.132  1.00  0.00     0.031 C 
ATOM      9  C   UNL     1      15.056  12.006  16.004  1.00  0.00     0.005 C 
ATOM     10  C   UNL     1      15.836  12.440  14.750  1.00  0.00     0.008 C 
ATOM     11  C   UNL     1      15.690  13.952  14.410  1.00  0.00    -0.018 C 
ATOM     12  C   UNL     1      16.355  14.808  15.528  1.00  0.00     0.088 C 
ATOM     13  C   UNL     1      16.194  16.276  15.253  1.00  0.00     0.159 C 
ATOM     14  O   UNL     1      17.072  17.081  15.663  1.00  0.00    -0.295 OA
ATOM     15  C   UNL     1      16.458  14.188  13.083  1.00  0.00     0.012 C 
ATOM     16  C   UNL     1      16.051  18.815  13.706  1.00  0.00     0.039 C 
ENDROOT
TORSDOF 0
ENDMDL
MODEL 6
REMARK VINA RESULT:    -4.655     14.346     17.779
REMARK INTER + INTRA:          -4.655
REMARK INTER:                  -4.655
REMARK INTRA:                   0.000
REMARK UNBOUND:                 0.000
REMARK SMILES C=C1CCC[C@]2(C)CC(=O)C(=C(C)C)C[C@H]12
REMARK SMILES IDX 13 1 12 2 11 3 15 4 16 5 2 6 1 7 3 8 4 9 5 10 6 11 8 12 9 13
REMARK SMILES IDX 10 14 7 15 14 16
REMARK H PARENT
REMARK Flexibility Score: inf
ROOT
ATOM      1  C   UNL     1       9.190  25.881  15.049  1.00  0.00     0.039 C 
ATOM      2  C   UNL     1       8.697  27.278  14.751  1.00  0.00    -0.070 C 
ATOM      3  C   UNL     1       7.365  27.572  14.750  1.00  0.00    -0.006 C 
ATOM      4  C   UNL     1       6.292  26.555  15.084  1.00  0.00     0.047 C 
ATOM      5  C   UNL     1       5.380  27.024  16.253  1.00  0.00     0.025 C 
ATOM      6  C   UNL     1       4.060  26.274  16.166  1.00  0.00    -0.073 C 
ATOM      7  C   UNL     1       3.956  25.021  16.636  1.00  0.00     0.008 C 
ATOM      8  C   UNL     1       2.905  26.915  15.434  1.00  0.00     0.031 C 
ATOM      9  C   UNL     1       2.627  28.349  15.918  1.00  0.00     0.005 C 
ATOM     10  C   UNL     1       3.735  28.940  16.808  1.00  0.00     0.008 C 
ATOM     11  C   UNL     1       5.175  28.593  16.333  1.00  0.00    -0.018 C 
ATOM     12  C   UNL     1       5.455  29.274  14.961  1.00  0.00     0.088 C 
ATOM     13  C   UNL     1       6.823  28.924  14.452  1.00  0.00     0.159 C 
ATOM     14  O   UNL     1       7.440  29.746  13.723  1.00  0.00    -0.295 OA
ATOM     15  C   UNL     1       6.149  29.187  17.387  1.00  0.00     0.012 C 
ATOM     16  C   UNL     1       9.742  28.340  14.500  1.00  0.00     0.039 C 
ENDROOT
TORSDOF 0
ENDMDL
MODEL 7
REMARK VINA RESULT:    -4.649     12.529     14.595
REMARK INTER + INTRA:          -4.649
REMARK INTER:                  -4.649
REMARK INTRA:                   0.000
REMARK UNBOUND:                 0.000
REMARK SMILES C=C1CCC[C@]2(C)CC(=O)C(=C(C)C)C[C@H]12
REMARK SMILES IDX 13 1 12 2 11 3 15 4 16 5 2 6 1 7 3 8 4 9 5 10 6 11 8 12 9 13
REMARK SMILES IDX 10 14 7 15 14 16
REMARK H PARENT
REMARK Flexibility Score: inf
ROOT
ATOM      1  C   UNL     1      16.524  28.991  14.292  1.00  0.00     0.039 C 
ATOM      2  C   UNL     1      15.917  27.755  14.914  1.00  0.00    -0.070 C 
ATOM      3  C   UNL     1      14.568  27.643  15.091  1.00  0.00    -0.006 C 
ATOM      4  C   UNL     1      13.584  28.707  14.649  1.00  0.00     0.047 C 
ATOM      5  C   UNL     1      12.501  28.144  13.686  1.00  0.00     0.025 C 
ATOM      6  C   UNL     1      11.289  29.062  13.731  1.00  0.00    -0.073 C 
ATOM      7  C   UNL     1      11.273  30.203  13.023  1.00  0.00     0.008 C 
ATOM      8  C   UNL     1      10.160  28.732  14.677  1.00  0.00     0.031 C 
ATOM      9  C   UNL     1       9.673  27.280  14.525  1.00  0.00     0.005 C 
ATOM     10  C   UNL     1      10.602  26.388  13.683  1.00  0.00     0.008 C 
ATOM     11  C   UNL     1      12.116  26.629  13.949  1.00  0.00    -0.018 C 
ATOM     12  C   UNL     1      12.470  26.197  15.403  1.00  0.00     0.088 C 
ATOM     13  C   UNL     1      13.917  26.457  15.707  1.00  0.00     0.159 C 
ATOM     14  O   UNL     1      14.517  25.719  16.534  1.00  0.00    -0.295 OA
ATOM     15  C   UNL     1      12.895  25.720  12.960  1.00  0.00     0.012 C 
ATOM     16  C   UNL     1      16.858  26.634  15.286  1.00  0.00     0.039 C 
ENDROOT
TORSDOF 0
ENDMDL
MODEL 8
REMARK VINA RESULT:    -4.620      1.970      5.223
REMARK INTER + INTRA:          -4.620
REMARK INTER:                  -4.620
REMARK INTRA:                   0.000
REMARK UNBOUND:                 0.000
REMARK SMILES C=C1CCC[C@]2(C)CC(=O)C(=C(C)C)C[C@H]12
REMARK SMILES IDX 13 1 12 2 11 3 15 4 16 5 2 6 1 7 3 8 4 9 5 10 6 11 8 12 9 13
REMARK SMILES IDX 10 14 7 15 14 16
REMARK H PARENT
REMARK Flexibility Score: inf
ROOT
ATOM      1  C   UNL     1      16.701  11.253  14.547  1.00  0.00     0.039 C 
ATOM      2  C   UNL     1      16.984  12.696  14.201  1.00  0.00    -0.070 C 
ATOM      3  C   UNL     1      15.989  13.531  13.784  1.00  0.00    -0.006 C 
ATOM      4  C   UNL     1      14.539  13.103  13.676  1.00  0.00     0.047 C 
ATOM      5  C   UNL     1      13.594  14.013  14.510  1.00  0.00     0.025 C 
ATOM      6  C   UNL     1      12.187  13.897  13.943  1.00  0.00    -0.073 C 
ATOM      7  C   UNL     1      11.407  12.853  14.266  1.00  0.00     0.008 C 
ATOM      8  C   UNL     1      11.729  14.907  12.919  1.00  0.00     0.031 C 
ATOM      9  C   UNL     1      11.955  16.357  13.383  1.00  0.00     0.005 C 
ATOM     10  C   UNL     1      12.853  16.488  14.626  1.00  0.00     0.008 C 
ATOM     11  C   UNL     1      14.071  15.520  14.627  1.00  0.00    -0.018 C 
ATOM     12  C   UNL     1      15.045  15.899  13.473  1.00  0.00     0.088 C 
ATOM     13  C   UNL     1      16.212  14.955  13.419  1.00  0.00     0.159 C 
ATOM     14  O   UNL     1      17.323  15.370  12.991  1.00  0.00    -0.295 OA
ATOM     15  C   UNL     1      14.804  15.725  15.980  1.00  0.00     0.012 C 
ATOM     16  C   UNL     1      18.402  13.184  14.381  1.00  0.00     0.039 C 
ENDROOT
TORSDOF 0
ENDMDL
MODEL 9
REMARK VINA RESULT:    -4.361      9.118     12.161
REMARK INTER + INTRA:          -4.361
REMARK INTER:                  -4.361
REMARK INTRA:                   0.000
REMARK UNBOUND:                 0.000
REMARK SMILES C=C1CCC[C@]2(C)CC(=O)C(=C(C)C)C[C@H]12
REMARK SMILES IDX 13 1 12 2 11 3 15 4 16 5 2 6 1 7 3 8 4 9 5 10 6 11 8 12 9 13
REMARK SMILES IDX 10 14 7 15 14 16
REMARK H PARENT
REMARK Flexibility Score: inf
ROOT
ATOM      1  C   UNL     1      18.090  26.770  14.357  1.00  0.00     0.039 C 
ATOM      2  C   UNL     1      16.739  27.435  14.219  1.00  0.00    -0.070 C 
ATOM      3  C   UNL     1      15.607  26.700  14.017  1.00  0.00    -0.006 C 
ATOM      4  C   UNL     1      15.602  25.186  13.960  1.00  0.00     0.047 C 
ATOM      5  C   UNL     1      14.628  24.561  14.998  1.00  0.00     0.025 C 
ATOM      6  C   UNL     1      14.260  23.160  14.534  1.00  0.00    -0.073 C 
ATOM      7  C   UNL     1      15.093  22.130  14.751  1.00  0.00     0.008 C 
ATOM      8  C   UNL     1      13.003  22.969  13.720  1.00  0.00     0.031 C 
ATOM      9  C   UNL     1      11.770  23.608  14.385  1.00  0.00     0.005 C 
ATOM     10  C   UNL     1      12.103  24.548  15.558  1.00  0.00     0.008 C 
ATOM     11  C   UNL     1      13.350  25.445  15.311  1.00  0.00    -0.018 C 
ATOM     12  C   UNL     1      13.056  26.448  14.156  1.00  0.00     0.088 C 
ATOM     13  C   UNL     1      14.257  27.301  13.862  1.00  0.00     0.159 C 
ATOM     14  O   UNL     1      14.091  28.468  13.418  1.00  0.00    -0.295 OA
ATOM     15  C   UNL     1      13.587  26.251  16.617  1.00  0.00     0.012 C 
ATOM     16  C   UNL     1      16.692  28.938  14.359  1.00  0.00     0.039 C 
ENDROOT
TORSDOF 0
ENDMDL
