MODEL 1
REMARK VINA RESULT:    -9.388      0.000      0.000
REMARK INTER + INTRA:          -9.388
REMARK INTER:                  -9.388
REMARK INTRA:                   0.000
REMARK UNBOUND:                 0.000
REMARK SMILES CC1=CC[C@]2(C)CCCC(C)(C)[C@@]23C[C@@H]13
REMARK SMILES IDX 1 1 2 2 3 3 4 4 5 5 7 6 8 7 9 8 10 9 13 10 15 11 14 12 11 13
REMARK SMILES IDX 12 14 6 15
REMARK H PARENT
REMARK Flexibility Score: inf
ROOT
ATOM      1  C   UNL     1      -5.358 -15.002   5.564  1.00  0.00     0.039 C 
ATOM      2  C   UNL     1      -4.925 -15.415   6.942  1.00  0.00    -0.074 C 
ATOM      3  C   UNL     1      -5.378 -16.558   7.465  1.00  0.00    -0.027 C 
ATOM      4  C   UNL     1      -5.057 -16.921   8.879  1.00  0.00     0.034 C 
ATOM      5  C   UNL     1      -3.562 -16.710   9.281  1.00  0.00    -0.022 C 
ATOM      6  C   UNL     1      -3.556 -16.823  10.842  1.00  0.00     0.008 C 
ATOM      7  C   UNL     1      -2.345 -16.196  11.508  1.00  0.00     0.001 C 
ATOM      8  C   UNL     1      -2.336 -14.706  11.202  1.00  0.00     0.007 C 
ATOM      9  C   UNL     1      -2.052 -14.420   9.707  1.00  0.00    -0.029 C 
ATOM     10  C   UNL     1      -2.999 -15.299   8.766  1.00  0.00    -0.012 C 
ATOM     11  C   UNL     1      -3.859 -14.622   7.656  1.00  0.00     0.022 C 
ATOM     12  C   UNL     1      -2.517 -15.218   7.295  1.00  0.00     0.017 C 
ATOM     13  C   UNL     1      -2.262 -12.899   9.506  1.00  0.00     0.012 C 
ATOM     14  C   UNL     1      -0.549 -14.727   9.435  1.00  0.00     0.012 C 
ATOM     15  C   UNL     1      -2.719 -17.884   8.716  1.00  0.00     0.012 C 
ENDROOT
TORSDOF 0
ENDMDL
MODEL 2
REMARK VINA RESULT:    -8.717      1.108      4.681
REMARK INTER + INTRA:          -8.717
REMARK INTER:                  -8.717
REMARK INTRA:                   0.000
REMARK UNBOUND:                 0.000
REMARK SMILES CC1=CC[C@]2(C)CCCC(C)(C)[C@@]23C[C@@H]13
REMARK SMILES IDX 1 1 2 2 3 3 4 4 5 5 7 6 8 7 9 8 10 9 13 10 15 11 14 12 11 13
REMARK SMILES IDX 12 14 6 15
REMARK H PARENT
REMARK Flexibility Score: inf
ROOT
ATOM      1  C   UNL     1      -2.524 -15.051  13.564  1.00  0.00     0.039 C 
ATOM      2  C   UNL     1      -2.694 -14.800  12.092  1.00  0.00    -0.074 C 
ATOM      3  C   UNL     1      -1.944 -13.875  11.485  1.00  0.00    -0.027 C 
ATOM      4  C   UNL     1      -2.187 -13.526  10.053  1.00  0.00     0.034 C 
ATOM      5  C   UNL     1      -2.378 -14.756   9.108  1.00  0.00    -0.022 C 
ATOM      6  C   UNL     1      -2.944 -14.147   7.782  1.00  0.00     0.008 C 
ATOM      7  C   UNL     1      -3.652 -15.148   6.889  1.00  0.00     0.001 C 
ATOM      8  C   UNL     1      -4.857 -15.702   7.636  1.00  0.00     0.007 C 
ATOM      9  C   UNL     1      -4.441 -16.592   8.832  1.00  0.00    -0.029 C 
ATOM     10  C   UNL     1      -3.358 -15.852   9.747  1.00  0.00    -0.012 C 
ATOM     11  C   UNL     1      -3.589 -15.704  11.281  1.00  0.00     0.022 C 
ATOM     12  C   UNL     1      -2.747 -16.849  10.765  1.00  0.00     0.017 C 
ATOM     13  C   UNL     1      -5.743 -16.923   9.603  1.00  0.00     0.012 C 
ATOM     14  C   UNL     1      -3.878 -17.929   8.265  1.00  0.00     0.012 C 
ATOM     15  C   UNL     1      -0.987 -15.369   8.795  1.00  0.00     0.012 C 
ENDROOT
TORSDOF 0
ENDMDL
MODEL 3
REMARK VINA RESULT:    -6.780      1.097      4.376
REMARK INTER + INTRA:          -6.780
REMARK INTER:                  -6.780
REMARK INTRA:                   0.000
REMARK UNBOUND:                 0.000
REMARK SMILES CC1=CC[C@]2(C)CCCC(C)(C)[C@@]23C[C@@H]13
REMARK SMILES IDX 1 1 2 2 3 3 4 4 5 5 7 6 8 7 9 8 10 9 13 10 15 11 14 12 11 13
REMARK SMILES IDX 12 14 6 15
REMARK H PARENT
REMARK Flexibility Score: inf
ROOT
ATOM      1  C   UNL     1      -1.356 -13.232  11.628  1.00  0.00     0.039 C 
ATOM      2  C   UNL     1      -2.263 -13.670  10.513  1.00  0.00    -0.074 C 
ATOM      3  C   UNL     1      -2.319 -12.957   9.384  1.00  0.00    -0.027 C 
ATOM      4  C   UNL     1      -3.306 -13.307   8.318  1.00  0.00     0.034 C 
ATOM      5  C   UNL     1      -3.390 -14.832   7.985  1.00  0.00    -0.022 C 
ATOM      6  C   UNL     1      -4.689 -14.975   7.124  1.00  0.00     0.008 C 
ATOM      7  C   UNL     1      -5.252 -16.382   7.074  1.00  0.00     0.001 C 
ATOM      8  C   UNL     1      -5.642 -16.803   8.484  1.00  0.00     0.007 C 
ATOM      9  C   UNL     1      -4.407 -16.994   9.397  1.00  0.00    -0.029 C 
ATOM     10  C   UNL     1      -3.432 -15.730   9.313  1.00  0.00    -0.012 C 
ATOM     11  C   UNL     1      -2.976 -14.996  10.611  1.00  0.00     0.022 C 
ATOM     12  C   UNL     1      -2.080 -16.051  10.001  1.00  0.00     0.017 C 
ATOM     13  C   UNL     1      -4.955 -17.228  10.827  1.00  0.00     0.012 C 
ATOM     14  C   UNL     1      -3.678 -18.297   8.955  1.00  0.00     0.012 C 
ATOM     15  C   UNL     1      -2.181 -15.218   7.091  1.00  0.00     0.012 C 
ENDROOT
TORSDOF 0
ENDMDL
