MODEL 1
REMARK VINA RESULT:    -3.870      0.000      0.000
REMARK INTER + INTRA:          -4.864
REMARK INTER:                  -4.774
REMARK INTRA:                  -0.090
REMARK UNBOUND:                -0.090
REMARK SMILES CCCCCC(=O)[O-]
REMARK SMILES IDX 4 1 5 2 6 3 7 4 8 5 3 6 2 7 1 8
REMARK H PARENT
REMARK Flexibility Score: inf
ROOT
ATOM      1  C   UNL     1      -3.096  36.783  17.111  1.00  0.00     0.006 C 
ENDROOT
BRANCH   1   2
ATOM      2  C   UNL     1      -3.241  37.799  18.252  1.00  0.00     0.053 C 
BRANCH   2   3
ATOM      3  C   UNL     1      -4.209  37.330  19.294  1.00  0.00     0.041 C 
ATOM      4  O   UNL     1      -4.234  36.118  19.637  1.00  0.00    -0.550 OA
ATOM      5  O   UNL     1      -5.061  38.237  19.911  1.00  0.00    -0.550 OA
ENDBRANCH   2   3
ENDBRANCH   1   2
BRANCH   1   6
ATOM      6  C   UNL     1      -2.189  37.300  15.985  1.00  0.00     0.000 C 
BRANCH   6   7
ATOM      7  C   UNL     1      -2.790  36.990  14.610  1.00  0.00    -0.003 C 
ATOM      8  C   UNL     1      -3.782  38.069  14.184  1.00  0.00     0.004 C 
ENDBRANCH   6   7
ENDBRANCH   1   6
TORSDOF 4
ENDMDL
MODEL 2
REMARK VINA RESULT:    -3.785      1.681      2.236
REMARK INTER + INTRA:          -4.760
REMARK INTER:                  -4.621
REMARK INTRA:                  -0.140
REMARK UNBOUND:                -0.090
REMARK SMILES CCCCCC(=O)[O-]
REMARK SMILES IDX 4 1 5 2 6 3 7 4 8 5 3 6 2 7 1 8
REMARK H PARENT
REMARK Flexibility Score: inf
ROOT
ATOM      1  C   UNL     1      -2.585  37.907  19.539  1.00  0.00     0.006 C 
ENDROOT
BRANCH   1   2
ATOM      2  C   UNL     1      -4.016  37.396  19.321  1.00  0.00     0.053 C 
BRANCH   2   3
ATOM      3  C   UNL     1      -4.410  36.387  20.355  1.00  0.00     0.041 C 
ATOM      4  O   UNL     1      -3.531  35.842  21.076  1.00  0.00    -0.550 OA
ATOM      5  O   UNL     1      -5.748  36.072  20.547  1.00  0.00    -0.550 OA
ENDBRANCH   2   3
ENDBRANCH   1   2
BRANCH   1   6
ATOM      6  C   UNL     1      -1.784  37.967  18.230  1.00  0.00     0.000 C 
BRANCH   6   7
ATOM      7  C   UNL     1      -2.653  37.555  17.036  1.00  0.00    -0.003 C 
ATOM      8  C   UNL     1      -1.825  36.842  15.971  1.00  0.00     0.004 C 
ENDBRANCH   6   7
ENDBRANCH   1   6
TORSDOF 4
ENDMDL
MODEL 3
REMARK VINA RESULT:    -3.671      2.627      4.636
REMARK INTER + INTRA:          -4.620
REMARK INTER:                  -4.505
REMARK INTRA:                  -0.115
REMARK UNBOUND:                -0.090
REMARK SMILES CCCCCC(=O)[O-]
REMARK SMILES IDX 4 1 5 2 6 3 7 4 8 5 3 6 2 7 1 8
REMARK H PARENT
REMARK Flexibility Score: inf
ROOT
ATOM      1  C   UNL     1      -3.623  37.867  18.785  1.00  0.00     0.006 C 
ENDROOT
BRANCH   1   2
ATOM      2  C   UNL     1      -2.259  37.881  18.082  1.00  0.00     0.053 C 
BRANCH   2   3
ATOM      3  C   UNL     1      -2.372  37.489  16.640  1.00  0.00     0.041 C 
ATOM      4  O   UNL     1      -3.141  38.123  15.870  1.00  0.00    -0.550 OA
ATOM      5  O   UNL     1      -1.604  36.445  16.141  1.00  0.00    -0.550 OA
ENDBRANCH   2   3
ENDBRANCH   1   2
BRANCH   1   6
ATOM      6  C   UNL     1      -4.094  36.442  19.110  1.00  0.00     0.000 C 
BRANCH   6   7
ATOM      7  C   UNL     1      -4.034  36.175  20.618  1.00  0.00    -0.003 C 
ATOM      8  C   UNL     1      -5.273  36.718  21.325  1.00  0.00     0.004 C 
ENDBRANCH   6   7
ENDBRANCH   1   6
TORSDOF 4
ENDMDL
MODEL 4
REMARK VINA RESULT:    -3.625      3.052      5.780
REMARK INTER + INTRA:          -4.562
REMARK INTER:                  -4.515
REMARK INTRA:                  -0.047
REMARK UNBOUND:                -0.090
REMARK SMILES CCCCCC(=O)[O-]
REMARK SMILES IDX 4 1 5 2 6 3 7 4 8 5 3 6 2 7 1 8
REMARK H PARENT
REMARK Flexibility Score: inf
ROOT
ATOM      1  C   UNL     1      -4.479  36.394  20.827  1.00  0.00     0.006 C 
ENDROOT
BRANCH   1   2
ATOM      2  C   UNL     1      -4.655  37.280  19.586  1.00  0.00     0.053 C 
BRANCH   2   3
ATOM      3  C   UNL     1      -3.336  37.696  19.009  1.00  0.00     0.041 C 
ATOM      4  O   UNL     1      -2.335  37.845  19.759  1.00  0.00    -0.550 OA
ATOM      5  O   UNL     1      -3.205  37.886  17.640  1.00  0.00    -0.550 OA
ENDBRANCH   2   3
ENDBRANCH   1   2
BRANCH   1   6
ATOM      6  C   UNL     1      -5.821  36.042  21.485  1.00  0.00     0.000 C 
BRANCH   6   7
ATOM      7  C   UNL     1      -5.734  36.165  23.010  1.00  0.00    -0.003 C 
ATOM      8  C   UNL     1      -6.083  34.846  23.692  1.00  0.00     0.004 C 
ENDBRANCH   6   7
ENDBRANCH   1   6
TORSDOF 4
ENDMDL
MODEL 5
REMARK VINA RESULT:    -3.516      3.016      4.970
REMARK INTER + INTRA:          -4.428
REMARK INTER:                  -4.375
REMARK INTRA:                  -0.053
REMARK UNBOUND:                -0.090
REMARK SMILES CCCCCC(=O)[O-]
REMARK SMILES IDX 4 1 5 2 6 3 7 4 8 5 3 6 2 7 1 8
REMARK H PARENT
REMARK Flexibility Score: inf
ROOT
ATOM      1  C   UNL     1      -3.415  37.265  19.980  1.00  0.00     0.006 C 
ENDROOT
BRANCH   1   2
ATOM      2  C   UNL     1      -3.369  37.591  18.480  1.00  0.00     0.053 C 
BRANCH   2   3
ATOM      3  C   UNL     1      -1.972  37.865  18.014  1.00  0.00     0.041 C 
ATOM      4  O   UNL     1      -1.598  37.481  16.874  1.00  0.00    -0.550 OA
ATOM      5  O   UNL     1      -1.095  38.574  18.824  1.00  0.00    -0.550 OA
ENDBRANCH   2   3
ENDBRANCH   1   2
BRANCH   1   6
ATOM      6  C   UNL     1      -4.283  36.034  20.280  1.00  0.00     0.000 C 
BRANCH   6   7
ATOM      7  C   UNL     1      -5.592  36.441  20.966  1.00  0.00    -0.003 C 
ATOM      8  C   UNL     1      -5.593  36.038  22.438  1.00  0.00     0.004 C 
ENDBRANCH   6   7
ENDBRANCH   1   6
TORSDOF 4
ENDMDL
MODEL 6
REMARK VINA RESULT:    -3.475      3.341      4.307
REMARK INTER + INTRA:          -4.377
REMARK INTER:                  -4.273
REMARK INTRA:                  -0.104
REMARK UNBOUND:                -0.090
REMARK SMILES CCCCCC(=O)[O-]
REMARK SMILES IDX 4 1 5 2 6 3 7 4 8 5 3 6 2 7 1 8
REMARK H PARENT
REMARK Flexibility Score: inf
ROOT
ATOM      1  C   UNL     1      -3.977  37.825  19.175  1.00  0.00     0.006 C 
ENDROOT
BRANCH   1   2
ATOM      2  C   UNL     1      -2.552  38.020  19.712  1.00  0.00     0.053 C 
BRANCH   2   3
ATOM      3  C   UNL     1      -1.539  38.031  18.610  1.00  0.00     0.041 C 
ATOM      4  O   UNL     1      -0.321  38.223  18.870  1.00  0.00    -0.550 OA
ATOM      5  O   UNL     1      -1.934  37.797  17.299  1.00  0.00    -0.550 OA
ENDBRANCH   2   3
ENDBRANCH   1   2
BRANCH   1   6
ATOM      6  C   UNL     1      -4.970  37.449  20.284  1.00  0.00     0.000 C 
BRANCH   6   7
ATOM      7  C   UNL     1      -5.470  36.010  20.108  1.00  0.00    -0.003 C 
ATOM      8  C   UNL     1      -4.967  35.407  18.799  1.00  0.00     0.004 C 
ENDBRANCH   6   7
ENDBRANCH   1   6
TORSDOF 4
ENDMDL
MODEL 7
REMARK VINA RESULT:    -3.376      4.014      5.216
REMARK INTER + INTRA:          -4.255
REMARK INTER:                  -4.189
REMARK INTRA:                  -0.066
REMARK UNBOUND:                -0.090
REMARK SMILES CCCCCC(=O)[O-]
REMARK SMILES IDX 4 1 5 2 6 3 7 4 8 5 3 6 2 7 1 8
REMARK H PARENT
REMARK Flexibility Score: inf
ROOT
ATOM      1  C   UNL     1      -4.403  35.965  21.663  1.00  0.00     0.006 C 
ENDROOT
BRANCH   1   2
ATOM      2  C   UNL     1      -5.699  36.257  22.433  1.00  0.00     0.053 C 
BRANCH   2   3
ATOM      3  C   UNL     1      -5.664  35.686  23.817  1.00  0.00     0.041 C 
ATOM      4  O   UNL     1      -5.245  36.383  24.780  1.00  0.00    -0.550 OA
ATOM      5  O   UNL     1      -6.124  34.397  24.051  1.00  0.00    -0.550 OA
ENDBRANCH   2   3
ENDBRANCH   1   2
BRANCH   1   6
ATOM      6  C   UNL     1      -4.557  36.205  20.154  1.00  0.00     0.000 C 
BRANCH   6   7
ATOM      7  C   UNL     1      -4.212  37.653  19.791  1.00  0.00    -0.003 C 
ATOM      8  C   UNL     1      -2.724  37.807  19.490  1.00  0.00     0.004 C 
ENDBRANCH   6   7
ENDBRANCH   1   6
TORSDOF 4
ENDMDL
MODEL 8
REMARK VINA RESULT:    -3.373      3.758      6.682
REMARK INTER + INTRA:          -4.252
REMARK INTER:                  -4.178
REMARK INTRA:                  -0.074
REMARK UNBOUND:                -0.090
REMARK SMILES CCCCCC(=O)[O-]
REMARK SMILES IDX 4 1 5 2 6 3 7 4 8 5 3 6 2 7 1 8
REMARK H PARENT
REMARK Flexibility Score: inf
ROOT
ATOM      1  C   UNL     1      -5.147  35.969  22.192  1.00  0.00     0.006 C 
ENDROOT
BRANCH   1   2
ATOM      2  C   UNL     1      -5.742  36.066  20.780  1.00  0.00     0.053 C 
BRANCH   2   3
ATOM      3  C   UNL     1      -5.018  37.073  19.939  1.00  0.00     0.041 C 
ATOM      4  O   UNL     1      -4.207  36.693  19.053  1.00  0.00    -0.550 OA
ATOM      5  O   UNL     1      -5.264  38.428  20.112  1.00  0.00    -0.550 OA
ENDBRANCH   2   3
ENDBRANCH   1   2
BRANCH   1   6
ATOM      6  C   UNL     1      -6.046  36.627  23.248  1.00  0.00     0.000 C 
BRANCH   6   7
ATOM      7  C   UNL     1      -5.618  36.222  24.662  1.00  0.00    -0.003 C 
ATOM      8  C   UNL     1      -5.310  37.447  25.518  1.00  0.00     0.004 C 
ENDBRANCH   6   7
ENDBRANCH   1   6
TORSDOF 4
ENDMDL
