MODEL 1
REMARK VINA RESULT:    -4.373      0.000      0.000
REMARK INTER + INTRA:          -7.125
REMARK INTER:                  -5.907
REMARK INTRA:                  -1.219
REMARK UNBOUND:                -1.219
REMARK SMILES CC(=O)CCC=C(C)CCC=C(C)C
REMARK SMILES IDX 7 1 6 2 8 3 9 4 10 5 11 6 13 7 12 8 14 9 5 10 4 11 2 12 3 13
REMARK SMILES IDX 1 14
REMARK H PARENT
REMARK Flexibility Score: inf
ROOT
ATOM      1  C   UNL     1      -2.662 -14.293  -8.178  1.00  0.00    -0.077 C 
ATOM      2  C   UNL     1      -1.893 -14.373  -7.066  1.00  0.00    -0.028 C 
ATOM      3  C   UNL     1      -2.416 -13.145  -9.125  1.00  0.00     0.039 C 
ENDROOT
BRANCH   1   4
ATOM      4  C   UNL     1      -3.753 -15.292  -8.512  1.00  0.00     0.034 C 
BRANCH   4   5
ATOM      5  C   UNL     1      -5.090 -14.587  -8.773  1.00  0.00     0.032 C 
BRANCH   5   6
ATOM      6  C   UNL     1      -5.700 -14.106  -7.481  1.00  0.00    -0.028 C 
ATOM      7  C   UNL     1      -5.244 -11.694  -7.976  1.00  0.00     0.039 C 
ATOM      8  C   UNL     1      -5.754 -12.811  -7.097  1.00  0.00    -0.080 C 
ATOM      9  C   UNL     1      -6.357 -12.485  -5.756  1.00  0.00     0.039 C 
ENDBRANCH   5   6
ENDBRANCH   4   5
ENDBRANCH   1   4
BRANCH   2  10
ATOM     10  C   UNL     1      -1.972 -15.455  -6.015  1.00  0.00     0.035 C 
BRANCH  10  11
ATOM     11  C   UNL     1      -3.158 -15.199  -5.080  1.00  0.00     0.079 C 
BRANCH  11  12
ATOM     12  C   UNL     1      -4.116 -16.360  -5.102  1.00  0.00     0.130 C 
ATOM     13  O   UNL     1      -5.226 -16.233  -4.607  1.00  0.00    -0.300 OA
ATOM     14  C   UNL     1      -3.744 -17.669  -5.733  1.00  0.00     0.087 C 
ENDBRANCH  11  12
ENDBRANCH  10  11
ENDBRANCH   2  10
TORSDOF 6
ENDMDL
MODEL 2
REMARK VINA RESULT:    -4.022      1.549      4.341
REMARK INTER + INTRA:          -6.652
REMARK INTER:                  -5.990
REMARK INTRA:                  -0.661
REMARK UNBOUND:                -1.219
REMARK SMILES CC(=O)CCC=C(C)CCC=C(C)C
REMARK SMILES IDX 7 1 6 2 8 3 9 4 10 5 11 6 13 7 12 8 14 9 5 10 4 11 2 12 3 13
REMARK SMILES IDX 1 14
REMARK H PARENT
REMARK Flexibility Score: inf
ROOT
ATOM      1  C   UNL     1      -3.529 -11.588  -8.390  1.00  0.00    -0.077 C 
ATOM      2  C   UNL     1      -4.809 -11.579  -8.830  1.00  0.00    -0.028 C 
ATOM      3  C   UNL     1      -2.546 -10.661  -9.060  1.00  0.00     0.039 C 
ENDROOT
BRANCH   1   4
ATOM      4  C   UNL     1      -3.038 -12.484  -7.268  1.00  0.00     0.034 C 
BRANCH   4   5
ATOM      5  C   UNL     1      -2.406 -13.768  -7.819  1.00  0.00     0.032 C 
BRANCH   5   6
ATOM      6  C   UNL     1      -1.390 -14.319  -6.851  1.00  0.00    -0.028 C 
ATOM      7  C   UNL     1      -3.022 -15.890  -5.782  1.00  0.00     0.039 C 
ATOM      8  C   UNL     1      -1.657 -15.255  -5.913  1.00  0.00    -0.080 C 
ATOM      9  C   UNL     1      -0.548 -15.680  -4.986  1.00  0.00     0.039 C 
ENDBRANCH   5   6
ENDBRANCH   4   5
ENDBRANCH   1   4
BRANCH   2  10
ATOM     10  C   UNL     1      -5.940 -12.414  -8.275  1.00  0.00     0.035 C 
BRANCH  10  11
ATOM     11  C   UNL     1      -6.113 -13.689  -9.106  1.00  0.00     0.079 C 
BRANCH  11  12
ATOM     12  C   UNL     1      -5.544 -14.880  -8.382  1.00  0.00     0.130 C 
ATOM     13  O   UNL     1      -5.623 -14.938  -7.164  1.00  0.00    -0.300 OA
ATOM     14  C   UNL     1      -4.894 -16.010  -9.125  1.00  0.00     0.087 C 
ENDBRANCH  11  12
ENDBRANCH  10  11
ENDBRANCH   2  10
TORSDOF 6
ENDMDL
MODEL 3
REMARK VINA RESULT:    -3.872      1.648      2.983
REMARK INTER + INTRA:          -6.450
REMARK INTER:                  -5.380
REMARK INTRA:                  -1.069
REMARK UNBOUND:                -1.219
REMARK SMILES CC(=O)CCC=C(C)CCC=C(C)C
REMARK SMILES IDX 7 1 6 2 8 3 9 4 10 5 11 6 13 7 12 8 14 9 5 10 4 11 2 12 3 13
REMARK SMILES IDX 1 14
REMARK H PARENT
REMARK Flexibility Score: inf
ROOT
ATOM      1  C   UNL     1      -4.941 -15.217  -7.615  1.00  0.00    -0.077 C 
ATOM      2  C   UNL     1      -4.214 -16.134  -6.935  1.00  0.00    -0.028 C 
ATOM      3  C   UNL     1      -4.950 -15.298  -9.122  1.00  0.00     0.039 C 
ENDROOT
BRANCH   1   4
ATOM      4  C   UNL     1      -5.738 -14.116  -6.941  1.00  0.00     0.034 C 
BRANCH   4   5
ATOM      5  C   UNL     1      -5.799 -12.859  -7.817  1.00  0.00     0.032 C 
BRANCH   5   6
ATOM      6  C   UNL     1      -4.791 -11.838  -7.355  1.00  0.00    -0.028 C 
ATOM      7  C   UNL     1      -3.125 -12.446  -9.124  1.00  0.00     0.039 C 
ATOM      8  C   UNL     1      -3.574 -11.658  -7.917  1.00  0.00    -0.080 C 
ATOM      9  C   UNL     1      -2.653 -10.625  -7.319  1.00  0.00     0.039 C 
ENDBRANCH   5   6
ENDBRANCH   4   5
ENDBRANCH   1   4
BRANCH   2  10
ATOM     10  C   UNL     1      -4.098 -16.231  -5.432  1.00  0.00     0.035 C 
BRANCH  10  11
ATOM     11  C   UNL     1      -3.123 -15.172  -4.908  1.00  0.00     0.079 C 
BRANCH  11  12
ATOM     12  C   UNL     1      -1.753 -15.367  -5.503  1.00  0.00     0.130 C 
ATOM     13  O   UNL     1      -1.118 -16.376  -5.233  1.00  0.00    -0.300 OA
ATOM     14  C   UNL     1      -1.153 -14.354  -6.433  1.00  0.00     0.087 C 
ENDBRANCH  11  12
ENDBRANCH  10  11
ENDBRANCH   2  10
TORSDOF 6
ENDMDL
MODEL 4
REMARK VINA RESULT:    -3.764      2.329      5.472
REMARK INTER + INTRA:          -6.304
REMARK INTER:                  -5.706
REMARK INTRA:                  -0.598
REMARK UNBOUND:                -1.219
REMARK SMILES CC(=O)CCC=C(C)CCC=C(C)C
REMARK SMILES IDX 7 1 6 2 8 3 9 4 10 5 11 6 13 7 12 8 14 9 5 10 4 11 2 12 3 13
REMARK SMILES IDX 1 14
REMARK H PARENT
REMARK Flexibility Score: inf
ROOT
ATOM      1  C   UNL     1      -3.728 -15.498  -6.785  1.00  0.00    -0.077 C 
ATOM      2  C   UNL     1      -4.344 -15.535  -7.990  1.00  0.00    -0.028 C 
ATOM      3  C   UNL     1      -3.978 -16.637  -5.828  1.00  0.00     0.039 C 
ENDROOT
BRANCH   1   4
ATOM      4  C   UNL     1      -2.807 -14.372  -6.352  1.00  0.00     0.034 C 
BRANCH   4   5
ATOM      5  C   UNL     1      -1.335 -14.766  -6.514  1.00  0.00     0.032 C 
BRANCH   5   6
ATOM      6  C   UNL     1      -0.859 -15.552  -5.318  1.00  0.00    -0.028 C 
ATOM      7  C   UNL     1       1.427 -14.529  -5.353  1.00  0.00     0.039 C 
ATOM      8  C   UNL     1       0.387 -15.475  -4.800  1.00  0.00    -0.080 C 
ATOM      9  C   UNL     1       0.733 -16.355  -3.626  1.00  0.00     0.039 C 
ENDBRANCH   5   6
ENDBRANCH   4   5
ENDBRANCH   1   4
BRANCH   2  10
ATOM     10  C   UNL     1      -4.203 -14.505  -9.086  1.00  0.00     0.035 C 
BRANCH  10  11
ATOM     11  C   UNL     1      -5.326 -13.468  -8.985  1.00  0.00     0.079 C 
BRANCH  11  12
ATOM     12  C   UNL     1      -4.808 -12.173  -8.418  1.00  0.00     0.130 C 
ATOM     13  O   UNL     1      -5.248 -11.763  -7.354  1.00  0.00    -0.300 OA
ATOM     14  C   UNL     1      -3.751 -11.377  -9.125  1.00  0.00     0.087 C 
ENDBRANCH  11  12
ENDBRANCH  10  11
ENDBRANCH   2  10
TORSDOF 6
ENDMDL
MODEL 5
REMARK VINA RESULT:    -3.723      1.810      4.296
REMARK INTER + INTRA:          -6.248
REMARK INTER:                  -5.702
REMARK INTRA:                  -0.546
REMARK UNBOUND:                -1.219
REMARK SMILES CC(=O)CCC=C(C)CCC=C(C)C
REMARK SMILES IDX 7 1 6 2 8 3 9 4 10 5 11 6 13 7 12 8 14 9 5 10 4 11 2 12 3 13
REMARK SMILES IDX 1 14
REMARK H PARENT
REMARK Flexibility Score: inf
ROOT
ATOM      1  C   UNL     1      -3.425 -13.011  -7.270  1.00  0.00    -0.077 C 
ATOM      2  C   UNL     1      -4.611 -13.621  -7.505  1.00  0.00    -0.028 C 
ATOM      3  C   UNL     1      -3.022 -11.876  -8.178  1.00  0.00     0.039 C 
ENDROOT
BRANCH   1   4
ATOM      4  C   UNL     1      -2.487 -13.414  -6.148  1.00  0.00     0.034 C 
BRANCH   4   5
ATOM      5  C   UNL     1      -1.403 -14.376  -6.650  1.00  0.00     0.032 C 
BRANCH   5   6
ATOM      6  C   UNL     1      -1.020 -15.357  -5.571  1.00  0.00    -0.028 C 
ATOM      7  C   UNL     1       1.334 -14.515  -5.417  1.00  0.00     0.039 C 
ATOM      8  C   UNL     1       0.213 -15.449  -5.024  1.00  0.00    -0.080 C 
ATOM      9  C   UNL     1       0.460 -16.509  -3.982  1.00  0.00     0.039 C 
ENDBRANCH   5   6
ENDBRANCH   4   5
ENDBRANCH   1   4
BRANCH   2  10
ATOM     10  C   UNL     1      -5.196 -14.755  -6.697  1.00  0.00     0.035 C 
BRANCH  10  11
ATOM     11  C   UNL     1      -4.367 -16.028  -6.895  1.00  0.00     0.079 C 
BRANCH  11  12
ATOM     12  C   UNL     1      -4.247 -16.794  -5.604  1.00  0.00     0.130 C 
ATOM     13  O   UNL     1      -4.613 -16.275  -4.560  1.00  0.00    -0.300 OA
ATOM     14  C   UNL     1      -3.698 -18.189  -5.571  1.00  0.00     0.087 C 
ENDBRANCH  11  12
ENDBRANCH  10  11
ENDBRANCH   2  10
TORSDOF 6
ENDMDL
MODEL 6
REMARK VINA RESULT:    -3.674      1.412      2.068
REMARK INTER + INTRA:          -6.181
REMARK INTER:                  -5.464
REMARK INTRA:                  -0.718
REMARK UNBOUND:                -1.219
REMARK SMILES CC(=O)CCC=C(C)CCC=C(C)C
REMARK SMILES IDX 7 1 6 2 8 3 9 4 10 5 11 6 13 7 12 8 14 9 5 10 4 11 2 12 3 13
REMARK SMILES IDX 1 14
REMARK H PARENT
REMARK Flexibility Score: inf
ROOT
ATOM      1  C   UNL     1      -2.382 -13.354  -6.592  1.00  0.00    -0.077 C 
ATOM      2  C   UNL     1      -2.599 -14.050  -5.451  1.00  0.00    -0.028 C 
ATOM      3  C   UNL     1      -2.726 -11.886  -6.600  1.00  0.00     0.039 C 
ENDROOT
BRANCH   1   4
ATOM      4  C   UNL     1      -1.818 -13.977  -7.855  1.00  0.00     0.034 C 
BRANCH   4   5
ATOM      5  C   UNL     1      -2.617 -13.546  -9.091  1.00  0.00     0.032 C 
BRANCH   5   6
ATOM      6  C   UNL     1      -3.958 -14.233  -9.125  1.00  0.00    -0.028 C 
ATOM      7  C   UNL     1      -5.241 -12.087  -8.975  1.00  0.00     0.039 C 
ATOM      8  C   UNL     1      -5.147 -13.593  -9.048  1.00  0.00    -0.080 C 
ATOM      9  C   UNL     1      -6.408 -14.418  -9.052  1.00  0.00     0.039 C 
ENDBRANCH   5   6
ENDBRANCH   4   5
ENDBRANCH   1   4
BRANCH   2  10
ATOM     10  C   UNL     1      -2.300 -15.516  -5.240  1.00  0.00     0.035 C 
BRANCH  10  11
ATOM     11  C   UNL     1      -3.182 -16.372  -6.153  1.00  0.00     0.079 C 
BRANCH  11  12
ATOM     12  C   UNL     1      -4.129 -17.217  -5.343  1.00  0.00     0.130 C 
ATOM     13  O   UNL     1      -4.962 -16.674  -4.633  1.00  0.00    -0.300 OA
ATOM     14  C   UNL     1      -4.082 -18.715  -5.397  1.00  0.00     0.087 C 
ENDBRANCH  11  12
ENDBRANCH  10  11
ENDBRANCH   2  10
TORSDOF 6
ENDMDL
MODEL 7
REMARK VINA RESULT:    -3.655      2.317      4.407
REMARK INTER + INTRA:          -6.155
REMARK INTER:                  -4.998
REMARK INTRA:                  -1.158
REMARK UNBOUND:                -1.219
REMARK SMILES CC(=O)CCC=C(C)CCC=C(C)C
REMARK SMILES IDX 7 1 6 2 8 3 9 4 10 5 11 6 13 7 12 8 14 9 5 10 4 11 2 12 3 13
REMARK SMILES IDX 1 14
REMARK H PARENT
REMARK Flexibility Score: inf
ROOT
ATOM      1  C   UNL     1      -2.176 -15.040  -5.735  1.00  0.00    -0.077 C 
ATOM      2  C   UNL     1      -1.780 -14.071  -6.593  1.00  0.00    -0.028 C 
ATOM      3  C   UNL     1      -1.209 -16.161  -5.441  1.00  0.00     0.039 C 
ENDROOT
BRANCH   1   4
ATOM      4  C   UNL     1      -3.536 -15.057  -5.064  1.00  0.00     0.034 C 
BRANCH   4   5
ATOM      5  C   UNL     1      -4.553 -15.854  -5.890  1.00  0.00     0.032 C 
BRANCH   5   6
ATOM      6  C   UNL     1      -5.407 -14.929  -6.720  1.00  0.00    -0.028 C 
ATOM      7  C   UNL     1      -4.592 -15.866  -8.895  1.00  0.00     0.039 C 
ATOM      8  C   UNL     1      -5.417 -14.905  -8.071  1.00  0.00    -0.080 C 
ATOM      9  C   UNL     1      -6.293 -13.894  -8.765  1.00  0.00     0.039 C 
ENDBRANCH   5   6
ENDBRANCH   4   5
ENDBRANCH   1   4
BRANCH   2  10
ATOM     10  C   UNL     1      -2.592 -12.861  -6.994  1.00  0.00     0.035 C 
BRANCH  10  11
ATOM     11  C   UNL     1      -2.611 -12.720  -8.519  1.00  0.00     0.079 C 
BRANCH  11  12
ATOM     12  C   UNL     1      -3.167 -11.381  -8.925  1.00  0.00     0.130 C 
ATOM     13  O   UNL     1      -4.367 -11.263  -9.124  1.00  0.00    -0.300 OA
ATOM     14  C   UNL     1      -2.281 -10.180  -9.077  1.00  0.00     0.087 C 
ENDBRANCH  11  12
ENDBRANCH  10  11
ENDBRANCH   2  10
TORSDOF 6
ENDMDL
MODEL 8
REMARK VINA RESULT:    -3.524      2.491      3.485
REMARK INTER + INTRA:          -5.978
REMARK INTER:                  -5.067
REMARK INTRA:                  -0.911
REMARK UNBOUND:                -1.219
REMARK SMILES CC(=O)CCC=C(C)CCC=C(C)C
REMARK SMILES IDX 7 1 6 2 8 3 9 4 10 5 11 6 13 7 12 8 14 9 5 10 4 11 2 12 3 13
REMARK SMILES IDX 1 14
REMARK H PARENT
REMARK Flexibility Score: inf
ROOT
ATOM      1  C   UNL     1      -3.935 -15.095  -6.559  1.00  0.00    -0.077 C 
ATOM      2  C   UNL     1      -2.942 -14.960  -5.649  1.00  0.00    -0.028 C 
ATOM      3  C   UNL     1      -5.349 -14.824  -6.107  1.00  0.00     0.039 C 
ENDROOT
BRANCH   1   4
ATOM      4  C   UNL     1      -3.697 -15.508  -7.999  1.00  0.00     0.034 C 
BRANCH   4   5
ATOM      5  C   UNL     1      -4.342 -14.516  -8.974  1.00  0.00     0.032 C 
BRANCH   5   6
ATOM      6  C   UNL     1      -3.487 -13.284  -9.125  1.00  0.00    -0.028 C 
ATOM      7  C   UNL     1      -5.270 -11.745  -8.273  1.00  0.00     0.039 C 
ATOM      8  C   UNL     1      -3.898 -12.029  -8.838  1.00  0.00    -0.080 C 
ATOM      9  C   UNL     1      -2.944 -10.888  -9.079  1.00  0.00     0.039 C 
ENDBRANCH   5   6
ENDBRANCH   4   5
ENDBRANCH   1   4
BRANCH   2  10
ATOM     10  C   UNL     1      -1.468 -15.164  -5.913  1.00  0.00     0.035 C 
BRANCH  10  11
ATOM     11  C   UNL     1      -0.914 -16.260  -4.998  1.00  0.00     0.079 C 
BRANCH  11  12
ATOM     12  C   UNL     1       0.392 -15.833  -4.383  1.00  0.00     0.130 C 
ATOM     13  O   UNL     1       1.139 -15.096  -5.008  1.00  0.00    -0.300 OA
ATOM     14  C   UNL     1       0.793 -16.283  -3.009  1.00  0.00     0.087 C 
ENDBRANCH  11  12
ENDBRANCH  10  11
ENDBRANCH   2  10
TORSDOF 6
ENDMDL
MODEL 9
REMARK VINA RESULT:    -3.153      1.759      4.382
REMARK INTER + INTRA:          -5.478
REMARK INTER:                  -4.565
REMARK INTRA:                  -0.913
REMARK UNBOUND:                -1.219
REMARK SMILES CC(=O)CCC=C(C)CCC=C(C)C
REMARK SMILES IDX 7 1 6 2 8 3 9 4 10 5 11 6 13 7 12 8 14 9 5 10 4 11 2 12 3 13
REMARK SMILES IDX 1 14
REMARK H PARENT
REMARK Flexibility Score: inf
ROOT
ATOM      1  C   UNL     1      -2.525 -13.959  -7.790  1.00  0.00    -0.077 C 
ATOM      2  C   UNL     1      -2.597 -12.641  -8.090  1.00  0.00    -0.028 C 
ATOM      3  C   UNL     1      -1.568 -14.385  -6.704  1.00  0.00     0.039 C 
ENDROOT
BRANCH   1   4
ATOM      4  C   UNL     1      -3.349 -15.022  -8.492  1.00  0.00     0.034 C 
BRANCH   4   5
ATOM      5  C   UNL     1      -4.476 -15.537  -7.589  1.00  0.00     0.032 C 
BRANCH   5   6
ATOM      6  C   UNL     1      -4.168 -16.927  -7.093  1.00  0.00    -0.028 C 
ATOM      7  C   UNL     1      -4.132 -16.234  -4.686  1.00  0.00     0.039 C 
ATOM      8  C   UNL     1      -3.985 -17.251  -5.793  1.00  0.00    -0.080 C 
ATOM      9  C   UNL     1      -3.640 -18.677  -5.450  1.00  0.00     0.039 C 
ENDBRANCH   5   6
ENDBRANCH   4   5
ENDBRANCH   1   4
BRANCH   2  10
ATOM     10  C   UNL     1      -3.505 -12.019  -9.125  1.00  0.00     0.035 C 
BRANCH  10  11
ATOM     11  C   UNL     1      -4.696 -11.340  -8.443  1.00  0.00     0.079 C 
BRANCH  11  12
ATOM     12  C   UNL     1      -5.698 -12.361  -7.975  1.00  0.00     0.130 C 
ATOM     13  O   UNL     1      -6.312 -13.024  -8.798  1.00  0.00    -0.300 OA
ATOM     14  C   UNL     1      -5.953 -12.595  -6.515  1.00  0.00     0.087 C 
ENDBRANCH  11  12
ENDBRANCH  10  11
ENDBRANCH   2  10
TORSDOF 6
ENDMDL
