MODEL 1
REMARK VINA RESULT:    -2.979      0.000      0.000
REMARK INTER + INTRA:          -4.583
REMARK INTER:                  -4.024
REMARK INTRA:                  -0.559
REMARK UNBOUND:                -0.559
REMARK SMILES CCCCCCCC(=O)[O-]
REMARK SMILES IDX 5 1 6 2 7 3 8 4 9 5 10 6 4 7 3 8 2 9 1 10
REMARK H PARENT
REMARK Flexibility Score: inf
ROOT
ATOM      1  C   UNL     1      -4.587  29.891 106.888  1.00  0.00     0.000 C 
ENDROOT
BRANCH   1   2
ATOM      2  C   UNL     1      -5.667  29.732 107.968  1.00  0.00     0.006 C 
BRANCH   2   3
ATOM      3  C   UNL     1      -6.642  28.607 107.606  1.00  0.00     0.053 C 
BRANCH   3   4
ATOM      4  C   UNL     1      -7.732  29.124 106.722  1.00  0.00     0.041 C 
ATOM      5  O   UNL     1      -8.232  30.261 106.930  1.00  0.00    -0.550 OA
ATOM      6  O   UNL     1      -8.232  28.330 105.697  1.00  0.00    -0.550 OA
ENDBRANCH   3   4
ENDBRANCH   2   3
ENDBRANCH   1   2
BRANCH   1   7
ATOM      7  C   UNL     1      -4.259  31.364 106.583  1.00  0.00     0.000 C 
BRANCH   7   8
ATOM      8  C   UNL     1      -4.576  31.821 105.144  1.00  0.00    -0.000 C 
BRANCH   8   9
ATOM      9  C   UNL     1      -5.475  30.864 104.342  1.00  0.00    -0.003 C 
ATOM     10  C   UNL     1      -6.810  31.493 103.944  1.00  0.00     0.004 C 
ENDBRANCH   8   9
ENDBRANCH   7   8
ENDBRANCH   1   7
TORSDOF 6
ENDMDL
MODEL 2
REMARK VINA RESULT:    -2.912     19.220     20.954
REMARK INTER + INTRA:          -4.492
REMARK INTER:                  -4.087
REMARK INTRA:                  -0.404
REMARK UNBOUND:                -0.559
REMARK SMILES CCCCCCCC(=O)[O-]
REMARK SMILES IDX 5 1 6 2 7 3 8 4 9 5 10 6 4 7 3 8 2 9 1 10
REMARK H PARENT
REMARK Flexibility Score: inf
ROOT
ATOM      1  C   UNL     1     -20.259  40.914  93.232  1.00  0.00     0.000 C 
ENDROOT
BRANCH   1   2
ATOM      2  C   UNL     1     -20.193  39.455  92.758  1.00  0.00     0.006 C 
BRANCH   2   3
ATOM      3  C   UNL     1     -18.773  39.086  92.316  1.00  0.00     0.053 C 
BRANCH   3   4
ATOM      4  C   UNL     1     -18.781  38.556  90.917  1.00  0.00     0.041 C 
ATOM      5  O   UNL     1     -19.430  39.150  90.017  1.00  0.00    -0.550 OA
ATOM      6  O   UNL     1     -18.111  37.376  90.618  1.00  0.00    -0.550 OA
ENDBRANCH   3   4
ENDBRANCH   2   3
ENDBRANCH   1   2
BRANCH   1   7
ATOM      7  C   UNL     1     -18.927  41.413  93.820  1.00  0.00     0.000 C 
BRANCH   7   8
ATOM      8  C   UNL     1     -18.808  41.303  95.354  1.00  0.00    -0.000 C 
BRANCH   8   9
ATOM      9  C   UNL     1     -17.373  41.135  95.885  1.00  0.00    -0.003 C 
ATOM     10  C   UNL     1     -16.336  41.011  94.769  1.00  0.00     0.004 C 
ENDBRANCH   8   9
ENDBRANCH   7   8
ENDBRANCH   1   7
TORSDOF 6
ENDMDL
MODEL 3
REMARK VINA RESULT:    -2.880     20.012     21.280
REMARK INTER + INTRA:          -4.449
REMARK INTER:                  -4.227
REMARK INTRA:                  -0.222
REMARK UNBOUND:                -0.559
REMARK SMILES CCCCCCCC(=O)[O-]
REMARK SMILES IDX 5 1 6 2 7 3 8 4 9 5 10 6 4 7 3 8 2 9 1 10
REMARK H PARENT
REMARK Flexibility Score: inf
ROOT
ATOM      1  C   UNL     1     -20.192  39.229  92.706  1.00  0.00     0.000 C 
ENDROOT
BRANCH   1   2
ATOM      2  C   UNL     1     -20.174  40.220  93.879  1.00  0.00     0.006 C 
BRANCH   2   3
ATOM      3  C   UNL     1     -19.134  41.321  93.649  1.00  0.00     0.053 C 
BRANCH   3   4
ATOM      4  C   UNL     1     -18.208  41.419  94.820  1.00  0.00     0.041 C 
ATOM      5  O   UNL     1     -18.668  41.586  95.981  1.00  0.00    -0.550 OA
ATOM      6  O   UNL     1     -16.833  41.375  94.625  1.00  0.00    -0.550 OA
ENDBRANCH   3   4
ENDBRANCH   2   3
ENDBRANCH   1   2
BRANCH   1   7
ATOM      7  C   UNL     1     -19.036  39.454  91.715  1.00  0.00     0.000 C 
BRANCH   7   8
ATOM      8  C   UNL     1     -19.239  38.827  90.320  1.00  0.00    -0.000 C 
BRANCH   8   9
ATOM      9  C   UNL     1     -19.365  37.294  90.309  1.00  0.00    -0.003 C 
ATOM     10  C   UNL     1     -19.692  36.733  88.925  1.00  0.00     0.004 C 
ENDBRANCH   8   9
ENDBRANCH   7   8
ENDBRANCH   1   7
TORSDOF 6
ENDMDL
MODEL 4
REMARK VINA RESULT:    -2.865      2.006      2.882
REMARK INTER + INTRA:          -4.428
REMARK INTER:                  -3.939
REMARK INTRA:                  -0.489
REMARK UNBOUND:                -0.559
REMARK SMILES CCCCCCCC(=O)[O-]
REMARK SMILES IDX 5 1 6 2 7 3 8 4 9 5 10 6 4 7 3 8 2 9 1 10
REMARK H PARENT
REMARK Flexibility Score: inf
ROOT
ATOM      1  C   UNL     1      -8.072  30.337 106.377  1.00  0.00     0.000 C 
ENDROOT
BRANCH   1   2
ATOM      2  C   UNL     1      -7.277  29.026 106.464  1.00  0.00     0.006 C 
BRANCH   2   3
ATOM      3  C   UNL     1      -6.498  28.945 107.780  1.00  0.00     0.053 C 
BRANCH   3   4
ATOM      4  C   UNL     1      -5.292  29.830 107.730  1.00  0.00     0.041 C 
ATOM      5  O   UNL     1      -5.214  30.838 108.481  1.00  0.00    -0.550 OA
ATOM      6  O   UNL     1      -4.276  29.570 106.819  1.00  0.00    -0.550 OA
ENDBRANCH   3   4
ENDBRANCH   2   3
ENDBRANCH   1   2
BRANCH   1   7
ATOM      7  C   UNL     1      -7.572  31.266 105.257  1.00  0.00     0.000 C 
BRANCH   7   8
ATOM      8  C   UNL     1      -6.598  30.615 104.253  1.00  0.00    -0.000 C 
BRANCH   8   9
ATOM      9  C   UNL     1      -5.296  31.399 104.009  1.00  0.00    -0.003 C 
ATOM     10  C   UNL     1      -4.303  30.643 103.126  1.00  0.00     0.004 C 
ENDBRANCH   8   9
ENDBRANCH   7   8
ENDBRANCH   1   7
TORSDOF 6
ENDMDL
MODEL 5
REMARK VINA RESULT:    -2.850     15.733     17.511
REMARK INTER + INTRA:          -4.409
REMARK INTER:                  -4.214
REMARK INTRA:                  -0.195
REMARK UNBOUND:                -0.559
REMARK SMILES CCCCCCCC(=O)[O-]
REMARK SMILES IDX 5 1 6 2 7 3 8 4 9 5 10 6 4 7 3 8 2 9 1 10
REMARK H PARENT
REMARK Flexibility Score: inf
ROOT
ATOM      1  C   UNL     1      -3.827  42.927  96.782  1.00  0.00     0.000 C 
ENDROOT
BRANCH   1   2
ATOM      2  C   UNL     1      -3.556  44.434  96.669  1.00  0.00     0.006 C 
BRANCH   2   3
ATOM      3  C   UNL     1      -2.709  44.746  95.431  1.00  0.00     0.053 C 
BRANCH   3   4
ATOM      4  C   UNL     1      -1.713  45.820  95.736  1.00  0.00     0.041 C 
ATOM      5  O   UNL     1      -0.875  46.174  94.864  1.00  0.00    -0.550 OA
ATOM      6  O   UNL     1      -1.676  46.397  96.999  1.00  0.00    -0.550 OA
ENDBRANCH   3   4
ENDBRANCH   2   3
ENDBRANCH   1   2
BRANCH   1   7
ATOM      7  C   UNL     1      -2.721  42.070  96.142  1.00  0.00     0.000 C 
BRANCH   7   8
ATOM      8  C   UNL     1      -2.203  40.910  97.017  1.00  0.00    -0.000 C 
BRANCH   8   9
ATOM      9  C   UNL     1      -2.385  39.507  96.411  1.00  0.00    -0.003 C 
ATOM     10  C   UNL     1      -1.221  39.093  95.510  1.00  0.00     0.004 C 
ENDBRANCH   8   9
ENDBRANCH   7   8
ENDBRANCH   1   7
TORSDOF 6
ENDMDL
MODEL 6
REMARK VINA RESULT:    -2.847     15.061     16.637
REMARK INTER + INTRA:          -4.404
REMARK INTER:                  -4.245
REMARK INTRA:                  -0.159
REMARK UNBOUND:                -0.559
REMARK SMILES CCCCCCCC(=O)[O-]
REMARK SMILES IDX 5 1 6 2 7 3 8 4 9 5 10 6 4 7 3 8 2 9 1 10
REMARK H PARENT
REMARK Flexibility Score: inf
ROOT
ATOM      1  C   UNL     1      -3.136  42.775  96.655  1.00  0.00     0.000 C 
ENDROOT
BRANCH   1   2
ATOM      2  C   UNL     1      -2.725  41.481  95.938  1.00  0.00     0.006 C 
BRANCH   2   3
ATOM      3  C   UNL     1      -2.186  40.450  96.936  1.00  0.00     0.053 C 
BRANCH   3   4
ATOM      4  C   UNL     1      -1.594  39.281  96.213  1.00  0.00     0.041 C 
ATOM      5  O   UNL     1      -1.123  39.424  95.054  1.00  0.00    -0.550 OA
ATOM      6  O   UNL     1      -1.607  38.022  96.800  1.00  0.00    -0.550 OA
ENDBRANCH   3   4
ENDBRANCH   2   3
ENDBRANCH   1   2
BRANCH   1   7
ATOM      7  C   UNL     1      -2.829  44.038  95.831  1.00  0.00     0.000 C 
BRANCH   7   8
ATOM      8  C   UNL     1      -2.743  45.345  96.646  1.00  0.00    -0.000 C 
BRANCH   8   9
ATOM      9  C   UNL     1      -1.675  46.343  96.164  1.00  0.00    -0.003 C 
ATOM     10  C   UNL     1      -1.189  46.055  94.744  1.00  0.00     0.004 C 
ENDBRANCH   8   9
ENDBRANCH   7   8
ENDBRANCH   1   7
TORSDOF 6
ENDMDL
MODEL 7
REMARK VINA RESULT:    -2.834     19.047     20.191
REMARK INTER + INTRA:          -4.387
REMARK INTER:                  -3.813
REMARK INTRA:                  -0.574
REMARK UNBOUND:                -0.559
REMARK SMILES CCCCCCCC(=O)[O-]
REMARK SMILES IDX 5 1 6 2 7 3 8 4 9 5 10 6 4 7 3 8 2 9 1 10
REMARK H PARENT
REMARK Flexibility Score: inf
ROOT
ATOM      1  C   UNL     1     -17.377  40.943  95.914  1.00  0.00     0.000 C 
ENDROOT
BRANCH   1   2
ATOM      2  C   UNL     1     -17.452  41.245  94.410  1.00  0.00     0.006 C 
BRANCH   2   3
ATOM      3  C   UNL     1     -18.890  41.558  93.985  1.00  0.00     0.053 C 
BRANCH   3   4
ATOM      4  C   UNL     1     -19.422  40.476  93.099  1.00  0.00     0.041 C 
ATOM      5  O   UNL     1     -18.640  39.625  92.598  1.00  0.00    -0.550 OA
ATOM      6  O   UNL     1     -20.774  40.436  92.786  1.00  0.00    -0.550 OA
ENDBRANCH   3   4
ENDBRANCH   2   3
ENDBRANCH   1   2
BRANCH   1   7
ATOM      7  C   UNL     1     -18.488  41.640  96.720  1.00  0.00     0.000 C 
BRANCH   7   8
ATOM      8  C   UNL     1     -19.326  40.709  97.619  1.00  0.00    -0.000 C 
BRANCH   8   9
ATOM      9  C   UNL     1     -19.487  39.271  97.095  1.00  0.00    -0.003 C 
ATOM     10  C   UNL     1     -20.761  39.076  96.273  1.00  0.00     0.004 C 
ENDBRANCH   8   9
ENDBRANCH   7   8
ENDBRANCH   1   7
TORSDOF 6
ENDMDL
MODEL 8
REMARK VINA RESULT:    -2.825      2.278      4.037
REMARK INTER + INTRA:          -4.374
REMARK INTER:                  -3.782
REMARK INTRA:                  -0.592
REMARK UNBOUND:                -0.559
REMARK SMILES CCCCCCCC(=O)[O-]
REMARK SMILES IDX 5 1 6 2 7 3 8 4 9 5 10 6 4 7 3 8 2 9 1 10
REMARK H PARENT
REMARK Flexibility Score: inf
ROOT
ATOM      1  C   UNL     1      -8.004  30.309 106.760  1.00  0.00     0.000 C 
ENDROOT
BRANCH   1   2
ATOM      2  C   UNL     1      -7.603  31.221 105.592  1.00  0.00     0.006 C 
BRANCH   2   3
ATOM      3  C   UNL     1      -6.898  30.423 104.490  1.00  0.00     0.053 C 
BRANCH   3   4
ATOM      4  C   UNL     1      -5.789  31.226 103.888  1.00  0.00     0.041 C 
ATOM      5  O   UNL     1      -4.717  30.665 103.539  1.00  0.00    -0.550 OA
ATOM      6  O   UNL     1      -5.920  32.603 103.759  1.00  0.00    -0.550 OA
ENDBRANCH   3   4
ENDBRANCH   2   3
ENDBRANCH   1   2
BRANCH   1   7
ATOM      7  C   UNL     1      -7.127  29.048 106.862  1.00  0.00     0.000 C 
BRANCH   7   8
ATOM      8  C   UNL     1      -5.927  29.161 107.824  1.00  0.00    -0.000 C 
BRANCH   8   9
ATOM      9  C   UNL     1      -4.585  29.499 107.152  1.00  0.00    -0.003 C 
ATOM     10  C   UNL     1      -4.189  30.966 107.318  1.00  0.00     0.004 C 
ENDBRANCH   8   9
ENDBRANCH   7   8
ENDBRANCH   1   7
TORSDOF 6
ENDMDL
MODEL 9
REMARK VINA RESULT:    -2.804     18.738     20.566
REMARK INTER + INTRA:          -4.346
REMARK INTER:                  -3.997
REMARK INTRA:                  -0.349
REMARK UNBOUND:                -0.559
REMARK SMILES CCCCCCCC(=O)[O-]
REMARK SMILES IDX 5 1 6 2 7 3 8 4 9 5 10 6 4 7 3 8 2 9 1 10
REMARK H PARENT
REMARK Flexibility Score: inf
ROOT
ATOM      1  C   UNL     1     -19.857  40.278  93.905  1.00  0.00     0.000 C 
ENDROOT
BRANCH   1   2
ATOM      2  C   UNL     1     -18.921  41.492  93.824  1.00  0.00     0.006 C 
BRANCH   2   3
ATOM      3  C   UNL     1     -17.578  41.194  94.497  1.00  0.00     0.053 C 
BRANCH   3   4
ATOM      4  C   UNL     1     -17.768  40.945  95.960  1.00  0.00     0.041 C 
ATOM      5  O   UNL     1     -17.350  39.878  96.481  1.00  0.00    -0.550 OA
ATOM      6  O   UNL     1     -18.452  41.870  96.739  1.00  0.00    -0.550 OA
ENDBRANCH   3   4
ENDBRANCH   2   3
ENDBRANCH   1   2
BRANCH   1   7
ATOM      7  C   UNL     1     -20.534  39.954  92.561  1.00  0.00     0.000 C 
BRANCH   7   8
ATOM      8  C   UNL     1     -19.631  39.251  91.527  1.00  0.00    -0.000 C 
BRANCH   8   9
ATOM      9  C   UNL     1     -19.169  37.838  91.922  1.00  0.00    -0.003 C 
ATOM     10  C   UNL     1     -20.320  36.835  92.000  1.00  0.00     0.004 C 
ENDBRANCH   8   9
ENDBRANCH   7   8
ENDBRANCH   1   7
TORSDOF 6
ENDMDL
