MODEL 1
REMARK VINA RESULT:    -5.529      0.000      0.000
REMARK INTER + INTRA:          -6.975
REMARK INTER:                  -6.660
REMARK INTRA:                  -0.314
REMARK UNBOUND:                -0.314
REMARK SMILES Oc1cc(O)c2cc(O)c(-c3ccc(O)c(O)c3)[o+]c2c1
REMARK SMILES IDX 10 1 19 2 20 3 21 4 2 5 3 6 4 7 6 8 7 9 8 10 11 11 12 12
REMARK SMILES IDX 13 13 14 14 18 15 16 16 15 17 17 19 9 21 1 23 5 25
REMARK H PARENT 15 18 17 20 9 22 1 24 5 26
REMARK Flexibility Score: inf
ROOT
ATOM      1  C   UNL     1      -7.897  23.819  -9.714  1.00  0.00     0.402 A 
ATOM      2  O   UNL     1      -6.699  23.862  -9.136  1.00  0.00    -0.202 OA
ATOM      3  C   UNL     1      -5.953  22.783  -8.921  1.00  0.00     0.368 A 
ATOM      4  C   UNL     1      -4.706  22.929  -8.309  1.00  0.00     0.162 A 
ATOM      5  C   UNL     1      -3.900  21.814  -8.074  1.00  0.00     0.128 A 
ATOM      6  C   UNL     1      -4.342  20.542  -8.455  1.00  0.00     0.093 A 
ATOM      7  C   UNL     1      -5.587  20.369  -9.071  1.00  0.00     0.136 A 
ATOM      8  C   UNL     1      -6.412  21.500  -9.309  1.00  0.00     0.125 A 
ATOM      9  C   UNL     1      -7.678  21.420  -9.908  1.00  0.00     0.078 A 
ATOM     10  C   UNL     1      -8.435  22.579 -10.105  1.00  0.00     0.223 A 
ENDROOT
BRANCH   1  11
ATOM     11  C   UNL     1      -8.627  25.092  -9.907  1.00  0.00     0.087 A 
ATOM     12  C   UNL     1      -9.632  25.455  -8.997  1.00  0.00     0.022 A 
ATOM     13  C   UNL     1     -10.322  26.661  -9.148  1.00  0.00     0.051 A 
ATOM     14  C   UNL     1     -10.009  27.528 -10.198  1.00  0.00     0.157 A 
ATOM     15  C   UNL     1      -8.299  25.974 -10.952  1.00  0.00     0.068 A 
ATOM     16  C   UNL     1      -8.990  27.187 -11.103  1.00  0.00     0.158 A 
BRANCH  14  17
ATOM     17  O   UNL     1     -10.716  28.723 -10.325  1.00  0.00    -0.504 OA
ATOM     18  H   UNL     1     -10.257  29.626 -10.289  1.00  0.00     0.293 HD
ENDBRANCH  14  17
BRANCH  16  19
ATOM     19  O   UNL     1      -8.662  28.053 -12.145  1.00  0.00    -0.504 OA
ATOM     20  H   UNL     1      -8.832  27.808 -13.114  1.00  0.00     0.293 HD
ENDBRANCH  16  19
ENDBRANCH   1  11
BRANCH  10  21
ATOM     21  O   UNL     1      -9.715  22.494 -10.654  1.00  0.00    -0.500 OA
ATOM     22  H   UNL     1      -9.864  22.237 -11.624  1.00  0.00     0.294 HD
ENDBRANCH  10  21
BRANCH   5  23
ATOM     23  O   UNL     1      -2.660  21.981  -7.461  1.00  0.00    -0.507 OA
ATOM     24  H   UNL     1      -2.422  22.835  -6.972  1.00  0.00     0.293 HD
ENDBRANCH   5  23
BRANCH   7  25
ATOM     25  O   UNL     1      -5.954  19.068  -9.425  1.00  0.00    -0.507 OA
ATOM     26  H   UNL     1      -6.435  18.424  -8.813  1.00  0.00     0.293 HD
ENDBRANCH   7  25
TORSDOF 6
ENDMDL
MODEL 2
REMARK VINA RESULT:    -5.413      1.318      6.933
REMARK INTER + INTRA:          -6.835
REMARK INTER:                  -6.526
REMARK INTRA:                  -0.308
REMARK UNBOUND:                -0.314
REMARK SMILES Oc1cc(O)c2cc(O)c(-c3ccc(O)c(O)c3)[o+]c2c1
REMARK SMILES IDX 10 1 19 2 20 3 21 4 2 5 3 6 4 7 6 8 7 9 8 10 11 11 12 12
REMARK SMILES IDX 13 13 14 14 18 15 16 16 15 17 17 19 9 21 1 23 5 25
REMARK H PARENT 15 18 17 20 9 22 1 24 5 26
REMARK Flexibility Score: inf
ROOT
ATOM      1  C   UNL     1      -7.717  23.146  -8.987  1.00  0.00     0.402 A 
ATOM      2  O   UNL     1      -7.412  24.103  -9.860  1.00  0.00    -0.202 OA
ATOM      3  C   UNL     1      -8.140  25.205 -10.019  1.00  0.00     0.368 A 
ATOM      4  C   UNL     1      -7.737  26.155 -10.960  1.00  0.00     0.162 A 
ATOM      5  C   UNL     1      -8.479  27.322 -11.146  1.00  0.00     0.128 A 
ATOM      6  C   UNL     1      -9.632  27.544 -10.385  1.00  0.00     0.093 A 
ATOM      7  C   UNL     1     -10.056  26.607  -9.435  1.00  0.00     0.136 A 
ATOM      8  C   UNL     1      -9.306  25.417  -9.245  1.00  0.00     0.125 A 
ATOM      9  C   UNL     1      -9.663  24.418  -8.325  1.00  0.00     0.078 A 
ATOM     10  C   UNL     1      -8.875  23.269  -8.197  1.00  0.00     0.223 A 
ENDROOT
BRANCH   1  11
ATOM     11  C   UNL     1      -6.822  21.971  -8.895  1.00  0.00     0.087 A 
ATOM     12  C   UNL     1      -7.181  20.779  -9.543  1.00  0.00     0.022 A 
ATOM     13  C   UNL     1      -6.343  19.662  -9.487  1.00  0.00     0.051 A 
ATOM     14  C   UNL     1      -5.129  19.723  -8.799  1.00  0.00     0.157 A 
ATOM     15  C   UNL     1      -5.591  22.037  -8.220  1.00  0.00     0.068 A 
ATOM     16  C   UNL     1      -4.747  20.917  -8.165  1.00  0.00     0.158 A 
BRANCH  14  17
ATOM     17  O   UNL     1      -4.315  18.592  -8.758  1.00  0.00    -0.504 OA
ATOM     18  H   UNL     1      -3.325  18.649  -8.548  1.00  0.00     0.293 HD
ENDBRANCH  14  17
BRANCH  16  19
ATOM     19  O   UNL     1      -3.530  20.990  -7.488  1.00  0.00    -0.504 OA
ATOM     20  H   UNL     1      -2.713  20.484  -7.808  1.00  0.00     0.293 HD
ENDBRANCH  16  19
ENDBRANCH   1  11
BRANCH  10  21
ATOM     21  O   UNL     1      -9.257  22.254  -7.321  1.00  0.00    -0.500 OA
ATOM     22  H   UNL     1      -9.064  21.278  -7.517  1.00  0.00     0.294 HD
ENDBRANCH  10  21
BRANCH   5  23
ATOM     23  O   UNL     1      -8.061  28.258 -12.090  1.00  0.00    -0.507 OA
ATOM     24  H   UNL     1      -8.649  28.519 -12.873  1.00  0.00     0.293 HD
ENDBRANCH   5  23
BRANCH   7  25
ATOM     25  O   UNL     1     -11.216  26.903  -8.712  1.00  0.00    -0.507 OA
ATOM     26  H   UNL     1     -11.795  26.214  -8.256  1.00  0.00     0.293 HD
ENDBRANCH   7  25
TORSDOF 6
ENDMDL
MODEL 3
REMARK VINA RESULT:    -5.358      3.142      4.874
REMARK INTER + INTRA:          -6.768
REMARK INTER:                  -6.419
REMARK INTRA:                  -0.349
REMARK UNBOUND:                -0.314
REMARK SMILES Oc1cc(O)c2cc(O)c(-c3ccc(O)c(O)c3)[o+]c2c1
REMARK SMILES IDX 10 1 19 2 20 3 21 4 2 5 3 6 4 7 6 8 7 9 8 10 11 11 12 12
REMARK SMILES IDX 13 13 14 14 18 15 16 16 15 17 17 19 9 21 1 23 5 25
REMARK H PARENT 15 18 17 20 9 22 1 24 5 26
REMARK Flexibility Score: inf
ROOT
ATOM      1  C   UNL     1      -5.329  21.506  -8.208  1.00  0.00     0.402 A 
ATOM      2  O   UNL     1      -4.881  22.456  -7.392  1.00  0.00    -0.202 OA
ATOM      3  C   UNL     1      -3.896  22.265  -6.520  1.00  0.00     0.368 A 
ATOM      4  C   UNL     1      -3.493  23.327  -5.706  1.00  0.00     0.162 A 
ATOM      5  C   UNL     1      -2.460  23.156  -4.783  1.00  0.00     0.128 A 
ATOM      6  C   UNL     1      -1.824  21.914  -4.672  1.00  0.00     0.093 A 
ATOM      7  C   UNL     1      -2.209  20.834  -5.476  1.00  0.00     0.136 A 
ATOM      8  C   UNL     1      -3.262  21.004  -6.414  1.00  0.00     0.125 A 
ATOM      9  C   UNL     1      -3.723  19.975  -7.251  1.00  0.00     0.078 A 
ATOM     10  C   UNL     1      -4.768  20.216  -8.147  1.00  0.00     0.223 A 
ENDROOT
BRANCH   1  11
ATOM     11  C   UNL     1      -6.424  21.845  -9.144  1.00  0.00     0.087 A 
ATOM     12  C   UNL     1      -6.113  22.284 -10.440  1.00  0.00     0.022 A 
ATOM     13  C   UNL     1      -7.131  22.592 -11.347  1.00  0.00     0.051 A 
ATOM     14  C   UNL     1      -8.471  22.451 -10.980  1.00  0.00     0.157 A 
ATOM     15  C   UNL     1      -7.774  21.685  -8.782  1.00  0.00     0.068 A 
ATOM     16  C   UNL     1      -8.797  21.991  -9.693  1.00  0.00     0.158 A 
BRANCH  14  17
ATOM     17  O   UNL     1      -9.465  22.768 -11.905  1.00  0.00    -0.504 OA
ATOM     18  H   UNL     1      -9.870  23.695 -11.964  1.00  0.00     0.293 HD
ENDBRANCH  14  17
BRANCH  16  19
ATOM     19  O   UNL     1     -10.132  21.835  -9.324  1.00  0.00    -0.504 OA
ATOM     20  H   UNL     1     -10.748  22.631  -9.206  1.00  0.00     0.293 HD
ENDBRANCH  16  19
ENDBRANCH   1  11
BRANCH  10  21
ATOM     21  O   UNL     1      -5.260  19.181  -8.943  1.00  0.00    -0.500 OA
ATOM     22  H   UNL     1      -5.366  19.283  -9.946  1.00  0.00     0.294 HD
ENDBRANCH  10  21
BRANCH   5  23
ATOM     23  O   UNL     1      -2.072  24.226  -3.981  1.00  0.00    -0.507 OA
ATOM     24  H   UNL     1      -1.530  24.086  -3.138  1.00  0.00     0.293 HD
ENDBRANCH   5  23
BRANCH   7  25
ATOM     25  O   UNL     1      -1.522  19.629  -5.307  1.00  0.00    -0.507 OA
ATOM     26  H   UNL     1      -1.123  19.090  -6.061  1.00  0.00     0.293 HD
ENDBRANCH   7  25
TORSDOF 6
ENDMDL
MODEL 4
REMARK VINA RESULT:    -5.259      1.158      1.411
REMARK INTER + INTRA:          -6.650
REMARK INTER:                  -6.518
REMARK INTRA:                  -0.132
REMARK UNBOUND:                -0.314
REMARK SMILES Oc1cc(O)c2cc(O)c(-c3ccc(O)c(O)c3)[o+]c2c1
REMARK SMILES IDX 10 1 19 2 20 3 21 4 2 5 3 6 4 7 6 8 7 9 8 10 11 11 12 12
REMARK SMILES IDX 13 13 14 14 18 15 16 16 15 17 17 19 9 21 1 23 5 25
REMARK H PARENT 15 18 17 20 9 22 1 24 5 26
REMARK Flexibility Score: inf
ROOT
ATOM      1  C   UNL     1      -6.810  23.904 -10.171  1.00  0.00     0.402 A 
ATOM      2  O   UNL     1      -5.778  23.863  -9.332  1.00  0.00    -0.202 OA
ATOM      3  C   UNL     1      -5.234  22.730  -8.900  1.00  0.00     0.368 A 
ATOM      4  C   UNL     1      -4.150  22.790  -8.020  1.00  0.00     0.162 A 
ATOM      5  C   UNL     1      -3.556  21.617  -7.553  1.00  0.00     0.128 A 
ATOM      6  C   UNL     1      -4.047  20.373  -7.967  1.00  0.00     0.093 A 
ATOM      7  C   UNL     1      -5.132  20.287  -8.848  1.00  0.00     0.136 A 
ATOM      8  C   UNL     1      -5.741  21.478  -9.323  1.00  0.00     0.125 A 
ATOM      9  C   UNL     1      -6.840  21.488 -10.197  1.00  0.00     0.078 A 
ATOM     10  C   UNL     1      -7.389  22.703 -10.619  1.00  0.00     0.223 A 
ENDROOT
BRANCH   1  11
ATOM     11  C   UNL     1      -7.321  25.229 -10.588  1.00  0.00     0.087 A 
ATOM     12  C   UNL     1      -8.641  25.589 -10.275  1.00  0.00     0.022 A 
ATOM     13  C   UNL     1      -9.140  26.842 -10.641  1.00  0.00     0.051 A 
ATOM     14  C   UNL     1      -8.326  27.758 -11.310  1.00  0.00     0.157 A 
ATOM     15  C   UNL     1      -6.497  26.160 -11.244  1.00  0.00     0.068 A 
ATOM     16  C   UNL     1      -6.996  27.420 -11.611  1.00  0.00     0.158 A 
BRANCH  14  17
ATOM     17  O   UNL     1      -8.852  29.000 -11.666  1.00  0.00    -0.504 OA
ATOM     18  H   UNL     1      -8.269  29.751 -12.019  1.00  0.00     0.293 HD
ENDBRANCH  14  17
BRANCH  16  19
ATOM     19  O   UNL     1      -6.173  28.335 -12.266  1.00  0.00    -0.504 OA
ATOM     20  H   UNL     1      -5.590  28.060 -13.049  1.00  0.00     0.293 HD
ENDBRANCH  16  19
ENDBRANCH   1  11
BRANCH  10  21
ATOM     21  O   UNL     1      -8.512  22.712 -11.447  1.00  0.00    -0.500 OA
ATOM     22  H   UNL     1      -8.798  23.545 -11.950  1.00  0.00     0.294 HD
ENDBRANCH  10  21
BRANCH   5  23
ATOM     23  O   UNL     1      -2.476  21.697  -6.676  1.00  0.00    -0.507 OA
ATOM     24  H   UNL     1      -1.714  22.346  -6.832  1.00  0.00     0.293 HD
ENDBRANCH   5  23
BRANCH   7  25
ATOM     25  O   UNL     1      -5.562  19.009  -9.217  1.00  0.00    -0.507 OA
ATOM     26  H   UNL     1      -5.195  18.151  -8.831  1.00  0.00     0.293 HD
ENDBRANCH   7  25
TORSDOF 6
ENDMDL
MODEL 5
REMARK VINA RESULT:    -5.126      3.425      7.408
REMARK INTER + INTRA:          -6.489
REMARK INTER:                  -6.239
REMARK INTRA:                  -0.249
REMARK UNBOUND:                -0.314
REMARK SMILES Oc1cc(O)c2cc(O)c(-c3ccc(O)c(O)c3)[o+]c2c1
REMARK SMILES IDX 10 1 19 2 20 3 21 4 2 5 3 6 4 7 6 8 7 9 8 10 11 11 12 12
REMARK SMILES IDX 13 13 14 14 18 15 16 16 15 17 17 19 9 21 1 23 5 25
REMARK H PARENT 15 18 17 20 9 22 1 24 5 26
REMARK Flexibility Score: inf
ROOT
ATOM      1  C   UNL     1      -5.768  21.824  -6.625  1.00  0.00     0.402 A 
ATOM      2  O   UNL     1      -6.181  22.033  -7.872  1.00  0.00    -0.202 OA
ATOM      3  C   UNL     1      -7.460  21.998  -8.233  1.00  0.00     0.368 A 
ATOM      4  C   UNL     1      -7.796  22.233  -9.569  1.00  0.00     0.162 A 
ATOM      5  C   UNL     1      -9.131  22.206  -9.976  1.00  0.00     0.128 A 
ATOM      6  C   UNL     1     -10.139  21.943  -9.042  1.00  0.00     0.093 A 
ATOM      7  C   UNL     1      -9.828  21.704  -7.698  1.00  0.00     0.136 A 
ATOM      8  C   UNL     1      -8.472  21.728  -7.280  1.00  0.00     0.125 A 
ATOM      9  C   UNL     1      -8.067  21.488  -5.958  1.00  0.00     0.078 A 
ATOM     10  C   UNL     1      -6.709  21.524  -5.623  1.00  0.00     0.223 A 
ENDROOT
BRANCH   1  11
ATOM     11  C   UNL     1      -4.317  21.899  -6.346  1.00  0.00     0.087 A 
ATOM     12  C   UNL     1      -3.683  23.152  -6.325  1.00  0.00     0.022 A 
ATOM     13  C   UNL     1      -2.317  23.249  -6.045  1.00  0.00     0.051 A 
ATOM     14  C   UNL     1      -1.569  22.103  -5.765  1.00  0.00     0.157 A 
ATOM     15  C   UNL     1      -3.567  20.749  -6.045  1.00  0.00     0.068 A 
ATOM     16  C   UNL     1      -2.196  20.845  -5.761  1.00  0.00     0.158 A 
BRANCH  14  17
ATOM     17  O   UNL     1      -0.208  22.231  -5.491  1.00  0.00    -0.504 OA
ATOM     18  H   UNL     1       0.139  22.842  -4.761  1.00  0.00     0.293 HD
ENDBRANCH  14  17
BRANCH  16  19
ATOM     19  O   UNL     1      -1.459  19.699  -5.469  1.00  0.00    -0.504 OA
ATOM     20  H   UNL     1      -1.382  18.934  -6.130  1.00  0.00     0.293 HD
ENDBRANCH  16  19
ENDBRANCH   1  11
BRANCH  10  21
ATOM     21  O   UNL     1      -6.303  21.235  -4.320  1.00  0.00    -0.500 OA
ATOM     22  H   UNL     1      -6.903  20.737  -3.671  1.00  0.00     0.294 HD
ENDBRANCH  10  21
BRANCH   5  23
ATOM     23  O   UNL     1      -9.445  22.443 -11.312  1.00  0.00    -0.507 OA
ATOM     24  H   UNL     1      -9.883  23.307 -11.608  1.00  0.00     0.293 HD
ENDBRANCH   5  23
BRANCH   7  25
ATOM     25  O   UNL     1     -10.892  21.453  -6.827  1.00  0.00    -0.507 OA
ATOM     26  H   UNL     1     -10.884  20.747  -6.105  1.00  0.00     0.293 HD
ENDBRANCH   7  25
TORSDOF 6
ENDMDL
MODEL 6
REMARK VINA RESULT:    -5.054      1.686      7.322
REMARK INTER + INTRA:          -6.403
REMARK INTER:                  -6.262
REMARK INTRA:                  -0.141
REMARK UNBOUND:                -0.314
REMARK SMILES Oc1cc(O)c2cc(O)c(-c3ccc(O)c(O)c3)[o+]c2c1
REMARK SMILES IDX 10 1 19 2 20 3 21 4 2 5 3 6 4 7 6 8 7 9 8 10 11 11 12 12
REMARK SMILES IDX 13 13 14 14 18 15 16 16 15 17 17 19 9 21 1 23 5 25
REMARK H PARENT 15 18 17 20 9 22 1 24 5 26
REMARK Flexibility Score: inf
ROOT
ATOM      1  C   UNL     1      -5.961  23.326  -9.104  1.00  0.00     0.402 A 
ATOM      2  O   UNL     1      -7.260  23.573  -8.958  1.00  0.00    -0.202 OA
ATOM      3  C   UNL     1      -7.816  24.747  -9.241  1.00  0.00     0.368 A 
ATOM      4  C   UNL     1      -9.192  24.909  -9.058  1.00  0.00     0.162 A 
ATOM      5  C   UNL     1      -9.804  26.129  -9.350  1.00  0.00     0.128 A 
ATOM      6  C   UNL     1      -9.036  27.196  -9.831  1.00  0.00     0.093 A 
ATOM      7  C   UNL     1      -7.656  27.058 -10.024  1.00  0.00     0.136 A 
ATOM      8  C   UNL     1      -7.029  25.820  -9.724  1.00  0.00     0.125 A 
ATOM      9  C   UNL     1      -5.652  25.596  -9.875  1.00  0.00     0.078 A 
ATOM     10  C   UNL     1      -5.106  24.349  -9.554  1.00  0.00     0.223 A 
ENDROOT
BRANCH   1  11
ATOM     11  C   UNL     1      -5.463  21.975  -8.764  1.00  0.00     0.087 A 
ATOM     12  C   UNL     1      -5.917  20.867  -9.497  1.00  0.00     0.022 A 
ATOM     13  C   UNL     1      -5.446  19.584  -9.206  1.00  0.00     0.051 A 
ATOM     14  C   UNL     1      -4.504  19.390  -8.193  1.00  0.00     0.157 A 
ATOM     15  C   UNL     1      -4.500  21.780  -7.757  1.00  0.00     0.068 A 
ATOM     16  C   UNL     1      -4.024  20.492  -7.466  1.00  0.00     0.158 A 
BRANCH  14  17
ATOM     17  O   UNL     1      -4.054  18.097  -7.925  1.00  0.00    -0.504 OA
ATOM     18  H   UNL     1      -4.633  17.412  -7.454  1.00  0.00     0.293 HD
ENDBRANCH  14  17
BRANCH  16  19
ATOM     19  O   UNL     1      -3.073  20.307  -6.463  1.00  0.00    -0.504 OA
ATOM     20  H   UNL     1      -2.349  20.993  -6.284  1.00  0.00     0.293 HD
ENDBRANCH  16  19
ENDBRANCH   1  11
BRANCH  10  21
ATOM     21  O   UNL     1      -3.730  24.141  -9.655  1.00  0.00    -0.500 OA
ATOM     22  H   UNL     1      -3.062  24.773  -9.228  1.00  0.00     0.294 HD
ENDBRANCH  10  21
BRANCH   5  23
ATOM     23  O   UNL     1     -11.176  26.271  -9.160  1.00  0.00    -0.507 OA
ATOM     24  H   UNL     1     -11.667  27.107  -9.455  1.00  0.00     0.293 HD
ENDBRANCH   5  23
BRANCH   7  25
ATOM     25  O   UNL     1      -6.960  28.169 -10.510  1.00  0.00    -0.507 OA
ATOM     26  H   UNL     1      -5.959  28.207 -10.630  1.00  0.00     0.293 HD
ENDBRANCH   7  25
TORSDOF 6
ENDMDL
MODEL 7
REMARK VINA RESULT:    -5.030      1.849      7.063
REMARK INTER + INTRA:          -6.374
REMARK INTER:                  -6.070
REMARK INTRA:                  -0.304
REMARK UNBOUND:                -0.314
REMARK SMILES Oc1cc(O)c2cc(O)c(-c3ccc(O)c(O)c3)[o+]c2c1
REMARK SMILES IDX 10 1 19 2 20 3 21 4 2 5 3 6 4 7 6 8 7 9 8 10 11 11 12 12
REMARK SMILES IDX 13 13 14 14 18 15 16 16 15 17 17 19 9 21 1 23 5 25
REMARK H PARENT 15 18 17 20 9 22 1 24 5 26
REMARK Flexibility Score: inf
ROOT
ATOM      1  C   UNL     1      -6.590  22.998  -8.016  1.00  0.00     0.402 A 
ATOM      2  O   UNL     1      -6.358  23.879  -8.985  1.00  0.00    -0.202 OA
ATOM      3  C   UNL     1      -7.286  24.706  -9.457  1.00  0.00     0.368 A 
ATOM      4  C   UNL     1      -6.945  25.600 -10.476  1.00  0.00     0.162 A 
ATOM      5  C   UNL     1      -7.898  26.482 -10.989  1.00  0.00     0.128 A 
ATOM      6  C   UNL     1      -9.202  26.472 -10.480  1.00  0.00     0.093 A 
ATOM      7  C   UNL     1      -9.568  25.586  -9.459  1.00  0.00     0.136 A 
ATOM      8  C   UNL     1      -8.602  24.685  -8.937  1.00  0.00     0.125 A 
ATOM      9  C   UNL     1      -8.883  23.755  -7.924  1.00  0.00     0.078 A 
ATOM     10  C   UNL     1      -7.880  22.896  -7.463  1.00  0.00     0.223 A 
ENDROOT
BRANCH   1  11
ATOM     11  C   UNL     1      -5.471  22.138  -7.569  1.00  0.00     0.087 A 
ATOM     12  C   UNL     1      -4.523  22.653  -6.670  1.00  0.00     0.022 A 
ATOM     13  C   UNL     1      -3.469  21.854  -6.219  1.00  0.00     0.051 A 
ATOM     14  C   UNL     1      -3.355  20.528  -6.644  1.00  0.00     0.157 A 
ATOM     15  C   UNL     1      -5.366  20.798  -7.980  1.00  0.00     0.068 A 
ATOM     16  C   UNL     1      -4.310  19.994  -7.526  1.00  0.00     0.158 A 
BRANCH  14  17
ATOM     17  O   UNL     1      -2.291  19.755  -6.178  1.00  0.00    -0.504 OA
ATOM     18  H   UNL     1      -2.388  18.765  -5.988  1.00  0.00     0.293 HD
ENDBRANCH  14  17
BRANCH  16  19
ATOM     19  O   UNL     1      -4.210  18.667  -7.943  1.00  0.00    -0.504 OA
ATOM     20  H   UNL     1      -4.601  18.356  -8.825  1.00  0.00     0.293 HD
ENDBRANCH  16  19
ENDBRANCH   1  11
BRANCH  10  21
ATOM     21  O   UNL     1      -8.172  21.937  -6.493  1.00  0.00    -0.500 OA
ATOM     22  H   UNL     1      -9.049  21.942  -5.985  1.00  0.00     0.294 HD
ENDBRANCH  10  21
BRANCH   5  23
ATOM     23  O   UNL     1      -7.539  27.365 -12.004  1.00  0.00    -0.507 OA
ATOM     24  H   UNL     1      -6.941  27.077 -12.769  1.00  0.00     0.293 HD
ENDBRANCH   5  23
BRANCH   7  25
ATOM     25  O   UNL     1     -10.888  25.641  -9.003  1.00  0.00    -0.507 OA
ATOM     26  H   UNL     1     -11.401  24.848  -8.646  1.00  0.00     0.293 HD
ENDBRANCH   7  25
TORSDOF 6
ENDMDL
MODEL 8
REMARK VINA RESULT:    -4.944      3.374      7.139
REMARK INTER + INTRA:          -6.270
REMARK INTER:                  -5.996
REMARK INTRA:                  -0.274
REMARK UNBOUND:                -0.314
REMARK SMILES Oc1cc(O)c2cc(O)c(-c3ccc(O)c(O)c3)[o+]c2c1
REMARK SMILES IDX 10 1 19 2 20 3 21 4 2 5 3 6 4 7 6 8 7 9 8 10 11 11 12 12
REMARK SMILES IDX 13 13 14 14 18 15 16 16 15 17 17 19 9 21 1 23 5 25
REMARK H PARENT 15 18 17 20 9 22 1 24 5 26
REMARK Flexibility Score: inf
ROOT
ATOM      1  C   UNL     1      -5.395  22.219  -7.922  1.00  0.00     0.402 A 
ATOM      2  O   UNL     1      -6.511  21.987  -7.235  1.00  0.00    -0.202 OA
ATOM      3  C   UNL     1      -7.719  21.966  -7.790  1.00  0.00     0.368 A 
ATOM      4  C   UNL     1      -8.832  21.709  -6.986  1.00  0.00     0.162 A 
ATOM      5  C   UNL     1     -10.112  21.678  -7.542  1.00  0.00     0.128 A 
ATOM      6  C   UNL     1     -10.282  21.903  -8.913  1.00  0.00     0.093 A 
ATOM      7  C   UNL     1      -9.182  22.162  -9.740  1.00  0.00     0.136 A 
ATOM      8  C   UNL     1      -7.879  22.197  -9.178  1.00  0.00     0.125 A 
ATOM      9  C   UNL     1      -6.722  22.461  -9.928  1.00  0.00     0.078 A 
ATOM     10  C   UNL     1      -5.471  22.485  -9.302  1.00  0.00     0.223 A 
ENDROOT
BRANCH   1  11
ATOM     11  C   UNL     1      -4.108  22.206  -7.192  1.00  0.00     0.087 A 
ATOM     12  C   UNL     1      -3.467  23.421  -6.902  1.00  0.00     0.022 A 
ATOM     13  C   UNL     1      -2.261  23.435  -6.197  1.00  0.00     0.051 A 
ATOM     14  C   UNL     1      -1.685  22.240  -5.758  1.00  0.00     0.157 A 
ATOM     15  C   UNL     1      -3.538  21.006  -6.732  1.00  0.00     0.068 A 
ATOM     16  C   UNL     1      -2.327  21.018  -6.022  1.00  0.00     0.158 A 
BRANCH  14  17
ATOM     17  O   UNL     1      -0.479  22.285  -5.058  1.00  0.00    -0.504 OA
ATOM     18  H   UNL     1       0.200  21.535  -5.109  1.00  0.00     0.293 HD
ENDBRANCH  14  17
BRANCH  16  19
ATOM     19  O   UNL     1      -1.766  19.823  -5.575  1.00  0.00    -0.504 OA
ATOM     20  H   UNL     1      -1.714  19.597  -4.588  1.00  0.00     0.293 HD
ENDBRANCH  16  19
ENDBRANCH   1  11
BRANCH  10  21
ATOM     21  O   UNL     1      -4.328  22.797 -10.037  1.00  0.00    -0.500 OA
ATOM     22  H   UNL     1      -3.648  23.471  -9.705  1.00  0.00     0.294 HD
ENDBRANCH  10  21
BRANCH   5  23
ATOM     23  O   UNL     1     -11.209  21.421  -6.723  1.00  0.00    -0.507 OA
ATOM     24  H   UNL     1     -11.820  22.165  -6.408  1.00  0.00     0.293 HD
ENDBRANCH   5  23
BRANCH   7  25
ATOM     25  O   UNL     1      -9.435  22.372 -11.099  1.00  0.00    -0.507 OA
ATOM     26  H   UNL     1      -8.768  22.198 -11.836  1.00  0.00     0.293 HD
ENDBRANCH   7  25
TORSDOF 6
ENDMDL
MODEL 9
REMARK VINA RESULT:    -4.919      3.128      5.693
REMARK INTER + INTRA:          -6.240
REMARK INTER:                  -5.894
REMARK INTRA:                  -0.346
REMARK UNBOUND:                -0.314
REMARK SMILES Oc1cc(O)c2cc(O)c(-c3ccc(O)c(O)c3)[o+]c2c1
REMARK SMILES IDX 10 1 19 2 20 3 21 4 2 5 3 6 4 7 6 8 7 9 8 10 11 11 12 12
REMARK SMILES IDX 13 13 14 14 18 15 16 16 15 17 17 19 9 21 1 23 5 25
REMARK H PARENT 15 18 17 20 9 22 1 24 5 26
REMARK Flexibility Score: inf
ROOT
ATOM      1  C   UNL     1      -7.381  24.966  -9.691  1.00  0.00     0.402 A 
ATOM      2  O   UNL     1      -6.104  25.220  -9.421  1.00  0.00    -0.202 OA
ATOM      3  C   UNL     1      -5.397  26.156 -10.047  1.00  0.00     0.368 A 
ATOM      4  C   UNL     1      -4.060  26.350  -9.691  1.00  0.00     0.162 A 
ATOM      5  C   UNL     1      -3.295  27.328 -10.329  1.00  0.00     0.128 A 
ATOM      6  C   UNL     1      -3.870  28.119 -11.331  1.00  0.00     0.093 A 
ATOM      7  C   UNL     1      -5.207  27.943 -11.706  1.00  0.00     0.136 A 
ATOM      8  C   UNL     1      -5.988  26.948 -11.061  1.00  0.00     0.125 A 
ATOM      9  C   UNL     1      -7.331  26.694 -11.380  1.00  0.00     0.078 A 
ATOM     10  C   UNL     1      -8.035  25.692 -10.704  1.00  0.00     0.223 A 
ENDROOT
BRANCH   1  11
ATOM     11  C   UNL     1      -8.063  23.904  -8.918  1.00  0.00     0.087 A 
ATOM     12  C   UNL     1      -8.822  24.253  -7.789  1.00  0.00     0.022 A 
ATOM     13  C   UNL     1      -9.490  23.270  -7.054  1.00  0.00     0.051 A 
ATOM     14  C   UNL     1      -9.425  21.930  -7.443  1.00  0.00     0.157 A 
ATOM     15  C   UNL     1      -8.014  22.558  -9.319  1.00  0.00     0.068 A 
ATOM     16  C   UNL     1      -8.687  21.570  -8.584  1.00  0.00     0.158 A 
BRANCH  14  17
ATOM     17  O   UNL     1     -10.100  20.970  -6.689  1.00  0.00    -0.504 OA
ATOM     18  H   UNL     1     -10.900  21.204  -6.113  1.00  0.00     0.293 HD
ENDBRANCH  14  17
BRANCH  16  19
ATOM     19  O   UNL     1      -8.629  20.236  -8.986  1.00  0.00    -0.504 OA
ATOM     20  H   UNL     1      -7.963  19.919  -9.682  1.00  0.00     0.293 HD
ENDBRANCH  16  19
ENDBRANCH   1  11
BRANCH  10  21
ATOM     21  O   UNL     1      -9.354  25.405 -11.056  1.00  0.00    -0.500 OA
ATOM     22  H   UNL     1      -9.740  25.682 -11.951  1.00  0.00     0.294 HD
ENDBRANCH  10  21
BRANCH   5  23
ATOM     23  O   UNL     1      -1.964  27.507  -9.960  1.00  0.00    -0.507 OA
ATOM     24  H   UNL     1      -1.360  28.153 -10.454  1.00  0.00     0.293 HD
ENDBRANCH   5  23
BRANCH   7  25
ATOM     25  O   UNL     1      -5.708  28.775 -12.711  1.00  0.00    -0.507 OA
ATOM     26  H   UNL     1      -5.530  29.767 -12.772  1.00  0.00     0.293 HD
ENDBRANCH   7  25
TORSDOF 6
ENDMDL
