MODEL 1
REMARK VINA RESULT:    -9.698      0.000      0.000
REMARK INTER + INTRA:         -12.982
REMARK INTER:                 -12.249
REMARK INTRA:                  -0.733
REMARK UNBOUND:                -0.733
REMARK SMILES O[C@@H]1OC[C@H](Cc2ccc3c(c2)OCO3)[C@@H]1Cc1ccc2c(c1)OCO2
REMARK SMILES IDX 4 1 5 2 16 3 2 4 3 5 6 6 7 7 12 8 8 9 11 10 9 11 10 12 13 13
REMARK SMILES IDX 15 14 14 15 17 16 18 17 23 18 19 19 22 20 20 21 21 22 24 23
REMARK SMILES IDX 26 24 25 25 1 26
REMARK H PARENT 1 27
REMARK Flexibility Score: inf
ROOT
ATOM      1  C   UNL     1     -24.544 -14.016 -13.941  1.00  0.00     0.168 C 
ATOM      2  C   UNL     1     -23.968 -15.322 -13.386  1.00  0.00     0.028 C 
ATOM      3  C   UNL     1     -24.572 -16.331 -14.349  1.00  0.00     0.055 C 
ATOM      4  C   UNL     1     -24.691 -15.531 -15.644  1.00  0.00     0.250 C 
ATOM      5  O   UNL     1     -24.852 -14.170 -15.311  1.00  0.00    -0.352 OA
ENDROOT
BRANCH   2   6
ATOM      6  C   UNL     1     -22.417 -15.308 -13.353  1.00  0.00     0.042 C 
BRANCH   6   7
ATOM      7  C   UNL     1     -21.886 -14.816 -12.029  1.00  0.00    -0.044 A 
ATOM      8  C   UNL     1     -22.758 -14.236 -11.080  1.00  0.00     0.054 A 
ATOM      9  C   UNL     1     -20.505 -14.940 -11.727  1.00  0.00     0.008 A 
ATOM     10  C   UNL     1     -22.218 -13.807  -9.871  1.00  0.00     0.166 A 
ATOM     11  C   UNL     1     -20.000 -14.492 -10.492  1.00  0.00     0.051 A 
ATOM     12  C   UNL     1     -20.896 -13.931  -9.590  1.00  0.00     0.165 A 
ATOM     13  O   UNL     1     -22.863 -13.218  -8.801  1.00  0.00    -0.454 OA
ATOM     14  O   UNL     1     -20.645 -13.426  -8.328  1.00  0.00    -0.454 OA
ATOM     15  C   UNL     1     -21.886 -12.957  -7.784  1.00  0.00     0.468 C 
ENDBRANCH   6   7
ENDBRANCH   2   6
BRANCH   3  16
ATOM     16  C   UNL     1     -23.841 -17.689 -14.468  1.00  0.00     0.044 C 
BRANCH  16  17
ATOM     17  C   UNL     1     -24.522 -18.749 -13.640  1.00  0.00    -0.044 A 
ATOM     18  C   UNL     1     -24.397 -20.114 -13.985  1.00  0.00     0.054 A 
ATOM     19  C   UNL     1     -25.325 -18.377 -12.532  1.00  0.00     0.008 A 
ATOM     20  C   UNL     1     -25.071 -21.049 -13.206  1.00  0.00     0.166 A 
ATOM     21  C   UNL     1     -25.989 -19.355 -11.770  1.00  0.00     0.051 A 
ATOM     22  C   UNL     1     -25.834 -20.686 -12.144  1.00  0.00     0.165 A 
ATOM     23  O   UNL     1     -25.101 -22.423 -13.344  1.00  0.00    -0.454 OA
ATOM     24  O   UNL     1     -26.380 -21.814 -11.561  1.00  0.00    -0.454 OA
ATOM     25  C   UNL     1     -25.932 -22.957 -12.304  1.00  0.00     0.468 C 
ENDBRANCH  16  17
ENDBRANCH   3  16
BRANCH   4  26
ATOM     26  O   UNL     1     -23.546 -15.677 -16.441  1.00  0.00    -0.368 OA
ATOM     27  H   UNL     1     -23.742 -15.220 -17.300  1.00  0.00     0.213 HD
ENDBRANCH   4  26
TORSDOF 5
ENDMDL
MODEL 2
REMARK VINA RESULT:    -9.117      1.041      7.064
REMARK INTER + INTRA:         -12.248
REMARK INTER:                 -11.163
REMARK INTRA:                  -1.085
REMARK UNBOUND:                -0.733
REMARK SMILES O[C@@H]1OC[C@H](Cc2ccc3c(c2)OCO3)[C@@H]1Cc1ccc2c(c1)OCO2
REMARK SMILES IDX 4 1 5 2 16 3 2 4 3 5 6 6 7 7 12 8 8 9 11 10 9 11 10 12 13 13
REMARK SMILES IDX 15 14 14 15 17 16 18 17 23 18 19 19 22 20 20 21 21 22 24 23
REMARK SMILES IDX 26 24 25 25 1 26
REMARK H PARENT 1 27
REMARK Flexibility Score: inf
ROOT
ATOM      1  C   UNL     1     -23.335 -15.500 -16.104  1.00  0.00     0.168 C 
ATOM      2  C   UNL     1     -23.568 -16.106 -14.718  1.00  0.00     0.028 C 
ATOM      3  C   UNL     1     -23.271 -14.909 -13.831  1.00  0.00     0.055 C 
ATOM      4  C   UNL     1     -23.687 -13.728 -14.706  1.00  0.00     0.250 C 
ATOM      5  O   UNL     1     -23.526 -14.101 -16.057  1.00  0.00    -0.352 OA
ENDROOT
BRANCH   2   6
ATOM      6  C   UNL     1     -25.000 -16.683 -14.566  1.00  0.00     0.042 C 
BRANCH   6   7
ATOM      7  C   UNL     1     -24.991 -18.061 -13.952  1.00  0.00    -0.044 A 
ATOM      8  C   UNL     1     -25.395 -18.247 -12.610  1.00  0.00     0.054 A 
ATOM      9  C   UNL     1     -24.581 -19.180 -14.722  1.00  0.00     0.008 A 
ATOM     10  C   UNL     1     -25.376 -19.541 -12.095  1.00  0.00     0.166 A 
ATOM     11  C   UNL     1     -24.576 -20.471 -14.162  1.00  0.00     0.051 A 
ATOM     12  C   UNL     1     -24.984 -20.605 -12.839  1.00  0.00     0.165 A 
ATOM     13  O   UNL     1     -25.725 -19.967 -10.828  1.00  0.00    -0.454 OA
ATOM     14  O   UNL     1     -25.067 -21.755 -12.077  1.00  0.00    -0.454 OA
ATOM     15  C   UNL     1     -25.540 -21.389 -10.774  1.00  0.00     0.468 C 
ENDBRANCH   6   7
ENDBRANCH   2   6
BRANCH   3  16
ATOM     16  C   UNL     1     -23.885 -14.936 -12.411  1.00  0.00     0.044 C 
BRANCH  16  17
ATOM     17  C   UNL     1     -22.847 -14.629 -11.362  1.00  0.00    -0.044 A 
ATOM     18  C   UNL     1     -23.194 -13.886 -10.210  1.00  0.00     0.054 A 
ATOM     19  C   UNL     1     -21.506 -15.053 -11.545  1.00  0.00     0.008 A 
ATOM     20  C   UNL     1     -22.190 -13.604  -9.288  1.00  0.00     0.166 A 
ATOM     21  C   UNL     1     -20.523 -14.748 -10.587  1.00  0.00     0.051 A 
ATOM     22  C   UNL     1     -20.910 -14.017  -9.468  1.00  0.00     0.165 A 
ATOM     23  O   UNL     1     -22.284 -12.903  -8.102  1.00  0.00    -0.454 OA
ATOM     24  O   UNL     1     -20.136 -13.598  -8.403  1.00  0.00    -0.454 OA
ATOM     25  C   UNL     1     -20.983 -12.875  -7.498  1.00  0.00     0.468 C 
ENDBRANCH  16  17
ENDBRANCH   3  16
BRANCH   4  26
ATOM     26  O   UNL     1     -25.026 -13.376 -14.482  1.00  0.00    -0.368 OA
ATOM     27  H   UNL     1     -25.074 -13.030 -13.553  1.00  0.00     0.213 HD
ENDBRANCH   4  26
TORSDOF 5
ENDMDL
MODEL 3
REMARK VINA RESULT:    -8.725      1.791      6.852
REMARK INTER + INTRA:         -11.753
REMARK INTER:                 -10.628
REMARK INTRA:                  -1.125
REMARK UNBOUND:                -0.733
REMARK SMILES O[C@@H]1OC[C@H](Cc2ccc3c(c2)OCO3)[C@@H]1Cc1ccc2c(c1)OCO2
REMARK SMILES IDX 4 1 5 2 16 3 2 4 3 5 6 6 7 7 12 8 8 9 11 10 9 11 10 12 13 13
REMARK SMILES IDX 15 14 14 15 17 16 18 17 23 18 19 19 22 20 20 21 21 22 24 23
REMARK SMILES IDX 26 24 25 25 1 26
REMARK H PARENT 1 27
REMARK Flexibility Score: inf
ROOT
ATOM      1  C   UNL     1     -24.858 -15.867 -16.394  1.00  0.00     0.168 C 
ATOM      2  C   UNL     1     -24.450 -16.498 -15.060  1.00  0.00     0.028 C 
ATOM      3  C   UNL     1     -23.820 -15.306 -14.361  1.00  0.00     0.055 C 
ATOM      4  C   UNL     1     -24.600 -14.126 -14.937  1.00  0.00     0.250 C 
ATOM      5  O   UNL     1     -25.037 -14.475 -16.233  1.00  0.00    -0.352 OA
ENDROOT
BRANCH   2   6
ATOM      6  C   UNL     1     -25.661 -17.118 -14.314  1.00  0.00     0.042 C 
BRANCH   6   7
ATOM      7  C   UNL     1     -25.314 -18.442 -13.678  1.00  0.00    -0.044 A 
ATOM      8  C   UNL     1     -25.732 -18.732 -12.359  1.00  0.00     0.054 A 
ATOM      9  C   UNL     1     -24.567 -19.406 -14.404  1.00  0.00     0.008 A 
ATOM     10  C   UNL     1     -25.392 -19.971 -11.823  1.00  0.00     0.166 A 
ATOM     11  C   UNL     1     -24.245 -20.646 -13.823  1.00  0.00     0.051 A 
ATOM     12  C   UNL     1     -24.680 -20.888 -12.525  1.00  0.00     0.165 A 
ATOM     13  O   UNL     1     -25.688 -20.477 -10.572  1.00  0.00    -0.454 OA
ATOM     14  O   UNL     1     -24.492 -22.016 -11.750  1.00  0.00    -0.454 OA
ATOM     15  C   UNL     1     -25.126 -21.794 -10.484  1.00  0.00     0.468 C 
ENDBRANCH   6   7
ENDBRANCH   2   6
BRANCH   3  16
ATOM     16  C   UNL     1     -23.753 -15.370 -12.817  1.00  0.00     0.044 C 
BRANCH  16  17
ATOM     17  C   UNL     1     -22.354 -15.105 -12.321  1.00  0.00    -0.044 A 
ATOM     18  C   UNL     1     -21.251 -15.221 -13.197  1.00  0.00     0.054 A 
ATOM     19  C   UNL     1     -22.135 -14.776 -10.958  1.00  0.00     0.008 A 
ATOM     20  C   UNL     1     -19.979 -14.997 -12.679  1.00  0.00     0.166 A 
ATOM     21  C   UNL     1     -20.832 -14.555 -10.477  1.00  0.00     0.051 A 
ATOM     22  C   UNL     1     -19.778 -14.677 -11.376  1.00  0.00     0.165 A 
ATOM     23  O   UNL     1     -18.763 -15.051 -13.332  1.00  0.00    -0.454 OA
ATOM     24  O   UNL     1     -18.426 -14.513 -11.145  1.00  0.00    -0.454 OA
ATOM     25  C   UNL     1     -17.734 -14.745 -12.381  1.00  0.00     0.468 C 
ENDBRANCH  16  17
ENDBRANCH   3  16
BRANCH   4  26
ATOM     26  O   UNL     1     -25.714 -13.815 -14.144  1.00  0.00    -0.368 OA
ATOM     27  H   UNL     1     -26.249 -14.649 -14.073  1.00  0.00     0.213 HD
ENDBRANCH   4  26
TORSDOF 5
ENDMDL
MODEL 4
REMARK VINA RESULT:    -8.273      4.041      6.587
REMARK INTER + INTRA:         -11.182
REMARK INTER:                 -10.257
REMARK INTRA:                  -0.925
REMARK UNBOUND:                -0.733
REMARK SMILES O[C@@H]1OC[C@H](Cc2ccc3c(c2)OCO3)[C@@H]1Cc1ccc2c(c1)OCO2
REMARK SMILES IDX 4 1 5 2 16 3 2 4 3 5 6 6 7 7 12 8 8 9 11 10 9 11 10 12 13 13
REMARK SMILES IDX 15 14 14 15 17 16 18 17 23 18 19 19 22 20 20 21 21 22 24 23
REMARK SMILES IDX 26 24 25 25 1 26
REMARK H PARENT 1 27
REMARK Flexibility Score: inf
ROOT
ATOM      1  C   UNL     1     -24.662 -22.276 -15.147  1.00  0.00     0.168 C 
ATOM      2  C   UNL     1     -24.796 -21.527 -13.818  1.00  0.00     0.028 C 
ATOM      3  C   UNL     1     -24.577 -22.659 -12.829  1.00  0.00     0.055 C 
ATOM      4  C   UNL     1     -23.634 -23.591 -13.586  1.00  0.00     0.250 C 
ATOM      5  O   UNL     1     -23.872 -23.434 -14.969  1.00  0.00    -0.352 OA
ENDROOT
BRANCH   2   6
ATOM      6  C   UNL     1     -23.781 -20.360 -13.701  1.00  0.00     0.042 C 
BRANCH   6   7
ATOM      7  C   UNL     1     -24.396 -19.036 -14.081  1.00  0.00    -0.044 A 
ATOM      8  C   UNL     1     -23.578 -17.958 -14.488  1.00  0.00     0.054 A 
ATOM      9  C   UNL     1     -25.805 -18.867 -14.036  1.00  0.00     0.008 A 
ATOM     10  C   UNL     1     -24.197 -16.761 -14.836  1.00  0.00     0.166 A 
ATOM     11  C   UNL     1     -26.390 -17.640 -14.395  1.00  0.00     0.051 A 
ATOM     12  C   UNL     1     -25.545 -16.609 -14.792  1.00  0.00     0.165 A 
ATOM     13  O   UNL     1     -23.615 -15.583 -15.262  1.00  0.00    -0.454 OA
ATOM     14  O   UNL     1     -25.877 -15.328 -15.188  1.00  0.00    -0.454 OA
ATOM     15  C   UNL     1     -24.663 -14.633 -15.501  1.00  0.00     0.468 C 
ENDBRANCH   6   7
ENDBRANCH   2   6
BRANCH   3  16
ATOM     16  C   UNL     1     -24.115 -22.252 -11.410  1.00  0.00     0.044 C 
BRANCH  16  17
ATOM     17  C   UNL     1     -25.065 -22.766 -10.358  1.00  0.00    -0.044 A 
ATOM     18  C   UNL     1     -26.259 -23.422 -10.735  1.00  0.00     0.054 A 
ATOM     19  C   UNL     1     -24.783 -22.559  -8.984  1.00  0.00     0.008 A 
ATOM     20  C   UNL     1     -27.117 -23.848  -9.725  1.00  0.00     0.166 A 
ATOM     21  C   UNL     1     -25.676 -23.007  -7.995  1.00  0.00     0.051 A 
ATOM     22  C   UNL     1     -26.837 -23.651  -8.412  1.00  0.00     0.165 A 
ATOM     23  O   UNL     1     -28.327 -24.504  -9.843  1.00  0.00    -0.454 OA
ATOM     24  O   UNL     1     -27.857 -24.173  -7.639  1.00  0.00    -0.454 OA
ATOM     25  C   UNL     1     -28.839 -24.733  -8.523  1.00  0.00     0.468 C 
ENDBRANCH  16  17
ENDBRANCH   3  16
BRANCH   4  26
ATOM     26  O   UNL     1     -22.291 -23.289 -13.314  1.00  0.00    -0.368 OA
ATOM     27  H   UNL     1     -21.908 -24.089 -12.869  1.00  0.00     0.213 HD
ENDBRANCH   4  26
TORSDOF 5
ENDMDL
MODEL 5
REMARK VINA RESULT:    -8.138      4.443      6.447
REMARK INTER + INTRA:         -11.012
REMARK INTER:                  -9.487
REMARK INTRA:                  -1.525
REMARK UNBOUND:                -0.733
REMARK SMILES O[C@@H]1OC[C@H](Cc2ccc3c(c2)OCO3)[C@@H]1Cc1ccc2c(c1)OCO2
REMARK SMILES IDX 4 1 5 2 16 3 2 4 3 5 6 6 7 7 12 8 8 9 11 10 9 11 10 12 13 13
REMARK SMILES IDX 15 14 14 15 17 16 18 17 23 18 19 19 22 20 20 21 21 22 24 23
REMARK SMILES IDX 26 24 25 25 1 26
REMARK H PARENT 1 27
REMARK Flexibility Score: inf
ROOT
ATOM      1  C   UNL     1     -27.456 -18.240 -13.521  1.00  0.00     0.168 C 
ATOM      2  C   UNL     1     -26.399 -19.250 -13.064  1.00  0.00     0.028 C 
ATOM      3  C   UNL     1     -25.357 -19.086 -14.157  1.00  0.00     0.055 C 
ATOM      4  C   UNL     1     -25.517 -17.621 -14.559  1.00  0.00     0.250 C 
ATOM      5  O   UNL     1     -26.853 -17.239 -14.314  1.00  0.00    -0.352 OA
ENDROOT
BRANCH   2   6
ATOM      6  C   UNL     1     -25.886 -18.949 -11.631  1.00  0.00     0.042 C 
BRANCH   6   7
ATOM      7  C   UNL     1     -26.115 -20.110 -10.695  1.00  0.00    -0.044 A 
ATOM      8  C   UNL     1     -25.104 -21.078 -10.498  1.00  0.00     0.054 A 
ATOM      9  C   UNL     1     -27.347 -20.233 -10.002  1.00  0.00     0.008 A 
ATOM     10  C   UNL     1     -25.363 -22.124  -9.617  1.00  0.00     0.166 A 
ATOM     11  C   UNL     1     -27.568 -21.307  -9.121  1.00  0.00     0.051 A 
ATOM     12  C   UNL     1     -26.544 -22.233  -8.957  1.00  0.00     0.165 A 
ATOM     13  O   UNL     1     -24.540 -23.176  -9.263  1.00  0.00    -0.454 OA
ATOM     14  O   UNL     1     -26.521 -23.359  -8.155  1.00  0.00    -0.454 OA
ATOM     15  C   UNL     1     -25.247 -23.995  -8.322  1.00  0.00     0.468 C 
ENDBRANCH   6   7
ENDBRANCH   2   6
BRANCH   3  16
ATOM     16  C   UNL     1     -23.917 -19.527 -13.806  1.00  0.00     0.044 C 
BRANCH  16  17
ATOM     17  C   UNL     1     -23.765 -21.023 -13.906  1.00  0.00    -0.044 A 
ATOM     18  C   UNL     1     -24.629 -21.774 -14.735  1.00  0.00     0.054 A 
ATOM     19  C   UNL     1     -22.776 -21.689 -13.137  1.00  0.00     0.008 A 
ATOM     20  C   UNL     1     -24.466 -23.156 -14.766  1.00  0.00     0.166 A 
ATOM     21  C   UNL     1     -22.645 -23.088 -13.200  1.00  0.00     0.051 A 
ATOM     22  C   UNL     1     -23.514 -23.786 -14.031  1.00  0.00     0.165 A 
ATOM     23  O   UNL     1     -25.180 -24.091 -15.490  1.00  0.00    -0.454 OA
ATOM     24  O   UNL     1     -23.583 -25.147 -14.257  1.00  0.00    -0.454 OA
ATOM     25  C   UNL     1     -24.644 -25.387 -15.193  1.00  0.00     0.468 C 
ENDBRANCH  16  17
ENDBRANCH   3  16
BRANCH   4  26
ATOM     26  O   UNL     1     -24.659 -16.793 -13.820  1.00  0.00    -0.368 OA
ATOM     27  H   UNL     1     -24.757 -17.065 -12.870  1.00  0.00     0.213 HD
ENDBRANCH   4  26
TORSDOF 5
ENDMDL
MODEL 6
REMARK VINA RESULT:    -8.133      2.361      7.326
REMARK INTER + INTRA:         -11.006
REMARK INTER:                 -10.342
REMARK INTRA:                  -0.664
REMARK UNBOUND:                -0.733
REMARK SMILES O[C@@H]1OC[C@H](Cc2ccc3c(c2)OCO3)[C@@H]1Cc1ccc2c(c1)OCO2
REMARK SMILES IDX 4 1 5 2 16 3 2 4 3 5 6 6 7 7 12 8 8 9 11 10 9 11 10 12 13 13
REMARK SMILES IDX 15 14 14 15 17 16 18 17 23 18 19 19 22 20 20 21 21 22 24 23
REMARK SMILES IDX 26 24 25 25 1 26
REMARK H PARENT 1 27
REMARK Flexibility Score: inf
ROOT
ATOM      1  C   UNL     1     -24.848 -19.688 -14.075  1.00  0.00     0.168 C 
ATOM      2  C   UNL     1     -24.564 -18.702 -12.939  1.00  0.00     0.028 C 
ATOM      3  C   UNL     1     -24.330 -17.423 -13.724  1.00  0.00     0.055 C 
ATOM      4  C   UNL     1     -25.223 -17.611 -14.949  1.00  0.00     0.250 C 
ATOM      5  O   UNL     1     -25.339 -18.994 -15.203  1.00  0.00    -0.352 OA
ENDROOT
BRANCH   2   6
ATOM      6  C   UNL     1     -25.732 -18.632 -11.921  1.00  0.00     0.042 C 
BRANCH   6   7
ATOM      7  C   UNL     1     -25.761 -19.837 -11.012  1.00  0.00    -0.044 A 
ATOM      8  C   UNL     1     -24.714 -20.785 -11.049  1.00  0.00     0.054 A 
ATOM      9  C   UNL     1     -26.840 -20.020 -10.108  1.00  0.00     0.008 A 
ATOM     10  C   UNL     1     -24.786 -21.873 -10.183  1.00  0.00     0.166 A 
ATOM     11  C   UNL     1     -26.874 -21.134  -9.250  1.00  0.00     0.051 A 
ATOM     12  C   UNL     1     -25.821 -22.039  -9.321  1.00  0.00     0.165 A 
ATOM     13  O   UNL     1     -23.893 -22.916 -10.037  1.00  0.00    -0.454 OA
ATOM     14  O   UNL     1     -25.629 -23.196  -8.590  1.00  0.00    -0.454 OA
ATOM     15  C   UNL     1     -24.398 -23.792  -9.019  1.00  0.00     0.468 C 
ENDBRANCH   6   7
ENDBRANCH   2   6
BRANCH   3  16
ATOM     16  C   UNL     1     -24.528 -16.097 -12.952  1.00  0.00     0.044 C 
BRANCH  16  17
ATOM     17  C   UNL     1     -23.217 -15.569 -12.429  1.00  0.00    -0.044 A 
ATOM     18  C   UNL     1     -22.053 -15.632 -13.227  1.00  0.00     0.054 A 
ATOM     19  C   UNL     1     -23.137 -15.042 -11.114  1.00  0.00     0.008 A 
ATOM     20  C   UNL     1     -20.861 -15.160 -12.684  1.00  0.00     0.166 A 
ATOM     21  C   UNL     1     -21.913 -14.575 -10.604  1.00  0.00     0.051 A 
ATOM     22  C   UNL     1     -20.794 -14.653 -11.427  1.00  0.00     0.165 A 
ATOM     23  O   UNL     1     -19.608 -15.117 -13.264  1.00  0.00    -0.454 OA
ATOM     24  O   UNL     1     -19.497 -14.265 -11.155  1.00  0.00    -0.454 OA
ATOM     25  C   UNL     1     -18.698 -14.546 -12.313  1.00  0.00     0.468 C 
ENDBRANCH  16  17
ENDBRANCH   3  16
BRANCH   4  26
ATOM     26  O   UNL     1     -26.501 -17.074 -14.736  1.00  0.00    -0.368 OA
ATOM     27  H   UNL     1     -26.809 -17.423 -13.859  1.00  0.00     0.213 HD
ENDBRANCH   4  26
TORSDOF 5
ENDMDL
MODEL 7
REMARK VINA RESULT:    -8.102      2.390      7.703
REMARK INTER + INTRA:         -10.967
REMARK INTER:                 -10.326
REMARK INTRA:                  -0.640
REMARK UNBOUND:                -0.733
REMARK SMILES O[C@@H]1OC[C@H](Cc2ccc3c(c2)OCO3)[C@@H]1Cc1ccc2c(c1)OCO2
REMARK SMILES IDX 4 1 5 2 16 3 2 4 3 5 6 6 7 7 12 8 8 9 11 10 9 11 10 12 13 13
REMARK SMILES IDX 15 14 14 15 17 16 18 17 23 18 19 19 22 20 20 21 21 22 24 23
REMARK SMILES IDX 26 24 25 25 1 26
REMARK H PARENT 1 27
REMARK Flexibility Score: inf
ROOT
ATOM      1  C   UNL     1     -24.942 -20.032 -14.015  1.00  0.00     0.168 C 
ATOM      2  C   UNL     1     -24.607 -19.135 -12.820  1.00  0.00     0.028 C 
ATOM      3  C   UNL     1     -24.279 -17.831 -13.526  1.00  0.00     0.055 C 
ATOM      4  C   UNL     1     -25.166 -17.887 -14.768  1.00  0.00     0.250 C 
ATOM      5  O   UNL     1     -25.371 -19.242 -15.104  1.00  0.00    -0.352 OA
ENDROOT
BRANCH   2   6
ATOM      6  C   UNL     1     -25.781 -19.046 -11.810  1.00  0.00     0.042 C 
BRANCH   6   7
ATOM      7  C   UNL     1     -25.810 -20.229 -10.872  1.00  0.00    -0.044 A 
ATOM      8  C   UNL     1     -24.737 -21.148 -10.850  1.00  0.00     0.054 A 
ATOM      9  C   UNL     1     -26.915 -20.420 -10.002  1.00  0.00     0.008 A 
ATOM     10  C   UNL     1     -24.810 -22.217  -9.960  1.00  0.00     0.166 A 
ATOM     11  C   UNL     1     -26.948 -21.514  -9.119  1.00  0.00     0.051 A 
ATOM     12  C   UNL     1     -25.869 -22.390  -9.130  1.00  0.00     0.165 A 
ATOM     13  O   UNL     1     -23.894 -23.231  -9.756  1.00  0.00    -0.454 OA
ATOM     14  O   UNL     1     -25.672 -23.524  -8.364  1.00  0.00    -0.454 OA
ATOM     15  C   UNL     1     -24.411 -24.095  -8.735  1.00  0.00     0.468 C 
ENDBRANCH   6   7
ENDBRANCH   2   6
BRANCH   3  16
ATOM     16  C   UNL     1     -24.398 -16.542 -12.679  1.00  0.00     0.044 C 
BRANCH  16  17
ATOM     17  C   UNL     1     -23.127 -15.732 -12.737  1.00  0.00    -0.044 A 
ATOM     18  C   UNL     1     -22.678 -15.027 -11.598  1.00  0.00     0.054 A 
ATOM     19  C   UNL     1     -22.398 -15.642 -13.950  1.00  0.00     0.008 A 
ATOM     20  C   UNL     1     -21.517 -14.268 -11.715  1.00  0.00     0.166 A 
ATOM     21  C   UNL     1     -21.228 -14.865 -14.025  1.00  0.00     0.051 A 
ATOM     22  C   UNL     1     -20.821 -14.191 -12.877  1.00  0.00     0.165 A 
ATOM     23  O   UNL     1     -20.889 -13.502 -10.752  1.00  0.00    -0.454 OA
ATOM     24  O   UNL     1     -19.721 -13.374 -12.704  1.00  0.00    -0.454 OA
ATOM     25  C   UNL     1     -19.726 -12.908 -11.346  1.00  0.00     0.468 C 
ENDBRANCH  16  17
ENDBRANCH   3  16
BRANCH   4  26
ATOM     26  O   UNL     1     -26.408 -17.278 -14.534  1.00  0.00    -0.368 OA
ATOM     27  H   UNL     1     -26.786 -17.714 -13.727  1.00  0.00     0.213 HD
ENDBRANCH   4  26
TORSDOF 5
ENDMDL
MODEL 8
REMARK VINA RESULT:    -7.911      3.194      8.728
REMARK INTER + INTRA:         -10.725
REMARK INTER:                  -9.931
REMARK INTRA:                  -0.794
REMARK UNBOUND:                -0.733
REMARK SMILES O[C@@H]1OC[C@H](Cc2ccc3c(c2)OCO3)[C@@H]1Cc1ccc2c(c1)OCO2
REMARK SMILES IDX 4 1 5 2 16 3 2 4 3 5 6 6 7 7 12 8 8 9 11 10 9 11 10 12 13 13
REMARK SMILES IDX 15 14 14 15 17 16 18 17 23 18 19 19 22 20 20 21 21 22 24 23
REMARK SMILES IDX 26 24 25 25 1 26
REMARK H PARENT 1 27
REMARK Flexibility Score: inf
ROOT
ATOM      1  C   UNL     1     -23.866 -22.224 -11.611  1.00  0.00     0.168 C 
ATOM      2  C   UNL     1     -25.016 -21.222 -11.478  1.00  0.00     0.028 C 
ATOM      3  C   UNL     1     -24.625 -20.197 -12.528  1.00  0.00     0.055 C 
ATOM      4  C   UNL     1     -23.890 -21.042 -13.566  1.00  0.00     0.250 C 
ATOM      5  O   UNL     1     -23.308 -22.146 -12.907  1.00  0.00    -0.352 OA
ENDROOT
BRANCH   2   6
ATOM      6  C   UNL     1     -26.399 -21.888 -11.707  1.00  0.00     0.042 C 
BRANCH   6   7
ATOM      7  C   UNL     1     -26.871 -22.641 -10.487  1.00  0.00    -0.044 A 
ATOM      8  C   UNL     1     -27.772 -23.722 -10.620  1.00  0.00     0.054 A 
ATOM      9  C   UNL     1     -26.408 -22.270  -9.198  1.00  0.00     0.008 A 
ATOM     10  C   UNL     1     -28.170 -24.388  -9.464  1.00  0.00     0.166 A 
ATOM     11  C   UNL     1     -26.835 -22.971  -8.056  1.00  0.00     0.051 A 
ATOM     12  C   UNL     1     -27.720 -24.028  -8.236  1.00  0.00     0.165 A 
ATOM     13  O   UNL     1     -29.030 -25.463  -9.343  1.00  0.00    -0.454 OA
ATOM     14  O   UNL     1     -28.275 -24.859  -7.281  1.00  0.00    -0.454 OA
ATOM     15  C   UNL     1     -29.125 -25.798  -7.951  1.00  0.00     0.468 C 
ENDBRANCH   6   7
ENDBRANCH   2   6
BRANCH   3  16
ATOM     16  C   UNL     1     -25.765 -19.308 -13.079  1.00  0.00     0.044 C 
BRANCH  16  17
ATOM     17  C   UNL     1     -25.250 -17.951 -13.487  1.00  0.00    -0.044 A 
ATOM     18  C   UNL     1     -25.641 -17.380 -14.719  1.00  0.00     0.054 A 
ATOM     19  C   UNL     1     -24.337 -17.258 -12.651  1.00  0.00     0.008 A 
ATOM     20  C   UNL     1     -25.111 -16.140 -15.062  1.00  0.00     0.166 A 
ATOM     21  C   UNL     1     -23.826 -16.005 -13.035  1.00  0.00     0.051 A 
ATOM     22  C   UNL     1     -24.242 -15.480 -14.255  1.00  0.00     0.165 A 
ATOM     23  O   UNL     1     -25.341 -15.390 -16.199  1.00  0.00    -0.454 OA
ATOM     24  O   UNL     1     -23.883 -14.283 -14.844  1.00  0.00    -0.454 OA
ATOM     25  C   UNL     1     -24.570 -14.185 -16.100  1.00  0.00     0.468 C 
ENDBRANCH  16  17
ENDBRANCH   3  16
BRANCH   4  26
ATOM     26  O   UNL     1     -24.766 -21.508 -14.558  1.00  0.00    -0.368 OA
ATOM     27  H   UNL     1     -24.729 -20.846 -15.297  1.00  0.00     0.213 HD
ENDBRANCH   4  26
TORSDOF 5
ENDMDL
MODEL 9
REMARK VINA RESULT:    -7.857      4.766      8.954
REMARK INTER + INTRA:         -10.656
REMARK INTER:                  -8.865
REMARK INTRA:                  -1.792
REMARK UNBOUND:                -0.733
REMARK SMILES O[C@@H]1OC[C@H](Cc2ccc3c(c2)OCO3)[C@@H]1Cc1ccc2c(c1)OCO2
REMARK SMILES IDX 4 1 5 2 16 3 2 4 3 5 6 6 7 7 12 8 8 9 11 10 9 11 10 12 13 13
REMARK SMILES IDX 15 14 14 15 17 16 18 17 23 18 19 19 22 20 20 21 21 22 24 23
REMARK SMILES IDX 26 24 25 25 1 26
REMARK H PARENT 1 27
REMARK Flexibility Score: inf
ROOT
ATOM      1  C   UNL     1     -28.673 -24.447  -9.285  1.00  0.00     0.168 C 
ATOM      2  C   UNL     1     -27.781 -23.366  -9.901  1.00  0.00     0.028 C 
ATOM      3  C   UNL     1     -28.295 -22.130  -9.184  1.00  0.00     0.055 C 
ATOM      4  C   UNL     1     -28.743 -22.685  -7.833  1.00  0.00     0.250 C 
ATOM      5  O   UNL     1     -29.125 -24.032  -8.013  1.00  0.00    -0.352 OA
ENDROOT
BRANCH   2   6
ATOM      6  C   UNL     1     -26.274 -23.660  -9.684  1.00  0.00     0.042 C 
BRANCH   6   7
ATOM      7  C   UNL     1     -25.476 -23.485 -10.953  1.00  0.00    -0.044 A 
ATOM      8  C   UNL     1     -26.083 -23.693 -12.212  1.00  0.00     0.054 A 
ATOM      9  C   UNL     1     -24.110 -23.104 -10.888  1.00  0.00     0.008 A 
ATOM     10  C   UNL     1     -25.304 -23.510 -13.352  1.00  0.00     0.166 A 
ATOM     11  C   UNL     1     -23.359 -22.930 -12.065  1.00  0.00     0.051 A 
ATOM     12  C   UNL     1     -24.000 -23.143 -13.280  1.00  0.00     0.165 A 
ATOM     13  O   UNL     1     -25.671 -23.650 -14.676  1.00  0.00    -0.454 OA
ATOM     14  O   UNL     1     -23.482 -23.036 -14.557  1.00  0.00    -0.454 OA
ATOM     15  C   UNL     1     -24.525 -23.353 -15.487  1.00  0.00     0.468 C 
ENDBRANCH   6   7
ENDBRANCH   2   6
BRANCH   3  16
ATOM     16  C   UNL     1     -27.332 -20.921  -9.121  1.00  0.00     0.044 C 
BRANCH  16  17
ATOM     17  C   UNL     1     -27.257 -20.214 -10.451  1.00  0.00    -0.044 A 
ATOM     18  C   UNL     1     -26.005 -19.859 -11.001  1.00  0.00     0.054 A 
ATOM     19  C   UNL     1     -28.449 -19.866 -11.138  1.00  0.00     0.008 A 
ATOM     20  C   UNL     1     -25.994 -19.180 -12.216  1.00  0.00     0.166 A 
ATOM     21  C   UNL     1     -28.392 -19.180 -12.364  1.00  0.00     0.051 A 
ATOM     22  C   UNL     1     -27.137 -18.855 -12.869  1.00  0.00     0.165 A 
ATOM     23  O   UNL     1     -24.907 -18.734 -12.942  1.00  0.00    -0.454 OA
ATOM     24  O   UNL     1     -26.827 -18.189 -14.039  1.00  0.00    -0.454 OA
ATOM     25  C   UNL     1     -25.398 -18.089 -14.126  1.00  0.00     0.468 C 
ENDBRANCH  16  17
ENDBRANCH   3  16
BRANCH   4  26
ATOM     26  O   UNL     1     -27.707 -22.624  -6.889  1.00  0.00    -0.368 OA
ATOM     27  H   UNL     1     -27.537 -21.660  -6.721  1.00  0.00     0.213 HD
ENDBRANCH   4  26
TORSDOF 5
ENDMDL
