MODEL 1
REMARK VINA RESULT:    -3.144      0.000      0.000
REMARK INTER + INTRA:          -4.342
REMARK INTER:                  -4.062
REMARK INTRA:                  -0.280
REMARK UNBOUND:                -0.280
REMARK SMILES CCOC(=O)C=Cc1ccc(O)c(O)c1
REMARK SMILES IDX 6 1 7 2 4 3 5 4 3 5 2 6 1 7 8 8 15 9 9 10 13 11 10 12 11 13
REMARK SMILES IDX 14 14 12 16
REMARK H PARENT 14 15 12 17
REMARK Flexibility Score: inf
ROOT
ATOM      1  C   UNL     1      -8.800 -22.007  18.129  1.00  0.00     0.094 C 
ATOM      2  C   UNL     1      -9.454 -21.282  19.048  1.00  0.00     0.016 C 
ENDROOT
BRANCH   1   3
ATOM      3  C   UNL     1      -8.801 -21.652  16.701  1.00  0.00     0.330 C 
ATOM      4  O   UNL     1      -9.828 -21.156  16.160  1.00  0.00    -0.247 OA
BRANCH   3   5
ATOM      5  O   UNL     1      -7.638 -21.865  15.952  1.00  0.00    -0.463 OA
BRANCH   5   6
ATOM      6  C   UNL     1      -6.450 -22.442  16.491  1.00  0.00     0.230 C 
ATOM      7  C   UNL     1      -5.233 -21.595  16.138  1.00  0.00     0.049 C 
ENDBRANCH   5   6
ENDBRANCH   3   5
ENDBRANCH   1   3
BRANCH   2   8
ATOM      8  C   UNL     1      -9.486 -21.618  20.494  1.00  0.00    -0.021 A 
ATOM      9  C   UNL     1     -10.187 -20.769  21.366  1.00  0.00     0.058 A 
ATOM     10  C   UNL     1      -8.811 -22.733  21.027  1.00  0.00     0.012 A 
ATOM     11  C   UNL     1     -10.238 -21.037  22.742  1.00  0.00     0.157 A 
ATOM     12  C   UNL     1      -8.862 -23.001  22.398  1.00  0.00     0.051 A 
ATOM     13  C   UNL     1      -9.574 -22.162  23.259  1.00  0.00     0.157 A 
BRANCH  11  14
ATOM     14  O   UNL     1     -10.946 -20.191  23.594  1.00  0.00    -0.504 OA
ATOM     15  H   UNL     1     -10.715 -20.114  24.578  1.00  0.00     0.293 HD
ENDBRANCH  11  14
BRANCH  13  16
ATOM     16  O   UNL     1      -9.606 -22.457  24.620  1.00  0.00    -0.504 OA
ATOM     17  H   UNL     1      -9.872 -23.371  24.967  1.00  0.00     0.293 HD
ENDBRANCH  13  16
ENDBRANCH   2   8
TORSDOF 6
ENDMDL
MODEL 2
REMARK VINA RESULT:    -3.064      2.170      2.378
REMARK INTER + INTRA:          -4.239
REMARK INTER:                  -4.088
REMARK INTRA:                  -0.151
REMARK UNBOUND:                -0.280
REMARK SMILES CCOC(=O)C=Cc1ccc(O)c(O)c1
REMARK SMILES IDX 6 1 7 2 4 3 5 4 3 5 2 6 1 7 8 8 15 9 9 10 13 11 10 12 11 13
REMARK SMILES IDX 14 14 12 16
REMARK H PARENT 14 15 12 17
REMARK Flexibility Score: inf
ROOT
ATOM      1  C   UNL     1     -10.360 -20.468  18.529  1.00  0.00     0.094 C 
ATOM      2  C   UNL     1     -10.309 -21.707  19.039  1.00  0.00     0.016 C 
ENDROOT
BRANCH   1   3
ATOM      3  C   UNL     1     -10.856 -20.197  17.169  1.00  0.00     0.330 C 
ATOM      4  O   UNL     1     -11.106 -19.015  16.799  1.00  0.00    -0.247 OA
BRANCH   3   5
ATOM      5  O   UNL     1     -11.037 -21.269  16.290  1.00  0.00    -0.463 OA
BRANCH   5   6
ATOM      6  C   UNL     1     -10.980 -21.142  14.870  1.00  0.00     0.230 C 
ATOM      7  C   UNL     1      -9.621 -20.608  14.432  1.00  0.00     0.049 C 
ENDBRANCH   5   6
ENDBRANCH   3   5
ENDBRANCH   1   3
BRANCH   2   8
ATOM      8  C   UNL     1      -9.802 -22.018  20.399  1.00  0.00    -0.021 A 
ATOM      9  C   UNL     1     -10.487 -21.492  21.507  1.00  0.00     0.058 A 
ATOM     10  C   UNL     1      -8.643 -22.786  20.619  1.00  0.00     0.012 A 
ATOM     11  C   UNL     1     -10.042 -21.748  22.813  1.00  0.00     0.157 A 
ATOM     12  C   UNL     1      -8.200 -23.042  21.919  1.00  0.00     0.051 A 
ATOM     13  C   UNL     1      -8.894 -22.530  23.018  1.00  0.00     0.157 A 
BRANCH  11  14
ATOM     14  O   UNL     1     -10.738 -21.229  23.904  1.00  0.00    -0.504 OA
ATOM     15  H   UNL     1     -10.343 -20.501  24.488  1.00  0.00     0.293 HD
ENDBRANCH  11  14
BRANCH  13  16
ATOM     16  O   UNL     1      -8.427 -22.803  24.303  1.00  0.00    -0.504 OA
ATOM     17  H   UNL     1      -7.861 -23.619  24.507  1.00  0.00     0.293 HD
ENDBRANCH  13  16
ENDBRANCH   2   8
TORSDOF 6
ENDMDL
MODEL 3
REMARK VINA RESULT:    -3.057      1.171      2.009
REMARK INTER + INTRA:          -4.230
REMARK INTER:                  -3.924
REMARK INTRA:                  -0.307
REMARK UNBOUND:                -0.280
REMARK SMILES CCOC(=O)C=Cc1ccc(O)c(O)c1
REMARK SMILES IDX 6 1 7 2 4 3 5 4 3 5 2 6 1 7 8 8 15 9 9 10 13 11 10 12 11 13
REMARK SMILES IDX 14 14 12 16
REMARK H PARENT 14 15 12 17
REMARK Flexibility Score: inf
ROOT
ATOM      1  C   UNL     1      -7.407 -22.175  18.064  1.00  0.00     0.094 C 
ATOM      2  C   UNL     1      -8.619 -21.965  18.596  1.00  0.00     0.016 C 
ENDROOT
BRANCH   1   3
ATOM      3  C   UNL     1      -7.166 -22.137  16.612  1.00  0.00     0.330 C 
ATOM      4  O   UNL     1      -6.002 -22.291  16.147  1.00  0.00    -0.247 OA
BRANCH   3   5
ATOM      5  O   UNL     1      -8.253 -21.938  15.753  1.00  0.00    -0.463 OA
BRANCH   5   6
ATOM      6  C   UNL     1      -8.381 -20.806  14.895  1.00  0.00     0.230 C 
ATOM      7  C   UNL     1      -9.838 -20.369  14.795  1.00  0.00     0.049 C 
ENDBRANCH   5   6
ENDBRANCH   3   5
ENDBRANCH   1   3
BRANCH   2   8
ATOM      8  C   UNL     1      -8.899 -22.009  20.052  1.00  0.00    -0.021 A 
ATOM      9  C   UNL     1      -9.617 -20.949  20.632  1.00  0.00     0.058 A 
ATOM     10  C   UNL     1      -8.442 -23.052  20.880  1.00  0.00     0.012 A 
ATOM     11  C   UNL     1      -9.898 -20.939  22.006  1.00  0.00     0.157 A 
ATOM     12  C   UNL     1      -8.722 -23.043  22.250  1.00  0.00     0.051 A 
ATOM     13  C   UNL     1      -9.450 -21.994  22.817  1.00  0.00     0.157 A 
BRANCH  11  14
ATOM     14  O   UNL     1     -10.620 -19.886  22.565  1.00  0.00    -0.504 OA
ATOM     15  H   UNL     1     -10.196 -19.241  23.221  1.00  0.00     0.293 HD
ENDBRANCH  11  14
BRANCH  13  16
ATOM     16  O   UNL     1      -9.714 -22.014  24.186  1.00  0.00    -0.504 OA
ATOM     17  H   UNL     1     -10.482 -21.494  24.594  1.00  0.00     0.293 HD
ENDBRANCH  13  16
ENDBRANCH   2   8
TORSDOF 6
ENDMDL
MODEL 4
REMARK VINA RESULT:    -2.841      2.324      6.579
REMARK INTER + INTRA:          -3.951
REMARK INTER:                  -3.676
REMARK INTRA:                  -0.275
REMARK UNBOUND:                -0.280
REMARK SMILES CCOC(=O)C=Cc1ccc(O)c(O)c1
REMARK SMILES IDX 6 1 7 2 4 3 5 4 3 5 2 6 1 7 8 8 15 9 9 10 13 11 10 12 11 13
REMARK SMILES IDX 14 14 12 16
REMARK H PARENT 14 15 12 17
REMARK Flexibility Score: inf
ROOT
ATOM      1  C   UNL     1      -8.806 -22.184  19.528  1.00  0.00     0.094 C 
ATOM      2  C   UNL     1      -8.493 -22.797  18.377  1.00  0.00     0.016 C 
ENDROOT
BRANCH   1   3
ATOM      3  C   UNL     1     -10.071 -22.437  20.237  1.00  0.00     0.330 C 
ATOM      4  O   UNL     1     -11.123 -22.716  19.596  1.00  0.00    -0.247 OA
BRANCH   3   5
ATOM      5  O   UNL     1     -10.087 -22.373  21.634  1.00  0.00    -0.463 OA
BRANCH   5   6
ATOM      6  C   UNL     1      -9.270 -21.482  22.391  1.00  0.00     0.230 C 
ATOM      7  C   UNL     1      -8.505 -22.238  23.470  1.00  0.00     0.049 C 
ENDBRANCH   5   6
ENDBRANCH   3   5
ENDBRANCH   1   3
BRANCH   2   8
ATOM      8  C   UNL     1      -7.233 -22.556  17.631  1.00  0.00    -0.021 A 
ATOM      9  C   UNL     1      -6.018 -22.942  18.220  1.00  0.00     0.058 A 
ATOM     10  C   UNL     1      -7.207 -21.922  16.374  1.00  0.00     0.012 A 
ATOM     11  C   UNL     1      -4.800 -22.727  17.561  1.00  0.00     0.157 A 
ATOM     12  C   UNL     1      -5.993 -21.707  15.715  1.00  0.00     0.051 A 
ATOM     13  C   UNL     1      -4.789 -22.108  16.299  1.00  0.00     0.157 A 
BRANCH  11  14
ATOM     14  O   UNL     1      -3.602 -23.125  18.153  1.00  0.00    -0.504 OA
ATOM     15  H   UNL     1      -3.292 -22.737  19.036  1.00  0.00     0.293 HD
ENDBRANCH  11  14
BRANCH  13  16
ATOM     16  O   UNL     1      -3.595 -21.880  15.617  1.00  0.00    -0.504 OA
ATOM     17  H   UNL     1      -2.823 -21.377  16.038  1.00  0.00     0.293 HD
ENDBRANCH  13  16
ENDBRANCH   2   8
TORSDOF 6
ENDMDL
MODEL 5
REMARK VINA RESULT:    -2.695      2.524      6.468
REMARK INTER + INTRA:          -3.762
REMARK INTER:                  -3.397
REMARK INTRA:                  -0.365
REMARK UNBOUND:                -0.280
REMARK SMILES CCOC(=O)C=Cc1ccc(O)c(O)c1
REMARK SMILES IDX 6 1 7 2 4 3 5 4 3 5 2 6 1 7 8 8 15 9 9 10 13 11 10 12 11 13
REMARK SMILES IDX 14 14 12 16
REMARK H PARENT 14 15 12 17
REMARK Flexibility Score: inf
ROOT
ATOM      1  C   UNL     1      -8.555 -21.623  19.005  1.00  0.00     0.094 C 
ATOM      2  C   UNL     1      -8.000 -22.551  18.211  1.00  0.00     0.016 C 
ENDROOT
BRANCH   1   3
ATOM      3  C   UNL     1      -9.878 -21.806  19.625  1.00  0.00     0.330 C 
ATOM      4  O   UNL     1      -9.981 -22.250  20.803  1.00  0.00    -0.247 OA
BRANCH   3   5
ATOM      5  O   UNL     1     -11.020 -21.470  18.890  1.00  0.00    -0.463 OA
BRANCH   5   6
ATOM      6  C   UNL     1     -11.023 -20.508  17.837  1.00  0.00     0.230 C 
ATOM      7  C   UNL     1     -11.123 -21.197  16.481  1.00  0.00     0.049 C 
ENDBRANCH   5   6
ENDBRANCH   3   5
ENDBRANCH   1   3
BRANCH   2   8
ATOM      8  C   UNL     1      -6.676 -22.393  17.560  1.00  0.00    -0.021 A 
ATOM      9  C   UNL     1      -6.562 -21.507  16.476  1.00  0.00     0.058 A 
ATOM     10  C   UNL     1      -5.542 -23.123  17.963  1.00  0.00     0.012 A 
ATOM     11  C   UNL     1      -5.335 -21.330  15.819  1.00  0.00     0.157 A 
ATOM     12  C   UNL     1      -4.319 -22.947  17.310  1.00  0.00     0.051 A 
ATOM     13  C   UNL     1      -4.208 -22.052  16.242  1.00  0.00     0.157 A 
BRANCH  11  14
ATOM     14  O   UNL     1      -5.235 -20.439  14.751  1.00  0.00    -0.504 OA
ATOM     15  H   UNL     1      -5.485 -19.463  14.849  1.00  0.00     0.293 HD
ENDBRANCH  11  14
BRANCH  13  16
ATOM     16  O   UNL     1      -2.974 -21.899  15.612  1.00  0.00    -0.504 OA
ATOM     17  H   UNL     1      -2.811 -21.180  14.915  1.00  0.00     0.293 HD
ENDBRANCH  13  16
ENDBRANCH   2   8
TORSDOF 6
ENDMDL
MODEL 6
REMARK VINA RESULT:    -2.514      2.463      6.412
REMARK INTER + INTRA:          -3.529
REMARK INTER:                  -3.627
REMARK INTRA:                   0.098
REMARK UNBOUND:                -0.280
REMARK SMILES CCOC(=O)C=Cc1ccc(O)c(O)c1
REMARK SMILES IDX 6 1 7 2 4 3 5 4 3 5 2 6 1 7 8 8 15 9 9 10 13 11 10 12 11 13
REMARK SMILES IDX 14 14 12 16
REMARK H PARENT 14 15 12 17
REMARK Flexibility Score: inf
ROOT
ATOM      1  C   UNL     1      -9.915 -20.603  21.277  1.00  0.00     0.094 C 
ATOM      2  C   UNL     1     -10.468 -21.479  20.426  1.00  0.00     0.016 C 
ENDROOT
BRANCH   1   3
ATOM      3  C   UNL     1      -9.795 -20.874  22.719  1.00  0.00     0.330 C 
ATOM      4  O   UNL     1     -10.700 -20.509  23.520  1.00  0.00    -0.247 OA
BRANCH   3   5
ATOM      5  O   UNL     1      -8.664 -21.552  23.186  1.00  0.00    -0.463 OA
BRANCH   5   6
ATOM      6  C   UNL     1      -8.696 -22.893  23.672  1.00  0.00     0.230 C 
ATOM      7  C   UNL     1      -9.935 -23.125  24.529  1.00  0.00     0.049 C 
ENDBRANCH   5   6
ENDBRANCH   3   5
ENDBRANCH   1   3
BRANCH   2   8
ATOM      8  C   UNL     1     -10.618 -21.233  18.970  1.00  0.00    -0.021 A 
ATOM      9  C   UNL     1     -10.798 -19.912  18.527  1.00  0.00     0.058 A 
ATOM     10  C   UNL     1     -10.622 -22.274  18.022  1.00  0.00     0.012 A 
ATOM     11  C   UNL     1     -10.955 -19.627  17.163  1.00  0.00     0.157 A 
ATOM     12  C   UNL     1     -10.777 -21.991  16.662  1.00  0.00     0.051 A 
ATOM     13  C   UNL     1     -10.940 -20.674  16.226  1.00  0.00     0.157 A 
BRANCH  11  14
ATOM     14  O   UNL     1     -11.123 -18.311  16.737  1.00  0.00    -0.504 OA
ATOM     15  H   UNL     1     -11.356 -17.568  17.385  1.00  0.00     0.293 HD
ENDBRANCH  11  14
BRANCH  13  16
ATOM     16  O   UNL     1     -11.092 -20.424  14.863  1.00  0.00    -0.504 OA
ATOM     17  H   UNL     1     -11.644 -19.649  14.516  1.00  0.00     0.293 HD
ENDBRANCH  13  16
ENDBRANCH   2   8
TORSDOF 6
ENDMDL
MODEL 7
REMARK VINA RESULT:    -2.507      1.335      2.388
REMARK INTER + INTRA:          -3.519
REMARK INTER:                  -3.321
REMARK INTRA:                  -0.198
REMARK UNBOUND:                -0.280
REMARK SMILES CCOC(=O)C=Cc1ccc(O)c(O)c1
REMARK SMILES IDX 6 1 7 2 4 3 5 4 3 5 2 6 1 7 8 8 15 9 9 10 13 11 10 12 11 13
REMARK SMILES IDX 14 14 12 16
REMARK H PARENT 14 15 12 17
REMARK Flexibility Score: inf
ROOT
ATOM      1  C   UNL     1      -7.254 -21.964  18.231  1.00  0.00     0.094 C 
ATOM      2  C   UNL     1      -8.313 -22.476  18.875  1.00  0.00     0.016 C 
ENDROOT
BRANCH   1   3
ATOM      3  C   UNL     1      -6.641 -22.630  17.070  1.00  0.00     0.330 C 
ATOM      4  O   UNL     1      -7.311 -22.841  16.020  1.00  0.00    -0.247 OA
BRANCH   3   5
ATOM      5  O   UNL     1      -5.299 -23.017  17.145  1.00  0.00    -0.463 OA
BRANCH   5   6
ATOM      6  C   UNL     1      -4.228 -22.253  16.595  1.00  0.00     0.230 C 
ATOM      7  C   UNL     1      -2.994 -23.125  16.391  1.00  0.00     0.049 C 
ENDBRANCH   5   6
ENDBRANCH   3   5
ENDBRANCH   1   3
BRANCH   2   8
ATOM      8  C   UNL     1      -8.947 -21.838  20.056  1.00  0.00    -0.021 A 
ATOM      9  C   UNL     1      -8.805 -22.455  21.310  1.00  0.00     0.058 A 
ATOM     10  C   UNL     1      -9.713 -20.661  19.961  1.00  0.00     0.012 A 
ATOM     11  C   UNL     1      -9.394 -21.898  22.455  1.00  0.00     0.157 A 
ATOM     12  C   UNL     1     -10.299 -20.104  21.101  1.00  0.00     0.051 A 
ATOM     13  C   UNL     1     -10.142 -20.714  22.349  1.00  0.00     0.157 A 
BRANCH  11  14
ATOM     14  O   UNL     1      -9.236 -22.516  23.694  1.00  0.00    -0.504 OA
ATOM     15  H   UNL     1      -8.871 -22.015  24.495  1.00  0.00     0.293 HD
ENDBRANCH  11  14
BRANCH  13  16
ATOM     16  O   UNL     1     -10.738 -20.134  23.467  1.00  0.00    -0.504 OA
ATOM     17  H   UNL     1     -11.674 -19.747  23.437  1.00  0.00     0.293 HD
ENDBRANCH  13  16
ENDBRANCH   2   8
TORSDOF 6
ENDMDL
MODEL 8
REMARK VINA RESULT:    -2.435      1.651      6.595
REMARK INTER + INTRA:          -3.426
REMARK INTER:                  -3.220
REMARK INTRA:                  -0.205
REMARK UNBOUND:                -0.280
REMARK SMILES CCOC(=O)C=Cc1ccc(O)c(O)c1
REMARK SMILES IDX 6 1 7 2 4 3 5 4 3 5 2 6 1 7 8 8 15 9 9 10 13 11 10 12 11 13
REMARK SMILES IDX 14 14 12 16
REMARK H PARENT 14 15 12 17
REMARK Flexibility Score: inf
ROOT
ATOM      1  C   UNL     1     -10.222 -20.804  20.618  1.00  0.00     0.094 C 
ATOM      2  C   UNL     1     -10.627 -21.581  19.603  1.00  0.00     0.016 C 
ENDROOT
BRANCH   1   3
ATOM      3  C   UNL     1     -10.602 -21.071  22.015  1.00  0.00     0.330 C 
ATOM      4  O   UNL     1     -10.918 -20.125  22.789  1.00  0.00    -0.247 OA
BRANCH   3   5
ATOM      5  O   UNL     1     -10.620 -22.395  22.468  1.00  0.00    -0.463 OA
BRANCH   5   6
ATOM      6  C   UNL     1      -9.717 -22.903  23.448  1.00  0.00     0.230 C 
ATOM      7  C   UNL     1      -8.400 -22.136  23.417  1.00  0.00     0.049 C 
ENDBRANCH   5   6
ENDBRANCH   3   5
ENDBRANCH   1   3
BRANCH   2   8
ATOM      8  C   UNL     1     -10.273 -21.333  18.183  1.00  0.00    -0.021 A 
ATOM      9  C   UNL     1      -9.023 -21.772  17.715  1.00  0.00     0.058 A 
ATOM     10  C   UNL     1     -11.125 -20.643  17.299  1.00  0.00     0.012 A 
ATOM     11  C   UNL     1      -8.637 -21.552  16.385  1.00  0.00     0.157 A 
ATOM     12  C   UNL     1     -10.741 -20.424  15.973  1.00  0.00     0.051 A 
ATOM     13  C   UNL     1      -9.504 -20.877  15.510  1.00  0.00     0.157 A 
BRANCH  11  14
ATOM     14  O   UNL     1      -7.398 -22.002  15.932  1.00  0.00    -0.504 OA
ATOM     15  H   UNL     1      -6.532 -21.683  16.350  1.00  0.00     0.293 HD
ENDBRANCH  11  14
BRANCH  13  16
ATOM     16  O   UNL     1      -9.151 -20.644  14.182  1.00  0.00    -0.504 OA
ATOM     17  H   UNL     1      -9.532 -21.192  13.419  1.00  0.00     0.293 HD
ENDBRANCH  13  16
ENDBRANCH   2   8
TORSDOF 6
ENDMDL
MODEL 9
REMARK VINA RESULT:    -0.839     15.268     17.476
REMARK INTER + INTRA:          -1.364
REMARK INTER:                  -1.096
REMARK INTRA:                  -0.268
REMARK UNBOUND:                -0.280
REMARK SMILES CCOC(=O)C=Cc1ccc(O)c(O)c1
REMARK SMILES IDX 6 1 7 2 4 3 5 4 3 5 2 6 1 7 8 8 15 9 9 10 13 11 10 12 11 13
REMARK SMILES IDX 14 14 12 16
REMARK H PARENT 14 15 12 17
REMARK Flexibility Score: inf
ROOT
ATOM      1  C   UNL     1       7.781 -21.708  12.303  1.00  0.00     0.094 C 
ATOM      2  C   UNL     1       8.329 -22.315  13.366  1.00  0.00     0.016 C 
ENDROOT
BRANCH   1   3
ATOM      3  C   UNL     1       8.368 -21.795  10.956  1.00  0.00     0.330 C 
ATOM      4  O   UNL     1       9.007 -20.821  10.467  1.00  0.00    -0.247 OA
BRANCH   3   5
ATOM      5  O   UNL     1       8.217 -22.981  10.230  1.00  0.00    -0.463 OA
BRANCH   5   6
ATOM      6  C   UNL     1       7.774 -23.023   8.875  1.00  0.00     0.230 C 
ATOM      7  C   UNL     1       6.255 -23.125   8.808  1.00  0.00     0.049 C 
ENDBRANCH   5   6
ENDBRANCH   3   5
ENDBRANCH   1   3
BRANCH   2   8
ATOM      8  C   UNL     1       7.771 -22.237  14.739  1.00  0.00    -0.021 A 
ATOM      9  C   UNL     1       6.419 -22.567  14.935  1.00  0.00     0.058 A 
ATOM     10  C   UNL     1       8.533 -21.810  15.843  1.00  0.00     0.012 A 
ATOM     11  C   UNL     1       5.842 -22.499  16.211  1.00  0.00     0.157 A 
ATOM     12  C   UNL     1       7.958 -21.742  17.115  1.00  0.00     0.051 A 
ATOM     13  C   UNL     1       6.617 -22.087  17.307  1.00  0.00     0.157 A 
BRANCH  11  14
ATOM     14  O   UNL     1       4.502 -22.839  16.392  1.00  0.00    -0.504 OA
ATOM     15  H   UNL     1       4.156 -23.178  17.282  1.00  0.00     0.293 HD
ENDBRANCH  11  14
BRANCH  13  16
ATOM     16  O   UNL     1       6.074 -22.009  18.588  1.00  0.00    -0.504 OA
ATOM     17  H   UNL     1       5.510 -22.756  18.979  1.00  0.00     0.293 HD
ENDBRANCH  13  16
ENDBRANCH   2   8
TORSDOF 6
ENDMDL
