MODEL 1
REMARK VINA RESULT:    -3.432      0.000      0.000
REMARK INTER + INTRA:          -8.865
REMARK INTER:                  -6.240
REMARK INTRA:                  -2.625
REMARK UNBOUND:                -2.625
REMARK SMILES CCCCCCCCCCCCCCCC(=O)[O-]
REMARK SMILES IDX 9 1 10 2 11 3 12 4 13 5 14 6 15 7 16 8 17 9 18 10 8 11 7 12
REMARK SMILES IDX 6 13 5 14 4 15 3 16 2 17 1 18
REMARK H PARENT
REMARK Flexibility Score: inf
ROOT
ATOM      1  C   UNL     1      10.542  -8.133  34.112  1.00  0.00     0.000 C 
ENDROOT
BRANCH   1   2
ATOM      2  C   UNL     1       9.331  -8.254  33.172  1.00  0.00     0.000 C 
BRANCH   2   3
ATOM      3  C   UNL     1       8.319  -7.108  33.356  1.00  0.00     0.000 C 
BRANCH   3   4
ATOM      4  C   UNL     1       8.998  -5.729  33.402  1.00  0.00     0.000 C 
BRANCH   4   5
ATOM      5  C   UNL     1       8.231  -4.727  34.283  1.00  0.00     0.000 C 
BRANCH   5   6
ATOM      6  C   UNL     1       8.952  -4.430  35.608  1.00  0.00     0.006 C 
BRANCH   6   7
ATOM      7  C   UNL     1      10.480  -4.464  35.473  1.00  0.00     0.053 C 
BRANCH   7   8
ATOM      8  C   UNL     1      11.128  -4.082  36.765  1.00  0.00     0.041 C 
ATOM      9  O   UNL     1      12.210  -4.623  37.115  1.00  0.00    -0.550 OA
ATOM     10  O   UNL     1      10.515  -3.162  37.606  1.00  0.00    -0.550 OA
ENDBRANCH   7   8
ENDBRANCH   6   7
ENDBRANCH   5   6
ENDBRANCH   4   5
ENDBRANCH   3   4
ENDBRANCH   2   3
ENDBRANCH   1   2
BRANCH   1  11
ATOM     11  C   UNL     1      10.343  -8.890  35.437  1.00  0.00     0.000 C 
BRANCH  11  12
ATOM     12  C   UNL     1      10.172  -7.950  36.645  1.00  0.00    -0.000 C 
BRANCH  12  13
ATOM     13  C   UNL     1       8.723  -7.750  37.126  1.00  0.00    -0.000 C 
BRANCH  13  14
ATOM     14  C   UNL     1       7.777  -8.874  36.668  1.00  0.00    -0.000 C 
BRANCH  14  15
ATOM     15  C   UNL     1       6.455  -8.339  36.095  1.00  0.00    -0.000 C 
BRANCH  15  16
ATOM     16  C   UNL     1       6.199  -6.866  36.463  1.00  0.00    -0.000 C 
BRANCH  16  17
ATOM     17  C   UNL     1       4.991  -6.276  35.720  1.00  0.00    -0.003 C 
ATOM     18  C   UNL     1       3.981  -7.343  35.294  1.00  0.00     0.004 C 
ENDBRANCH  16  17
ENDBRANCH  15  16
ENDBRANCH  14  15
ENDBRANCH  13  14
ENDBRANCH  12  13
ENDBRANCH  11  12
ENDBRANCH   1  11
TORSDOF 14
ENDMDL
MODEL 2
REMARK VINA RESULT:    -3.424      2.367      5.313
REMARK INTER + INTRA:          -8.851
REMARK INTER:                  -6.211
REMARK INTRA:                  -2.640
REMARK UNBOUND:                -2.625
REMARK SMILES CCCCCCCCCCCCCCCC(=O)[O-]
REMARK SMILES IDX 9 1 10 2 11 3 12 4 13 5 14 6 15 7 16 8 17 9 18 10 8 11 7 12
REMARK SMILES IDX 6 13 5 14 4 15 3 16 2 17 1 18
REMARK H PARENT
REMARK Flexibility Score: inf
ROOT
ATOM      1  C   UNL     1       9.880  -8.253  33.579  1.00  0.00     0.000 C 
ENDROOT
BRANCH   1   2
ATOM      2  C   UNL     1       9.846  -8.888  34.978  1.00  0.00     0.000 C 
BRANCH   2   3
ATOM      3  C   UNL     1      10.060  -7.860  36.104  1.00  0.00     0.000 C 
BRANCH   3   4
ATOM      4  C   UNL     1       9.020  -7.997  37.228  1.00  0.00     0.000 C 
BRANCH   4   5
ATOM      5  C   UNL     1       7.751  -7.172  36.956  1.00  0.00     0.000 C 
BRANCH   5   6
ATOM      6  C   UNL     1       6.583  -8.031  36.446  1.00  0.00     0.006 C 
BRANCH   6   7
ATOM      7  C   UNL     1       5.723  -7.304  35.402  1.00  0.00     0.053 C 
BRANCH   7   8
ATOM      8  C   UNL     1       4.932  -6.210  36.046  1.00  0.00     0.041 C 
ATOM      9  O   UNL     1       3.976  -6.490  36.816  1.00  0.00    -0.550 OA
ATOM     10  O   UNL     1       5.221  -4.882  35.760  1.00  0.00    -0.550 OA
ENDBRANCH   7   8
ENDBRANCH   6   7
ENDBRANCH   5   6
ENDBRANCH   4   5
ENDBRANCH   3   4
ENDBRANCH   2   3
ENDBRANCH   1   2
BRANCH   1  11
ATOM     11  C   UNL     1       8.626  -7.413  33.276  1.00  0.00     0.000 C 
BRANCH  11  12
ATOM     12  C   UNL     1       8.942  -5.922  33.056  1.00  0.00    -0.000 C 
BRANCH  12  13
ATOM     13  C   UNL     1       8.312  -4.955  34.076  1.00  0.00    -0.000 C 
BRANCH  13  14
ATOM     14  C   UNL     1       9.335  -4.382  35.072  1.00  0.00    -0.000 C 
BRANCH  14  15
ATOM     15  C   UNL     1      10.788  -4.642  34.644  1.00  0.00    -0.000 C 
BRANCH  15  16
ATOM     16  C   UNL     1      11.798  -4.387  35.777  1.00  0.00    -0.000 C 
BRANCH  16  17
ATOM     17  C   UNL     1      11.137  -4.388  37.164  1.00  0.00    -0.003 C 
ATOM     18  C   UNL     1      11.811  -5.354  38.139  1.00  0.00     0.004 C 
ENDBRANCH  16  17
ENDBRANCH  15  16
ENDBRANCH  14  15
ENDBRANCH  13  14
ENDBRANCH  12  13
ENDBRANCH  11  12
ENDBRANCH   1  11
TORSDOF 14
ENDMDL
MODEL 3
REMARK VINA RESULT:    -3.406      2.337      5.098
REMARK INTER + INTRA:          -8.820
REMARK INTER:                  -6.757
REMARK INTRA:                  -2.063
REMARK UNBOUND:                -2.625
REMARK SMILES CCCCCCCCCCCCCCCC(=O)[O-]
REMARK SMILES IDX 9 1 10 2 11 3 12 4 13 5 14 6 15 7 16 8 17 9 18 10 8 11 7 12
REMARK SMILES IDX 6 13 5 14 4 15 3 16 2 17 1 18
REMARK H PARENT
REMARK Flexibility Score: inf
ROOT
ATOM      1  C   UNL     1       8.449  -6.782  33.965  1.00  0.00     0.000 C 
ENDROOT
BRANCH   1   2
ATOM      2  C   UNL     1       9.614  -7.767  33.777  1.00  0.00     0.000 C 
BRANCH   2   3
ATOM      3  C   UNL     1      10.506  -7.880  35.027  1.00  0.00     0.000 C 
BRANCH   3   4
ATOM      4  C   UNL     1       9.796  -8.596  36.189  1.00  0.00     0.000 C 
BRANCH   4   5
ATOM      5  C   UNL     1      10.286  -8.109  37.564  1.00  0.00     0.000 C 
BRANCH   5   6
ATOM      6  C   UNL     1      11.732  -7.590  37.529  1.00  0.00     0.006 C 
BRANCH   6   7
ATOM      7  C   UNL     1      12.577  -8.109  38.700  1.00  0.00     0.053 C 
BRANCH   7   8
ATOM      8  C   UNL     1      13.875  -7.369  38.777  1.00  0.00     0.041 C 
ATOM      9  O   UNL     1      13.883  -6.114  38.884  1.00  0.00    -0.550 OA
ATOM     10  O   UNL     1      15.077  -8.060  38.684  1.00  0.00    -0.550 OA
ENDBRANCH   7   8
ENDBRANCH   6   7
ENDBRANCH   5   6
ENDBRANCH   4   5
ENDBRANCH   3   4
ENDBRANCH   2   3
ENDBRANCH   1   2
BRANCH   1  11
ATOM     11  C   UNL     1       8.650  -5.469  33.188  1.00  0.00     0.000 C 
BRANCH  11  12
ATOM     12  C   UNL     1       8.404  -4.217  34.051  1.00  0.00    -0.000 C 
BRANCH  12  13
ATOM     13  C   UNL     1       7.861  -4.487  35.466  1.00  0.00    -0.000 C 
BRANCH  13  14
ATOM     14  C   UNL     1       8.737  -3.876  36.573  1.00  0.00    -0.000 C 
BRANCH  14  15
ATOM     15  C   UNL     1      10.135  -4.511  36.640  1.00  0.00    -0.000 C 
BRANCH  15  16
ATOM     16  C   UNL     1      11.245  -3.480  36.910  1.00  0.00    -0.000 C 
BRANCH  16  17
ATOM     17  C   UNL     1      12.254  -3.385  35.755  1.00  0.00    -0.003 C 
ATOM     18  C   UNL     1      12.020  -4.447  34.680  1.00  0.00     0.004 C 
ENDBRANCH  16  17
ENDBRANCH  15  16
ENDBRANCH  14  15
ENDBRANCH  13  14
ENDBRANCH  12  13
ENDBRANCH  11  12
ENDBRANCH   1  11
TORSDOF 14
ENDMDL
MODEL 4
REMARK VINA RESULT:    -3.404      3.030      5.170
REMARK INTER + INTRA:          -8.815
REMARK INTER:                  -6.198
REMARK INTRA:                  -2.617
REMARK UNBOUND:                -2.625
REMARK SMILES CCCCCCCCCCCCCCCC(=O)[O-]
REMARK SMILES IDX 9 1 10 2 11 3 12 4 13 5 14 6 15 7 16 8 17 9 18 10 8 11 7 12
REMARK SMILES IDX 6 13 5 14 4 15 3 16 2 17 1 18
REMARK H PARENT
REMARK Flexibility Score: inf
ROOT
ATOM      1  C   UNL     1       8.661  -6.403  33.079  1.00  0.00     0.000 C 
ENDROOT
BRANCH   1   2
ATOM      2  C   UNL     1       9.186  -5.253  33.953  1.00  0.00     0.000 C 
BRANCH   2   3
ATOM      3  C   UNL     1       8.259  -4.024  33.941  1.00  0.00     0.000 C 
BRANCH   3   4
ATOM      4  C   UNL     1       7.530  -3.827  35.281  1.00  0.00     0.000 C 
BRANCH   4   5
ATOM      5  C   UNL     1       7.423  -5.132  36.087  1.00  0.00     0.000 C 
BRANCH   5   6
ATOM      6  C   UNL     1       6.054  -5.814  35.933  1.00  0.00     0.006 C 
BRANCH   6   7
ATOM      7  C   UNL     1       6.166  -7.333  35.739  1.00  0.00     0.053 C 
BRANCH   7   8
ATOM      8  C   UNL     1       5.071  -7.828  34.850  1.00  0.00     0.041 C 
ATOM      9  O   UNL     1       3.884  -7.451  35.038  1.00  0.00    -0.550 OA
ATOM     10  O   UNL     1       5.351  -8.743  33.843  1.00  0.00    -0.550 OA
ENDBRANCH   7   8
ENDBRANCH   6   7
ENDBRANCH   5   6
ENDBRANCH   4   5
ENDBRANCH   3   4
ENDBRANCH   2   3
ENDBRANCH   1   2
BRANCH   1  11
ATOM     11  C   UNL     1       9.210  -7.775  33.508  1.00  0.00     0.000 C 
BRANCH  11  12
ATOM     12  C   UNL     1      10.252  -7.677  34.638  1.00  0.00    -0.000 C 
BRANCH  12  13
ATOM     13  C   UNL     1       9.842  -8.327  35.972  1.00  0.00    -0.000 C 
BRANCH  13  14
ATOM     14  C   UNL     1      10.144  -7.440  37.191  1.00  0.00    -0.000 C 
BRANCH  14  15
ATOM     15  C   UNL     1      11.124  -6.300  36.866  1.00  0.00    -0.000 C 
BRANCH  15  16
ATOM     16  C   UNL     1      10.823  -5.013  37.654  1.00  0.00    -0.000 C 
BRANCH  16  17
ATOM     17  C   UNL     1      11.019  -3.746  36.807  1.00  0.00    -0.003 C 
ATOM     18  C   UNL     1      12.076  -3.923  35.717  1.00  0.00     0.004 C 
ENDBRANCH  16  17
ENDBRANCH  15  16
ENDBRANCH  14  15
ENDBRANCH  13  14
ENDBRANCH  12  13
ENDBRANCH  11  12
ENDBRANCH   1  11
TORSDOF 14
ENDMDL
MODEL 5
REMARK VINA RESULT:    -3.395      1.779      3.995
REMARK INTER + INTRA:          -8.799
REMARK INTER:                  -6.049
REMARK INTRA:                  -2.749
REMARK UNBOUND:                -2.625
REMARK SMILES CCCCCCCCCCCCCCCC(=O)[O-]
REMARK SMILES IDX 9 1 10 2 11 3 12 4 13 5 14 6 15 7 16 8 17 9 18 10 8 11 7 12
REMARK SMILES IDX 6 13 5 14 4 15 3 16 2 17 1 18
REMARK H PARENT
REMARK Flexibility Score: inf
ROOT
ATOM      1  C   UNL     1       7.670  -4.624  36.855  1.00  0.00     0.000 C 
ENDROOT
BRANCH   1   2
ATOM      2  C   UNL     1       7.847  -5.977  37.563  1.00  0.00     0.000 C 
BRANCH   2   3
ATOM      3  C   UNL     1       9.172  -6.072  38.342  1.00  0.00     0.000 C 
BRANCH   3   4
ATOM      4  C   UNL     1      10.202  -6.971  37.637  1.00  0.00     0.000 C 
BRANCH   4   5
ATOM      5  C   UNL     1      11.380  -6.169  37.058  1.00  0.00     0.000 C 
BRANCH   5   6
ATOM      6  C   UNL     1      11.448  -4.734  37.606  1.00  0.00     0.006 C 
BRANCH   6   7
ATOM      7  C   UNL     1      11.320  -3.672  36.505  1.00  0.00     0.053 C 
BRANCH   7   8
ATOM      8  C   UNL     1      12.448  -3.789  35.531  1.00  0.00     0.041 C 
ATOM      9  O   UNL     1      13.612  -3.444  35.866  1.00  0.00    -0.550 OA
ATOM     10  O   UNL     1      12.208  -4.237  34.238  1.00  0.00    -0.550 OA
ENDBRANCH   7   8
ENDBRANCH   6   7
ENDBRANCH   5   6
ENDBRANCH   4   5
ENDBRANCH   3   4
ENDBRANCH   2   3
ENDBRANCH   1   2
BRANCH   1  11
ATOM     11  C   UNL     1       7.241  -4.775  35.385  1.00  0.00     0.000 C 
BRANCH  11  12
ATOM     12  C   UNL     1       8.252  -4.159  34.399  1.00  0.00    -0.000 C 
BRANCH  12  13
ATOM     13  C   UNL     1       8.841  -5.133  33.362  1.00  0.00    -0.000 C 
BRANCH  13  14
ATOM     14  C   UNL     1       9.451  -6.393  34.000  1.00  0.00    -0.000 C 
BRANCH  14  15
ATOM     15  C   UNL     1       8.695  -7.676  33.617  1.00  0.00    -0.000 C 
BRANCH  15  16
ATOM     16  C   UNL     1       8.681  -8.720  34.748  1.00  0.00    -0.000 C 
BRANCH  16  17
ATOM     17  C   UNL     1       7.322  -8.797  35.460  1.00  0.00    -0.003 C 
ATOM     18  C   UNL     1       6.179  -8.239  34.612  1.00  0.00     0.004 C 
ENDBRANCH  16  17
ENDBRANCH  15  16
ENDBRANCH  14  15
ENDBRANCH  13  14
ENDBRANCH  12  13
ENDBRANCH  11  12
ENDBRANCH   1  11
TORSDOF 14
ENDMDL
MODEL 6
REMARK VINA RESULT:    -3.384      1.622      3.524
REMARK INTER + INTRA:          -8.779
REMARK INTER:                  -6.353
REMARK INTRA:                  -2.426
REMARK UNBOUND:                -2.625
REMARK SMILES CCCCCCCCCCCCCCCC(=O)[O-]
REMARK SMILES IDX 9 1 10 2 11 3 12 4 13 5 14 6 15 7 16 8 17 9 18 10 8 11 7 12
REMARK SMILES IDX 6 13 5 14 4 15 3 16 2 17 1 18
REMARK H PARENT
REMARK Flexibility Score: inf
ROOT
ATOM      1  C   UNL     1       9.462  -8.546  35.033  1.00  0.00     0.000 C 
ENDROOT
BRANCH   1   2
ATOM      2  C   UNL     1      10.476  -8.694  36.178  1.00  0.00     0.000 C 
BRANCH   2   3
ATOM      3  C   UNL     1      10.258  -7.666  37.303  1.00  0.00     0.000 C 
BRANCH   3   4
ATOM      4  C   UNL     1      11.385  -6.622  37.370  1.00  0.00     0.000 C 
BRANCH   4   5
ATOM      5  C   UNL     1      10.939  -5.322  38.061  1.00  0.00     0.000 C 
BRANCH   5   6
ATOM      6  C   UNL     1      11.052  -4.093  37.145  1.00  0.00     0.006 C 
BRANCH   6   7
ATOM      7  C   UNL     1      12.085  -4.282  36.025  1.00  0.00     0.053 C 
BRANCH   7   8
ATOM      8  C   UNL     1      13.240  -3.352  36.218  1.00  0.00     0.041 C 
ATOM      9  O   UNL     1      13.090  -2.112  36.051  1.00  0.00    -0.550 OA
ATOM     10  O   UNL     1      14.494  -3.857  36.537  1.00  0.00    -0.550 OA
ENDBRANCH   7   8
ENDBRANCH   6   7
ENDBRANCH   5   6
ENDBRANCH   4   5
ENDBRANCH   3   4
ENDBRANCH   2   3
ENDBRANCH   1   2
BRANCH   1  11
ATOM     11  C   UNL     1       9.883  -7.487  33.998  1.00  0.00     0.000 C 
BRANCH  11  12
ATOM     12  C   UNL     1       8.707  -6.986  33.139  1.00  0.00    -0.000 C 
BRANCH  12  13
ATOM     13  C   UNL     1       8.677  -5.467  32.884  1.00  0.00    -0.000 C 
BRANCH  13  14
ATOM     14  C   UNL     1       9.005  -4.640  34.139  1.00  0.00    -0.000 C 
BRANCH  14  15
ATOM     15  C   UNL     1       7.759  -4.326  34.983  1.00  0.00    -0.000 C 
BRANCH  15  16
ATOM     16  C   UNL     1       7.658  -5.202  36.244  1.00  0.00    -0.000 C 
BRANCH  16  17
ATOM     17  C   UNL     1       6.592  -6.301  36.112  1.00  0.00    -0.003 C 
ATOM     18  C   UNL     1       6.582  -7.260  37.304  1.00  0.00     0.004 C 
ENDBRANCH  16  17
ENDBRANCH  15  16
ENDBRANCH  14  15
ENDBRANCH  13  14
ENDBRANCH  12  13
ENDBRANCH  11  12
ENDBRANCH   1  11
TORSDOF 14
ENDMDL
MODEL 7
REMARK VINA RESULT:    -3.354      2.089      4.505
REMARK INTER + INTRA:          -8.723
REMARK INTER:                  -6.684
REMARK INTRA:                  -2.039
REMARK UNBOUND:                -2.625
REMARK SMILES CCCCCCCCCCCCCCCC(=O)[O-]
REMARK SMILES IDX 9 1 10 2 11 3 12 4 13 5 14 6 15 7 16 8 17 9 18 10 8 11 7 12
REMARK SMILES IDX 6 13 5 14 4 15 3 16 2 17 1 18
REMARK H PARENT
REMARK Flexibility Score: inf
ROOT
ATOM      1  C   UNL     1       9.110  -5.245  33.568  1.00  0.00     0.000 C 
ENDROOT
BRANCH   1   2
ATOM      2  C   UNL     1       8.232  -4.267  34.365  1.00  0.00     0.000 C 
BRANCH   2   3
ATOM      3  C   UNL     1       7.581  -4.920  35.598  1.00  0.00     0.000 C 
BRANCH   3   4
ATOM      4  C   UNL     1       8.532  -4.968  36.806  1.00  0.00     0.000 C 
BRANCH   4   5
ATOM      5  C   UNL     1       9.299  -3.649  36.999  1.00  0.00     0.000 C 
BRANCH   5   6
ATOM      6  C   UNL     1      10.779  -3.869  37.352  1.00  0.00     0.006 C 
BRANCH   6   7
ATOM      7  C   UNL     1      11.658  -4.088  36.113  1.00  0.00     0.053 C 
BRANCH   7   8
ATOM      8  C   UNL     1      12.895  -3.251  36.195  1.00  0.00     0.041 C 
ATOM      9  O   UNL     1      14.029  -3.799  36.230  1.00  0.00    -0.550 OA
ATOM     10  O   UNL     1      12.795  -1.868  36.279  1.00  0.00    -0.550 OA
ENDBRANCH   7   8
ENDBRANCH   6   7
ENDBRANCH   5   6
ENDBRANCH   4   5
ENDBRANCH   3   4
ENDBRANCH   2   3
ENDBRANCH   1   2
BRANCH   1  11
ATOM     11  C   UNL     1       8.753  -6.718  33.837  1.00  0.00     0.000 C 
BRANCH  11  12
ATOM     12  C   UNL     1       9.970  -7.562  34.259  1.00  0.00    -0.000 C 
BRANCH  12  13
ATOM     13  C   UNL     1       9.881  -8.194  35.661  1.00  0.00    -0.000 C 
BRANCH  13  14
ATOM     14  C   UNL     1      11.034  -7.770  36.586  1.00  0.00    -0.000 C 
BRANCH  14  15
ATOM     15  C   UNL     1      11.354  -8.826  37.656  1.00  0.00    -0.000 C 
BRANCH  15  16
ATOM     16  C   UNL     1      12.338  -8.314  38.723  1.00  0.00    -0.000 C 
BRANCH  16  17
ATOM     17  C   UNL     1      12.372  -6.780  38.804  1.00  0.00    -0.003 C 
ATOM     18  C   UNL     1      13.794  -6.226  38.898  1.00  0.00     0.004 C 
ENDBRANCH  16  17
ENDBRANCH  15  16
ENDBRANCH  14  15
ENDBRANCH  13  14
ENDBRANCH  12  13
ENDBRANCH  11  12
ENDBRANCH   1  11
TORSDOF 14
ENDMDL
MODEL 8
REMARK VINA RESULT:    -3.346      1.356      1.993
REMARK INTER + INTRA:          -8.709
REMARK INTER:                  -6.001
REMARK INTRA:                  -2.708
REMARK UNBOUND:                -2.625
REMARK SMILES CCCCCCCCCCCCCCCC(=O)[O-]
REMARK SMILES IDX 9 1 10 2 11 3 12 4 13 5 14 6 15 7 16 8 17 9 18 10 8 11 7 12
REMARK SMILES IDX 6 13 5 14 4 15 3 16 2 17 1 18
REMARK H PARENT
REMARK Flexibility Score: inf
ROOT
ATOM      1  C   UNL     1      10.125  -9.353  34.839  1.00  0.00     0.000 C 
ENDROOT
BRANCH   1   2
ATOM      2  C   UNL     1      10.169  -8.156  33.875  1.00  0.00     0.000 C 
BRANCH   2   3
ATOM      3  C   UNL     1       8.773  -7.751  33.366  1.00  0.00     0.000 C 
BRANCH   3   4
ATOM      4  C   UNL     1       8.289  -6.426  33.979  1.00  0.00     0.000 C 
BRANCH   4   5
ATOM      5  C   UNL     1       9.092  -5.216  33.471  1.00  0.00     0.000 C 
BRANCH   5   6
ATOM      6  C   UNL     1       9.773  -4.436  34.607  1.00  0.00     0.006 C 
BRANCH   6   7
ATOM      7  C   UNL     1      11.262  -4.178  34.340  1.00  0.00     0.053 C 
BRANCH   7   8
ATOM      8  C   UNL     1      11.953  -3.753  35.596  1.00  0.00     0.041 C 
ATOM      9  O   UNL     1      11.280  -3.456  36.619  1.00  0.00    -0.550 OA
ATOM     10  O   UNL     1      13.337  -3.642  35.626  1.00  0.00    -0.550 OA
ENDBRANCH   7   8
ENDBRANCH   6   7
ENDBRANCH   5   6
ENDBRANCH   4   5
ENDBRANCH   3   4
ENDBRANCH   2   3
ENDBRANCH   1   2
BRANCH   1  11
ATOM     11  C   UNL     1      10.507  -8.969  36.280  1.00  0.00     0.000 C 
BRANCH  11  12
ATOM     12  C   UNL     1      10.913  -7.490  36.420  1.00  0.00    -0.000 C 
BRANCH  12  13
ATOM     13  C   UNL     1      10.493  -6.812  37.737  1.00  0.00    -0.000 C 
BRANCH  13  14
ATOM     14  C   UNL     1       9.114  -6.136  37.653  1.00  0.00    -0.000 C 
BRANCH  14  15
ATOM     15  C   UNL     1       7.989  -7.012  38.227  1.00  0.00    -0.000 C 
BRANCH  15  16
ATOM     16  C   UNL     1       6.887  -7.318  37.197  1.00  0.00    -0.000 C 
BRANCH  16  17
ATOM     17  C   UNL     1       6.888  -8.789  36.754  1.00  0.00    -0.003 C 
ATOM     18  C   UNL     1       6.034  -9.031  35.509  1.00  0.00     0.004 C 
ENDBRANCH  16  17
ENDBRANCH  15  16
ENDBRANCH  14  15
ENDBRANCH  13  14
ENDBRANCH  12  13
ENDBRANCH  11  12
ENDBRANCH   1  11
TORSDOF 14
ENDMDL
MODEL 9
REMARK VINA RESULT:    -3.317      2.994      5.489
REMARK INTER + INTRA:          -8.656
REMARK INTER:                  -6.328
REMARK INTRA:                  -2.329
REMARK UNBOUND:                -2.625
REMARK SMILES CCCCCCCCCCCCCCCC(=O)[O-]
REMARK SMILES IDX 9 1 10 2 11 3 12 4 13 5 14 6 15 7 16 8 17 9 18 10 8 11 7 12
REMARK SMILES IDX 6 13 5 14 4 15 3 16 2 17 1 18
REMARK H PARENT
REMARK Flexibility Score: inf
ROOT
ATOM      1  C   UNL     1      10.490  -8.129  35.402  1.00  0.00     0.000 C 
ENDROOT
BRANCH   1   2
ATOM      2  C   UNL     1       9.723  -9.282  36.069  1.00  0.00     0.000 C 
BRANCH   2   3
ATOM      3  C   UNL     1       8.499  -8.799  36.868  1.00  0.00     0.000 C 
BRANCH   3   4
ATOM      4  C   UNL     1       8.695  -7.387  37.444  1.00  0.00     0.000 C 
BRANCH   4   5
ATOM      5  C   UNL     1       7.529  -6.445  37.098  1.00  0.00     0.000 C 
BRANCH   5   6
ATOM      6  C   UNL     1       6.219  -7.199  36.822  1.00  0.00     0.006 C 
BRANCH   6   7
ATOM      7  C   UNL     1       5.372  -6.536  35.727  1.00  0.00     0.053 C 
BRANCH   7   8
ATOM      8  C   UNL     1       4.354  -7.497  35.200  1.00  0.00     0.041 C 
ATOM      9  O   UNL     1       4.643  -8.265  34.245  1.00  0.00    -0.550 OA
ATOM     10  O   UNL     1       3.071  -7.513  35.732  1.00  0.00    -0.550 OA
ENDBRANCH   7   8
ENDBRANCH   6   7
ENDBRANCH   5   6
ENDBRANCH   4   5
ENDBRANCH   3   4
ENDBRANCH   2   3
ENDBRANCH   1   2
BRANCH   1  11
ATOM     11  C   UNL     1      10.619  -8.304  33.878  1.00  0.00     0.000 C 
BRANCH  11  12
ATOM     12  C   UNL     1       9.265  -8.231  33.149  1.00  0.00    -0.000 C 
BRANCH  12  13
ATOM     13  C   UNL     1       8.374  -7.034  33.530  1.00  0.00    -0.000 C 
BRANCH  13  14
ATOM     14  C   UNL     1       8.982  -5.680  33.129  1.00  0.00    -0.000 C 
BRANCH  14  15
ATOM     15  C   UNL     1       8.688  -4.572  34.153  1.00  0.00    -0.000 C 
BRANCH  15  16
ATOM     16  C   UNL     1       9.803  -4.419  35.202  1.00  0.00    -0.000 C 
BRANCH  16  17
ATOM     17  C   UNL     1      11.207  -4.540  34.590  1.00  0.00    -0.003 C 
ATOM     18  C   UNL     1      12.268  -3.787  35.395  1.00  0.00     0.004 C 
ENDBRANCH  16  17
ENDBRANCH  15  16
ENDBRANCH  14  15
ENDBRANCH  13  14
ENDBRANCH  12  13
ENDBRANCH  11  12
ENDBRANCH   1  11
TORSDOF 14
ENDMDL
