MODEL 1
REMARK VINA RESULT:    -3.900      0.000      0.000
REMARK INTER + INTRA:         -13.544
REMARK INTER:                  -9.829
REMARK INTRA:                  -3.715
REMARK UNBOUND:                -3.715
REMARK SMILES CCCCCCCCCCCCCCCCCCCCCCCCCCCC(=O)[O-]
REMARK SMILES IDX 15 1 16 2 17 3 18 4 19 5 20 6 21 7 22 8 23 9 24 10 25 11
REMARK SMILES IDX 26 12 27 13 28 14 29 15 30 16 14 17 13 18 12 19 11 20 10 21
REMARK SMILES IDX 9 22 8 23 7 24 6 25 5 26 4 27 3 28 2 29 1 30
REMARK H PARENT
REMARK Flexibility Score: inf
ROOT
ATOM      1  C   UNL     1     -12.876 -24.453 -35.338  1.00  0.00     0.000 C 
ENDROOT
BRANCH   1   2
ATOM      2  C   UNL     1     -12.938 -22.955 -34.991  1.00  0.00     0.000 C 
BRANCH   2   3
ATOM      3  C   UNL     1     -12.027 -22.104 -35.892  1.00  0.00     0.000 C 
BRANCH   3   4
ATOM      4  C   UNL     1     -12.126 -20.602 -35.588  1.00  0.00     0.000 C 
BRANCH   4   5
ATOM      5  C   UNL     1     -10.736 -19.954 -35.562  1.00  0.00     0.000 C 
BRANCH   5   6
ATOM      6  C   UNL     1     -10.451 -19.323 -34.191  1.00  0.00     0.000 C 
BRANCH   6   7
ATOM      7  C   UNL     1     -11.475 -19.738 -33.121  1.00  0.00     0.000 C 
BRANCH   7   8
ATOM      8  C   UNL     1     -11.025 -20.971 -32.323  1.00  0.00     0.000 C 
BRANCH   8   9
ATOM      9  C   UNL     1     -11.002 -20.679 -30.815  1.00  0.00     0.000 C 
BRANCH   9  10
ATOM     10  C   UNL     1      -9.996 -19.580 -30.437  1.00  0.00     0.000 C 
BRANCH  10  11
ATOM     11  C   UNL     1      -8.562 -20.074 -30.158  1.00  0.00     0.000 C 
BRANCH  11  12
ATOM     12  C   UNL     1      -7.552 -19.748 -31.282  1.00  0.00     0.006 C 
BRANCH  12  13
ATOM     13  C   UNL     1      -6.093 -20.089 -30.929  1.00  0.00     0.053 C 
BRANCH  13  14
ATOM     14  C   UNL     1      -5.712 -21.482 -31.337  1.00  0.00     0.041 C 
ATOM     15  O   UNL     1      -6.246 -22.479 -30.778  1.00  0.00    -0.550 OA
ATOM     16  O   UNL     1      -4.788 -21.678 -32.358  1.00  0.00    -0.550 OA
ENDBRANCH  13  14
ENDBRANCH  12  13
ENDBRANCH  11  12
ENDBRANCH  10  11
ENDBRANCH   9  10
ENDBRANCH   8   9
ENDBRANCH   7   8
ENDBRANCH   6   7
ENDBRANCH   5   6
ENDBRANCH   4   5
ENDBRANCH   3   4
ENDBRANCH   2   3
ENDBRANCH   1   2
BRANCH   1  17
ATOM     17  C   UNL     1     -11.683 -24.804 -36.242  1.00  0.00     0.000 C 
BRANCH  17  18
ATOM     18  C   UNL     1     -10.887 -26.016 -35.734  1.00  0.00     0.000 C 
BRANCH  18  19
ATOM     19  C   UNL     1     -11.546 -26.622 -34.486  1.00  0.00     0.000 C 
BRANCH  19  20
ATOM     20  C   UNL     1     -11.888 -28.110 -34.650  1.00  0.00     0.000 C 
BRANCH  20  21
ATOM     21  C   UNL     1     -12.469 -28.733 -33.369  1.00  0.00     0.000 C 
BRANCH  21  22
ATOM     22  C   UNL     1     -13.047 -27.685 -32.400  1.00  0.00    -0.000 C 
BRANCH  22  23
ATOM     23  C   UNL     1     -12.888 -28.022 -30.906  1.00  0.00    -0.000 C 
BRANCH  23  24
ATOM     24  C   UNL     1     -11.435 -28.339 -30.515  1.00  0.00    -0.000 C 
BRANCH  24  25
ATOM     25  C   UNL     1     -10.444 -27.242 -30.944  1.00  0.00    -0.000 C 
BRANCH  25  26
ATOM     26  C   UNL     1     -10.353 -26.035 -29.990  1.00  0.00    -0.000 C 
BRANCH  26  27
ATOM     27  C   UNL     1     -10.108 -24.706 -30.726  1.00  0.00    -0.000 C 
BRANCH  27  28
ATOM     28  C   UNL     1     -11.049 -24.511 -31.930  1.00  0.00    -0.000 C 
BRANCH  28  29
ATOM     29  C   UNL     1     -12.524 -24.268 -31.561  1.00  0.00    -0.003 C 
ATOM     30  C   UNL     1     -12.715 -23.870 -30.098  1.00  0.00     0.004 C 
ENDBRANCH  28  29
ENDBRANCH  27  28
ENDBRANCH  26  27
ENDBRANCH  25  26
ENDBRANCH  24  25
ENDBRANCH  23  24
ENDBRANCH  22  23
ENDBRANCH  21  22
ENDBRANCH  20  21
ENDBRANCH  19  20
ENDBRANCH  18  19
ENDBRANCH  17  18
ENDBRANCH   1  17
TORSDOF 26
ENDMDL
MODEL 2
REMARK VINA RESULT:    -3.848     17.102     20.224
REMARK INTER + INTRA:         -13.412
REMARK INTER:                  -9.434
REMARK INTRA:                  -3.978
REMARK UNBOUND:                -3.715
REMARK SMILES CCCCCCCCCCCCCCCCCCCCCCCCCCCC(=O)[O-]
REMARK SMILES IDX 15 1 16 2 17 3 18 4 19 5 20 6 21 7 22 8 23 9 24 10 25 11
REMARK SMILES IDX 26 12 27 13 28 14 29 15 30 16 14 17 13 18 12 19 11 20 10 21
REMARK SMILES IDX 9 22 8 23 7 24 6 25 5 26 4 27 3 28 2 29 1 30
REMARK H PARENT
REMARK Flexibility Score: inf
ROOT
ATOM      1  C   UNL     1     -10.261 -35.736 -48.881  1.00  0.00     0.000 C 
ENDROOT
BRANCH   1   2
ATOM      2  C   UNL     1     -11.124 -37.007 -48.784  1.00  0.00     0.000 C 
BRANCH   2   3
ATOM      3  C   UNL     1     -12.494 -36.842 -49.465  1.00  0.00     0.000 C 
BRANCH   3   4
ATOM      4  C   UNL     1     -13.665 -36.930 -48.475  1.00  0.00     0.000 C 
BRANCH   4   5
ATOM      5  C   UNL     1     -13.615 -35.779 -47.462  1.00  0.00     0.000 C 
BRANCH   5   6
ATOM      6  C   UNL     1     -13.868 -36.292 -46.037  1.00  0.00     0.000 C 
BRANCH   6   7
ATOM      7  C   UNL     1     -14.071 -37.816 -45.980  1.00  0.00     0.000 C 
BRANCH   7   8
ATOM      8  C   UNL     1     -15.458 -38.204 -45.446  1.00  0.00     0.000 C 
BRANCH   8   9
ATOM      9  C   UNL     1     -16.292 -36.958 -45.109  1.00  0.00     0.000 C 
BRANCH   9  10
ATOM     10  C   UNL     1     -17.588 -36.870 -45.932  1.00  0.00     0.000 C 
BRANCH  10  11
ATOM     11  C   UNL     1     -17.434 -37.194 -47.431  1.00  0.00     0.000 C 
BRANCH  11  12
ATOM     12  C   UNL     1     -17.622 -35.974 -48.363  1.00  0.00     0.006 C 
BRANCH  12  13
ATOM     13  C   UNL     1     -17.026 -34.667 -47.811  1.00  0.00     0.053 C 
BRANCH  13  14
ATOM     14  C   UNL     1     -16.729 -33.668 -48.891  1.00  0.00     0.041 C 
ATOM     15  O   UNL     1     -15.841 -33.907 -49.754  1.00  0.00    -0.550 OA
ATOM     16  O   UNL     1     -17.456 -32.484 -48.960  1.00  0.00    -0.550 OA
ENDBRANCH  13  14
ENDBRANCH  12  13
ENDBRANCH  11  12
ENDBRANCH  10  11
ENDBRANCH   9  10
ENDBRANCH   8   9
ENDBRANCH   7   8
ENDBRANCH   6   7
ENDBRANCH   5   6
ENDBRANCH   4   5
ENDBRANCH   3   4
ENDBRANCH   2   3
ENDBRANCH   1   2
BRANCH   1  17
ATOM     17  C   UNL     1     -10.754 -34.767 -49.969  1.00  0.00     0.000 C 
BRANCH  17  18
ATOM     18  C   UNL     1     -11.206 -33.413 -49.400  1.00  0.00     0.000 C 
BRANCH  18  19
ATOM     19  C   UNL     1     -10.070 -32.740 -48.615  1.00  0.00     0.000 C 
BRANCH  19  20
ATOM     20  C   UNL     1      -9.802 -31.297 -49.068  1.00  0.00     0.000 C 
BRANCH  20  21
ATOM     21  C   UNL     1      -8.462 -31.145 -49.809  1.00  0.00     0.000 C 
BRANCH  21  22
ATOM     22  C   UNL     1      -7.521 -30.122 -49.144  1.00  0.00    -0.000 C 
BRANCH  22  23
ATOM     23  C   UNL     1      -6.296 -30.730 -48.435  1.00  0.00    -0.000 C 
BRANCH  23  24
ATOM     24  C   UNL     1      -6.353 -32.265 -48.351  1.00  0.00    -0.000 C 
BRANCH  24  25
ATOM     25  C   UNL     1      -6.208 -32.793 -46.912  1.00  0.00    -0.000 C 
BRANCH  25  26
ATOM     26  C   UNL     1      -7.385 -33.651 -46.411  1.00  0.00    -0.000 C 
BRANCH  26  27
ATOM     27  C   UNL     1      -7.323 -33.927 -44.898  1.00  0.00    -0.000 C 
BRANCH  27  28
ATOM     28  C   UNL     1      -8.569 -34.669 -44.378  1.00  0.00    -0.000 C 
BRANCH  28  29
ATOM     29  C   UNL     1      -9.770 -34.662 -45.340  1.00  0.00    -0.003 C 
ATOM     30  C   UNL     1     -11.099 -34.391 -44.635  1.00  0.00     0.004 C 
ENDBRANCH  28  29
ENDBRANCH  27  28
ENDBRANCH  26  27
ENDBRANCH  25  26
ENDBRANCH  24  25
ENDBRANCH  23  24
ENDBRANCH  22  23
ENDBRANCH  21  22
ENDBRANCH  20  21
ENDBRANCH  19  20
ENDBRANCH  18  19
ENDBRANCH  17  18
ENDBRANCH   1  17
TORSDOF 26
ENDMDL
MODEL 3
REMARK VINA RESULT:    -3.798     17.103     20.265
REMARK INTER + INTRA:         -13.285
REMARK INTER:                 -10.099
REMARK INTRA:                  -3.186
REMARK UNBOUND:                -3.715
REMARK SMILES CCCCCCCCCCCCCCCCCCCCCCCCCCCC(=O)[O-]
REMARK SMILES IDX 15 1 16 2 17 3 18 4 19 5 20 6 21 7 22 8 23 9 24 10 25 11
REMARK SMILES IDX 26 12 27 13 28 14 29 15 30 16 14 17 13 18 12 19 11 20 10 21
REMARK SMILES IDX 9 22 8 23 7 24 6 25 5 26 4 27 3 28 2 29 1 30
REMARK H PARENT
REMARK Flexibility Score: inf
ROOT
ATOM      1  C   UNL     1     -12.005 -35.389 -46.985  1.00  0.00     0.000 C 
ENDROOT
BRANCH   1   2
ATOM      2  C   UNL     1     -13.315 -35.843 -46.318  1.00  0.00     0.000 C 
BRANCH   2   3
ATOM      3  C   UNL     1     -13.522 -37.365 -46.404  1.00  0.00     0.000 C 
BRANCH   3   4
ATOM      4  C   UNL     1     -15.003 -37.760 -46.499  1.00  0.00     0.000 C 
BRANCH   4   5
ATOM      5  C   UNL     1     -15.711 -37.563 -45.153  1.00  0.00     0.000 C 
BRANCH   5   6
ATOM      6  C   UNL     1     -17.233 -37.701 -45.309  1.00  0.00     0.000 C 
BRANCH   6   7
ATOM      7  C   UNL     1     -17.880 -36.465 -45.956  1.00  0.00     0.000 C 
BRANCH   7   8
ATOM      8  C   UNL     1     -18.536 -36.783 -47.308  1.00  0.00     0.000 C 
BRANCH   8   9
ATOM      9  C   UNL     1     -17.823 -36.053 -48.456  1.00  0.00     0.000 C 
BRANCH   9  10
ATOM     10  C   UNL     1     -16.894 -34.932 -47.962  1.00  0.00     0.000 C 
BRANCH  10  11
ATOM     11  C   UNL     1     -15.784 -34.520 -48.950  1.00  0.00     0.000 C 
BRANCH  11  12
ATOM     12  C   UNL     1     -16.171 -33.349 -49.882  1.00  0.00     0.006 C 
BRANCH  12  13
ATOM     13  C   UNL     1     -17.279 -32.441 -49.318  1.00  0.00     0.053 C 
BRANCH  13  14
ATOM     14  C   UNL     1     -16.977 -30.982 -49.500  1.00  0.00     0.041 C 
ATOM     15  O   UNL     1     -17.881 -30.118 -49.339  1.00  0.00    -0.550 OA
ATOM     16  O   UNL     1     -15.686 -30.576 -49.821  1.00  0.00    -0.550 OA
ENDBRANCH  13  14
ENDBRANCH  12  13
ENDBRANCH  11  12
ENDBRANCH  10  11
ENDBRANCH   9  10
ENDBRANCH   8   9
ENDBRANCH   7   8
ENDBRANCH   6   7
ENDBRANCH   5   6
ENDBRANCH   4   5
ENDBRANCH   3   4
ENDBRANCH   2   3
ENDBRANCH   1   2
BRANCH   1  17
ATOM     17  C   UNL     1     -11.168 -36.566 -47.513  1.00  0.00     0.000 C 
BRANCH  17  18
ATOM     18  C   UNL     1     -10.486 -36.258 -48.854  1.00  0.00     0.000 C 
BRANCH  18  19
ATOM     19  C   UNL     1     -11.288 -35.219 -49.652  1.00  0.00     0.000 C 
BRANCH  19  20
ATOM     20  C   UNL     1     -10.472 -33.963 -49.992  1.00  0.00     0.000 C 
BRANCH  20  21
ATOM     21  C   UNL     1     -11.172 -32.663 -49.559  1.00  0.00     0.000 C 
BRANCH  21  22
ATOM     22  C   UNL     1     -10.205 -31.638 -48.935  1.00  0.00    -0.000 C 
BRANCH  22  23
ATOM     23  C   UNL     1      -8.850 -31.500 -49.654  1.00  0.00    -0.000 C 
BRANCH  23  24
ATOM     24  C   UNL     1      -7.825 -30.684 -48.849  1.00  0.00    -0.000 C 
BRANCH  24  25
ATOM     25  C   UNL     1      -6.461 -31.388 -48.725  1.00  0.00    -0.000 C 
BRANCH  25  26
ATOM     26  C   UNL     1      -6.251 -32.176 -47.418  1.00  0.00    -0.000 C 
BRANCH  26  27
ATOM     27  C   UNL     1      -7.188 -33.390 -47.292  1.00  0.00    -0.000 C 
BRANCH  27  28
ATOM     28  C   UNL     1      -7.381 -33.844 -45.833  1.00  0.00    -0.000 C 
BRANCH  28  29
ATOM     29  C   UNL     1      -8.527 -34.849 -45.618  1.00  0.00    -0.003 C 
ATOM     30  C   UNL     1      -9.280 -34.623 -44.307  1.00  0.00     0.004 C 
ENDBRANCH  28  29
ENDBRANCH  27  28
ENDBRANCH  26  27
ENDBRANCH  25  26
ENDBRANCH  24  25
ENDBRANCH  23  24
ENDBRANCH  22  23
ENDBRANCH  21  22
ENDBRANCH  20  21
ENDBRANCH  19  20
ENDBRANCH  18  19
ENDBRANCH  17  18
ENDBRANCH   1  17
TORSDOF 26
ENDMDL
MODEL 4
REMARK VINA RESULT:    -3.728      1.579      5.721
REMARK INTER + INTRA:         -13.109
REMARK INTER:                 -10.639
REMARK INTRA:                  -2.470
REMARK UNBOUND:                -3.715
REMARK SMILES CCCCCCCCCCCCCCCCCCCCCCCCCCCC(=O)[O-]
REMARK SMILES IDX 15 1 16 2 17 3 18 4 19 5 20 6 21 7 22 8 23 9 24 10 25 11
REMARK SMILES IDX 26 12 27 13 28 14 29 15 30 16 14 17 13 18 12 19 11 20 10 21
REMARK SMILES IDX 9 22 8 23 7 24 6 25 5 26 4 27 3 28 2 29 1 30
REMARK H PARENT
REMARK Flexibility Score: inf
ROOT
ATOM      1  C   UNL     1     -12.261 -28.073 -34.959  1.00  0.00     0.000 C 
ENDROOT
BRANCH   1   2
ATOM      2  C   UNL     1     -12.049 -28.255 -33.445  1.00  0.00     0.000 C 
BRANCH   2   3
ATOM      3  C   UNL     1     -11.970 -26.913 -32.697  1.00  0.00     0.000 C 
BRANCH   3   4
ATOM      4  C   UNL     1     -13.062 -26.763 -31.628  1.00  0.00     0.000 C 
BRANCH   4   5
ATOM      5  C   UNL     1     -12.627 -25.783 -30.531  1.00  0.00     0.000 C 
BRANCH   5   6
ATOM      6  C   UNL     1     -11.764 -24.655 -31.116  1.00  0.00     0.000 C 
BRANCH   6   7
ATOM      7  C   UNL     1     -12.192 -23.262 -30.624  1.00  0.00     0.000 C 
BRANCH   7   8
ATOM      8  C   UNL     1     -11.001 -22.412 -30.157  1.00  0.00     0.000 C 
BRANCH   8   9
ATOM      9  C   UNL     1     -10.241 -21.817 -31.352  1.00  0.00     0.000 C 
BRANCH   9  10
ATOM     10  C   UNL     1     -10.303 -20.281 -31.391  1.00  0.00     0.000 C 
BRANCH  10  11
ATOM     11  C   UNL     1      -9.080 -19.562 -30.788  1.00  0.00     0.000 C 
BRANCH  11  12
ATOM     12  C   UNL     1      -7.853 -20.477 -30.572  1.00  0.00     0.006 C 
BRANCH  12  13
ATOM     13  C   UNL     1      -6.603 -20.043 -31.359  1.00  0.00     0.053 C 
BRANCH  13  14
ATOM     14  C   UNL     1      -5.452 -20.989 -31.179  1.00  0.00     0.041 C 
ATOM     15  O   UNL     1      -4.841 -21.048 -30.077  1.00  0.00    -0.550 OA
ATOM     16  O   UNL     1      -5.073 -21.827 -32.223  1.00  0.00    -0.550 OA
ENDBRANCH  13  14
ENDBRANCH  12  13
ENDBRANCH  11  12
ENDBRANCH  10  11
ENDBRANCH   9  10
ENDBRANCH   8   9
ENDBRANCH   7   8
ENDBRANCH   6   7
ENDBRANCH   5   6
ENDBRANCH   4   5
ENDBRANCH   3   4
ENDBRANCH   2   3
ENDBRANCH   1   2
BRANCH   1  17
ATOM     17  C   UNL     1     -13.731 -27.807 -35.324  1.00  0.00     0.000 C 
BRANCH  17  18
ATOM     18  C   UNL     1     -13.957 -26.397 -35.891  1.00  0.00     0.000 C 
BRANCH  18  19
ATOM     19  C   UNL     1     -12.620 -25.717 -36.223  1.00  0.00     0.000 C 
BRANCH  19  20
ATOM     20  C   UNL     1     -12.653 -24.196 -36.013  1.00  0.00     0.000 C 
BRANCH  20  21
ATOM     21  C   UNL     1     -12.425 -23.792 -34.546  1.00  0.00     0.000 C 
BRANCH  21  22
ATOM     22  C   UNL     1     -12.860 -22.344 -34.247  1.00  0.00    -0.000 C 
BRANCH  22  23
ATOM     23  C   UNL     1     -12.692 -21.359 -35.419  1.00  0.00    -0.000 C 
BRANCH  23  24
ATOM     24  C   UNL     1     -13.622 -20.138 -35.313  1.00  0.00    -0.000 C 
BRANCH  24  25
ATOM     25  C   UNL     1     -12.898 -18.875 -34.811  1.00  0.00    -0.000 C 
BRANCH  25  26
ATOM     26  C   UNL     1     -11.361 -18.969 -34.787  1.00  0.00    -0.000 C 
BRANCH  26  27
ATOM     27  C   UNL     1     -10.753 -19.201 -36.182  1.00  0.00    -0.000 C 
BRANCH  27  28
ATOM     28  C   UNL     1      -9.249 -18.875 -36.236  1.00  0.00    -0.000 C 
BRANCH  28  29
ATOM     29  C   UNL     1      -8.411 -19.840 -37.095  1.00  0.00    -0.003 C 
ATOM     30  C   UNL     1      -6.908 -19.592 -36.976  1.00  0.00     0.004 C 
ENDBRANCH  28  29
ENDBRANCH  27  28
ENDBRANCH  26  27
ENDBRANCH  25  26
ENDBRANCH  24  25
ENDBRANCH  23  24
ENDBRANCH  22  23
ENDBRANCH  21  22
ENDBRANCH  20  21
ENDBRANCH  19  20
ENDBRANCH  18  19
ENDBRANCH  17  18
ENDBRANCH   1  17
TORSDOF 26
ENDMDL
MODEL 5
REMARK VINA RESULT:    -3.724      1.245      4.501
REMARK INTER + INTRA:         -13.100
REMARK INTER:                  -9.502
REMARK INTRA:                  -3.598
REMARK UNBOUND:                -3.715
REMARK SMILES CCCCCCCCCCCCCCCCCCCCCCCCCCCC(=O)[O-]
REMARK SMILES IDX 15 1 16 2 17 3 18 4 19 5 20 6 21 7 22 8 23 9 24 10 25 11
REMARK SMILES IDX 26 12 27 13 28 14 29 15 30 16 14 17 13 18 12 19 11 20 10 21
REMARK SMILES IDX 9 22 8 23 7 24 6 25 5 26 4 27 3 28 2 29 1 30
REMARK H PARENT
REMARK Flexibility Score: inf
ROOT
ATOM      1  C   UNL     1     -10.903 -27.472 -31.517  1.00  0.00     0.000 C 
ENDROOT
BRANCH   1   2
ATOM      2  C   UNL     1     -10.701 -25.959 -31.714  1.00  0.00     0.000 C 
BRANCH   2   3
ATOM      3  C   UNL     1     -11.995 -25.158 -31.488  1.00  0.00     0.000 C 
BRANCH   3   4
ATOM      4  C   UNL     1     -11.733 -23.675 -31.188  1.00  0.00     0.000 C 
BRANCH   4   5
ATOM      5  C   UNL     1     -10.511 -23.507 -30.276  1.00  0.00     0.000 C 
BRANCH   5   6
ATOM      6  C   UNL     1      -9.752 -22.214 -30.610  1.00  0.00     0.000 C 
BRANCH   6   7
ATOM      7  C   UNL     1     -10.409 -21.415 -31.748  1.00  0.00     0.000 C 
BRANCH   7   8
ATOM      8  C   UNL     1     -11.305 -20.280 -31.229  1.00  0.00     0.000 C 
BRANCH   8   9
ATOM      9  C   UNL     1     -10.488 -19.007 -30.959  1.00  0.00     0.000 C 
BRANCH   9  10
ATOM     10  C   UNL     1      -9.269 -18.875 -31.886  1.00  0.00     0.000 C 
BRANCH  10  11
ATOM     11  C   UNL     1      -7.900 -18.992 -31.186  1.00  0.00     0.000 C 
BRANCH  11  12
ATOM     12  C   UNL     1      -6.784 -19.583 -32.078  1.00  0.00     0.006 C 
BRANCH  12  13
ATOM     13  C   UNL     1      -5.367 -19.113 -31.702  1.00  0.00     0.053 C 
BRANCH  13  14
ATOM     14  C   UNL     1      -4.379 -20.241 -31.654  1.00  0.00     0.041 C 
ATOM     15  O   UNL     1      -3.236 -20.068 -31.151  1.00  0.00    -0.550 OA
ATOM     16  O   UNL     1      -4.734 -21.495 -32.141  1.00  0.00    -0.550 OA
ENDBRANCH  13  14
ENDBRANCH  12  13
ENDBRANCH  11  12
ENDBRANCH  10  11
ENDBRANCH   9  10
ENDBRANCH   8   9
ENDBRANCH   7   8
ENDBRANCH   6   7
ENDBRANCH   5   6
ENDBRANCH   4   5
ENDBRANCH   3   4
ENDBRANCH   2   3
ENDBRANCH   1   2
BRANCH   1  17
ATOM     17  C   UNL     1     -12.330 -27.826 -31.066  1.00  0.00     0.000 C 
BRANCH  17  18
ATOM     18  C   UNL     1     -13.129 -28.571 -32.147  1.00  0.00     0.000 C 
BRANCH  18  19
ATOM     19  C   UNL     1     -13.752 -27.585 -33.146  1.00  0.00     0.000 C 
BRANCH  19  20
ATOM     20  C   UNL     1     -13.919 -28.181 -34.552  1.00  0.00     0.000 C 
BRANCH  20  21
ATOM     21  C   UNL     1     -13.001 -27.518 -35.593  1.00  0.00     0.000 C 
BRANCH  21  22
ATOM     22  C   UNL     1     -11.723 -26.921 -34.975  1.00  0.00    -0.000 C 
BRANCH  22  23
ATOM     23  C   UNL     1     -11.477 -25.436 -35.297  1.00  0.00    -0.000 C 
BRANCH  23  24
ATOM     24  C   UNL     1     -12.548 -24.838 -36.225  1.00  0.00    -0.000 C 
BRANCH  24  25
ATOM     25  C   UNL     1     -12.765 -23.331 -36.000  1.00  0.00    -0.000 C 
BRANCH  25  26
ATOM     26  C   UNL     1     -12.594 -22.857 -34.544  1.00  0.00    -0.000 C 
BRANCH  26  27
ATOM     27  C   UNL     1     -13.156 -21.446 -34.302  1.00  0.00    -0.000 C 
BRANCH  27  28
ATOM     28  C   UNL     1     -12.625 -20.413 -35.314  1.00  0.00    -0.000 C 
BRANCH  28  29
ATOM     29  C   UNL     1     -11.262 -19.797 -34.949  1.00  0.00    -0.003 C 
ATOM     30  C   UNL     1     -10.201 -20.013 -36.028  1.00  0.00     0.004 C 
ENDBRANCH  28  29
ENDBRANCH  27  28
ENDBRANCH  26  27
ENDBRANCH  25  26
ENDBRANCH  24  25
ENDBRANCH  23  24
ENDBRANCH  22  23
ENDBRANCH  21  22
ENDBRANCH  20  21
ENDBRANCH  19  20
ENDBRANCH  18  19
ENDBRANCH  17  18
ENDBRANCH   1  17
TORSDOF 26
ENDMDL
MODEL 6
REMARK VINA RESULT:    -3.619     16.289     19.104
REMARK INTER + INTRA:         -12.835
REMARK INTER:                  -8.510
REMARK INTRA:                  -4.325
REMARK UNBOUND:                -3.715
REMARK SMILES CCCCCCCCCCCCCCCCCCCCCCCCCCCC(=O)[O-]
REMARK SMILES IDX 15 1 16 2 17 3 18 4 19 5 20 6 21 7 22 8 23 9 24 10 25 11
REMARK SMILES IDX 26 12 27 13 28 14 29 15 30 16 14 17 13 18 12 19 11 20 10 21
REMARK SMILES IDX 9 22 8 23 7 24 6 25 5 26 4 27 3 28 2 29 1 30
REMARK H PARENT
REMARK Flexibility Score: inf
ROOT
ATOM      1  C   UNL     1     -11.077 -34.943 -45.864  1.00  0.00     0.000 C 
ENDROOT
BRANCH   1   2
ATOM      2  C   UNL     1     -10.659 -34.982 -44.383  1.00  0.00     0.000 C 
BRANCH   2   3
ATOM      3  C   UNL     1      -9.362 -34.199 -44.117  1.00  0.00     0.000 C 
BRANCH   3   4
ATOM      4  C   UNL     1      -8.155 -34.772 -44.875  1.00  0.00     0.000 C 
BRANCH   4   5
ATOM      5  C   UNL     1      -7.198 -33.655 -45.309  1.00  0.00     0.000 C 
BRANCH   5   6
ATOM      6  C   UNL     1      -7.123 -33.563 -46.840  1.00  0.00     0.000 C 
BRANCH   6   7
ATOM      7  C   UNL     1      -8.510 -33.568 -47.506  1.00  0.00     0.000 C 
BRANCH   7   8
ATOM      8  C   UNL     1      -8.449 -33.970 -48.987  1.00  0.00     0.000 C 
BRANCH   8   9
ATOM      9  C   UNL     1      -9.311 -33.037 -49.852  1.00  0.00     0.000 C 
BRANCH   9  10
ATOM     10  C   UNL     1      -9.666 -31.723 -49.137  1.00  0.00     0.000 C 
BRANCH  10  11
ATOM     11  C   UNL     1      -8.751 -30.529 -49.473  1.00  0.00     0.000 C 
BRANCH  11  12
ATOM     12  C   UNL     1      -7.244 -30.872 -49.484  1.00  0.00     0.006 C 
BRANCH  12  13
ATOM     13  C   UNL     1      -6.456 -30.272 -48.305  1.00  0.00     0.053 C 
BRANCH  13  14
ATOM     14  C   UNL     1      -5.881 -28.923 -48.624  1.00  0.00     0.041 C 
ATOM     15  O   UNL     1      -5.712 -28.071 -47.710  1.00  0.00    -0.550 OA
ATOM     16  O   UNL     1      -5.504 -28.620 -49.928  1.00  0.00    -0.550 OA
ENDBRANCH  13  14
ENDBRANCH  12  13
ENDBRANCH  11  12
ENDBRANCH  10  11
ENDBRANCH   9  10
ENDBRANCH   8   9
ENDBRANCH   7   8
ENDBRANCH   6   7
ENDBRANCH   5   6
ENDBRANCH   4   5
ENDBRANCH   3   4
ENDBRANCH   2   3
ENDBRANCH   1   2
BRANCH   1  17
ATOM     17  C   UNL     1     -10.783 -36.262 -46.598  1.00  0.00     0.000 C 
BRANCH  17  18
ATOM     18  C   UNL     1     -11.258 -36.249 -48.059  1.00  0.00     0.000 C 
BRANCH  18  19
ATOM     19  C   UNL     1     -12.082 -34.988 -48.357  1.00  0.00     0.000 C 
BRANCH  19  20
ATOM     20  C   UNL     1     -12.733 -35.012 -49.748  1.00  0.00     0.000 C 
BRANCH  20  21
ATOM     21  C   UNL     1     -14.222 -35.396 -49.702  1.00  0.00     0.000 C 
BRANCH  21  22
ATOM     22  C   UNL     1     -14.447 -36.908 -49.506  1.00  0.00    -0.000 C 
BRANCH  22  23
ATOM     23  C   UNL     1     -15.923 -37.341 -49.432  1.00  0.00    -0.000 C 
BRANCH  23  24
ATOM     24  C   UNL     1     -16.806 -36.336 -48.673  1.00  0.00    -0.000 C 
BRANCH  24  25
ATOM     25  C   UNL     1     -17.541 -36.966 -47.476  1.00  0.00    -0.000 C 
BRANCH  25  26
ATOM     26  C   UNL     1     -16.950 -36.626 -46.094  1.00  0.00    -0.000 C 
BRANCH  26  27
ATOM     27  C   UNL     1     -15.687 -35.752 -46.182  1.00  0.00    -0.000 C 
BRANCH  27  28
ATOM     28  C   UNL     1     -14.414 -36.500 -45.741  1.00  0.00    -0.000 C 
BRANCH  28  29
ATOM     29  C   UNL     1     -14.570 -38.028 -45.634  1.00  0.00    -0.003 C 
ATOM     30  C   UNL     1     -13.564 -38.792 -46.494  1.00  0.00     0.004 C 
ENDBRANCH  28  29
ENDBRANCH  27  28
ENDBRANCH  26  27
ENDBRANCH  25  26
ENDBRANCH  24  25
ENDBRANCH  23  24
ENDBRANCH  22  23
ENDBRANCH  21  22
ENDBRANCH  20  21
ENDBRANCH  19  20
ENDBRANCH  18  19
ENDBRANCH  17  18
ENDBRANCH   1  17
TORSDOF 26
ENDMDL
MODEL 7
REMARK VINA RESULT:    -3.526     17.097     20.403
REMARK INTER + INTRA:         -12.601
REMARK INTER:                  -9.344
REMARK INTRA:                  -3.257
REMARK UNBOUND:                -3.715
REMARK SMILES CCCCCCCCCCCCCCCCCCCCCCCCCCCC(=O)[O-]
REMARK SMILES IDX 15 1 16 2 17 3 18 4 19 5 20 6 21 7 22 8 23 9 24 10 25 11
REMARK SMILES IDX 26 12 27 13 28 14 29 15 30 16 14 17 13 18 12 19 11 20 10 21
REMARK SMILES IDX 9 22 8 23 7 24 6 25 5 26 4 27 3 28 2 29 1 30
REMARK H PARENT
REMARK Flexibility Score: inf
ROOT
ATOM      1  C   UNL     1      -8.527 -36.247 -45.306  1.00  0.00     0.000 C 
ENDROOT
BRANCH   1   2
ATOM      2  C   UNL     1      -8.690 -37.733 -44.937  1.00  0.00     0.000 C 
BRANCH   2   3
ATOM      3  C   UNL     1      -8.979 -38.616 -46.163  1.00  0.00     0.000 C 
BRANCH   3   4
ATOM      4  C   UNL     1      -9.949 -37.956 -47.155  1.00  0.00     0.000 C 
BRANCH   4   5
ATOM      5  C   UNL     1     -11.265 -38.739 -47.241  1.00  0.00     0.000 C 
BRANCH   5   6
ATOM      6  C   UNL     1     -12.452 -37.792 -47.468  1.00  0.00     0.000 C 
BRANCH   6   7
ATOM      7  C   UNL     1     -12.827 -36.995 -46.207  1.00  0.00     0.000 C 
BRANCH   7   8
ATOM      8  C   UNL     1     -14.102 -36.160 -46.397  1.00  0.00     0.000 C 
BRANCH   8   9
ATOM      9  C   UNL     1     -14.731 -36.412 -47.777  1.00  0.00     0.000 C 
BRANCH   9  10
ATOM     10  C   UNL     1     -16.169 -35.879 -47.881  1.00  0.00     0.000 C 
BRANCH  10  11
ATOM     11  C   UNL     1     -16.827 -35.505 -46.538  1.00  0.00     0.000 C 
BRANCH  11  12
ATOM     12  C   UNL     1     -18.015 -36.412 -46.143  1.00  0.00     0.006 C 
BRANCH  12  13
ATOM     13  C   UNL     1     -17.679 -37.914 -46.131  1.00  0.00     0.053 C 
BRANCH  13  14
ATOM     14  C   UNL     1     -17.288 -38.406 -44.768  1.00  0.00     0.041 C 
ATOM     15  O   UNL     1     -18.141 -38.459 -43.841  1.00  0.00    -0.550 OA
ATOM     16  O   UNL     1     -15.986 -38.834 -44.532  1.00  0.00    -0.550 OA
ENDBRANCH  13  14
ENDBRANCH  12  13
ENDBRANCH  11  12
ENDBRANCH  10  11
ENDBRANCH   9  10
ENDBRANCH   8   9
ENDBRANCH   7   8
ENDBRANCH   6   7
ENDBRANCH   5   6
ENDBRANCH   4   5
ENDBRANCH   3   4
ENDBRANCH   2   3
ENDBRANCH   1   2
BRANCH   1  17
ATOM     17  C   UNL     1      -8.892 -35.305 -44.148  1.00  0.00     0.000 C 
BRANCH  17  18
ATOM     18  C   UNL     1     -10.004 -34.310 -44.517  1.00  0.00     0.000 C 
BRANCH  18  19
ATOM     19  C   UNL     1     -10.526 -34.573 -45.937  1.00  0.00     0.000 C 
BRANCH  19  20
ATOM     20  C   UNL     1      -9.883 -33.657 -46.991  1.00  0.00     0.000 C 
BRANCH  20  21
ATOM     21  C   UNL     1     -10.098 -34.162 -48.428  1.00  0.00     0.000 C 
BRANCH  21  22
ATOM     22  C   UNL     1     -10.706 -33.092 -49.356  1.00  0.00    -0.000 C 
BRANCH  22  23
ATOM     23  C   UNL     1     -10.234 -31.652 -49.085  1.00  0.00    -0.000 C 
BRANCH  23  24
ATOM     24  C   UNL     1      -9.093 -31.209 -50.017  1.00  0.00    -0.000 C 
BRANCH  24  25
ATOM     25  C   UNL     1      -8.252 -30.059 -49.433  1.00  0.00    -0.000 C 
BRANCH  25  26
ATOM     26  C   UNL     1      -6.757 -30.092 -49.803  1.00  0.00    -0.000 C 
BRANCH  26  27
ATOM     27  C   UNL     1      -5.864 -30.581 -48.648  1.00  0.00    -0.000 C 
BRANCH  27  28
ATOM     28  C   UNL     1      -6.589 -31.570 -47.716  1.00  0.00    -0.000 C 
BRANCH  28  29
ATOM     29  C   UNL     1      -6.133 -33.034 -47.851  1.00  0.00    -0.003 C 
ATOM     30  C   UNL     1      -6.517 -33.658 -49.192  1.00  0.00     0.004 C 
ENDBRANCH  28  29
ENDBRANCH  27  28
ENDBRANCH  26  27
ENDBRANCH  25  26
ENDBRANCH  24  25
ENDBRANCH  23  24
ENDBRANCH  22  23
ENDBRANCH  21  22
ENDBRANCH  20  21
ENDBRANCH  19  20
ENDBRANCH  18  19
ENDBRANCH  17  18
ENDBRANCH   1  17
TORSDOF 26
ENDMDL
MODEL 8
REMARK VINA RESULT:    -3.497      2.826      8.014
REMARK INTER + INTRA:         -12.527
REMARK INTER:                  -9.249
REMARK INTRA:                  -3.279
REMARK UNBOUND:                -3.715
REMARK SMILES CCCCCCCCCCCCCCCCCCCCCCCCCCCC(=O)[O-]
REMARK SMILES IDX 15 1 16 2 17 3 18 4 19 5 20 6 21 7 22 8 23 9 24 10 25 11
REMARK SMILES IDX 26 12 27 13 28 14 29 15 30 16 14 17 13 18 12 19 11 20 10 21
REMARK SMILES IDX 9 22 8 23 7 24 6 25 5 26 4 27 3 28 2 29 1 30
REMARK H PARENT
REMARK Flexibility Score: inf
ROOT
ATOM      1  C   UNL     1     -10.533 -25.550 -32.113  1.00  0.00     0.000 C 
ENDROOT
BRANCH   1   2
ATOM      2  C   UNL     1     -10.286 -26.234 -30.757  1.00  0.00     0.000 C 
BRANCH   2   3
ATOM      3  C   UNL     1     -11.187 -27.462 -30.544  1.00  0.00     0.000 C 
BRANCH   3   4
ATOM      4  C   UNL     1     -11.588 -28.140 -31.863  1.00  0.00     0.000 C 
BRANCH   4   5
ATOM      5  C   UNL     1     -13.107 -28.342 -31.937  1.00  0.00     0.000 C 
BRANCH   5   6
ATOM      6  C   UNL     1     -13.688 -27.668 -33.188  1.00  0.00     0.000 C 
BRANCH   6   7
ATOM      7  C   UNL     1     -12.646 -27.484 -34.305  1.00  0.00     0.000 C 
BRANCH   7   8
ATOM      8  C   UNL     1     -13.028 -26.368 -35.288  1.00  0.00     0.000 C 
BRANCH   8   9
ATOM      9  C   UNL     1     -11.792 -25.568 -35.728  1.00  0.00     0.000 C 
BRANCH   9  10
ATOM     10  C   UNL     1     -12.099 -24.079 -35.959  1.00  0.00     0.000 C 
BRANCH  10  11
ATOM     11  C   UNL     1     -13.006 -23.425 -34.898  1.00  0.00     0.000 C 
BRANCH  11  12
ATOM     12  C   UNL     1     -12.527 -22.031 -34.432  1.00  0.00     0.006 C 
BRANCH  12  13
ATOM     13  C   UNL     1     -11.934 -21.165 -35.558  1.00  0.00     0.053 C 
BRANCH  13  14
ATOM     14  C   UNL     1     -12.845 -20.043 -35.963  1.00  0.00     0.041 C 
ATOM     15  O   UNL     1     -14.048 -20.032 -35.586  1.00  0.00    -0.550 OA
ATOM     16  O   UNL     1     -12.354 -18.994 -36.733  1.00  0.00    -0.550 OA
ENDBRANCH  13  14
ENDBRANCH  12  13
ENDBRANCH  11  12
ENDBRANCH  10  11
ENDBRANCH   9  10
ENDBRANCH   8   9
ENDBRANCH   7   8
ENDBRANCH   6   7
ENDBRANCH   5   6
ENDBRANCH   4   5
ENDBRANCH   3   4
ENDBRANCH   2   3
ENDBRANCH   1   2
BRANCH   1  17
ATOM     17  C   UNL     1     -10.812 -24.044 -31.976  1.00  0.00     0.000 C 
BRANCH  17  18
ATOM     18  C   UNL     1     -10.136 -23.423 -30.745  1.00  0.00     0.000 C 
BRANCH  18  19
ATOM     19  C   UNL     1     -11.159 -22.676 -29.875  1.00  0.00     0.000 C 
BRANCH  19  20
ATOM     20  C   UNL     1     -11.908 -21.577 -30.643  1.00  0.00     0.000 C 
BRANCH  20  21
ATOM     21  C   UNL     1     -11.184 -20.220 -30.599  1.00  0.00     0.000 C 
BRANCH  21  22
ATOM     22  C   UNL     1     -10.263 -19.991 -31.814  1.00  0.00    -0.000 C 
BRANCH  22  23
ATOM     23  C   UNL     1      -8.956 -19.237 -31.506  1.00  0.00    -0.000 C 
BRANCH  23  24
ATOM     24  C   UNL     1      -8.478 -19.432 -30.057  1.00  0.00    -0.000 C 
BRANCH  24  25
ATOM     25  C   UNL     1      -7.068 -20.044 -29.966  1.00  0.00    -0.000 C 
BRANCH  25  26
ATOM     26  C   UNL     1      -6.486 -20.542 -31.303  1.00  0.00    -0.000 C 
BRANCH  26  27
ATOM     27  C   UNL     1      -5.281 -19.712 -31.778  1.00  0.00    -0.000 C 
BRANCH  27  28
ATOM     28  C   UNL     1      -3.939 -20.264 -31.261  1.00  0.00    -0.000 C 
BRANCH  28  29
ATOM     29  C   UNL     1      -3.086 -19.251 -30.475  1.00  0.00    -0.003 C 
ATOM     30  C   UNL     1      -1.728 -18.985 -31.122  1.00  0.00     0.004 C 
ENDBRANCH  28  29
ENDBRANCH  27  28
ENDBRANCH  26  27
ENDBRANCH  25  26
ENDBRANCH  24  25
ENDBRANCH  23  24
ENDBRANCH  22  23
ENDBRANCH  21  22
ENDBRANCH  20  21
ENDBRANCH  19  20
ENDBRANCH  18  19
ENDBRANCH  17  18
ENDBRANCH   1  17
TORSDOF 26
ENDMDL
MODEL 9
REMARK VINA RESULT:    -3.374      2.019      6.453
REMARK INTER + INTRA:         -12.216
REMARK INTER:                  -9.773
REMARK INTRA:                  -2.443
REMARK UNBOUND:                -3.715
REMARK SMILES CCCCCCCCCCCCCCCCCCCCCCCCCCCC(=O)[O-]
REMARK SMILES IDX 15 1 16 2 17 3 18 4 19 5 20 6 21 7 22 8 23 9 24 10 25 11
REMARK SMILES IDX 26 12 27 13 28 14 29 15 30 16 14 17 13 18 12 19 11 20 10 21
REMARK SMILES IDX 9 22 8 23 7 24 6 25 5 26 4 27 3 28 2 29 1 30
REMARK H PARENT
REMARK Flexibility Score: inf
ROOT
ATOM      1  C   UNL     1     -13.759 -27.833 -35.719  1.00  0.00     0.000 C 
ENDROOT
BRANCH   1   2
ATOM      2  C   UNL     1     -13.053 -28.333 -34.445  1.00  0.00     0.000 C 
BRANCH   2   3
ATOM      3  C   UNL     1     -13.244 -27.378 -33.254  1.00  0.00     0.000 C 
BRANCH   3   4
ATOM      4  C   UNL     1     -12.969 -28.053 -31.902  1.00  0.00     0.000 C 
BRANCH   4   5
ATOM      5  C   UNL     1     -11.633 -27.581 -31.314  1.00  0.00     0.000 C 
BRANCH   5   6
ATOM      6  C   UNL     1     -11.127 -26.328 -32.042  1.00  0.00     0.000 C 
BRANCH   6   7
ATOM      7  C   UNL     1      -9.962 -25.642 -31.309  1.00  0.00     0.000 C 
BRANCH   7   8
ATOM      8  C   UNL     1     -10.440 -24.717 -30.180  1.00  0.00     0.000 C 
BRANCH   8   9
ATOM      9  C   UNL     1     -11.868 -24.214 -30.443  1.00  0.00     0.000 C 
BRANCH   9  10
ATOM     10  C   UNL     1     -12.050 -22.729 -30.090  1.00  0.00     0.000 C 
BRANCH  10  11
ATOM     11  C   UNL     1     -11.422 -21.737 -31.089  1.00  0.00     0.000 C 
BRANCH  11  12
ATOM     12  C   UNL     1      -9.910 -21.954 -31.328  1.00  0.00     0.006 C 
BRANCH  12  13
ATOM     13  C   UNL     1      -9.009 -21.310 -30.258  1.00  0.00     0.053 C 
BRANCH  13  14
ATOM     14  C   UNL     1      -8.508 -19.956 -30.666  1.00  0.00     0.041 C 
ATOM     15  O   UNL     1      -7.597 -19.387 -30.005  1.00  0.00    -0.550 OA
ATOM     16  O   UNL     1      -9.029 -19.335 -31.797  1.00  0.00    -0.550 OA
ENDBRANCH  13  14
ENDBRANCH  12  13
ENDBRANCH  11  12
ENDBRANCH  10  11
ENDBRANCH   9  10
ENDBRANCH   8   9
ENDBRANCH   7   8
ENDBRANCH   6   7
ENDBRANCH   5   6
ENDBRANCH   4   5
ENDBRANCH   3   4
ENDBRANCH   2   3
ENDBRANCH   1   2
BRANCH   1  17
ATOM     17  C   UNL     1     -13.859 -26.300 -35.778  1.00  0.00     0.000 C 
BRANCH  17  18
ATOM     18  C   UNL     1     -12.496 -25.622 -35.986  1.00  0.00     0.000 C 
BRANCH  18  19
ATOM     19  C   UNL     1     -12.611 -24.098 -35.832  1.00  0.00     0.000 C 
BRANCH  19  20
ATOM     20  C   UNL     1     -12.553 -23.638 -34.367  1.00  0.00     0.000 C 
BRANCH  20  21
ATOM     21  C   UNL     1     -13.132 -22.227 -34.163  1.00  0.00     0.000 C 
BRANCH  21  22
ATOM     22  C   UNL     1     -13.336 -21.464 -35.485  1.00  0.00    -0.000 C 
BRANCH  22  23
ATOM     23  C   UNL     1     -13.718 -19.980 -35.328  1.00  0.00    -0.000 C 
BRANCH  23  24
ATOM     24  C   UNL     1     -12.552 -19.025 -35.634  1.00  0.00    -0.000 C 
BRANCH  24  25
ATOM     25  C   UNL     1     -11.428 -19.692 -36.449  1.00  0.00    -0.000 C 
BRANCH  25  26
ATOM     26  C   UNL     1     -10.080 -18.946 -36.434  1.00  0.00    -0.000 C 
BRANCH  26  27
ATOM     27  C   UNL     1      -9.098 -19.504 -35.389  1.00  0.00    -0.000 C 
BRANCH  27  28
ATOM     28  C   UNL     1      -7.696 -18.875 -35.495  1.00  0.00    -0.000 C 
BRANCH  28  29
ATOM     29  C   UNL     1      -6.667 -19.722 -36.265  1.00  0.00    -0.003 C 
ATOM     30  C   UNL     1      -6.856 -19.659 -37.780  1.00  0.00     0.004 C 
ENDBRANCH  28  29
ENDBRANCH  27  28
ENDBRANCH  26  27
ENDBRANCH  25  26
ENDBRANCH  24  25
ENDBRANCH  23  24
ENDBRANCH  22  23
ENDBRANCH  21  22
ENDBRANCH  20  21
ENDBRANCH  19  20
ENDBRANCH  18  19
ENDBRANCH  17  18
ENDBRANCH   1  17
TORSDOF 26
ENDMDL
