MODEL 1
REMARK VINA RESULT:    -4.184      0.000      0.000
REMARK INTER + INTRA:          -6.598
REMARK INTER:                  -6.386
REMARK INTRA:                  -0.213
REMARK UNBOUND:                -0.213
REMARK SMILES CC1=CCC[C@@H](C)C(=O)C[C@@H](C(C)C)C(=O)C1
REMARK SMILES IDX 8 1 9 2 6 3 7 4 5 5 4 6 3 7 2 8 1 9 10 11 11 12 15 13 16 14
REMARK SMILES IDX 17 15 12 17 13 18 14 19
REMARK H PARENT
REMARK Flexibility Score: 70.00
ROOT
ATOM      1  C   UNL     1      16.470 -30.130  21.875  1.00  0.00     0.136 C 
ATOM      2  O   UNL     1      16.188 -29.083  22.439  1.00  0.00    -0.299 OA
ENDROOT
BRANCH   1   3
ATOM      3  C   UNL     1      17.945 -30.467  21.714  1.00  0.00     0.053 C 
ATOM      4  C   UNL     1      18.709 -29.198  21.319  1.00  0.00     0.016 C 
BRANCH   3   5
ATOM      5  C   UNL     1      18.267 -31.609  20.724  1.00  0.00     0.015 C 
BRANCH   5   6
ATOM      6  C   UNL     1      18.606 -32.950  21.414  1.00  0.00     0.028 C 
BRANCH   6   7
ATOM      7  C   UNL     1      18.210 -34.110  20.534  1.00  0.00    -0.028 C 
ATOM      8  C   UNL     1      17.047 -34.795  20.604  1.00  0.00    -0.070 CG0
ATOM      9  C   UNL     1      16.855 -35.936  19.634  1.00  0.00     0.039 C 
ATOM     10  G   UNL     1      16.007 -34.568  21.687  1.00  0.00     0.000 G0
ENDBRANCH   6   7
ENDBRANCH   5   6
ENDBRANCH   3   5
ENDBRANCH   1   3
BRANCH   1  11
ATOM     11  C   UNL     1      15.336 -30.960  21.301  1.00  0.00     0.087 C 
BRANCH  11  12
ATOM     12  C   UNL     1      14.952 -32.150  22.222  1.00  0.00     0.066 C 
BRANCH  12  13
ATOM     13  C   UNL     1      15.005 -33.468  21.450  1.00  0.00     0.140 C 
ATOM     14  O   UNL     1      14.203 -33.626  20.542  1.00  0.00    -0.299 OA
BRANCH  13  15
ATOM     15  C   UNL     1      16.009 -34.580  21.697  1.00  0.00     0.106 CG0
ATOM     16  G   UNL     1      17.054 -34.778  20.612  1.00  0.00     0.000 G0
ENDBRANCH  13  15
ENDBRANCH  12  13
BRANCH  12  17
ATOM     17  C   UNL     1      13.610 -31.950  22.997  1.00  0.00    -0.006 C 
ATOM     18  C   UNL     1      13.870 -31.744  24.500  1.00  0.00     0.008 C 
ATOM     19  C   UNL     1      12.795 -30.756  22.471  1.00  0.00     0.008 C 
ENDBRANCH  12  17
ENDBRANCH  11  12
ENDBRANCH   1  11
TORSDOF 1
ENDMDL
MODEL 2
REMARK VINA RESULT:    -4.060      1.655      4.145
REMARK INTER + INTRA:          -6.409
REMARK INTER:                  -6.132
REMARK INTRA:                  -0.277
REMARK UNBOUND:                -0.213
REMARK SMILES CC1=CCC[C@@H](C)C(=O)C[C@@H](C(C)C)C(=O)C1
REMARK SMILES IDX 8 1 9 2 6 3 7 4 5 5 4 6 3 7 2 8 1 9 10 11 11 12 15 13 16 14
REMARK SMILES IDX 17 15 12 17 13 18 14 19
REMARK H PARENT
REMARK Flexibility Score: 70.00
ROOT
ATOM      1  C   UNL     1      18.531 -31.224  21.760  1.00  0.00     0.136 C 
ATOM      2  O   UNL     1      18.748 -31.191  22.963  1.00  0.00    -0.299 OA
ENDROOT
BRANCH   1   3
ATOM      3  C   UNL     1      17.901 -29.994  21.125  1.00  0.00     0.053 C 
ATOM      4  C   UNL     1      18.930 -28.857  21.108  1.00  0.00     0.016 C 
BRANCH   3   5
ATOM      5  C   UNL     1      16.584 -29.507  21.769  1.00  0.00     0.015 C 
BRANCH   5   6
ATOM      6  C   UNL     1      15.385 -30.449  21.518  1.00  0.00     0.028 C 
BRANCH   6   7
ATOM      7  C   UNL     1      14.958 -31.112  22.804  1.00  0.00    -0.028 C 
ATOM      8  C   UNL     1      14.964 -32.442  23.049  1.00  0.00    -0.070 CG0
ATOM      9  C   UNL     1      14.480 -32.899  24.404  1.00  0.00     0.039 C 
ATOM     10  G   UNL     1      15.289 -33.484  21.994  1.00  0.00     0.000 G0
ENDBRANCH   6   7
ENDBRANCH   5   6
ENDBRANCH   3   5
ENDBRANCH   1   3
BRANCH   1  11
ATOM     11  C   UNL     1      18.819 -32.518  21.020  1.00  0.00     0.087 C 
BRANCH  11  12
ATOM     12  C   UNL     1      17.521 -33.218  20.532  1.00  0.00     0.066 C 
BRANCH  12  13
ATOM     13  C   UNL     1      16.737 -33.783  21.717  1.00  0.00     0.140 C 
ATOM     14  O   UNL     1      17.341 -34.482  22.516  1.00  0.00    -0.299 OA
BRANCH  13  15
ATOM     15  C   UNL     1      15.271 -33.505  22.000  1.00  0.00     0.106 CG0
ATOM     16  G   UNL     1      14.992 -32.439  23.045  1.00  0.00     0.000 G0
ENDBRANCH  13  15
ENDBRANCH  12  13
BRANCH  12  17
ATOM     17  C   UNL     1      17.749 -34.266  19.397  1.00  0.00    -0.006 C 
ATOM     18  C   UNL     1      19.123 -34.946  19.546  1.00  0.00     0.008 C 
ATOM     19  C   UNL     1      16.663 -35.356  19.369  1.00  0.00     0.008 C 
ENDBRANCH  12  17
ENDBRANCH  11  12
ENDBRANCH   1  11
TORSDOF 1
ENDMDL
MODEL 3
REMARK VINA RESULT:    -4.043      2.124      3.885
REMARK INTER + INTRA:          -6.383
REMARK INTER:                  -5.924
REMARK INTRA:                  -0.459
REMARK UNBOUND:                -0.213
REMARK SMILES CC1=CCC[C@@H](C)C(=O)C[C@@H](C(C)C)C(=O)C1
REMARK SMILES IDX 8 1 9 2 6 3 7 4 5 5 4 6 3 7 2 8 1 9 10 11 11 12 15 13 16 14
REMARK SMILES IDX 17 15 12 17 13 18 14 19
REMARK H PARENT
REMARK Flexibility Score: 70.00
ROOT
ATOM      1  C   UNL     1      15.428 -34.156  20.857  1.00  0.00     0.136 C 
ATOM      2  O   UNL     1      14.456 -33.595  20.371  1.00  0.00    -0.299 OA
ENDROOT
BRANCH   1   3
ATOM      3  C   UNL     1      16.358 -34.899  19.910  1.00  0.00     0.053 C 
ATOM      4  C   UNL     1      16.934 -36.124  20.631  1.00  0.00     0.016 C 
BRANCH   3   5
ATOM      5  C   UNL     1      17.502 -34.059  19.298  1.00  0.00     0.015 C 
BRANCH   5   6
ATOM      6  C   UNL     1      18.901 -34.430  19.839  1.00  0.00     0.028 C 
BRANCH   6   7
ATOM      7  C   UNL     1      19.533 -33.242  20.521  1.00  0.00    -0.028 C 
ATOM      8  C   UNL     1      19.542 -33.008  21.853  1.00  0.00    -0.070 CG0
ATOM      9  C   UNL     1      20.221 -31.746  22.330  1.00  0.00     0.039 C 
ATOM     10  G   UNL     1      18.789 -33.862  22.858  1.00  0.00     0.000 G0
ENDBRANCH   6   7
ENDBRANCH   5   6
ENDBRANCH   3   5
ENDBRANCH   1   3
BRANCH   1  11
ATOM     11  C   UNL     1      15.577 -34.144  22.368  1.00  0.00     0.087 C 
BRANCH  11  12
ATOM     12  C   UNL     1      16.298 -32.866  22.878  1.00  0.00     0.066 C 
BRANCH  12  13
ATOM     13  C   UNL     1      17.615 -33.229  23.564  1.00  0.00     0.140 C 
ATOM     14  O   UNL     1      17.708 -33.014  24.763  1.00  0.00    -0.299 OA
BRANCH  13  15
ATOM     15  C   UNL     1      18.804 -33.877  22.875  1.00  0.00     0.106 CG0
ATOM     16  G   UNL     1      19.534 -33.009  21.866  1.00  0.00     0.000 G0
ENDBRANCH  13  15
ENDBRANCH  12  13
BRANCH  12  17
ATOM     17  C   UNL     1      15.398 -31.928  23.743  1.00  0.00    -0.006 C 
ATOM     18  C   UNL     1      15.540 -30.463  23.293  1.00  0.00     0.008 C 
ATOM     19  C   UNL     1      13.910 -32.317  23.686  1.00  0.00     0.008 C 
ENDBRANCH  12  17
ENDBRANCH  11  12
ENDBRANCH   1  11
TORSDOF 1
ENDMDL
MODEL 4
REMARK VINA RESULT:    -4.005      1.860      2.403
REMARK INTER + INTRA:          -6.325
REMARK INTER:                  -6.000
REMARK INTRA:                  -0.325
REMARK UNBOUND:                -0.213
REMARK SMILES CC1=CCC[C@@H](C)C(=O)C[C@@H](C(C)C)C(=O)C1
REMARK SMILES IDX 8 1 9 2 6 3 7 4 5 5 4 6 3 7 2 8 1 9 10 11 11 12 15 13 16 14
REMARK SMILES IDX 17 15 12 17 13 18 14 19
REMARK H PARENT
REMARK Flexibility Score: 70.00
ROOT
ATOM      1  C   UNL     1      18.341 -31.727  21.052  1.00  0.00     0.136 C 
ATOM      2  O   UNL     1      18.539 -30.538  20.844  1.00  0.00    -0.299 OA
ENDROOT
BRANCH   1   3
ATOM      3  C   UNL     1      19.558 -32.624  21.220  1.00  0.00     0.053 C 
ATOM      4  C   UNL     1      20.787 -31.753  21.505  1.00  0.00     0.016 C 
BRANCH   3   5
ATOM      5  C   UNL     1      19.851 -33.583  20.044  1.00  0.00     0.015 C 
BRANCH   5   6
ATOM      6  C   UNL     1      19.054 -34.906  20.110  1.00  0.00     0.028 C 
BRANCH   6   7
ATOM      7  C   UNL     1      19.014 -35.426  21.525  1.00  0.00    -0.028 C 
ATOM      8  C   UNL     1      17.902 -35.583  22.279  1.00  0.00    -0.070 CG0
ATOM      9  C   UNL     1      18.085 -36.108  23.682  1.00  0.00     0.039 C 
ATOM     10  G   UNL     1      16.522 -35.125  21.839  1.00  0.00     0.000 G0
ENDBRANCH   6   7
ENDBRANCH   5   6
ENDBRANCH   3   5
ENDBRANCH   1   3
BRANCH   1  11
ATOM     11  C   UNL     1      16.907 -32.225  21.032  1.00  0.00     0.087 C 
BRANCH  11  12
ATOM     12  C   UNL     1      16.359 -32.495  22.461  1.00  0.00     0.066 C 
BRANCH  12  13
ATOM     13  C   UNL     1      15.926 -33.954  22.604  1.00  0.00     0.140 C 
ATOM     14  O   UNL     1      15.013 -34.202  23.377  1.00  0.00    -0.299 OA
BRANCH  13  15
ATOM     15  C   UNL     1      16.516 -35.116  21.824  1.00  0.00     0.106 CG0
ATOM     16  G   UNL     1      17.883 -35.591  22.284  1.00  0.00     0.000 G0
ENDBRANCH  13  15
ENDBRANCH  12  13
BRANCH  12  17
ATOM     17  C   UNL     1      15.262 -31.485  22.924  1.00  0.00    -0.006 C 
ATOM     18  C   UNL     1      15.900 -30.198  23.478  1.00  0.00     0.008 C 
ATOM     19  C   UNL     1      14.291 -31.103  21.792  1.00  0.00     0.008 C 
ENDBRANCH  12  17
ENDBRANCH  11  12
ENDBRANCH   1  11
TORSDOF 1
ENDMDL
MODEL 5
REMARK VINA RESULT:    -3.994      2.350      4.201
REMARK INTER + INTRA:          -6.307
REMARK INTER:                  -5.898
REMARK INTRA:                  -0.410
REMARK UNBOUND:                -0.213
REMARK SMILES CC1=CCC[C@@H](C)C(=O)C[C@@H](C(C)C)C(=O)C1
REMARK SMILES IDX 8 1 9 2 6 3 7 4 5 5 4 6 3 7 2 8 1 9 10 11 11 12 15 13 16 14
REMARK SMILES IDX 17 15 12 17 13 18 14 19
REMARK H PARENT
REMARK Flexibility Score: 70.00
ROOT
ATOM      1  C   UNL     1      18.300 -32.970  21.187  1.00  0.00     0.136 C 
ATOM      2  O   UNL     1      17.877 -32.004  20.567  1.00  0.00    -0.299 OA
ENDROOT
BRANCH   1   3
ATOM      3  C   UNL     1      18.376 -34.300  20.452  1.00  0.00     0.053 C 
ATOM      4  C   UNL     1      19.663 -34.338  19.620  1.00  0.00     0.016 C 
BRANCH   3   5
ATOM      5  C   UNL     1      17.160 -34.644  19.563  1.00  0.00     0.015 C 
BRANCH   5   6
ATOM      6  C   UNL     1      15.893 -35.017  20.364  1.00  0.00     0.028 C 
BRANCH   6   7
ATOM      7  C   UNL     1      14.967 -33.830  20.467  1.00  0.00    -0.028 C 
ATOM      8  C   UNL     1      14.627 -33.188  21.608  1.00  0.00    -0.070 CG0
ATOM      9  C   UNL     1      13.670 -32.026  21.491  1.00  0.00     0.039 C 
ATOM     10  G   UNL     1      15.041 -33.664  22.990  1.00  0.00     0.000 G0
ENDBRANCH   6   7
ENDBRANCH   5   6
ENDBRANCH   3   5
ENDBRANCH   1   3
BRANCH   1  11
ATOM     11  C   UNL     1      18.625 -32.786  22.659  1.00  0.00     0.087 C 
BRANCH  11  12
ATOM     12  C   UNL     1      17.676 -33.603  23.578  1.00  0.00     0.066 C 
BRANCH  12  13
ATOM     13  C   UNL     1      16.277 -32.990  23.588  1.00  0.00     0.140 C 
ATOM     14  O   UNL     1      16.149 -31.874  24.069  1.00  0.00    -0.299 OA
BRANCH  13  15
ATOM     15  C   UNL     1      15.036 -33.645  23.005  1.00  0.00     0.106 CG0
ATOM     16  G   UNL     1      14.647 -33.194  21.608  1.00  0.00     0.000 G0
ENDBRANCH  13  15
ENDBRANCH  12  13
BRANCH  12  17
ATOM     17  C   UNL     1      18.241 -33.858  25.012  1.00  0.00    -0.006 C 
ATOM     18  C   UNL     1      17.308 -34.786  25.811  1.00  0.00     0.008 C 
ATOM     19  C   UNL     1      19.650 -34.477  24.992  1.00  0.00     0.008 C 
ENDBRANCH  12  17
ENDBRANCH  11  12
ENDBRANCH   1  11
TORSDOF 1
ENDMDL
MODEL 6
REMARK VINA RESULT:    -3.990      1.960      5.102
REMARK INTER + INTRA:          -6.302
REMARK INTER:                  -5.801
REMARK INTRA:                  -0.501
REMARK UNBOUND:                -0.213
REMARK SMILES CC1=CCC[C@@H](C)C(=O)C[C@@H](C(C)C)C(=O)C1
REMARK SMILES IDX 8 1 9 2 6 3 7 4 5 5 4 6 3 7 2 8 1 9 10 11 11 12 15 13 16 14
REMARK SMILES IDX 17 15 12 17 13 18 14 19
REMARK H PARENT
REMARK Flexibility Score: 70.00
ROOT
ATOM      1  C   UNL     1      17.551 -33.693  20.189  1.00  0.00     0.136 C 
ATOM      2  O   UNL     1      17.764 -34.299  19.149  1.00  0.00    -0.299 OA
ENDROOT
BRANCH   1   3
ATOM      3  C   UNL     1      16.570 -34.310  21.175  1.00  0.00     0.053 C 
ATOM      4  C   UNL     1      17.142 -35.637  21.686  1.00  0.00     0.016 C 
BRANCH   3   5
ATOM      5  C   UNL     1      15.133 -34.522  20.646  1.00  0.00     0.015 C 
BRANCH   5   6
ATOM      6  C   UNL     1      14.268 -33.242  20.673  1.00  0.00     0.028 C 
BRANCH   6   7
ATOM      7  C   UNL     1      14.221 -32.667  22.067  1.00  0.00    -0.028 C 
ATOM      8  C   UNL     1      14.800 -31.512  22.466  1.00  0.00    -0.070 CG0
ATOM      9  C   UNL     1      14.643 -31.124  23.917  1.00  0.00     0.039 C 
ATOM     10  G   UNL     1      15.705 -30.679  21.575  1.00  0.00     0.000 G0
ENDBRANCH   6   7
ENDBRANCH   5   6
ENDBRANCH   3   5
ENDBRANCH   1   3
BRANCH   1  11
ATOM     11  C   UNL     1      18.206 -32.335  20.371  1.00  0.00     0.087 C 
BRANCH  11  12
ATOM     12  C   UNL     1      18.130 -31.837  21.840  1.00  0.00     0.066 C 
BRANCH  12  13
ATOM     13  C   UNL     1      17.179 -30.646  21.955  1.00  0.00     0.140 C 
ATOM     14  O   UNL     1      17.643 -29.585  22.347  1.00  0.00    -0.299 OA
BRANCH  13  15
ATOM     15  C   UNL     1      15.708 -30.668  21.579  1.00  0.00     0.106 CG0
ATOM     16  G   UNL     1      14.811 -31.501  22.478  1.00  0.00     0.000 G0
ENDBRANCH  13  15
ENDBRANCH  12  13
BRANCH  12  17
ATOM     17  C   UNL     1      19.522 -31.573  22.497  1.00  0.00    -0.006 C 
ATOM     18  C   UNL     1      19.923 -32.738  23.420  1.00  0.00     0.008 C 
ATOM     19  C   UNL     1      20.637 -31.364  21.457  1.00  0.00     0.008 C 
ENDBRANCH  12  17
ENDBRANCH  11  12
ENDBRANCH   1  11
TORSDOF 1
ENDMDL
MODEL 7
REMARK VINA RESULT:    -3.981      2.109      2.267
REMARK INTER + INTRA:          -6.288
REMARK INTER:                  -5.904
REMARK INTRA:                  -0.384
REMARK UNBOUND:                -0.213
REMARK SMILES CC1=CCC[C@@H](C)C(=O)C[C@@H](C(C)C)C(=O)C1
REMARK SMILES IDX 8 1 9 2 6 3 7 4 5 5 4 6 3 7 2 8 1 9 10 11 11 12 15 13 16 14
REMARK SMILES IDX 17 15 12 17 13 18 14 19
REMARK H PARENT
REMARK Flexibility Score: 70.00
ROOT
ATOM      1  C   UNL     1      17.234 -31.466  21.273  1.00  0.00     0.136 C 
ATOM      2  O   UNL     1      17.707 -32.274  20.487  1.00  0.00    -0.299 OA
ENDROOT
BRANCH   1   3
ATOM      3  C   UNL     1      18.205 -30.661  22.124  1.00  0.00     0.053 C 
ATOM      4  C   UNL     1      18.781 -29.517  21.281  1.00  0.00     0.016 C 
BRANCH   3   5
ATOM      5  C   UNL     1      19.350 -31.467  22.776  1.00  0.00     0.015 C 
BRANCH   5   6
ATOM      6  C   UNL     1      18.907 -32.292  24.005  1.00  0.00     0.028 C 
BRANCH   6   7
ATOM      7  C   UNL     1      18.858 -33.761  23.664  1.00  0.00    -0.028 C 
ATOM      8  C   UNL     1      17.743 -34.523  23.605  1.00  0.00    -0.070 CG0
ATOM      9  C   UNL     1      17.918 -35.982  23.257  1.00  0.00     0.039 C 
ATOM     10  G   UNL     1      16.366 -34.023  24.007  1.00  0.00     0.000 G0
ENDBRANCH   6   7
ENDBRANCH   5   6
ENDBRANCH   3   5
ENDBRANCH   1   3
BRANCH   1  11
ATOM     11  C   UNL     1      15.723 -31.397  21.403  1.00  0.00     0.087 C 
BRANCH  11  12
ATOM     12  C   UNL     1      15.226 -31.924  22.778  1.00  0.00     0.066 C 
BRANCH  12  13
ATOM     13  C   UNL     1      15.513 -33.419  22.917  1.00  0.00     0.140 C 
ATOM     14  O   UNL     1      15.059 -34.166  22.064  1.00  0.00    -0.299 OA
BRANCH  13  15
ATOM     15  C   UNL     1      16.358 -34.043  24.013  1.00  0.00     0.106 CG0
ATOM     16  G   UNL     1      17.747 -34.497  23.597  1.00  0.00     0.000 G0
ENDBRANCH  13  15
ENDBRANCH  12  13
BRANCH  12  17
ATOM     17  C   UNL     1      13.744 -31.555  23.104  1.00  0.00    -0.006 C 
ATOM     18  C   UNL     1      13.668 -30.224  23.875  1.00  0.00     0.008 C 
ATOM     19  C   UNL     1      12.870 -31.442  21.843  1.00  0.00     0.008 C 
ENDBRANCH  12  17
ENDBRANCH  11  12
ENDBRANCH   1  11
TORSDOF 1
ENDMDL
MODEL 8
REMARK VINA RESULT:    -3.857      2.184      4.728
REMARK INTER + INTRA:          -6.100
REMARK INTER:                  -5.953
REMARK INTRA:                  -0.147
REMARK UNBOUND:                -0.213
REMARK SMILES CC1=CCC[C@@H](C)C(=O)C[C@@H](C(C)C)C(=O)C1
REMARK SMILES IDX 8 1 9 2 6 3 7 4 5 5 4 6 3 7 2 8 1 9 10 11 11 12 15 13 16 14
REMARK SMILES IDX 17 15 12 17 13 18 14 19
REMARK H PARENT
REMARK Flexibility Score: 70.00
ROOT
ATOM      1  C   UNL     1      15.000 -33.855  22.536  1.00  0.00     0.136 C 
ATOM      2  O   UNL     1      15.052 -34.537  23.550  1.00  0.00    -0.299 OA
ENDROOT
BRANCH   1   3
ATOM      3  C   UNL     1      14.256 -32.531  22.617  1.00  0.00     0.053 C 
ATOM      4  C   UNL     1      14.315 -31.839  21.250  1.00  0.00     0.016 C 
BRANCH   3   5
ATOM      5  C   UNL     1      14.732 -31.561  23.722  1.00  0.00     0.015 C 
BRANCH   5   6
ATOM      6  C   UNL     1      15.883 -30.632  23.277  1.00  0.00     0.028 C 
BRANCH   6   7
ATOM      7  C   UNL     1      17.218 -31.256  23.599  1.00  0.00    -0.028 C 
ATOM      8  C   UNL     1      18.096 -31.754  22.700  1.00  0.00    -0.070 CG0
ATOM      9  C   UNL     1      19.375 -32.350  23.236  1.00  0.00     0.039 C 
ATOM     10  G   UNL     1      17.796 -31.872  21.215  1.00  0.00     0.000 G0
ENDBRANCH   6   7
ENDBRANCH   5   6
ENDBRANCH   3   5
ENDBRANCH   1   3
BRANCH   1  11
ATOM     11  C   UNL     1      15.597 -34.425  21.262  1.00  0.00     0.087 C 
BRANCH  11  12
ATOM     12  C   UNL     1      17.148 -34.485  21.315  1.00  0.00     0.066 C 
BRANCH  12  13
ATOM     13  C   UNL     1      17.757 -33.266  20.621  1.00  0.00     0.140 C 
ATOM     14  O   UNL     1      18.226 -33.425  19.504  1.00  0.00    -0.299 OA
BRANCH  13  15
ATOM     15  C   UNL     1      17.787 -31.862  21.198  1.00  0.00     0.106 CG0
ATOM     16  G   UNL     1      18.096 -31.766  22.682  1.00  0.00     0.000 G0
ENDBRANCH  13  15
ENDBRANCH  12  13
BRANCH  12  17
ATOM     17  C   UNL     1      17.752 -35.836  20.817  1.00  0.00    -0.006 C 
ATOM     18  C   UNL     1      18.123 -36.742  22.004  1.00  0.00     0.008 C 
ATOM     19  C   UNL     1      16.794 -36.607  19.891  1.00  0.00     0.008 C 
ENDBRANCH  12  17
ENDBRANCH  11  12
ENDBRANCH   1  11
TORSDOF 1
ENDMDL
MODEL 9
REMARK VINA RESULT:    -3.769      2.120      4.546
REMARK INTER + INTRA:          -5.964
REMARK INTER:                  -5.725
REMARK INTRA:                  -0.239
REMARK UNBOUND:                -0.213
REMARK SMILES CC1=CCC[C@@H](C)C(=O)C[C@@H](C(C)C)C(=O)C1
REMARK SMILES IDX 8 1 9 2 6 3 7 4 5 5 4 6 3 7 2 8 1 9 10 11 11 12 15 13 16 14
REMARK SMILES IDX 17 15 12 17 13 18 14 19
REMARK H PARENT
REMARK Flexibility Score: 70.00
ROOT
ATOM      1  C   UNL     1      18.431 -33.116  22.700  1.00  0.00     0.136 C 
ATOM      2  O   UNL     1      19.589 -32.954  22.341  1.00  0.00    -0.299 OA
ENDROOT
BRANCH   1   3
ATOM      3  C   UNL     1      17.868 -32.139  23.721  1.00  0.00     0.053 C 
ATOM      4  C   UNL     1      17.194 -32.927  24.849  1.00  0.00     0.016 C 
BRANCH   3   5
ATOM      5  C   UNL     1      16.896 -31.074  23.165  1.00  0.00     0.015 C 
BRANCH   5   6
ATOM      6  C   UNL     1      15.433 -31.275  23.617  1.00  0.00     0.028 C 
BRANCH   6   7
ATOM      7  C   UNL     1      14.502 -31.221  22.430  1.00  0.00    -0.028 C 
ATOM      8  C   UNL     1      14.136 -32.273  21.664  1.00  0.00    -0.070 CG0
ATOM      9  C   UNL     1      13.202 -31.998  20.510  1.00  0.00     0.039 C 
ATOM     10  G   UNL     1      14.725 -33.664  21.817  1.00  0.00     0.000 G0
ENDBRANCH   6   7
ENDBRANCH   5   6
ENDBRANCH   3   5
ENDBRANCH   1   3
BRANCH   1  11
ATOM     11  C   UNL     1      17.683 -34.326  22.170  1.00  0.00     0.087 C 
BRANCH  11  12
ATOM     12  C   UNL     1      17.165 -34.110  20.722  1.00  0.00     0.066 C 
BRANCH  12  13
ATOM     13  C   UNL     1      15.637 -34.136  20.688  1.00  0.00     0.140 C 
ATOM     14  O   UNL     1      15.100 -34.599  19.693  1.00  0.00    -0.299 OA
BRANCH  13  15
ATOM     15  C   UNL     1      14.735 -33.668  21.816  1.00  0.00     0.106 CG0
ATOM     16  G   UNL     1      14.147 -32.277  21.656  1.00  0.00     0.000 G0
ENDBRANCH  13  15
ENDBRANCH  12  13
BRANCH  12  17
ATOM     17  C   UNL     1      17.815 -35.057  19.664  1.00  0.00    -0.006 C 
ATOM     18  C   UNL     1      19.240 -34.592  19.312  1.00  0.00     0.008 C 
ATOM     19  C   UNL     1      17.880 -36.520  20.139  1.00  0.00     0.008 C 
ENDBRANCH  12  17
ENDBRANCH  11  12
ENDBRANCH   1  11
TORSDOF 1
ENDMDL
