MODEL 1
REMARK VINA RESULT:    -4.305      0.000      0.000
REMARK INTER + INTRA:          -8.088
REMARK INTER:                  -6.571
REMARK INTRA:                  -1.518
REMARK UNBOUND:                -1.518
REMARK SMILES OC[C@H]1O[C@@H](O[C@@]2(CO)O[C@H](CO)[C@@H](O)[C@H]2O)[C@H](O)[C@H](O)[C@@H]1O
REMARK SMILES IDX 6 1 5 2 3 3 22 4 4 5 20 6 18 7 2 8 1 9 23 11 21 13 19 15
REMARK SMILES IDX 7 17 16 18 10 19 14 20 11 21 8 22 9 23 17 25 15 27 12 29
REMARK SMILES IDX 13 30
REMARK H PARENT 1 10 23 12 21 14 19 16 9 24 17 26 15 28 13 31
REMARK Flexibility Score: inf
ROOT
ATOM      1  O   UNL     1       1.396   9.245   2.985  1.00  0.00    -0.313 OA
ENDROOT
BRANCH   1   2
ATOM      2  C   UNL     1       2.383   8.505   2.274  1.00  0.00     0.285 C 
ATOM      3  C   UNL     1       1.160   6.446   2.110  1.00  0.00     0.178 C 
ATOM      4  C   UNL     1       2.086   5.745   3.140  1.00  0.00     0.177 C 
ATOM      5  O   UNL     1       1.789   7.527   1.426  1.00  0.00    -0.341 OA
ATOM      6  C   UNL     1       2.771   6.761   4.067  1.00  0.00     0.179 C 
ATOM      7  C   UNL     1       3.402   7.906   3.258  1.00  0.00     0.202 C 
BRANCH   3   8
ATOM      8  C   UNL     1      -0.212   6.838   2.695  1.00  0.00     0.191 C 
BRANCH   8   9
ATOM      9  O   UNL     1      -0.842   7.792   1.881  1.00  0.00    -0.394 OA
ATOM     10  H   UNL     1      -0.183   8.521   1.731  1.00  0.00     0.210 HD
ENDBRANCH   8   9
ENDBRANCH   3   8
BRANCH   4  11
ATOM     11  O   UNL     1       3.035   4.920   2.503  1.00  0.00    -0.387 OA
ATOM     12  H   UNL     1       3.341   4.233   3.150  1.00  0.00     0.211 HD
ENDBRANCH   4  11
BRANCH   6  13
ATOM     13  O   UNL     1       3.739   6.112   4.850  1.00  0.00    -0.387 OA
ATOM     14  H   UNL     1       4.495   5.889   4.245  1.00  0.00     0.211 HD
ENDBRANCH   6  13
BRANCH   7  15
ATOM     15  O   UNL     1       4.530   7.459   2.547  1.00  0.00    -0.385 OA
ATOM     16  H   UNL     1       4.601   8.020   1.732  1.00  0.00     0.211 HD
ENDBRANCH   7  15
ENDBRANCH   1   2
BRANCH   1  17
ATOM     17  C   UNL     1       1.155  10.544   2.444  1.00  0.00     0.224 C 
ATOM     18  C   UNL     1       0.015  11.219   3.238  1.00  0.00     0.208 C 
ATOM     19  O   UNL     1       0.753  10.462   1.083  1.00  0.00    -0.337 OA
ATOM     20  C   UNL     1      -0.710  11.999   2.168  1.00  0.00     0.180 C 
ATOM     21  C   UNL     1      -0.471  11.146   0.932  1.00  0.00     0.179 C 
BRANCH  17  22
ATOM     22  C   UNL     1       2.438  11.413   2.534  1.00  0.00     0.225 C 
BRANCH  22  23
ATOM     23  O   UNL     1       2.746  11.982   1.288  1.00  0.00    -0.391 OA
ATOM     24  H   UNL     1       3.426  12.686   1.448  1.00  0.00     0.210 HD
ENDBRANCH  22  23
ENDBRANCH  17  22
BRANCH  18  25
ATOM     25  O   UNL     1      -0.834  10.251   3.803  1.00  0.00    -0.385 OA
ATOM     26  H   UNL     1      -1.743  10.650   3.843  1.00  0.00     0.211 HD
ENDBRANCH  18  25
BRANCH  20  27
ATOM     27  O   UNL     1      -2.084  12.128   2.433  1.00  0.00    -0.387 OA
ATOM     28  H   UNL     1      -2.221  11.811   3.364  1.00  0.00     0.211 HD
ENDBRANCH  20  27
BRANCH  21  29
ATOM     29  C   UNL     1      -0.457  11.971  -0.358  1.00  0.00     0.191 C 
BRANCH  29  30
ATOM     30  O   UNL     1      -0.834  13.295  -0.096  1.00  0.00    -0.394 OA
ATOM     31  H   UNL     1      -1.532  13.248   0.608  1.00  0.00     0.210 HD
ENDBRANCH  29  30
ENDBRANCH  21  29
ENDBRANCH   1  17
TORSDOF 13
ENDMDL
MODEL 2
REMARK VINA RESULT:    -4.304      2.333      7.031
REMARK INTER + INTRA:          -8.086
REMARK INTER:                  -6.529
REMARK INTRA:                  -1.557
REMARK UNBOUND:                -1.518
REMARK SMILES OC[C@H]1O[C@@H](O[C@@]2(CO)O[C@H](CO)[C@@H](O)[C@H]2O)[C@H](O)[C@H](O)[C@@H]1O
REMARK SMILES IDX 6 1 5 2 3 3 22 4 4 5 20 6 18 7 2 8 1 9 23 11 21 13 19 15
REMARK SMILES IDX 7 17 16 18 10 19 14 20 11 21 8 22 9 23 17 25 15 27 12 29
REMARK SMILES IDX 13 30
REMARK H PARENT 1 10 23 12 21 14 19 16 9 24 17 26 15 28 13 31
REMARK Flexibility Score: inf
ROOT
ATOM      1  O   UNL     1       2.306   6.173   3.510  1.00  0.00    -0.313 OA
ENDROOT
BRANCH   1   2
ATOM      2  C   UNL     1       1.311   6.300   2.500  1.00  0.00     0.285 C 
ATOM      3  C   UNL     1       1.796   8.568   1.878  1.00  0.00     0.178 C 
ATOM      4  C   UNL     1       0.491   9.089   2.536  1.00  0.00     0.177 C 
ATOM      5  O   UNL     1       1.722   7.202   1.476  1.00  0.00    -0.341 OA
ATOM      6  C   UNL     1      -0.008   8.137   3.634  1.00  0.00     0.179 C 
ATOM      7  C   UNL     1      -0.037   6.685   3.133  1.00  0.00     0.202 C 
BRANCH   3   8
ATOM      8  C   UNL     1       3.059   8.867   2.712  1.00  0.00     0.191 C 
BRANCH   8   9
ATOM      9  O   UNL     1       4.156   8.139   2.226  1.00  0.00    -0.394 OA
ATOM     10  H   UNL     1       3.929   7.863   1.300  1.00  0.00     0.210 HD
ENDBRANCH   8   9
ENDBRANCH   3   8
BRANCH   4  11
ATOM     11  O   UNL     1      -0.513   9.324   1.575  1.00  0.00    -0.387 OA
ATOM     12  H   UNL     1      -0.523   8.567   0.935  1.00  0.00     0.211 HD
ENDBRANCH   4  11
BRANCH   6  13
ATOM     13  O   UNL     1      -1.281   8.540   4.068  1.00  0.00    -0.387 OA
ATOM     14  H   UNL     1      -1.337   8.322   5.036  1.00  0.00     0.211 HD
ENDBRANCH   6  13
BRANCH   7  15
ATOM     15  O   UNL     1      -1.065   6.496   2.192  1.00  0.00    -0.385 OA
ATOM     16  H   UNL     1      -0.878   5.640   1.725  1.00  0.00     0.211 HD
ENDBRANCH   7  15
ENDBRANCH   1   2
BRANCH   1  17
ATOM     17  C   UNL     1       2.633   4.819   3.824  1.00  0.00     0.224 C 
ATOM     18  C   UNL     1       4.168   4.670   3.887  1.00  0.00     0.208 C 
ATOM     19  O   UNL     1       2.146   3.933   2.825  1.00  0.00    -0.337 OA
ATOM     20  C   UNL     1       4.386   3.286   3.324  1.00  0.00     0.180 C 
ATOM     21  C   UNL     1       3.221   3.149   2.356  1.00  0.00     0.179 C 
BRANCH  17  22
ATOM     22  C   UNL     1       2.014   4.418   5.191  1.00  0.00     0.225 C 
BRANCH  22  23
ATOM     23  O   UNL     1       0.975   3.491   5.017  1.00  0.00    -0.391 OA
ATOM     24  H   UNL     1       1.383   2.654   4.677  1.00  0.00     0.210 HD
ENDBRANCH  22  23
ENDBRANCH  17  22
BRANCH  18  25
ATOM     25  O   UNL     1       4.792   5.636   3.077  1.00  0.00    -0.385 OA
ATOM     26  H   UNL     1       4.221   5.753   2.273  1.00  0.00     0.211 HD
ENDBRANCH  18  25
BRANCH  20  27
ATOM     27  O   UNL     1       5.615   3.165   2.653  1.00  0.00    -0.387 OA
ATOM     28  H   UNL     1       5.874   4.082   2.376  1.00  0.00     0.211 HD
ENDBRANCH  20  27
BRANCH  21  29
ATOM     29  C   UNL     1       2.772   1.694   2.180  1.00  0.00     0.191 C 
BRANCH  29  30
ATOM     30  O   UNL     1       1.492   1.509   2.719  1.00  0.00    -0.394 OA
ATOM     31  H   UNL     1       1.626   1.074   3.601  1.00  0.00     0.210 HD
ENDBRANCH  29  30
ENDBRANCH  21  29
ENDBRANCH   1  17
TORSDOF 13
ENDMDL
MODEL 3
REMARK VINA RESULT:    -4.011      2.028      5.774
REMARK INTER + INTRA:          -7.639
REMARK INTER:                  -6.205
REMARK INTRA:                  -1.433
REMARK UNBOUND:                -1.518
REMARK SMILES OC[C@H]1O[C@@H](O[C@@]2(CO)O[C@H](CO)[C@@H](O)[C@H]2O)[C@H](O)[C@H](O)[C@@H]1O
REMARK SMILES IDX 6 1 5 2 3 3 22 4 4 5 20 6 18 7 2 8 1 9 23 11 21 13 19 15
REMARK SMILES IDX 7 17 16 18 10 19 14 20 11 21 8 22 9 23 17 25 15 27 12 29
REMARK SMILES IDX 13 30
REMARK H PARENT 1 10 23 12 21 14 19 16 9 24 17 26 15 28 13 31
REMARK Flexibility Score: inf
ROOT
ATOM      1  O   UNL     1      -0.088   7.936   3.679  1.00  0.00    -0.313 OA
ENDROOT
BRANCH   1   2
ATOM      2  C   UNL     1      -0.131   9.302   3.279  1.00  0.00     0.285 C 
ATOM      3  C   UNL     1      -2.380   9.756   3.987  1.00  0.00     0.178 C 
ATOM      4  C   UNL     1      -2.890   9.824   2.523  1.00  0.00     0.177 C 
ATOM      5  O   UNL     1      -0.994  10.063   4.119  1.00  0.00    -0.341 OA
ATOM      6  C   UNL     1      -1.978   9.036   1.570  1.00  0.00     0.179 C 
ATOM      7  C   UNL     1      -0.502   9.404   1.789  1.00  0.00     0.202 C 
BRANCH   3   8
ATOM      8  C   UNL     1      -2.763   8.445   4.704  1.00  0.00     0.191 C 
BRANCH   8   9
ATOM      9  O   UNL     1      -1.998   8.277   5.868  1.00  0.00    -0.394 OA
ATOM     10  H   UNL     1      -1.372   7.526   5.694  1.00  0.00     0.210 HD
ENDBRANCH   8   9
ENDBRANCH   3   8
BRANCH   4  11
ATOM     11  O   UNL     1      -3.043  11.158   2.091  1.00  0.00    -0.387 OA
ATOM     12  H   UNL     1      -2.445  11.309   1.314  1.00  0.00     0.211 HD
ENDBRANCH   4  11
BRANCH   6  13
ATOM     13  O   UNL     1      -2.359   9.279   0.240  1.00  0.00    -0.387 OA
ATOM     14  H   UNL     1      -2.979   8.548  -0.019  1.00  0.00     0.211 HD
ENDBRANCH   6  13
BRANCH   7  15
ATOM     15  O   UNL     1      -0.231  10.704   1.329  1.00  0.00    -0.385 OA
ATOM     16  H   UNL     1       0.068  10.623   0.386  1.00  0.00     0.211 HD
ENDBRANCH   7  15
ENDBRANCH   1   2
BRANCH   1  17
ATOM     17  C   UNL     1       1.207   7.346   3.563  1.00  0.00     0.224 C 
ATOM     18  C   UNL     1       1.535   6.588   4.868  1.00  0.00     0.208 C 
ATOM     19  O   UNL     1       2.203   8.341   3.371  1.00  0.00    -0.337 OA
ATOM     20  C   UNL     1       3.020   6.821   5.016  1.00  0.00     0.180 C 
ATOM     21  C   UNL     1       3.196   8.182   4.360  1.00  0.00     0.179 C 
BRANCH  17  22
ATOM     22  C   UNL     1       1.246   6.361   2.364  1.00  0.00     0.225 C 
BRANCH  22  23
ATOM     23  O   UNL     1       1.952   6.914   1.285  1.00  0.00    -0.391 OA
ATOM     24  H   UNL     1       1.283   7.188   0.606  1.00  0.00     0.210 HD
ENDBRANCH  22  23
ENDBRANCH  17  22
BRANCH  18  25
ATOM     25  O   UNL     1       0.838   7.146   5.953  1.00  0.00    -0.385 OA
ATOM     26  H   UNL     1       0.715   6.423   6.623  1.00  0.00     0.211 HD
ENDBRANCH  18  25
BRANCH  20  27
ATOM     27  O   UNL     1       3.428   6.853   6.360  1.00  0.00    -0.387 OA
ATOM     28  H   UNL     1       3.924   7.705   6.481  1.00  0.00     0.211 HD
ENDBRANCH  20  27
BRANCH  21  29
ATOM     29  C   UNL     1       4.587   8.361   3.742  1.00  0.00     0.191 C 
BRANCH  29  30
ATOM     30  O   UNL     1       4.676   7.665   2.529  1.00  0.00    -0.394 OA
ATOM     31  H   UNL     1       5.212   6.851   2.717  1.00  0.00     0.210 HD
ENDBRANCH  29  30
ENDBRANCH  21  29
ENDBRANCH   1  17
TORSDOF 13
ENDMDL
MODEL 4
REMARK VINA RESULT:    -3.966      1.387      2.022
REMARK INTER + INTRA:          -7.571
REMARK INTER:                  -6.272
REMARK INTRA:                  -1.298
REMARK UNBOUND:                -1.518
REMARK SMILES OC[C@H]1O[C@@H](O[C@@]2(CO)O[C@H](CO)[C@@H](O)[C@H]2O)[C@H](O)[C@H](O)[C@@H]1O
REMARK SMILES IDX 6 1 5 2 3 3 22 4 4 5 20 6 18 7 2 8 1 9 23 11 21 13 19 15
REMARK SMILES IDX 7 17 16 18 10 19 14 20 11 21 8 22 9 23 17 25 15 27 12 29
REMARK SMILES IDX 13 30
REMARK H PARENT 1 10 23 12 21 14 19 16 9 24 17 26 15 28 13 31
REMARK Flexibility Score: inf
ROOT
ATOM      1  O   UNL     1       0.131   8.730   3.042  1.00  0.00    -0.313 OA
ENDROOT
BRANCH   1   2
ATOM      2  C   UNL     1       1.208   8.279   2.227  1.00  0.00     0.285 C 
ATOM      3  C   UNL     1       0.799   5.925   2.458  1.00  0.00     0.178 C 
ATOM      4  C   UNL     1       2.051   5.736   3.356  1.00  0.00     0.177 C 
ATOM      5  O   UNL     1       0.893   7.048   1.585  1.00  0.00    -0.341 OA
ATOM      6  C   UNL     1       2.447   7.045   4.057  1.00  0.00     0.179 C 
ATOM      7  C   UNL     1       2.503   8.210   3.055  1.00  0.00     0.202 C 
BRANCH   3   8
ATOM      8  C   UNL     1      -0.525   5.904   3.248  1.00  0.00     0.191 C 
BRANCH   8   9
ATOM      9  O   UNL     1      -1.613   6.151   2.396  1.00  0.00    -0.394 OA
ATOM     10  H   UNL     1      -1.592   7.120   2.179  1.00  0.00     0.210 HD
ENDBRANCH   8   9
ENDBRANCH   3   8
BRANCH   4  11
ATOM     11  O   UNL     1       3.134   5.203   2.628  1.00  0.00    -0.387 OA
ATOM     12  H   UNL     1       2.775   4.679   1.866  1.00  0.00     0.211 HD
ENDBRANCH   4  11
BRANCH   6  13
ATOM     13  O   UNL     1       3.683   6.883   4.701  1.00  0.00    -0.387 OA
ATOM     14  H   UNL     1       4.356   7.374   4.160  1.00  0.00     0.211 HD
ENDBRANCH   6  13
BRANCH   7  15
ATOM     15  O   UNL     1       3.604   8.080   2.191  1.00  0.00    -0.385 OA
ATOM     16  H   UNL     1       4.167   8.888   2.313  1.00  0.00     0.211 HD
ENDBRANCH   7  15
ENDBRANCH   1   2
BRANCH   1  17
ATOM     17  C   UNL     1      -0.371  10.013   2.668  1.00  0.00     0.224 C 
ATOM     18  C   UNL     1      -1.673   9.831   1.858  1.00  0.00     0.208 C 
ATOM     19  O   UNL     1       0.562  10.706   1.850  1.00  0.00    -0.337 OA
ATOM     20  C   UNL     1      -1.586  10.947   0.845  1.00  0.00     0.180 C 
ATOM     21  C   UNL     1      -0.084  11.092   0.657  1.00  0.00     0.179 C 
BRANCH  17  22
ATOM     22  C   UNL     1      -0.660  10.869   3.931  1.00  0.00     0.225 C 
BRANCH  22  23
ATOM     23  O   UNL     1      -1.983  10.688   4.366  1.00  0.00    -0.391 OA
ATOM     24  H   UNL     1      -2.554  11.292   3.824  1.00  0.00     0.210 HD
ENDBRANCH  22  23
ENDBRANCH  17  22
BRANCH  18  25
ATOM     25  O   UNL     1      -1.683   8.581   1.214  1.00  0.00    -0.385 OA
ATOM     26  H   UNL     1      -0.737   8.343   1.026  1.00  0.00     0.211 HD
ENDBRANCH  18  25
BRANCH  20  27
ATOM     27  O   UNL     1      -2.216  10.624  -0.369  1.00  0.00    -0.387 OA
ATOM     28  H   UNL     1      -1.492  10.506  -1.038  1.00  0.00     0.211 HD
ENDBRANCH  20  27
BRANCH  21  29
ATOM     29  C   UNL     1       0.326  12.518   0.275  1.00  0.00     0.191 C 
BRANCH  29  30
ATOM     30  O   UNL     1      -0.720  13.164  -0.398  1.00  0.00    -0.394 OA
ATOM     31  H   UNL     1      -1.475  12.519  -0.415  1.00  0.00     0.210 HD
ENDBRANCH  29  30
ENDBRANCH  21  29
ENDBRANCH   1  17
TORSDOF 13
ENDMDL
MODEL 5
REMARK VINA RESULT:    -3.934      2.138      5.883
REMARK INTER + INTRA:          -7.522
REMARK INTER:                  -6.092
REMARK INTRA:                  -1.430
REMARK UNBOUND:                -1.518
REMARK SMILES OC[C@H]1O[C@@H](O[C@@]2(CO)O[C@H](CO)[C@@H](O)[C@H]2O)[C@H](O)[C@H](O)[C@@H]1O
REMARK SMILES IDX 6 1 5 2 3 3 22 4 4 5 20 6 18 7 2 8 1 9 23 11 21 13 19 15
REMARK SMILES IDX 7 17 16 18 10 19 14 20 11 21 8 22 9 23 17 25 15 27 12 29
REMARK SMILES IDX 13 30
REMARK H PARENT 1 10 23 12 21 14 19 16 9 24 17 26 15 28 13 31
REMARK Flexibility Score: inf
ROOT
ATOM      1  O   UNL     1      -0.326   8.128   2.183  1.00  0.00    -0.313 OA
ENDROOT
BRANCH   1   2
ATOM      2  C   UNL     1      -0.213   9.281   3.011  1.00  0.00     0.285 C 
ATOM      3  C   UNL     1      -1.596  10.738   1.697  1.00  0.00     0.178 C 
ATOM      4  C   UNL     1      -0.373  11.567   1.222  1.00  0.00     0.177 C 
ATOM      5  O   UNL     1      -1.387  10.085   2.946  1.00  0.00    -0.341 OA
ATOM      6  C   UNL     1       0.927  10.750   1.295  1.00  0.00     0.179 C 
ATOM      7  C   UNL     1       1.067  10.059   2.661  1.00  0.00     0.202 C 
BRANCH   3   8
ATOM      8  C   UNL     1      -2.137   9.780   0.616  1.00  0.00     0.191 C 
BRANCH   8   9
ATOM      9  O   UNL     1      -3.125   8.939   1.150  1.00  0.00    -0.394 OA
ATOM     10  H   UNL     1      -3.959   9.476   1.206  1.00  0.00     0.210 HD
ENDBRANCH   8   9
ENDBRANCH   3   8
BRANCH   4  11
ATOM     11  O   UNL     1      -0.255  12.772   1.944  1.00  0.00    -0.387 OA
ATOM     12  H   UNL     1      -0.852  12.727   2.734  1.00  0.00     0.211 HD
ENDBRANCH   4  11
BRANCH   6  13
ATOM     13  O   UNL     1       2.027  11.586   1.045  1.00  0.00    -0.387 OA
ATOM     14  H   UNL     1       1.919  12.384   1.626  1.00  0.00     0.211 HD
ENDBRANCH   6  13
BRANCH   7  15
ATOM     15  O   UNL     1       1.337  10.995   3.675  1.00  0.00    -0.385 OA
ATOM     16  H   UNL     1       1.828  10.514   4.391  1.00  0.00     0.211 HD
ENDBRANCH   7  15
ENDBRANCH   1   2
BRANCH   1  17
ATOM     17  C   UNL     1      -0.023   6.907   2.857  1.00  0.00     0.224 C 
ATOM     18  C   UNL     1      -1.177   5.906   2.635  1.00  0.00     0.208 C 
ATOM     19  O   UNL     1       0.113   7.118   4.256  1.00  0.00    -0.337 OA
ATOM     20  C   UNL     1      -1.233   5.173   3.954  1.00  0.00     0.180 C 
ATOM     21  C   UNL     1      -0.759   6.238   4.931  1.00  0.00     0.179 C 
BRANCH  17  22
ATOM     22  C   UNL     1       1.300   6.304   2.312  1.00  0.00     0.225 C 
BRANCH  22  23
ATOM     23  O   UNL     1       1.764   7.033   1.206  1.00  0.00    -0.391 OA
ATOM     24  H   UNL     1       1.320   7.919   1.232  1.00  0.00     0.210 HD
ENDBRANCH  22  23
ENDBRANCH  17  22
BRANCH  18  25
ATOM     25  O   UNL     1      -2.384   6.589   2.400  1.00  0.00    -0.385 OA
ATOM     26  H   UNL     1      -3.095   5.900   2.311  1.00  0.00     0.211 HD
ENDBRANCH  18  25
BRANCH  20  27
ATOM     27  O   UNL     1      -2.529   4.738   4.275  1.00  0.00    -0.387 OA
ATOM     28  H   UNL     1      -2.540   4.589   5.256  1.00  0.00     0.211 HD
ENDBRANCH  20  27
BRANCH  21  29
ATOM     29  C   UNL     1      -0.058   5.642   6.156  1.00  0.00     0.191 C 
BRANCH  29  30
ATOM     30  O   UNL     1      -0.113   4.242   6.118  1.00  0.00    -0.394 OA
ATOM     31  H   UNL     1       0.728   3.946   5.681  1.00  0.00     0.210 HD
ENDBRANCH  29  30
ENDBRANCH  21  29
ENDBRANCH   1  17
TORSDOF 13
ENDMDL
MODEL 6
REMARK VINA RESULT:    -3.929      2.783      4.765
REMARK INTER + INTRA:          -7.514
REMARK INTER:                  -6.121
REMARK INTRA:                  -1.393
REMARK UNBOUND:                -1.518
REMARK SMILES OC[C@H]1O[C@@H](O[C@@]2(CO)O[C@H](CO)[C@@H](O)[C@H]2O)[C@H](O)[C@H](O)[C@@H]1O
REMARK SMILES IDX 6 1 5 2 3 3 22 4 4 5 20 6 18 7 2 8 1 9 23 11 21 13 19 15
REMARK SMILES IDX 7 17 16 18 10 19 14 20 11 21 8 22 9 23 17 25 15 27 12 29
REMARK SMILES IDX 13 30
REMARK H PARENT 1 10 23 12 21 14 19 16 9 24 17 26 15 28 13 31
REMARK Flexibility Score: inf
ROOT
ATOM      1  O   UNL     1       4.040   9.265   3.875  1.00  0.00    -0.313 OA
ENDROOT
BRANCH   1   2
ATOM      2  C   UNL     1       4.303   8.186   2.984  1.00  0.00     0.285 C 
ATOM      3  C   UNL     1       2.069   7.933   2.144  1.00  0.00     0.178 C 
ATOM      4  C   UNL     1       1.868   6.599   2.913  1.00  0.00     0.177 C 
ATOM      5  O   UNL     1       3.435   8.220   1.856  1.00  0.00    -0.341 OA
ATOM      6  C   UNL     1       2.800   6.503   4.130  1.00  0.00     0.179 C 
ATOM      7  C   UNL     1       4.247   6.849   3.744  1.00  0.00     0.202 C 
BRANCH   3   8
ATOM      8  C   UNL     1       1.342   9.126   2.796  1.00  0.00     0.191 C 
BRANCH   8   9
ATOM      9  O   UNL     1       1.637  10.317   2.115  1.00  0.00    -0.394 OA
ATOM     10  H   UNL     1       1.456  11.062   2.747  1.00  0.00     0.210 HD
ENDBRANCH   8   9
ENDBRANCH   3   8
BRANCH   4  11
ATOM     11  O   UNL     1       2.025   5.485   2.064  1.00  0.00    -0.387 OA
ATOM     12  H   UNL     1       2.728   4.895   2.443  1.00  0.00     0.211 HD
ENDBRANCH   4  11
BRANCH   6  13
ATOM     13  O   UNL     1       2.727   5.214   4.682  1.00  0.00    -0.387 OA
ATOM     14  H   UNL     1       2.455   4.602   3.949  1.00  0.00     0.211 HD
ENDBRANCH   6  13
BRANCH   7  15
ATOM     15  O   UNL     1       4.814   5.837   2.950  1.00  0.00    -0.385 OA
ATOM     16  H   UNL     1       4.597   4.971   3.384  1.00  0.00     0.211 HD
ENDBRANCH   7  15
ENDBRANCH   1   2
BRANCH   1  17
ATOM     17  C   UNL     1       5.155  10.136   4.063  1.00  0.00     0.224 C 
ATOM     18  C   UNL     1       4.643  11.583   4.239  1.00  0.00     0.208 C 
ATOM     19  O   UNL     1       6.018  10.110   2.934  1.00  0.00    -0.337 OA
ATOM     20  C   UNL     1       5.711  12.394   3.545  1.00  0.00     0.180 C 
ATOM     21  C   UNL     1       6.198  11.431   2.474  1.00  0.00     0.179 C 
BRANCH  17  22
ATOM     22  C   UNL     1       5.964   9.715   5.320  1.00  0.00     0.225 C 
BRANCH  22  23
ATOM     23  O   UNL     1       7.344   9.792   5.076  1.00  0.00    -0.391 OA
ATOM     24  H   UNL     1       7.573  10.753   4.989  1.00  0.00     0.210 HD
ENDBRANCH  22  23
ENDBRANCH  17  22
BRANCH  18  25
ATOM     25  O   UNL     1       3.403  11.749   3.596  1.00  0.00    -0.385 OA
ATOM     26  H   UNL     1       3.101  12.676   3.782  1.00  0.00     0.211 HD
ENDBRANCH  18  25
BRANCH  20  27
ATOM     27  O   UNL     1       5.205  13.572   2.971  1.00  0.00    -0.387 OA
ATOM     28  H   UNL     1       4.258  13.385   2.737  1.00  0.00     0.211 HD
ENDBRANCH  20  27
BRANCH  21  29
ATOM     29  C   UNL     1       7.665  11.662   2.099  1.00  0.00     0.191 C 
BRANCH  29  30
ATOM     30  O   UNL     1       8.450  10.573   2.504  1.00  0.00    -0.394 OA
ATOM     31  H   UNL     1       9.390  10.822   2.301  1.00  0.00     0.210 HD
ENDBRANCH  29  30
ENDBRANCH  21  29
ENDBRANCH   1  17
TORSDOF 13
ENDMDL
MODEL 7
REMARK VINA RESULT:    -3.896      2.593      3.942
REMARK INTER + INTRA:          -7.464
REMARK INTER:                  -6.294
REMARK INTRA:                  -1.170
REMARK UNBOUND:                -1.518
REMARK SMILES OC[C@H]1O[C@@H](O[C@@]2(CO)O[C@H](CO)[C@@H](O)[C@H]2O)[C@H](O)[C@H](O)[C@@H]1O
REMARK SMILES IDX 6 1 5 2 3 3 22 4 4 5 20 6 18 7 2 8 1 9 23 11 21 13 19 15
REMARK SMILES IDX 7 17 16 18 10 19 14 20 11 21 8 22 9 23 17 25 15 27 12 29
REMARK SMILES IDX 13 30
REMARK H PARENT 1 10 23 12 21 14 19 16 9 24 17 26 15 28 13 31
REMARK Flexibility Score: inf
ROOT
ATOM      1  O   UNL     1      -0.624   8.056   3.538  1.00  0.00    -0.313 OA
ENDROOT
BRANCH   1   2
ATOM      2  C   UNL     1      -1.736   7.218   3.245  1.00  0.00     0.285 C 
ATOM      3  C   UNL     1      -2.184   6.507   5.494  1.00  0.00     0.178 C 
ATOM      4  C   UNL     1      -1.658   5.075   5.208  1.00  0.00     0.177 C 
ATOM      5  O   UNL     1      -2.659   7.179   4.330  1.00  0.00    -0.341 OA
ATOM      6  C   UNL     1      -0.675   5.058   4.028  1.00  0.00     0.179 C 
ATOM      7  C   UNL     1      -1.247   5.822   2.823  1.00  0.00     0.202 C 
BRANCH   3   8
ATOM      8  C   UNL     1      -1.195   7.367   6.306  1.00  0.00     0.191 C 
BRANCH   8   9
ATOM      9  O   UNL     1      -1.671   8.680   6.434  1.00  0.00    -0.394 OA
ATOM     10  H   UNL     1      -2.040   8.939   5.548  1.00  0.00     0.210 HD
ENDBRANCH   8   9
ENDBRANCH   3   8
BRANCH   4  11
ATOM     11  O   UNL     1      -2.718   4.168   4.997  1.00  0.00    -0.387 OA
ATOM     12  H   UNL     1      -2.601   3.397   5.610  1.00  0.00     0.211 HD
ENDBRANCH   4  11
BRANCH   6  13
ATOM     13  O   UNL     1      -0.373   3.732   3.680  1.00  0.00    -0.387 OA
ATOM     14  H   UNL     1      -0.632   3.166   4.454  1.00  0.00     0.211 HD
ENDBRANCH   6  13
BRANCH   7  15
ATOM     15  O   UNL     1      -2.309   5.113   2.235  1.00  0.00    -0.385 OA
ATOM     16  H   UNL     1      -1.919   4.545   1.520  1.00  0.00     0.211 HD
ENDBRANCH   7  15
ENDBRANCH   1   2
BRANCH   1  17
ATOM     17  C   UNL     1      -0.416   9.089   2.575  1.00  0.00     0.224 C 
ATOM     18  C   UNL     1      -0.783  10.450   3.204  1.00  0.00     0.208 C 
ATOM     19  O   UNL     1      -1.242   8.895   1.435  1.00  0.00    -0.337 OA
ATOM     20  C   UNL     1      -1.387  11.197   2.039  1.00  0.00     0.180 C 
ATOM     21  C   UNL     1      -1.992  10.069   1.217  1.00  0.00     0.179 C 
BRANCH  17  22
ATOM     22  C   UNL     1       1.068   9.110   2.119  1.00  0.00     0.225 C 
BRANCH  22  23
ATOM     23  O   UNL     1       1.426   7.890   1.522  1.00  0.00    -0.391 OA
ATOM     24  H   UNL     1       1.920   7.365   2.203  1.00  0.00     0.210 HD
ENDBRANCH  22  23
ENDBRANCH  17  22
BRANCH  18  25
ATOM     25  O   UNL     1      -1.733  10.282   4.227  1.00  0.00    -0.385 OA
ATOM     26  H   UNL     1      -1.320  10.618   5.065  1.00  0.00     0.211 HD
ENDBRANCH  18  25
BRANCH  20  27
ATOM     27  O   UNL     1      -2.374  12.113   2.440  1.00  0.00    -0.387 OA
ATOM     28  H   UNL     1      -1.934  13.003   2.467  1.00  0.00     0.211 HD
ENDBRANCH  20  27
BRANCH  21  29
ATOM     29  C   UNL     1      -2.040  10.393  -0.280  1.00  0.00     0.191 C 
BRANCH  29  30
ATOM     30  O   UNL     1      -2.693   9.370  -0.981  1.00  0.00    -0.394 OA
ATOM     31  H   UNL     1      -2.014   8.979  -1.591  1.00  0.00     0.210 HD
ENDBRANCH  29  30
ENDBRANCH  21  29
ENDBRANCH   1  17
TORSDOF 13
ENDMDL
MODEL 8
REMARK VINA RESULT:    -3.870      2.210      6.954
REMARK INTER + INTRA:          -7.424
REMARK INTER:                  -5.922
REMARK INTRA:                  -1.501
REMARK UNBOUND:                -1.518
REMARK SMILES OC[C@H]1O[C@@H](O[C@@]2(CO)O[C@H](CO)[C@@H](O)[C@H]2O)[C@H](O)[C@H](O)[C@@H]1O
REMARK SMILES IDX 6 1 5 2 3 3 22 4 4 5 20 6 18 7 2 8 1 9 23 11 21 13 19 15
REMARK SMILES IDX 7 17 16 18 10 19 14 20 11 21 8 22 9 23 17 25 15 27 12 29
REMARK SMILES IDX 13 30
REMARK H PARENT 1 10 23 12 21 14 19 16 9 24 17 26 15 28 13 31
REMARK Flexibility Score: inf
ROOT
ATOM      1  O   UNL     1       2.212   6.275   3.668  1.00  0.00    -0.313 OA
ENDROOT
BRANCH   1   2
ATOM      2  C   UNL     1       1.247   6.434   2.634  1.00  0.00     0.285 C 
ATOM      3  C   UNL     1       1.942   8.612   1.900  1.00  0.00     0.178 C 
ATOM      4  C   UNL     1       0.679   9.283   2.505  1.00  0.00     0.177 C 
ATOM      5  O   UNL     1       1.751   7.238   1.572  1.00  0.00    -0.341 OA
ATOM      6  C   UNL     1       0.082   8.441   3.643  1.00  0.00     0.179 C 
ATOM      7  C   UNL     1      -0.070   6.971   3.220  1.00  0.00     0.202 C 
BRANCH   3   8
ATOM      8  C   UNL     1       3.214   8.843   2.741  1.00  0.00     0.191 C 
BRANCH   8   9
ATOM      9  O   UNL     1       4.236   7.967   2.342  1.00  0.00    -0.394 OA
ATOM     10  H   UNL     1       3.861   7.048   2.392  1.00  0.00     0.210 HD
ENDBRANCH   8   9
ENDBRANCH   3   8
BRANCH   4  11
ATOM     11  O   UNL     1      -0.286   9.553   1.513  1.00  0.00    -0.387 OA
ATOM     12  H   UNL     1      -0.229  10.513   1.270  1.00  0.00     0.211 HD
ENDBRANCH   4  11
BRANCH   6  13
ATOM     13  O   UNL     1      -1.156   8.979   4.030  1.00  0.00    -0.387 OA
ATOM     14  H   UNL     1      -1.816   8.238   3.989  1.00  0.00     0.211 HD
ENDBRANCH   6  13
BRANCH   7  15
ATOM     15  O   UNL     1      -1.098   6.823   2.272  1.00  0.00    -0.385 OA
ATOM     16  H   UNL     1      -0.670   6.819   1.376  1.00  0.00     0.211 HD
ENDBRANCH   7  15
ENDBRANCH   1   2
BRANCH   1  17
ATOM     17  C   UNL     1       2.858   5.002   3.657  1.00  0.00     0.224 C 
ATOM     18  C   UNL     1       2.813   4.400   5.079  1.00  0.00     0.208 C 
ATOM     19  O   UNL     1       4.221   5.126   3.276  1.00  0.00    -0.337 OA
ATOM     20  C   UNL     1       4.139   3.684   5.172  1.00  0.00     0.180 C 
ATOM     21  C   UNL     1       5.024   4.532   4.271  1.00  0.00     0.179 C 
BRANCH  17  22
ATOM     22  C   UNL     1       2.146   4.044   2.664  1.00  0.00     0.225 C 
BRANCH  22  23
ATOM     23  O   UNL     1       3.038   3.594   1.677  1.00  0.00    -0.391 OA
ATOM     24  H   UNL     1       3.783   3.135   2.143  1.00  0.00     0.210 HD
ENDBRANCH  22  23
ENDBRANCH  17  22
BRANCH  18  25
ATOM     25  O   UNL     1       2.735   5.419   6.045  1.00  0.00    -0.385 OA
ATOM     26  H   UNL     1       1.914   5.250   6.579  1.00  0.00     0.211 HD
ENDBRANCH  18  25
BRANCH  20  27
ATOM     27  O   UNL     1       4.642   3.649   6.483  1.00  0.00    -0.387 OA
ATOM     28  H   UNL     1       5.628   3.743   6.408  1.00  0.00     0.211 HD
ENDBRANCH  20  27
BRANCH  21  29
ATOM     29  C   UNL     1       6.151   3.721   3.622  1.00  0.00     0.191 C 
BRANCH  29  30
ATOM     30  O   UNL     1       5.622   2.761   2.749  1.00  0.00    -0.394 OA
ATOM     31  H   UNL     1       5.256   2.039   3.324  1.00  0.00     0.210 HD
ENDBRANCH  29  30
ENDBRANCH  21  29
ENDBRANCH   1  17
TORSDOF 13
ENDMDL
MODEL 9
REMARK VINA RESULT:    -3.772      2.037      6.369
REMARK INTER + INTRA:          -7.274
REMARK INTER:                  -5.883
REMARK INTRA:                  -1.391
REMARK UNBOUND:                -1.518
REMARK SMILES OC[C@H]1O[C@@H](O[C@@]2(CO)O[C@H](CO)[C@@H](O)[C@H]2O)[C@H](O)[C@H](O)[C@@H]1O
REMARK SMILES IDX 6 1 5 2 3 3 22 4 4 5 20 6 18 7 2 8 1 9 23 11 21 13 19 15
REMARK SMILES IDX 7 17 16 18 10 19 14 20 11 21 8 22 9 23 17 25 15 27 12 29
REMARK SMILES IDX 13 30
REMARK H PARENT 1 10 23 12 21 14 19 16 9 24 17 26 15 28 13 31
REMARK Flexibility Score: inf
ROOT
ATOM      1  O   UNL     1      -0.090   8.077   2.459  1.00  0.00    -0.313 OA
ENDROOT
BRANCH   1   2
ATOM      2  C   UNL     1      -0.024   9.406   2.964  1.00  0.00     0.285 C 
ATOM      3  C   UNL     1      -2.384   9.738   3.257  1.00  0.00     0.178 C 
ATOM      4  C   UNL     1      -2.453  10.724   2.059  1.00  0.00     0.177 C 
ATOM      5  O   UNL     1      -1.096   9.674   3.864  1.00  0.00    -0.341 OA
ATOM      6  C   UNL     1      -1.302  10.491   1.068  1.00  0.00     0.179 C 
ATOM      7  C   UNL     1       0.047  10.409   1.800  1.00  0.00     0.202 C 
BRANCH   3   8
ATOM      8  C   UNL     1      -2.949   8.342   2.928  1.00  0.00     0.191 C 
BRANCH   8   9
ATOM      9  O   UNL     1      -2.756   7.464   4.006  1.00  0.00    -0.394 OA
ATOM     10  H   UNL     1      -2.575   6.568   3.617  1.00  0.00     0.210 HD
ENDBRANCH   8   9
ENDBRANCH   3   8
BRANCH   4  11
ATOM     11  O   UNL     1      -2.483  12.064   2.495  1.00  0.00    -0.387 OA
ATOM     12  H   UNL     1      -3.124  12.138   3.248  1.00  0.00     0.211 HD
ENDBRANCH   4  11
BRANCH   6  13
ATOM     13  O   UNL     1      -1.287  11.516   0.109  1.00  0.00    -0.387 OA
ATOM     14  H   UNL     1      -1.295  11.076  -0.781  1.00  0.00     0.211 HD
ENDBRANCH   6  13
BRANCH   7  15
ATOM     15  O   UNL     1       0.431  11.669   2.292  1.00  0.00    -0.385 OA
ATOM     16  H   UNL     1       1.248  11.939   1.797  1.00  0.00     0.211 HD
ENDBRANCH   7  15
ENDBRANCH   1   2
BRANCH   1  17
ATOM     17  C   UNL     1       0.552   7.114   3.296  1.00  0.00     0.224 C 
ATOM     18  C   UNL     1       1.871   6.666   2.631  1.00  0.00     0.208 C 
ATOM     19  O   UNL     1      -0.266   5.964   3.468  1.00  0.00    -0.337 OA
ATOM     20  C   UNL     1       1.946   5.205   3.005  1.00  0.00     0.180 C 
ATOM     21  C   UNL     1       0.476   4.824   3.098  1.00  0.00     0.179 C 
BRANCH  17  22
ATOM     22  C   UNL     1       0.853   7.726   4.690  1.00  0.00     0.225 C 
BRANCH  22  23
ATOM     23  O   UNL     1      -0.137   7.368   5.619  1.00  0.00    -0.391 OA
ATOM     24  H   UNL     1      -0.971   7.204   5.108  1.00  0.00     0.210 HD
ENDBRANCH  22  23
ENDBRANCH  17  22
BRANCH  18  25
ATOM     25  O   UNL     1       1.796   6.813   1.234  1.00  0.00    -0.385 OA
ATOM     26  H   UNL     1       2.315   7.627   1.000  1.00  0.00     0.211 HD
ENDBRANCH  18  25
BRANCH  20  27
ATOM     27  O   UNL     1       2.606   4.433   2.034  1.00  0.00    -0.387 OA
ATOM     28  H   UNL     1       2.446   3.483   2.275  1.00  0.00     0.211 HD
ENDBRANCH  20  27
BRANCH  21  29
ATOM     29  C   UNL     1       0.226   3.687   4.094  1.00  0.00     0.191 C 
BRANCH  29  30
ATOM     30  O   UNL     1       0.746   2.482   3.603  1.00  0.00    -0.394 OA
ATOM     31  H   UNL     1      -0.037   1.929   3.348  1.00  0.00     0.210 HD
ENDBRANCH  29  30
ENDBRANCH  21  29
ENDBRANCH   1  17
TORSDOF 13
ENDMDL
