MODEL 1
REMARK VINA RESULT:    -3.753      0.000      0.000
REMARK INTER + INTRA:          -5.445
REMARK INTER:                  -5.069
REMARK INTRA:                  -0.376
REMARK UNBOUND:                -0.376
REMARK SMILES CCCCCCCC(=O)[O-]
REMARK SMILES IDX 5 1 6 2 7 3 8 4 9 5 10 6 4 7 3 8 2 9 1 10
REMARK H PARENT
REMARK Flexibility Score: inf
ROOT
ATOM      1  C   UNL     1      -8.219 -12.545  16.540  1.00  0.00     0.000 C 
ENDROOT
BRANCH   1   2
ATOM      2  C   UNL     1      -9.719 -12.429  16.214  1.00  0.00     0.006 C 
BRANCH   2   3
ATOM      3  C   UNL     1     -10.027 -12.174  14.729  1.00  0.00     0.053 C 
BRANCH   3   4
ATOM      4  C   UNL     1     -11.091 -11.137  14.545  1.00  0.00     0.041 C 
ATOM      5  O   UNL     1     -12.013 -11.017  15.394  1.00  0.00    -0.550 OA
ATOM      6  O   UNL     1     -11.045 -10.278  13.454  1.00  0.00    -0.550 OA
ENDBRANCH   3   4
ENDBRANCH   2   3
ENDBRANCH   1   2
BRANCH   1   7
ATOM      7  C   UNL     1      -7.816 -13.953  17.002  1.00  0.00     0.000 C 
BRANCH   7   8
ATOM      8  C   UNL     1      -8.264 -15.013  15.985  1.00  0.00    -0.000 C 
BRANCH   8   9
ATOM      9  C   UNL     1      -7.507 -14.908  14.651  1.00  0.00    -0.003 C 
ATOM     10  C   UNL     1      -8.359 -15.331  13.454  1.00  0.00     0.004 C 
ENDBRANCH   8   9
ENDBRANCH   7   8
ENDBRANCH   1   7
TORSDOF 6
ENDMDL
MODEL 2
REMARK VINA RESULT:    -3.644      3.432      4.077
REMARK INTER + INTRA:          -5.298
REMARK INTER:                  -5.009
REMARK INTRA:                  -0.289
REMARK UNBOUND:                -0.376
REMARK SMILES CCCCCCCC(=O)[O-]
REMARK SMILES IDX 5 1 6 2 7 3 8 4 9 5 10 6 4 7 3 8 2 9 1 10
REMARK H PARENT
REMARK Flexibility Score: inf
ROOT
ATOM      1  C   UNL     1      -8.970 -12.515  15.172  1.00  0.00     0.000 C 
ENDROOT
BRANCH   1   2
ATOM      2  C   UNL     1      -8.708 -12.551  16.689  1.00  0.00     0.006 C 
BRANCH   2   3
ATOM      3  C   UNL     1      -9.094 -13.875  17.368  1.00  0.00     0.053 C 
BRANCH   3   4
ATOM      4  C   UNL     1      -7.894 -14.648  17.819  1.00  0.00     0.041 C 
ATOM      5  O   UNL     1      -7.047 -14.114  18.582  1.00  0.00    -0.550 OA
ATOM      6  O   UNL     1      -7.728 -15.970  17.424  1.00  0.00    -0.550 OA
ENDBRANCH   3   4
ENDBRANCH   2   3
ENDBRANCH   1   2
BRANCH   1   7
ATOM      7  C   UNL     1      -8.875 -13.902  14.519  1.00  0.00     0.000 C 
BRANCH   7   8
ATOM      8  C   UNL     1      -7.423 -14.233  14.142  1.00  0.00    -0.000 C 
BRANCH   8   9
ATOM      9  C   UNL     1      -7.277 -15.632  13.521  1.00  0.00    -0.003 C 
ATOM     10  C   UNL     1      -8.498 -16.043  12.700  1.00  0.00     0.004 C 
ENDBRANCH   8   9
ENDBRANCH   7   8
ENDBRANCH   1   7
TORSDOF 6
ENDMDL
MODEL 3
REMARK VINA RESULT:    -3.518     12.283     13.677
REMARK INTER + INTRA:          -5.127
REMARK INTER:                  -4.815
REMARK INTRA:                  -0.312
REMARK UNBOUND:                -0.376
REMARK SMILES CCCCCCCC(=O)[O-]
REMARK SMILES IDX 5 1 6 2 7 3 8 4 9 5 10 6 4 7 3 8 2 9 1 10
REMARK H PARENT
REMARK Flexibility Score: inf
ROOT
ATOM      1  C   UNL     1     -12.530  -8.450  24.943  1.00  0.00     0.000 C 
ENDROOT
BRANCH   1   2
ATOM      2  C   UNL     1     -11.711  -8.584  26.240  1.00  0.00     0.006 C 
BRANCH   2   3
ATOM      3  C   UNL     1     -12.512  -8.319  27.526  1.00  0.00     0.053 C 
BRANCH   3   4
ATOM      4  C   UNL     1     -11.656  -8.412  28.751  1.00  0.00     0.041 C 
ATOM      5  O   UNL     1     -11.277  -9.535  29.175  1.00  0.00    -0.550 OA
ATOM      6  O   UNL     1     -11.249  -7.256  29.405  1.00  0.00    -0.550 OA
ENDBRANCH   3   4
ENDBRANCH   2   3
ENDBRANCH   1   2
BRANCH   1   7
ATOM      7  C   UNL     1     -12.445  -7.046  24.327  1.00  0.00     0.000 C 
BRANCH   7   8
ATOM      8  C   UNL     1     -13.789  -6.638  23.705  1.00  0.00    -0.000 C 
BRANCH   8   9
ATOM      9  C   UNL     1     -14.562  -5.634  24.575  1.00  0.00    -0.003 C 
ATOM     10  C   UNL     1     -15.718  -6.280  25.337  1.00  0.00     0.004 C 
ENDBRANCH   8   9
ENDBRANCH   7   8
ENDBRANCH   1   7
TORSDOF 6
ENDMDL
MODEL 4
REMARK VINA RESULT:    -3.510     13.315     14.958
REMARK INTER + INTRA:          -5.117
REMARK INTER:                  -4.904
REMARK INTRA:                  -0.213
REMARK UNBOUND:                -0.376
REMARK SMILES CCCCCCCC(=O)[O-]
REMARK SMILES IDX 5 1 6 2 7 3 8 4 9 5 10 6 4 7 3 8 2 9 1 10
REMARK H PARENT
REMARK Flexibility Score: inf
ROOT
ATOM      1  C   UNL     1      -0.673 -17.210  26.993  1.00  0.00     0.000 C 
ENDROOT
BRANCH   1   2
ATOM      2  C   UNL     1      -2.088 -16.879  26.485  1.00  0.00     0.006 C 
BRANCH   2   3
ATOM      3  C   UNL     1      -2.362 -15.376  26.308  1.00  0.00     0.053 C 
BRANCH   3   4
ATOM      4  C   UNL     1      -3.519 -15.119  25.392  1.00  0.00     0.041 C 
ATOM      5  O   UNL     1      -4.637 -15.649  25.621  1.00  0.00    -0.550 OA
ATOM      6  O   UNL     1      -3.370 -14.266  24.305  1.00  0.00    -0.550 OA
ENDBRANCH   3   4
ENDBRANCH   2   3
ENDBRANCH   1   2
BRANCH   1   7
ATOM      7  C   UNL     1      -0.648 -17.587  28.482  1.00  0.00     0.000 C 
BRANCH   7   8
ATOM      8  C   UNL     1       0.637 -17.079  29.154  1.00  0.00    -0.000 C 
BRANCH   8   9
ATOM      9  C   UNL     1       1.882 -17.275  28.274  1.00  0.00    -0.003 C 
ATOM     10  C   UNL     1       2.744 -18.452  28.724  1.00  0.00     0.004 C 
ENDBRANCH   8   9
ENDBRANCH   7   8
ENDBRANCH   1   7
TORSDOF 6
ENDMDL
MODEL 5
REMARK VINA RESULT:    -3.454     13.226     14.588
REMARK INTER + INTRA:          -5.041
REMARK INTER:                  -4.608
REMARK INTRA:                  -0.433
REMARK UNBOUND:                -0.376
REMARK SMILES CCCCCCCC(=O)[O-]
REMARK SMILES IDX 5 1 6 2 7 3 8 4 9 5 10 6 4 7 3 8 2 9 1 10
REMARK H PARENT
REMARK Flexibility Score: inf
ROOT
ATOM      1  C   UNL     1     -11.208  -9.641  27.378  1.00  0.00     0.000 C 
ENDROOT
BRANCH   1   2
ATOM      2  C   UNL     1     -11.522  -9.172  28.811  1.00  0.00     0.006 C 
BRANCH   2   3
ATOM      3  C   UNL     1     -11.494  -7.646  28.998  1.00  0.00     0.053 C 
BRANCH   3   4
ATOM      4  C   UNL     1     -11.372  -7.258  30.440  1.00  0.00     0.041 C 
ATOM      5  O   UNL     1     -11.373  -6.044  30.771  1.00  0.00    -0.550 OA
ATOM      6  O   UNL     1     -11.291  -8.240  31.420  1.00  0.00    -0.550 OA
ENDBRANCH   3   4
ENDBRANCH   2   3
ENDBRANCH   1   2
BRANCH   1   7
ATOM      7  C   UNL     1     -11.517  -8.571  26.320  1.00  0.00     0.000 C 
BRANCH   7   8
ATOM      8  C   UNL     1     -12.609  -9.055  25.354  1.00  0.00    -0.000 C 
BRANCH   8   9
ATOM      9  C   UNL     1     -13.854  -8.154  25.370  1.00  0.00    -0.003 C 
ATOM     10  C   UNL     1     -14.580  -8.174  26.714  1.00  0.00     0.004 C 
ENDBRANCH   8   9
ENDBRANCH   7   8
ENDBRANCH   1   7
TORSDOF 6
ENDMDL
MODEL 6
REMARK VINA RESULT:    -3.445      2.938      4.805
REMARK INTER + INTRA:          -5.029
REMARK INTER:                  -4.713
REMARK INTRA:                  -0.316
REMARK UNBOUND:                -0.376
REMARK SMILES CCCCCCCC(=O)[O-]
REMARK SMILES IDX 5 1 6 2 7 3 8 4 9 5 10 6 4 7 3 8 2 9 1 10
REMARK H PARENT
REMARK Flexibility Score: inf
ROOT
ATOM      1  C   UNL     1      -8.242 -12.798  14.854  1.00  0.00     0.000 C 
ENDROOT
BRANCH   1   2
ATOM      2  C   UNL     1      -7.471 -14.113  15.063  1.00  0.00     0.006 C 
BRANCH   2   3
ATOM      3  C   UNL     1      -8.059 -15.028  16.150  1.00  0.00     0.053 C 
BRANCH   3   4
ATOM      4  C   UNL     1      -7.995 -14.400  17.509  1.00  0.00     0.041 C 
ATOM      5  O   UNL     1      -6.941 -13.831  17.895  1.00  0.00    -0.550 OA
ATOM      6  O   UNL     1      -9.112 -14.413  18.335  1.00  0.00    -0.550 OA
ENDBRANCH   3   4
ENDBRANCH   2   3
ENDBRANCH   1   2
BRANCH   1   7
ATOM      7  C   UNL     1      -9.752 -13.015  14.667  1.00  0.00     0.000 C 
BRANCH   7   8
ATOM      8  C   UNL     1     -10.478 -11.676  14.470  1.00  0.00    -0.000 C 
BRANCH   8   9
ATOM      9  C   UNL     1     -11.511 -11.396  15.574  1.00  0.00    -0.003 C 
ATOM     10  C   UNL     1     -10.922 -11.521  16.979  1.00  0.00     0.004 C 
ENDBRANCH   8   9
ENDBRANCH   7   8
ENDBRANCH   1   7
TORSDOF 6
ENDMDL
MODEL 7
REMARK VINA RESULT:    -3.427      1.349      2.433
REMARK INTER + INTRA:          -5.005
REMARK INTER:                  -4.592
REMARK INTRA:                  -0.413
REMARK UNBOUND:                -0.376
REMARK SMILES CCCCCCCC(=O)[O-]
REMARK SMILES IDX 5 1 6 2 7 3 8 4 9 5 10 6 4 7 3 8 2 9 1 10
REMARK H PARENT
REMARK Flexibility Score: inf
ROOT
ATOM      1  C   UNL     1      -8.567 -12.595  14.867  1.00  0.00     0.000 C 
ENDROOT
BRANCH   1   2
ATOM      2  C   UNL     1     -10.073 -12.292  14.965  1.00  0.00     0.006 C 
BRANCH   2   3
ATOM      3  C   UNL     1     -10.599 -12.150  16.404  1.00  0.00     0.053 C 
BRANCH   3   4
ATOM      4  C   UNL     1     -11.664 -11.103  16.514  1.00  0.00     0.041 C 
ATOM      5  O   UNL     1     -11.669 -10.305  17.487  1.00  0.00    -0.550 OA
ATOM      6  O   UNL     1     -12.630 -10.987  15.522  1.00  0.00    -0.550 OA
ENDBRANCH   3   4
ENDBRANCH   2   3
ENDBRANCH   1   2
BRANCH   1   7
ATOM      7  C   UNL     1      -8.278 -14.031  14.405  1.00  0.00     0.000 C 
BRANCH   7   8
ATOM      8  C   UNL     1      -7.979 -14.943  15.605  1.00  0.00    -0.000 C 
BRANCH   8   9
ATOM      9  C   UNL     1      -7.567 -14.154  16.858  1.00  0.00    -0.003 C 
ATOM     10  C   UNL     1      -8.265 -14.650  18.124  1.00  0.00     0.004 C 
ENDBRANCH   8   9
ENDBRANCH   7   8
ENDBRANCH   1   7
TORSDOF 6
ENDMDL
MODEL 8
REMARK VINA RESULT:    -3.404      1.844      2.633
REMARK INTER + INTRA:          -4.974
REMARK INTER:                  -4.686
REMARK INTRA:                  -0.288
REMARK UNBOUND:                -0.376
REMARK SMILES CCCCCCCC(=O)[O-]
REMARK SMILES IDX 5 1 6 2 7 3 8 4 9 5 10 6 4 7 3 8 2 9 1 10
REMARK H PARENT
REMARK Flexibility Score: inf
ROOT
ATOM      1  C   UNL     1      -7.928 -15.484  17.227  1.00  0.00     0.000 C 
ENDROOT
BRANCH   1   2
ATOM      2  C   UNL     1      -8.643 -14.400  18.055  1.00  0.00     0.006 C 
BRANCH   2   3
ATOM      3  C   UNL     1      -9.970 -13.913  17.450  1.00  0.00     0.053 C 
BRANCH   3   4
ATOM      4  C   UNL     1      -9.828 -12.583  16.778  1.00  0.00     0.041 C 
ATOM      5  O   UNL     1     -10.851 -11.928  16.447  1.00  0.00    -0.550 OA
ATOM      6  O   UNL     1      -8.566 -12.049  16.549  1.00  0.00    -0.550 OA
ENDBRANCH   3   4
ENDBRANCH   2   3
ENDBRANCH   1   2
BRANCH   1   7
ATOM      7  C   UNL     1      -8.549 -15.678  15.836  1.00  0.00     0.000 C 
BRANCH   7   8
ATOM      8  C   UNL     1      -7.704 -14.983  14.757  1.00  0.00    -0.000 C 
BRANCH   8   9
ATOM      9  C   UNL     1      -8.470 -14.792  13.438  1.00  0.00    -0.003 C 
ATOM     10  C   UNL     1      -8.520 -16.064  12.594  1.00  0.00     0.004 C 
ENDBRANCH   8   9
ENDBRANCH   7   8
ENDBRANCH   1   7
TORSDOF 6
ENDMDL
MODEL 9
REMARK VINA RESULT:    -3.366     14.200     15.876
REMARK INTER + INTRA:          -4.923
REMARK INTER:                  -4.642
REMARK INTRA:                  -0.281
REMARK UNBOUND:                -0.376
REMARK SMILES CCCCCCCC(=O)[O-]
REMARK SMILES IDX 5 1 6 2 7 3 8 4 9 5 10 6 4 7 3 8 2 9 1 10
REMARK H PARENT
REMARK Flexibility Score: inf
ROOT
ATOM      1  C   UNL     1      -1.600 -17.610  28.845  1.00  0.00     0.000 C 
ENDROOT
BRANCH   1   2
ATOM      2  C   UNL     1      -1.940 -17.807  27.356  1.00  0.00     0.006 C 
BRANCH   2   3
ATOM      3  C   UNL     1      -1.651 -16.582  26.473  1.00  0.00     0.053 C 
BRANCH   3   4
ATOM      4  C   UNL     1      -2.819 -15.648  26.406  1.00  0.00     0.041 C 
ATOM      5  O   UNL     1      -2.648 -14.443  26.084  1.00  0.00    -0.550 OA
ATOM      6  O   UNL     1      -4.101 -16.116  26.667  1.00  0.00    -0.550 OA
ENDBRANCH   3   4
ENDBRANCH   2   3
ENDBRANCH   1   2
BRANCH   1   7
ATOM      7  C   UNL     1      -0.203 -17.012  29.064  1.00  0.00     0.000 C 
BRANCH   7   8
ATOM      8  C   UNL     1       0.856 -18.119  29.178  1.00  0.00    -0.000 C 
BRANCH   8   9
ATOM      9  C   UNL     1       2.202 -17.718  28.553  1.00  0.00    -0.003 C 
ATOM     10  C   UNL     1       3.301 -18.749  28.804  1.00  0.00     0.004 C 
ENDBRANCH   8   9
ENDBRANCH   7   8
ENDBRANCH   1   7
TORSDOF 6
ENDMDL
