MODEL 1
REMARK VINA RESULT:    -4.961      0.000      0.000
REMARK INTER + INTRA:          -4.961
REMARK INTER:                  -4.961
REMARK INTRA:                   0.000
REMARK UNBOUND:                 0.000
REMARK SMILES CC1=CC[C@]23C[C@H]1C(C)(C)[C@H]2CC[C@@H]3C
REMARK SMILES IDX 15 1 14 2 13 3 12 4 11 5 5 6 4 7 3 8 2 9 7 10 6 11 8 12 9 13
REMARK SMILES IDX 10 14 1 15
REMARK H PARENT
REMARK Flexibility Score: inf
ROOT
ATOM      1  C   UNL     1      11.508   7.497  15.956  1.00  0.00     0.008 C 
ATOM      2  C   UNL     1      11.853   6.648  17.187  1.00  0.00    -0.007 C 
ATOM      3  C   UNL     1      10.875   5.482  17.347  1.00  0.00     0.004 C 
ATOM      4  C   UNL     1      11.632   4.443  18.153  1.00  0.00     0.005 C 
ATOM      5  C   UNL     1      13.069   4.529  17.622  1.00  0.00     0.002 C 
ATOM      6  C   UNL     1      13.276   6.005  17.213  1.00  0.00    -0.020 C 
ATOM      7  C   UNL     1      14.087   6.086  15.875  1.00  0.00     0.035 C 
ATOM      8  C   UNL     1      15.527   5.628  16.043  1.00  0.00    -0.027 C 
ATOM      9  C   UNL     1      16.064   5.399  17.264  1.00  0.00    -0.074 C 
ATOM     10  C   UNL     1      15.168   5.422  18.504  1.00  0.00     0.021 C 
ATOM     11  C   UNL     1      14.170   6.566  18.327  1.00  0.00     0.016 C 
ATOM     12  C   UNL     1      14.253   4.163  18.586  1.00  0.00    -0.025 C 
ATOM     13  C   UNL     1      14.962   2.868  18.112  1.00  0.00     0.012 C 
ATOM     14  C   UNL     1      13.833   3.931  20.061  1.00  0.00     0.012 C 
ATOM     15  C   UNL     1      17.526   5.071  17.388  1.00  0.00     0.039 C 
ENDROOT
TORSDOF 0
ENDMDL
MODEL 2
REMARK VINA RESULT:    -4.908      1.162      3.003
REMARK INTER + INTRA:          -4.908
REMARK INTER:                  -4.908
REMARK INTRA:                   0.000
REMARK UNBOUND:                 0.000
REMARK SMILES CC1=CC[C@]23C[C@H]1C(C)(C)[C@H]2CC[C@@H]3C
REMARK SMILES IDX 15 1 14 2 13 3 12 4 11 5 5 6 4 7 3 8 2 9 7 10 6 11 8 12 9 13
REMARK SMILES IDX 10 14 1 15
REMARK H PARENT
REMARK Flexibility Score: inf
ROOT
ATOM      1  C   UNL     1      10.876   6.115  16.173  1.00  0.00     0.008 C 
ATOM      2  C   UNL     1      12.374   6.426  16.053  1.00  0.00    -0.007 C 
ATOM      3  C   UNL     1      12.683   7.853  16.510  1.00  0.00     0.004 C 
ATOM      4  C   UNL     1      14.145   7.829  16.911  1.00  0.00     0.005 C 
ATOM      5  C   UNL     1      14.330   6.461  17.581  1.00  0.00     0.002 C 
ATOM      6  C   UNL     1      13.343   5.510  16.865  1.00  0.00    -0.020 C 
ATOM      7  C   UNL     1      12.668   4.551  17.904  1.00  0.00     0.035 C 
ATOM      8  C   UNL     1      13.652   3.555  18.497  1.00  0.00    -0.027 C 
ATOM      9  C   UNL     1      14.900   3.402  17.995  1.00  0.00    -0.074 C 
ATOM     10  C   UNL     1      15.412   4.368  16.925  1.00  0.00     0.021 C 
ATOM     11  C   UNL     1      14.252   4.653  15.973  1.00  0.00     0.016 C 
ATOM     12  C   UNL     1      15.739   5.773  17.517  1.00  0.00    -0.025 C 
ATOM     13  C   UNL     1      16.376   5.702  18.929  1.00  0.00     0.012 C 
ATOM     14  C   UNL     1      16.763   6.488  16.597  1.00  0.00     0.012 C 
ATOM     15  C   UNL     1      15.792   2.317  18.532  1.00  0.00     0.039 C 
ENDROOT
TORSDOF 0
ENDMDL
MODEL 3
REMARK VINA RESULT:    -4.857      1.341      3.289
REMARK INTER + INTRA:          -4.857
REMARK INTER:                  -4.857
REMARK INTRA:                   0.000
REMARK UNBOUND:                 0.000
REMARK SMILES CC1=CC[C@]23C[C@H]1C(C)(C)[C@H]2CC[C@@H]3C
REMARK SMILES IDX 15 1 14 2 13 3 12 4 11 5 5 6 4 7 3 8 2 9 7 10 6 11 8 12 9 13
REMARK SMILES IDX 10 14 1 15
REMARK H PARENT
REMARK Flexibility Score: inf
ROOT
ATOM      1  C   UNL     1      10.875   8.235  17.860  1.00  0.00     0.008 C 
ATOM      2  C   UNL     1      11.757   7.168  17.196  1.00  0.00    -0.007 C 
ATOM      3  C   UNL     1      12.890   7.808  16.391  1.00  0.00     0.004 C 
ATOM      4  C   UNL     1      13.967   6.743  16.317  1.00  0.00     0.005 C 
ATOM      5  C   UNL     1      13.924   6.067  17.694  1.00  0.00     0.002 C 
ATOM      6  C   UNL     1      12.449   6.146  18.151  1.00  0.00    -0.020 C 
ATOM      7  C   UNL     1      12.376   6.479  19.680  1.00  0.00     0.035 C 
ATOM      8  C   UNL     1      12.887   5.339  20.547  1.00  0.00    -0.027 C 
ATOM      9  C   UNL     1      13.154   4.117  20.030  1.00  0.00    -0.074 C 
ATOM     10  C   UNL     1      13.120   3.908  18.515  1.00  0.00     0.021 C 
ATOM     11  C   UNL     1      11.939   4.710  17.969  1.00  0.00     0.016 C 
ATOM     12  C   UNL     1      14.347   4.560  17.808  1.00  0.00    -0.025 C 
ATOM     13  C   UNL     1      15.658   4.422  18.625  1.00  0.00     0.012 C 
ATOM     14  C   UNL     1      14.588   3.854  16.448  1.00  0.00     0.012 C 
ATOM     15  C   UNL     1      13.536   2.986  20.945  1.00  0.00     0.039 C 
ENDROOT
TORSDOF 0
ENDMDL
MODEL 4
REMARK VINA RESULT:    -4.762      1.445      4.217
REMARK INTER + INTRA:          -4.762
REMARK INTER:                  -4.762
REMARK INTRA:                   0.000
REMARK UNBOUND:                 0.000
REMARK SMILES CC1=CC[C@]23C[C@H]1C(C)(C)[C@H]2CC[C@@H]3C
REMARK SMILES IDX 15 1 14 2 13 3 12 4 11 5 5 6 4 7 3 8 2 9 7 10 6 11 8 12 9 13
REMARK SMILES IDX 10 14 1 15
REMARK H PARENT
REMARK Flexibility Score: inf
ROOT
ATOM      1  C   UNL     1      15.410   2.630  18.109  1.00  0.00     0.008 C 
ATOM      2  C   UNL     1      14.465   3.460  18.988  1.00  0.00    -0.007 C 
ATOM      3  C   UNL     1      15.230   4.178  20.102  1.00  0.00     0.004 C 
ATOM      4  C   UNL     1      14.359   5.361  20.476  1.00  0.00     0.005 C 
ATOM      5  C   UNL     1      13.779   5.840  19.139  1.00  0.00     0.002 C 
ATOM      6  C   UNL     1      13.639   4.571  18.267  1.00  0.00    -0.020 C 
ATOM      7  C   UNL     1      14.056   4.884  16.789  1.00  0.00     0.035 C 
ATOM      8  C   UNL     1      13.078   5.820  16.097  1.00  0.00    -0.027 C 
ATOM      9  C   UNL     1      11.887   6.142  16.652  1.00  0.00    -0.074 C 
ATOM     10  C   UNL     1      11.575   5.710  18.086  1.00  0.00     0.021 C 
ATOM     11  C   UNL     1      12.129   4.297  18.269  1.00  0.00     0.016 C 
ATOM     12  C   UNL     1      12.375   6.542  19.134  1.00  0.00    -0.025 C 
ATOM     13  C   UNL     1      12.514   8.036  18.740  1.00  0.00     0.012 C 
ATOM     14  C   UNL     1      11.631   6.504  20.494  1.00  0.00     0.012 C 
ATOM     15  C   UNL     1      10.900   6.969  15.875  1.00  0.00     0.039 C 
ENDROOT
TORSDOF 0
ENDMDL
MODEL 5
REMARK VINA RESULT:    -4.665      1.709      4.381
REMARK INTER + INTRA:          -4.665
REMARK INTER:                  -4.665
REMARK INTRA:                   0.000
REMARK UNBOUND:                 0.000
REMARK SMILES CC1=CC[C@]23C[C@H]1C(C)(C)[C@H]2CC[C@@H]3C
REMARK SMILES IDX 15 1 14 2 13 3 12 4 11 5 5 6 4 7 3 8 2 9 7 10 6 11 8 12 9 13
REMARK SMILES IDX 10 14 1 15
REMARK H PARENT
REMARK Flexibility Score: inf
ROOT
ATOM      1  C   UNL     1      12.851   5.225  21.795  1.00  0.00     0.008 C 
ATOM      2  C   UNL     1      13.383   5.166  20.356  1.00  0.00    -0.007 C 
ATOM      3  C   UNL     1      13.143   3.789  19.733  1.00  0.00     0.004 C 
ATOM      4  C   UNL     1      13.136   4.033  18.236  1.00  0.00     0.005 C 
ATOM      5  C   UNL     1      12.424   5.384  18.077  1.00  0.00     0.002 C 
ATOM      6  C   UNL     1      12.777   6.192  19.347  1.00  0.00    -0.020 C 
ATOM      7  C   UNL     1      11.521   6.984  19.848  1.00  0.00     0.035 C 
ATOM      8  C   UNL     1      11.123   8.100  18.895  1.00  0.00    -0.027 C 
ATOM      9  C   UNL     1      11.917   8.474  17.865  1.00  0.00    -0.074 C 
ATOM     10  C   UNL     1      13.160   7.650  17.527  1.00  0.00     0.021 C 
ATOM     11  C   UNL     1      13.799   7.221  18.847  1.00  0.00     0.016 C 
ATOM     12  C   UNL     1      12.795   6.292  16.852  1.00  0.00    -0.025 C 
ATOM     13  C   UNL     1      11.597   6.406  15.875  1.00  0.00     0.012 C 
ATOM     14  C   UNL     1      14.006   5.792  16.022  1.00  0.00     0.012 C 
ATOM     15  C   UNL     1      11.542   9.665  17.027  1.00  0.00     0.039 C 
ENDROOT
TORSDOF 0
ENDMDL
MODEL 6
REMARK VINA RESULT:    -4.583      1.431      3.916
REMARK INTER + INTRA:          -4.583
REMARK INTER:                  -4.583
REMARK INTRA:                   0.000
REMARK UNBOUND:                 0.000
REMARK SMILES CC1=CC[C@]23C[C@H]1C(C)(C)[C@H]2CC[C@@H]3C
REMARK SMILES IDX 15 1 14 2 13 3 12 4 11 5 5 6 4 7 3 8 2 9 7 10 6 11 8 12 9 13
REMARK SMILES IDX 10 14 1 15
REMARK H PARENT
REMARK Flexibility Score: inf
ROOT
ATOM      1  C   UNL     1      16.405   3.872  17.905  1.00  0.00     0.008 C 
ATOM      2  C   UNL     1      14.914   4.014  17.568  1.00  0.00    -0.007 C 
ATOM      3  C   UNL     1      14.037   3.442  18.684  1.00  0.00     0.004 C 
ATOM      4  C   UNL     1      12.705   4.154  18.539  1.00  0.00     0.005 C 
ATOM      5  C   UNL     1      13.085   5.588  18.149  1.00  0.00     0.002 C 
ATOM      6  C   UNL     1      14.391   5.466  17.329  1.00  0.00    -0.020 C 
ATOM      7  C   UNL     1      15.378   6.621  17.711  1.00  0.00     0.035 C 
ATOM      8  C   UNL     1      14.878   7.983  17.257  1.00  0.00    -0.027 C 
ATOM      9  C   UNL     1      13.814   8.112  16.430  1.00  0.00    -0.074 C 
ATOM     10  C   UNL     1      12.974   6.884  16.077  1.00  0.00     0.021 C 
ATOM     11  C   UNL     1      13.934   5.711  15.885  1.00  0.00     0.016 C 
ATOM     12  C   UNL     1      12.085   6.422  17.273  1.00  0.00    -0.025 C 
ATOM     13  C   UNL     1      11.504   7.607  18.087  1.00  0.00     0.012 C 
ATOM     14  C   UNL     1      10.877   5.615  16.730  1.00  0.00     0.012 C 
ATOM     15  C   UNL     1      13.435   9.470  15.907  1.00  0.00     0.039 C 
ENDROOT
TORSDOF 0
ENDMDL
MODEL 7
REMARK VINA RESULT:    -4.575      1.907      3.831
REMARK INTER + INTRA:          -4.575
REMARK INTER:                  -4.575
REMARK INTRA:                   0.000
REMARK UNBOUND:                 0.000
REMARK SMILES CC1=CC[C@]23C[C@H]1C(C)(C)[C@H]2CC[C@@H]3C
REMARK SMILES IDX 15 1 14 2 13 3 12 4 11 5 5 6 4 7 3 8 2 9 7 10 6 11 8 12 9 13
REMARK SMILES IDX 10 14 1 15
REMARK H PARENT
REMARK Flexibility Score: inf
ROOT
ATOM      1  C   UNL     1      12.053   5.844  21.752  1.00  0.00     0.008 C 
ATOM      2  C   UNL     1      11.627   6.413  20.392  1.00  0.00    -0.007 C 
ATOM      3  C   UNL     1      11.623   7.943  20.407  1.00  0.00     0.004 C 
ATOM      4  C   UNL     1      11.790   8.350  18.955  1.00  0.00     0.005 C 
ATOM      5  C   UNL     1      12.774   7.319  18.386  1.00  0.00     0.002 C 
ATOM      6  C   UNL     1      12.503   6.011  19.164  1.00  0.00    -0.020 C 
ATOM      7  C   UNL     1      13.855   5.290  19.494  1.00  0.00     0.035 C 
ATOM      8  C   UNL     1      14.542   4.750  18.250  1.00  0.00    -0.027 C 
ATOM      9  C   UNL     1      13.920   4.720  17.049  1.00  0.00    -0.074 C 
ATOM     10  C   UNL     1      12.561   5.403  16.880  1.00  0.00     0.021 C 
ATOM     11  C   UNL     1      11.754   5.137  18.149  1.00  0.00     0.016 C 
ATOM     12  C   UNL     1      12.688   6.957  16.861  1.00  0.00    -0.025 C 
ATOM     13  C   UNL     1      13.953   7.452  16.112  1.00  0.00     0.012 C 
ATOM     14  C   UNL     1      11.465   7.561  16.123  1.00  0.00     0.012 C 
ATOM     15  C   UNL     1      14.592   4.062  15.875  1.00  0.00     0.039 C 
ENDROOT
TORSDOF 0
ENDMDL
MODEL 8
REMARK VINA RESULT:    -4.349      1.753      4.337
REMARK INTER + INTRA:          -4.349
REMARK INTER:                  -4.349
REMARK INTRA:                   0.000
REMARK UNBOUND:                 0.000
REMARK SMILES CC1=CC[C@]23C[C@H]1C(C)(C)[C@H]2CC[C@@H]3C
REMARK SMILES IDX 15 1 14 2 13 3 12 4 11 5 5 6 4 7 3 8 2 9 7 10 6 11 8 12 9 13
REMARK SMILES IDX 10 14 1 15
REMARK H PARENT
REMARK Flexibility Score: inf
ROOT
ATOM      1  C   UNL     1      16.802   6.604  16.845  1.00  0.00     0.008 C 
ATOM      2  C   UNL     1      15.369   6.453  16.314  1.00  0.00    -0.007 C 
ATOM      3  C   UNL     1      15.056   4.996  15.970  1.00  0.00     0.004 C 
ATOM      4  C   UNL     1      13.545   4.890  16.054  1.00  0.00     0.005 C 
ATOM      5  C   UNL     1      13.171   5.779  17.247  1.00  0.00     0.002 C 
ATOM      6  C   UNL     1      14.222   6.913  17.268  1.00  0.00    -0.020 C 
ATOM      7  C   UNL     1      14.644   7.229  18.743  1.00  0.00     0.035 C 
ATOM      8  C   UNL     1      13.518   7.864  19.544  1.00  0.00    -0.027 C 
ATOM      9  C   UNL     1      12.377   8.291  18.953  1.00  0.00    -0.074 C 
ATOM     10  C   UNL     1      12.121   7.976  17.479  1.00  0.00     0.021 C 
ATOM     11  C   UNL     1      13.450   8.130  16.740  1.00  0.00     0.016 C 
ATOM     12  C   UNL     1      11.764   6.475  17.257  1.00  0.00    -0.025 C 
ATOM     13  C   UNL     1      10.875   5.891  18.386  1.00  0.00     0.012 C 
ATOM     14  C   UNL     1      10.964   6.330  15.936  1.00  0.00     0.012 C 
ATOM     15  C   UNL     1      11.346   9.027  19.765  1.00  0.00     0.039 C 
ENDROOT
TORSDOF 0
ENDMDL
MODEL 9
REMARK VINA RESULT:    -3.527      1.267      4.041
REMARK INTER + INTRA:          -3.527
REMARK INTER:                  -3.527
REMARK INTRA:                   0.000
REMARK UNBOUND:                 0.000
REMARK SMILES CC1=CC[C@]23C[C@H]1C(C)(C)[C@H]2CC[C@@H]3C
REMARK SMILES IDX 15 1 14 2 13 3 12 4 11 5 5 6 4 7 3 8 2 9 7 10 6 11 8 12 9 13
REMARK SMILES IDX 10 14 1 15
REMARK H PARENT
REMARK Flexibility Score: inf
ROOT
ATOM      1  C   UNL     1      17.891   5.258  16.269  1.00  0.00     0.008 C 
ATOM      2  C   UNL     1      16.588   4.670  16.829  1.00  0.00    -0.007 C 
ATOM      3  C   UNL     1      16.758   4.234  18.286  1.00  0.00     0.004 C 
ATOM      4  C   UNL     1      15.358   4.259  18.868  1.00  0.00     0.005 C 
ATOM      5  C   UNL     1      14.703   5.487  18.221  1.00  0.00     0.002 C 
ATOM      6  C   UNL     1      15.340   5.608  16.818  1.00  0.00    -0.020 C 
ATOM      7  C   UNL     1      15.618   7.112  16.480  1.00  0.00     0.035 C 
ATOM      8  C   UNL     1      14.337   7.909  16.285  1.00  0.00    -0.027 C 
ATOM      9  C   UNL     1      13.129   7.304  16.203  1.00  0.00    -0.074 C 
ATOM     10  C   UNL     1      13.008   5.806  16.487  1.00  0.00     0.021 C 
ATOM     11  C   UNL     1      14.231   5.123  15.875  1.00  0.00     0.016 C 
ATOM     12  C   UNL     1      13.148   5.487  18.007  1.00  0.00    -0.025 C 
ATOM     13  C   UNL     1      12.473   6.550  18.912  1.00  0.00     0.012 C 
ATOM     14  C   UNL     1      12.456   4.133  18.311  1.00  0.00     0.012 C 
ATOM     15  C   UNL     1      11.906   8.119  15.884  1.00  0.00     0.039 C 
ENDROOT
TORSDOF 0
ENDMDL
