MODEL 1
REMARK VINA RESULT:    -5.673      0.000      0.000
REMARK INTER + INTRA:          -6.171
REMARK INTER:                  -6.171
REMARK INTRA:                   0.000
REMARK UNBOUND:                 0.000
REMARK SMILES Cc1cc(O)c2c(c1)C(=O)c1cc(O)cc(O)c1C2=O
REMARK SMILES IDX 1 1 2 2 8 3 7 4 6 5 4 6 3 7 19 8 20 9 18 10 11 11 9 12 10 13
REMARK SMILES IDX 12 14 13 15 15 16 16 17 5 18 17 20 14 22
REMARK H PARENT 5 19 17 21 14 23
REMARK Flexibility Score: inf
ROOT
ATOM      1  C   UNL     1    -114.099 -97.155   0.040  1.00  0.00     0.044 C 
ATOM      2  C   UNL     1    -115.210 -98.159   0.126  1.00  0.00    -0.047 A 
ATOM      3  C   UNL     1    -116.453 -97.793   0.655  1.00  0.00     0.016 A 
ATOM      4  C   UNL     1    -117.488 -98.736   0.775  1.00  0.00     0.038 A 
ATOM      5  C   UNL     1    -117.274-100.068   0.365  1.00  0.00     0.076 A 
ATOM      6  C   UNL     1    -116.009-100.442  -0.143  1.00  0.00     0.127 A 
ATOM      7  C   UNL     1    -114.988 -99.487  -0.254  1.00  0.00     0.050 A 
ATOM      8  C   UNL     1    -118.391-101.044   0.460  1.00  0.00     0.201 C 
ATOM      9  O   UNL     1    -118.347-102.105  -0.216  1.00  0.00    -0.288 OA
ATOM     10  C   UNL     1    -119.606-100.715   1.258  1.00  0.00     0.076 A 
ATOM     11  C   UNL     1    -119.834 -99.363   1.609  1.00  0.00     0.041 A 
ATOM     12  C   UNL     1    -118.802 -98.337   1.329  1.00  0.00     0.194 C 
ATOM     13  O   UNL     1    -119.036 -97.122   1.581  1.00  0.00    -0.289 OA
ATOM     14  C   UNL     1    -121.038 -98.996   2.234  1.00  0.00     0.059 A 
ATOM     15  C   UNL     1    -122.009 -99.957   2.526  1.00  0.00     0.120 A 
ATOM     16  C   UNL     1    -121.769-101.295   2.226  1.00  0.00     0.093 A 
ATOM     17  C   UNL     1    -120.569-101.693   1.629  1.00  0.00     0.131 A 
ENDROOT
BRANCH   6  18
ATOM     18  O   UNL     1    -115.757-101.759  -0.528  1.00  0.00    -0.507 OA
ATOM     19  H   UNL     1    -114.816-102.095  -0.694  1.00  0.00     0.293 HD
ENDBRANCH   6  18
BRANCH  17  20
ATOM     20  O   UNL     1    -120.365-103.065   1.462  1.00  0.00    -0.507 OA
ATOM     21  H   UNL     1    -121.093-103.712   1.190  1.00  0.00     0.293 HD
ENDBRANCH  17  20
BRANCH  15  22
ATOM     22  O   UNL     1    -123.210 -99.592   3.130  1.00  0.00    -0.508 OA
ATOM     23  H   UNL     1    -123.639-100.166   3.847  1.00  0.00     0.293 HD
ENDBRANCH  15  22
TORSDOF 3
ENDMDL
MODEL 2
REMARK VINA RESULT:    -5.649      1.227      5.492
REMARK INTER + INTRA:          -6.145
REMARK INTER:                  -6.145
REMARK INTRA:                   0.000
REMARK UNBOUND:                 0.000
REMARK SMILES Cc1cc(O)c2c(c1)C(=O)c1cc(O)cc(O)c1C2=O
REMARK SMILES IDX 1 1 2 2 8 3 7 4 6 5 4 6 3 7 19 8 20 9 18 10 11 11 9 12 10 13
REMARK SMILES IDX 12 14 13 15 15 16 16 17 5 18 17 20 14 22
REMARK H PARENT 5 19 17 21 14 23
REMARK Flexibility Score: inf
ROOT
ATOM      1  C   UNL     1    -123.397 -99.509   2.658  1.00  0.00     0.044 C 
ATOM      2  C   UNL     1    -122.039 -99.972   2.220  1.00  0.00    -0.047 A 
ATOM      3  C   UNL     1    -121.017 -99.043   1.990  1.00  0.00     0.016 A 
ATOM      4  C   UNL     1    -119.753 -99.463   1.543  1.00  0.00     0.038 A 
ATOM      5  C   UNL     1    -119.509-100.833   1.315  1.00  0.00     0.076 A 
ATOM      6  C   UNL     1    -120.551-101.766   1.521  1.00  0.00     0.127 A 
ATOM      7  C   UNL     1    -121.806-101.328   1.966  1.00  0.00     0.050 A 
ATOM      8  C   UNL     1    -118.155-101.266   0.881  1.00  0.00     0.201 C 
ATOM      9  O   UNL     1    -117.813-102.470   1.023  1.00  0.00    -0.288 OA
ATOM     10  C   UNL     1    -117.169-100.261   0.392  1.00  0.00     0.076 A 
ATOM     11  C   UNL     1    -117.401 -98.895   0.682  1.00  0.00     0.041 A 
ATOM     12  C   UNL     1    -118.676 -98.474   1.310  1.00  0.00     0.194 C 
ATOM     13  O   UNL     1    -118.852 -97.266   1.629  1.00  0.00    -0.289 OA
ATOM     14  C   UNL     1    -116.424 -97.937   0.364  1.00  0.00     0.059 A 
ATOM     15  C   UNL     1    -115.229 -98.318  -0.250  1.00  0.00     0.120 A 
ATOM     16  C   UNL     1    -115.016 -99.653  -0.580  1.00  0.00     0.093 A 
ATOM     17  C   UNL     1    -115.981-100.625  -0.301  1.00  0.00     0.131 A 
ENDROOT
BRANCH   6  18
ATOM     18  O   UNL     1    -120.350-103.125   1.275  1.00  0.00    -0.507 OA
ATOM     19  H   UNL     1    -120.408-103.512   0.341  1.00  0.00     0.293 HD
ENDBRANCH   6  18
BRANCH  17  20
ATOM     20  O   UNL     1    -115.735-101.920  -0.762  1.00  0.00    -0.507 OA
ATOM     21  H   UNL     1    -115.103-102.566  -0.309  1.00  0.00     0.293 HD
ENDBRANCH  17  20
BRANCH  15  22
ATOM     22  O   UNL     1    -114.251 -97.371  -0.550  1.00  0.00    -0.508 OA
ATOM     23  H   UNL     1    -114.313 -96.418  -0.210  1.00  0.00     0.293 HD
ENDBRANCH  15  22
TORSDOF 3
ENDMDL
MODEL 3
REMARK VINA RESULT:    -5.457      2.510      6.135
REMARK INTER + INTRA:          -5.936
REMARK INTER:                  -5.936
REMARK INTRA:                   0.000
REMARK UNBOUND:                 0.000
REMARK SMILES Cc1cc(O)c2c(c1)C(=O)c1cc(O)cc(O)c1C2=O
REMARK SMILES IDX 1 1 2 2 8 3 7 4 6 5 4 6 3 7 19 8 20 9 18 10 11 11 9 12 10 13
REMARK SMILES IDX 12 14 13 15 15 16 16 17 5 18 17 20 14 22
REMARK H PARENT 5 19 17 21 14 23
REMARK Flexibility Score: inf
ROOT
ATOM      1  C   UNL     1    -118.308-102.653   0.746  1.00  0.00     0.044 C 
ATOM      2  C   UNL     1    -118.451-101.166   0.886  1.00  0.00    -0.047 A 
ATOM      3  C   UNL     1    -117.316-100.347   0.903  1.00  0.00     0.016 A 
ATOM      4  C   UNL     1    -117.437 -98.957   1.071  1.00  0.00     0.038 A 
ATOM      5  C   UNL     1    -118.713 -98.378   1.232  1.00  0.00     0.076 A 
ATOM      6  C   UNL     1    -119.855 -99.212   1.242  1.00  0.00     0.127 A 
ATOM      7  C   UNL     1    -119.714-100.596   1.074  1.00  0.00     0.050 A 
ATOM      8  C   UNL     1    -118.828 -96.903   1.368  1.00  0.00     0.201 C 
ATOM      9  O   UNL     1    -119.935 -96.344   1.148  1.00  0.00    -0.288 OA
ATOM     10  C   UNL     1    -117.617 -96.081   1.647  1.00  0.00     0.076 A 
ATOM     11  C   UNL     1    -116.345 -96.660   1.423  1.00  0.00     0.041 A 
ATOM     12  C   UNL     1    -116.232 -98.097   1.080  1.00  0.00     0.194 C 
ATOM     13  O   UNL     1    -115.102 -98.595   0.814  1.00  0.00    -0.289 OA
ATOM     14  C   UNL     1    -115.187 -95.871   1.535  1.00  0.00     0.059 A 
ATOM     15  C   UNL     1    -115.279 -94.521   1.881  1.00  0.00     0.120 A 
ATOM     16  C   UNL     1    -116.523 -93.958   2.149  1.00  0.00     0.093 A 
ATOM     17  C   UNL     1    -117.690 -94.725   2.071  1.00  0.00     0.131 A 
ENDROOT
BRANCH   6  18
ATOM     18  O   UNL     1    -121.129 -98.673   1.430  1.00  0.00    -0.507 OA
ATOM     19  H   UNL     1    -121.813 -99.117   2.031  1.00  0.00     0.293 HD
ENDBRANCH   6  18
BRANCH  17  20
ATOM     20  O   UNL     1    -118.883 -94.112   2.460  1.00  0.00    -0.507 OA
ATOM     21  H   UNL     1    -119.799 -94.499   2.276  1.00  0.00     0.293 HD
ENDBRANCH  17  20
BRANCH  15  22
ATOM     22  O   UNL     1    -114.133 -93.733   1.977  1.00  0.00    -0.508 OA
ATOM     23  H   UNL     1    -114.089 -92.809   1.562  1.00  0.00     0.293 HD
ENDBRANCH  15  22
TORSDOF 3
ENDMDL
MODEL 4
REMARK VINA RESULT:    -5.287      2.062      3.507
REMARK INTER + INTRA:          -5.750
REMARK INTER:                  -5.750
REMARK INTRA:                   0.000
REMARK UNBOUND:                 0.000
REMARK SMILES Cc1cc(O)c2c(c1)C(=O)c1cc(O)cc(O)c1C2=O
REMARK SMILES IDX 1 1 2 2 8 3 7 4 6 5 4 6 3 7 19 8 20 9 18 10 11 11 9 12 10 13
REMARK SMILES IDX 12 14 13 15 15 16 16 17 5 18 17 20 14 22
REMARK H PARENT 5 19 17 21 14 23
REMARK Flexibility Score: inf
ROOT
ATOM      1  C   UNL     1    -117.248 -93.724   2.049  1.00  0.00     0.044 C 
ATOM      2  C   UNL     1    -117.030 -95.113   1.525  1.00  0.00    -0.047 A 
ATOM      3  C   UNL     1    -118.031 -96.082   1.659  1.00  0.00     0.016 A 
ATOM      4  C   UNL     1    -117.824 -97.396   1.206  1.00  0.00     0.038 A 
ATOM      5  C   UNL     1    -116.592 -97.748   0.615  1.00  0.00     0.076 A 
ATOM      6  C   UNL     1    -115.573 -96.774   0.507  1.00  0.00     0.127 A 
ATOM      7  C   UNL     1    -115.798 -95.469   0.966  1.00  0.00     0.050 A 
ATOM      8  C   UNL     1    -116.403 -99.130   0.104  1.00  0.00     0.201 C 
ATOM      9  O   UNL     1    -115.488 -99.363  -0.730  1.00  0.00    -0.288 OA
ATOM     10  C   UNL     1    -117.360-100.207   0.485  1.00  0.00     0.076 A 
ATOM     11  C   UNL     1    -118.615 -99.832   1.021  1.00  0.00     0.041 A 
ATOM     12  C   UNL     1    -118.891 -98.412   1.345  1.00  0.00     0.194 C 
ATOM     13  O   UNL     1    -120.034 -98.072   1.759  1.00  0.00    -0.289 OA
ATOM     14  C   UNL     1    -119.596-100.810   1.256  1.00  0.00     0.059 A 
ATOM     15  C   UNL     1    -119.340-102.155   0.978  1.00  0.00     0.120 A 
ATOM     16  C   UNL     1    -118.090-102.535   0.495  1.00  0.00     0.093 A 
ATOM     17  C   UNL     1    -117.086-101.587   0.277  1.00  0.00     0.131 A 
ENDROOT
BRANCH   6  18
ATOM     18  O   UNL     1    -114.333 -97.100  -0.045  1.00  0.00    -0.507 OA
ATOM     19  H   UNL     1    -113.465 -96.782   0.370  1.00  0.00     0.293 HD
ENDBRANCH   6  18
BRANCH  17  20
ATOM     20  O   UNL     1    -115.830-102.065  -0.104  1.00  0.00    -0.507 OA
ATOM     21  H   UNL     1    -115.179-102.504   0.533  1.00  0.00     0.293 HD
ENDBRANCH  17  20
BRANCH  15  22
ATOM     22  O   UNL     1    -120.317-103.124   1.193  1.00  0.00    -0.508 OA
ATOM     23  H   UNL     1    -120.292-103.731   2.005  1.00  0.00     0.293 HD
ENDBRANCH  15  22
TORSDOF 3
ENDMDL
MODEL 5
REMARK VINA RESULT:    -5.109      2.038      5.100
REMARK INTER + INTRA:          -5.557
REMARK INTER:                  -5.557
REMARK INTRA:                   0.000
REMARK UNBOUND:                 0.000
REMARK SMILES Cc1cc(O)c2c(c1)C(=O)c1cc(O)cc(O)c1C2=O
REMARK SMILES IDX 1 1 2 2 8 3 7 4 6 5 4 6 3 7 19 8 20 9 18 10 11 11 9 12 10 13
REMARK SMILES IDX 12 14 13 15 15 16 16 17 5 18 17 20 14 22
REMARK H PARENT 5 19 17 21 14 23
REMARK Flexibility Score: inf
ROOT
ATOM      1  C   UNL     1    -121.015-103.125   0.903  1.00  0.00     0.044 C 
ATOM      2  C   UNL     1    -119.965-102.054   0.933  1.00  0.00    -0.047 A 
ATOM      3  C   UNL     1    -120.309-100.738   1.264  1.00  0.00     0.016 A 
ATOM      4  C   UNL     1    -119.340 -99.720   1.258  1.00  0.00     0.038 A 
ATOM      5  C   UNL     1    -118.008-100.021   0.908  1.00  0.00     0.076 A 
ATOM      6  C   UNL     1    -117.669-101.346   0.547  1.00  0.00     0.127 A 
ATOM      7  C   UNL     1    -118.650-102.348   0.557  1.00  0.00     0.050 A 
ATOM      8  C   UNL     1    -116.987 -98.942   0.945  1.00  0.00     0.201 C 
ATOM      9  O   UNL     1    -115.765 -99.245   0.997  1.00  0.00    -0.288 OA
ATOM     10  C   UNL     1    -117.408 -97.516   1.040  1.00  0.00     0.076 A 
ATOM     11  C   UNL     1    -118.733 -97.233   1.450  1.00  0.00     0.041 A 
ATOM     12  C   UNL     1    -119.712 -98.333   1.617  1.00  0.00     0.194 C 
ATOM     13  O   UNL     1    -120.872 -98.084   2.049  1.00  0.00    -0.289 OA
ATOM     14  C   UNL     1    -119.122 -95.903   1.690  1.00  0.00     0.059 A 
ATOM     15  C   UNL     1    -118.216 -94.855   1.513  1.00  0.00     0.120 A 
ATOM     16  C   UNL     1    -116.926 -95.125   1.064  1.00  0.00     0.093 A 
ATOM     17  C   UNL     1    -116.519 -96.434   0.791  1.00  0.00     0.131 A 
ENDROOT
BRANCH   6  18
ATOM     18  O   UNL     1    -116.366-101.669   0.166  1.00  0.00    -0.507 OA
ATOM     19  H   UNL     1    -115.862-102.439   0.590  1.00  0.00     0.293 HD
ENDBRANCH   6  18
BRANCH  17  20
ATOM     20  O   UNL     1    -115.247 -96.606   0.242  1.00  0.00    -0.507 OA
ATOM     21  H   UNL     1    -114.413 -96.165   0.608  1.00  0.00     0.293 HD
ENDBRANCH  17  20
BRANCH  15  22
ATOM     22  O   UNL     1    -118.594 -93.539   1.766  1.00  0.00    -0.508 OA
ATOM     23  H   UNL     1    -117.966 -92.763   1.590  1.00  0.00     0.293 HD
ENDBRANCH  15  22
TORSDOF 3
ENDMDL
MODEL 6
REMARK VINA RESULT:    -5.084      1.896      3.958
REMARK INTER + INTRA:          -5.530
REMARK INTER:                  -5.530
REMARK INTRA:                   0.000
REMARK UNBOUND:                 0.000
REMARK SMILES Cc1cc(O)c2c(c1)C(=O)c1cc(O)cc(O)c1C2=O
REMARK SMILES IDX 1 1 2 2 8 3 7 4 6 5 4 6 3 7 19 8 20 9 18 10 11 11 9 12 10 13
REMARK SMILES IDX 12 14 13 15 15 16 16 17 5 18 17 20 14 22
REMARK H PARENT 5 19 17 21 14 23
REMARK Flexibility Score: inf
ROOT
ATOM      1  C   UNL     1    -113.896 -95.985   2.220  1.00  0.00     0.044 C 
ATOM      2  C   UNL     1    -115.298 -96.482   2.023  1.00  0.00    -0.047 A 
ATOM      3  C   UNL     1    -115.527 -97.800   1.612  1.00  0.00     0.016 A 
ATOM      4  C   UNL     1    -116.834 -98.265   1.389  1.00  0.00     0.038 A 
ATOM      5  C   UNL     1    -117.929 -97.395   1.573  1.00  0.00     0.076 A 
ATOM      6  C   UNL     1    -117.692 -96.056   1.961  1.00  0.00     0.127 A 
ATOM      7  C   UNL     1    -116.381 -95.611   2.178  1.00  0.00     0.050 A 
ATOM      8  C   UNL     1    -119.308 -97.913   1.372  1.00  0.00     0.201 C 
ATOM      9  O   UNL     1    -120.283 -97.290   1.870  1.00  0.00    -0.288 OA
ATOM     10  C   UNL     1    -119.525 -99.219   0.689  1.00  0.00     0.076 A 
ATOM     11  C   UNL     1    -118.427-100.104   0.567  1.00  0.00     0.041 A 
ATOM     12  C   UNL     1    -117.068 -99.663   0.962  1.00  0.00     0.194 C 
ATOM     13  O   UNL     1    -116.104-100.477   0.916  1.00  0.00    -0.289 OA
ATOM     14  C   UNL     1    -118.626-101.400   0.060  1.00  0.00     0.059 A 
ATOM     15  C   UNL     1    -119.897-101.819  -0.338  1.00  0.00     0.120 A 
ATOM     16  C   UNL     1    -120.971-100.937  -0.264  1.00  0.00     0.093 A 
ATOM     17  C   UNL     1    -120.798 -99.633   0.210  1.00  0.00     0.131 A 
ENDROOT
BRANCH   6  18
ATOM     18  O   UNL     1    -118.752 -95.163   2.121  1.00  0.00    -0.507 OA
ATOM     19  H   UNL     1    -118.807 -94.538   2.916  1.00  0.00     0.293 HD
ENDBRANCH   6  18
BRANCH  17  20
ATOM     20  O   UNL     1    -121.903 -98.781   0.149  1.00  0.00    -0.507 OA
ATOM     21  H   UNL     1    -121.879 -97.859  -0.266  1.00  0.00     0.293 HD
ENDBRANCH  17  20
BRANCH  15  22
ATOM     22  O   UNL     1    -120.099-103.109  -0.825  1.00  0.00    -0.508 OA
ATOM     23  H   UNL     1    -120.028-103.320  -1.814  1.00  0.00     0.293 HD
ENDBRANCH  15  22
TORSDOF 3
ENDMDL
MODEL 7
REMARK VINA RESULT:    -4.924      4.651      8.048
REMARK INTER + INTRA:          -5.356
REMARK INTER:                  -5.356
REMARK INTRA:                   0.000
REMARK UNBOUND:                 0.000
REMARK SMILES Cc1cc(O)c2c(c1)C(=O)c1cc(O)cc(O)c1C2=O
REMARK SMILES IDX 1 1 2 2 8 3 7 4 6 5 4 6 3 7 19 8 20 9 18 10 11 11 9 12 10 13
REMARK SMILES IDX 12 14 13 15 15 16 16 17 5 18 17 20 14 22
REMARK H PARENT 5 19 17 21 14 23
REMARK Flexibility Score: inf
ROOT
ATOM      1  C   UNL     1    -117.042 -99.752   0.923  1.00  0.00     0.044 C 
ATOM      2  C   UNL     1    -116.948 -98.319   1.358  1.00  0.00    -0.047 A 
ATOM      3  C   UNL     1    -115.763 -97.830   1.919  1.00  0.00     0.016 A 
ATOM      4  C   UNL     1    -115.677 -96.500   2.364  1.00  0.00     0.038 A 
ATOM      5  C   UNL     1    -116.796 -95.648   2.252  1.00  0.00     0.076 A 
ATOM      6  C   UNL     1    -117.999 -96.154   1.710  1.00  0.00     0.127 A 
ATOM      7  C   UNL     1    -118.067 -97.484   1.273  1.00  0.00     0.050 A 
ATOM      8  C   UNL     1    -116.676 -94.233   2.690  1.00  0.00     0.201 C 
ATOM      9  O   UNL     1    -117.508 -93.383   2.275  1.00  0.00    -0.288 OA
ATOM     10  C   UNL     1    -115.514 -93.801   3.517  1.00  0.00     0.076 A 
ATOM     11  C   UNL     1    -114.377 -94.641   3.570  1.00  0.00     0.041 A 
ATOM     12  C   UNL     1    -114.417 -95.987   2.950  1.00  0.00     0.194 C 
ATOM     13  O   UNL     1    -113.380 -96.707   2.939  1.00  0.00    -0.289 OA
ATOM     14  C   UNL     1    -113.211 -94.201   4.219  1.00  0.00     0.059 A 
ATOM     15  C   UNL     1    -113.168 -92.945   4.828  1.00  0.00     0.120 A 
ATOM     16  C   UNL     1    -114.300 -92.134   4.820  1.00  0.00     0.093 A 
ATOM     17  C   UNL     1    -115.482 -92.557   4.205  1.00  0.00     0.131 A 
ENDROOT
BRANCH   6  18
ATOM     18  O   UNL     1    -119.133 -95.345   1.614  1.00  0.00    -0.507 OA
ATOM     19  H   UNL     1    -119.801 -95.272   2.372  1.00  0.00     0.293 HD
ENDBRANCH   6  18
BRANCH  17  20
ATOM     20  O   UNL     1    -116.600 -91.730   4.337  1.00  0.00    -0.507 OA
ATOM     21  H   UNL     1    -116.564 -90.722   4.268  1.00  0.00     0.293 HD
ENDBRANCH  17  20
BRANCH  15  22
ATOM     22  O   UNL     1    -112.008 -92.500   5.458  1.00  0.00    -0.508 OA
ATOM     23  H   UNL     1    -111.499 -93.087   6.109  1.00  0.00     0.293 HD
ENDBRANCH  15  22
TORSDOF 3
ENDMDL
MODEL 8
REMARK VINA RESULT:    -4.867      5.065      7.330
REMARK INTER + INTRA:          -5.294
REMARK INTER:                  -5.294
REMARK INTRA:                   0.000
REMARK UNBOUND:                 0.000
REMARK SMILES Cc1cc(O)c2c(c1)C(=O)c1cc(O)cc(O)c1C2=O
REMARK SMILES IDX 1 1 2 2 8 3 7 4 6 5 4 6 3 7 19 8 20 9 18 10 11 11 9 12 10 13
REMARK SMILES IDX 12 14 13 15 15 16 16 17 5 18 17 20 14 22
REMARK H PARENT 5 19 17 21 14 23
REMARK Flexibility Score: inf
ROOT
ATOM      1  C   UNL     1    -113.421 -97.945  -1.355  1.00  0.00     0.044 C 
ATOM      2  C   UNL     1    -114.044 -97.321  -0.142  1.00  0.00    -0.047 A 
ATOM      3  C   UNL     1    -113.289 -97.133   1.021  1.00  0.00     0.016 A 
ATOM      4  C   UNL     1    -113.873 -96.584   2.175  1.00  0.00     0.038 A 
ATOM      5  C   UNL     1    -115.236 -96.224   2.168  1.00  0.00     0.076 A 
ATOM      6  C   UNL     1    -116.004 -96.440   1.001  1.00  0.00     0.127 A 
ATOM      7  C   UNL     1    -115.404 -96.991  -0.140  1.00  0.00     0.050 A 
ATOM      8  C   UNL     1    -115.829 -95.607   3.383  1.00  0.00     0.201 C 
ATOM      9  O   UNL     1    -116.905 -94.958   3.288  1.00  0.00    -0.288 OA
ATOM     10  C   UNL     1    -115.097 -95.655   4.680  1.00  0.00     0.076 A 
ATOM     11  C   UNL     1    -113.715 -95.961   4.661  1.00  0.00     0.041 A 
ATOM     12  C   UNL     1    -113.064 -96.382   3.399  1.00  0.00     0.194 C 
ATOM     13  O   UNL     1    -111.818 -96.587   3.371  1.00  0.00    -0.289 OA
ATOM     14  C   UNL     1    -112.964 -95.873   5.846  1.00  0.00     0.059 A 
ATOM     15  C   UNL     1    -113.571 -95.501   7.047  1.00  0.00     0.120 A 
ATOM     16  C   UNL     1    -114.939 -95.246   7.080  1.00  0.00     0.093 A 
ATOM     17  C   UNL     1    -115.717 -95.351   5.924  1.00  0.00     0.131 A 
ENDROOT
BRANCH   6  18
ATOM     18  O   UNL     1    -117.362 -96.123   0.972  1.00  0.00    -0.507 OA
ATOM     19  H   UNL     1    -117.691 -95.173   1.097  1.00  0.00     0.293 HD
ENDBRANCH   6  18
BRANCH  17  20
ATOM     20  O   UNL     1    -117.097 -95.185   6.066  1.00  0.00    -0.507 OA
ATOM     21  H   UNL     1    -117.520 -94.434   6.595  1.00  0.00     0.293 HD
ENDBRANCH  17  20
BRANCH  15  22
ATOM     22  O   UNL     1    -112.823 -95.398   8.218  1.00  0.00    -0.508 OA
ATOM     23  H   UNL     1    -112.947 -94.622   8.860  1.00  0.00     0.293 HD
ENDBRANCH  15  22
TORSDOF 3
ENDMDL
MODEL 9
REMARK VINA RESULT:    -4.734      3.180      7.027
REMARK INTER + INTRA:          -5.149
REMARK INTER:                  -5.149
REMARK INTRA:                   0.000
REMARK UNBOUND:                 0.000
REMARK SMILES Cc1cc(O)c2c(c1)C(=O)c1cc(O)cc(O)c1C2=O
REMARK SMILES IDX 1 1 2 2 8 3 7 4 6 5 4 6 3 7 19 8 20 9 18 10 11 11 9 12 10 13
REMARK SMILES IDX 12 14 13 15 15 16 16 17 5 18 17 20 14 22
REMARK H PARENT 5 19 17 21 14 23
REMARK Flexibility Score: inf
ROOT
ATOM      1  C   UNL     1    -126.416 -98.929   4.402  1.00  0.00     0.044 C 
ATOM      2  C   UNL     1    -125.598 -99.782   3.478  1.00  0.00    -0.047 A 
ATOM      3  C   UNL     1    -124.202 -99.785   3.573  1.00  0.00     0.016 A 
ATOM      4  C   UNL     1    -123.424-100.551   2.688  1.00  0.00     0.038 A 
ATOM      5  C   UNL     1    -124.053-101.320   1.687  1.00  0.00     0.076 A 
ATOM      6  C   UNL     1    -125.462-101.293   1.576  1.00  0.00     0.127 A 
ATOM      7  C   UNL     1    -126.221-100.522   2.467  1.00  0.00     0.050 A 
ATOM      8  C   UNL     1    -123.219-102.156   0.785  1.00  0.00     0.201 C 
ATOM      9  O   UNL     1    -123.752-103.103   0.148  1.00  0.00    -0.288 OA
ATOM     10  C   UNL     1    -121.745-101.951   0.724  1.00  0.00     0.076 A 
ATOM     11  C   UNL     1    -121.123-101.226   1.769  1.00  0.00     0.041 A 
ATOM     12  C   UNL     1    -121.948-100.555   2.801  1.00  0.00     0.194 C 
ATOM     13  O   UNL     1    -121.389 -99.968   3.769  1.00  0.00    -0.289 OA
ATOM     14  C   UNL     1    -119.722-101.136   1.821  1.00  0.00     0.059 A 
ATOM     15  C   UNL     1    -118.934-101.744   0.841  1.00  0.00     0.120 A 
ATOM     16  C   UNL     1    -119.542-102.417  -0.216  1.00  0.00     0.093 A 
ATOM     17  C   UNL     1    -120.935-102.500  -0.308  1.00  0.00     0.131 A 
ENDROOT
BRANCH   6  18
ATOM     18  O   UNL     1    -126.112-102.018   0.577  1.00  0.00    -0.507 OA
ATOM     19  H   UNL     1    -127.001-102.475   0.742  1.00  0.00     0.293 HD
ENDBRANCH   6  18
BRANCH  17  20
ATOM     20  O   UNL     1    -121.463-103.098  -1.454  1.00  0.00    -0.507 OA
ATOM     21  H   UNL     1    -120.927-103.684  -2.080  1.00  0.00     0.293 HD
ENDBRANCH  17  20
BRANCH  15  22
ATOM     22  O   UNL     1    -117.544-101.671   0.900  1.00  0.00    -0.508 OA
ATOM     23  H   UNL     1    -117.055-101.569   1.782  1.00  0.00     0.293 HD
ENDBRANCH  15  22
TORSDOF 3
ENDMDL
