MODEL 1
REMARK VINA RESULT:    -5.323      0.000      0.000
REMARK INTER + INTRA:          -5.731
REMARK INTER:                  -5.634
REMARK INTRA:                  -0.097
REMARK UNBOUND:                -0.097
REMARK SMILES C=C(C)[C@@H]1CC=C(C)C(=O)C1
REMARK SMILES IDX 8 1 7 2 6 3 5 4 4 5 11 6 9 7 10 8 2 9 1 10 3 11
REMARK H PARENT
REMARK Flexibility Score: inf
ROOT
ATOM      1  C   UNL     1      18.237   7.560 -23.995  1.00  0.00     0.048 C 
ATOM      2  C   UNL     1      18.981   8.631 -24.743  1.00  0.00    -0.012 C 
ATOM      3  C   UNL     1      20.269   8.881 -24.450  1.00  0.00    -0.019 C 
ATOM      4  C   UNL     1      21.066   9.930 -25.179  1.00  0.00     0.036 C 
ATOM      5  C   UNL     1      20.171  11.106 -25.612  1.00  0.00     0.025 C 
ATOM      6  C   UNL     1      18.981  10.592 -26.444  1.00  0.00     0.089 C 
ATOM      7  C   UNL     1      18.262   9.491 -25.716  1.00  0.00     0.158 C 
ATOM      8  O   UNL     1      17.044   9.282 -25.967  1.00  0.00    -0.295 OA
ENDROOT
BRANCH   5   9
ATOM      9  C   UNL     1      20.963  12.169 -26.361  1.00  0.00    -0.077 C 
ATOM     10  C   UNL     1      20.356  13.236 -26.910  1.00  0.00     0.008 C 
ATOM     11  C   UNL     1      22.458  12.039 -26.502  1.00  0.00     0.039 C 
ENDBRANCH   5   9
TORSDOF 1
ENDMDL
MODEL 2
REMARK VINA RESULT:    -5.222      1.813      4.935
REMARK INTER + INTRA:          -5.624
REMARK INTER:                  -5.526
REMARK INTRA:                  -0.098
REMARK UNBOUND:                -0.097
REMARK SMILES C=C(C)[C@@H]1CC=C(C)C(=O)C1
REMARK SMILES IDX 8 1 7 2 6 3 5 4 4 5 11 6 9 7 10 8 2 9 1 10 3 11
REMARK H PARENT
REMARK Flexibility Score: inf
ROOT
ATOM      1  C   UNL     1      20.655  12.280 -25.672  1.00  0.00     0.048 C 
ATOM      2  C   UNL     1      19.875  10.999 -25.571  1.00  0.00    -0.012 C 
ATOM      3  C   UNL     1      18.587  10.967 -25.955  1.00  0.00    -0.019 C 
ATOM      4  C   UNL     1      17.764   9.707 -25.892  1.00  0.00     0.036 C 
ATOM      5  C   UNL     1      18.200   8.819 -24.712  1.00  0.00     0.025 C 
ATOM      6  C   UNL     1      19.710   8.527 -24.793  1.00  0.00     0.089 C 
ATOM      7  C   UNL     1      20.489   9.806 -24.937  1.00  0.00     0.158 C 
ATOM      8  O   UNL     1      21.686   9.843 -24.544  1.00  0.00    -0.295 OA
ENDROOT
BRANCH   5   9
ATOM      9  C   UNL     1      17.384   7.535 -24.643  1.00  0.00    -0.077 C 
ATOM     10  C   UNL     1      17.876   6.423 -24.072  1.00  0.00     0.008 C 
ATOM     11  C   UNL     1      15.993   7.492 -25.223  1.00  0.00     0.039 C 
ENDBRANCH   5   9
TORSDOF 1
ENDMDL
MODEL 3
REMARK VINA RESULT:    -5.153      1.793      4.432
REMARK INTER + INTRA:          -5.551
REMARK INTER:                  -5.455
REMARK INTRA:                  -0.096
REMARK UNBOUND:                -0.097
REMARK SMILES C=C(C)[C@@H]1CC=C(C)C(=O)C1
REMARK SMILES IDX 8 1 7 2 6 3 5 4 4 5 11 6 9 7 10 8 2 9 1 10 3 11
REMARK H PARENT
REMARK Flexibility Score: inf
ROOT
ATOM      1  C   UNL     1      23.118  12.347 -26.749  1.00  0.00     0.048 C 
ATOM      2  C   UNL     1      22.014  11.543 -26.120  1.00  0.00    -0.012 C 
ATOM      3  C   UNL     1      22.273  10.320 -25.625  1.00  0.00    -0.019 C 
ATOM      4  C   UNL     1      21.209   9.481 -24.969  1.00  0.00     0.036 C 
ATOM      5  C   UNL     1      19.830   9.736 -25.605  1.00  0.00     0.025 C 
ATOM      6  C   UNL     1      19.495  11.239 -25.567  1.00  0.00     0.089 C 
ATOM      7  C   UNL     1      20.618  12.047 -26.157  1.00  0.00     0.158 C 
ATOM      8  O   UNL     1      20.366  13.178 -26.653  1.00  0.00    -0.295 OA
ENDROOT
BRANCH   5   9
ATOM      9  C   UNL     1      18.742   8.901 -24.944  1.00  0.00    -0.077 C 
ATOM     10  C   UNL     1      19.036   7.984 -24.008  1.00  0.00     0.008 C 
ATOM     11  C   UNL     1      17.299   9.093 -25.337  1.00  0.00     0.039 C 
ENDBRANCH   5   9
TORSDOF 1
ENDMDL
MODEL 4
REMARK VINA RESULT:    -4.944     18.463     19.855
REMARK INTER + INTRA:          -5.329
REMARK INTER:                  -5.232
REMARK INTRA:                  -0.097
REMARK UNBOUND:                -0.097
REMARK SMILES C=C(C)[C@@H]1CC=C(C)C(=O)C1
REMARK SMILES IDX 8 1 7 2 6 3 5 4 4 5 11 6 9 7 10 8 2 9 1 10 3 11
REMARK H PARENT
REMARK Flexibility Score: inf
ROOT
ATOM      1  C   UNL     1       9.220  22.483 -23.848  1.00  0.00     0.048 C 
ATOM      2  C   UNL     1       8.124  23.443 -23.475  1.00  0.00    -0.012 C 
ATOM      3  C   UNL     1       8.120  24.016 -22.259  1.00  0.00    -0.019 C 
ATOM      4  C   UNL     1       7.057  24.996 -21.841  1.00  0.00     0.036 C 
ATOM      5  C   UNL     1       5.705  24.662 -22.497  1.00  0.00     0.025 C 
ATOM      6  C   UNL     1       5.859  24.585 -24.028  1.00  0.00     0.089 C 
ATOM      7  C   UNL     1       6.984  23.660 -24.401  1.00  0.00     0.158 C 
ATOM      8  O   UNL     1       6.966  23.095 -25.528  1.00  0.00    -0.295 OA
ENDROOT
BRANCH   5   9
ATOM      9  C   UNL     1       4.622  25.652 -22.091  1.00  0.00    -0.077 C 
ATOM     10  C   UNL     1       3.736  26.125 -22.984  1.00  0.00     0.008 C 
ATOM     11  C   UNL     1       4.527  26.125 -20.662  1.00  0.00     0.039 C 
ENDBRANCH   5   9
TORSDOF 1
ENDMDL
MODEL 5
REMARK VINA RESULT:    -4.938     16.729     18.203
REMARK INTER + INTRA:          -5.324
REMARK INTER:                  -5.228
REMARK INTRA:                  -0.096
REMARK UNBOUND:                -0.097
REMARK SMILES C=C(C)[C@@H]1CC=C(C)C(=O)C1
REMARK SMILES IDX 8 1 7 2 6 3 5 4 4 5 11 6 9 7 10 8 2 9 1 10 3 11
REMARK H PARENT
REMARK Flexibility Score: inf
ROOT
ATOM      1  C   UNL     1       5.631  26.125 -23.730  1.00  0.00     0.048 C 
ATOM      2  C   UNL     1       6.522  24.942 -23.473  1.00  0.00    -0.012 C 
ATOM      3  C   UNL     1       7.302  24.916 -22.379  1.00  0.00    -0.019 C 
ATOM      4  C   UNL     1       8.200  23.748 -22.064  1.00  0.00     0.036 C 
ATOM      5  C   UNL     1       8.723  23.087 -23.353  1.00  0.00     0.025 C 
ATOM      6  C   UNL     1       7.546  22.691 -24.264  1.00  0.00     0.089 C 
ATOM      7  C   UNL     1       6.631  23.863 -24.487  1.00  0.00     0.158 C 
ATOM      8  O   UNL     1       5.927  23.902 -25.532  1.00  0.00    -0.295 OA
ENDROOT
BRANCH   5   9
ATOM      9  C   UNL     1       9.624  21.898 -23.049  1.00  0.00    -0.077 C 
ATOM     10  C   UNL     1      10.225  21.207 -24.033  1.00  0.00     0.008 C 
ATOM     11  C   UNL     1       9.857  21.471 -21.622  1.00  0.00     0.039 C 
ENDBRANCH   5   9
TORSDOF 1
ENDMDL
MODEL 6
REMARK VINA RESULT:    -4.837      1.505      2.559
REMARK INTER + INTRA:          -5.216
REMARK INTER:                  -5.119
REMARK INTRA:                  -0.097
REMARK UNBOUND:                -0.097
REMARK SMILES C=C(C)[C@@H]1CC=C(C)C(=O)C1
REMARK SMILES IDX 8 1 7 2 6 3 5 4 4 5 11 6 9 7 10 8 2 9 1 10 3 11
REMARK H PARENT
REMARK Flexibility Score: inf
ROOT
ATOM      1  C   UNL     1      16.309   8.288 -25.114  1.00  0.00     0.048 C 
ATOM      2  C   UNL     1      17.668   8.932 -25.105  1.00  0.00    -0.012 C 
ATOM      3  C   UNL     1      17.890  10.038 -25.835  1.00  0.00    -0.019 C 
ATOM      4  C   UNL     1      19.226  10.733 -25.848  1.00  0.00     0.036 C 
ATOM      5  C   UNL     1      20.378   9.724 -25.676  1.00  0.00     0.025 C 
ATOM      6  C   UNL     1      20.167   8.886 -24.401  1.00  0.00     0.089 C 
ATOM      7  C   UNL     1      18.792   8.277 -24.389  1.00  0.00     0.158 C 
ATOM      8  O   UNL     1      18.595   7.219 -23.732  1.00  0.00    -0.295 OA
ENDROOT
BRANCH   5   9
ATOM      9  C   UNL     1      21.735  10.414 -25.676  1.00  0.00    -0.077 C 
ATOM     10  C   UNL     1      22.855   9.754 -25.340  1.00  0.00     0.008 C 
ATOM     11  C   UNL     1      21.843  11.869 -26.057  1.00  0.00     0.039 C 
ENDBRANCH   5   9
TORSDOF 1
ENDMDL
MODEL 7
REMARK VINA RESULT:    -4.768     18.011     19.437
REMARK INTER + INTRA:          -5.143
REMARK INTER:                  -5.046
REMARK INTRA:                  -0.097
REMARK UNBOUND:                -0.097
REMARK SMILES C=C(C)[C@@H]1CC=C(C)C(=O)C1
REMARK SMILES IDX 8 1 7 2 6 3 5 4 4 5 11 6 9 7 10 8 2 9 1 10 3 11
REMARK H PARENT
REMARK Flexibility Score: inf
ROOT
ATOM      1  C   UNL     1       3.890  25.953 -23.363  1.00  0.00     0.048 C 
ATOM      2  C   UNL     1       5.220  25.252 -23.314  1.00  0.00    -0.012 C 
ATOM      3  C   UNL     1       5.680  24.611 -24.402  1.00  0.00    -0.019 C 
ATOM      4  C   UNL     1       7.012  23.908 -24.412  1.00  0.00     0.036 C 
ATOM      5  C   UNL     1       7.344  23.328 -23.025  1.00  0.00     0.025 C 
ATOM      6  C   UNL     1       7.275  24.434 -21.954  1.00  0.00     0.089 C 
ATOM      7  C   UNL     1       5.963  25.164 -22.032  1.00  0.00     0.158 C 
ATOM      8  O   UNL     1       5.516  25.734 -21.000  1.00  0.00    -0.295 OA
ENDROOT
BRANCH   5   9
ATOM      9  C   UNL     1       8.694  22.624 -23.018  1.00  0.00    -0.077 C 
ATOM     10  C   UNL     1       9.245  22.179 -21.876  1.00  0.00     0.008 C 
ATOM     11  C   UNL     1       9.444  22.415 -24.309  1.00  0.00     0.039 C 
ENDBRANCH   5   9
TORSDOF 1
ENDMDL
MODEL 8
REMARK VINA RESULT:    -4.730     17.750     19.084
REMARK INTER + INTRA:          -5.104
REMARK INTER:                  -5.007
REMARK INTRA:                  -0.096
REMARK UNBOUND:                -0.097
REMARK SMILES C=C(C)[C@@H]1CC=C(C)C(=O)C1
REMARK SMILES IDX 8 1 7 2 6 3 5 4 4 5 11 6 9 7 10 8 2 9 1 10 3 11
REMARK H PARENT
REMARK Flexibility Score: inf
ROOT
ATOM      1  C   UNL     1       5.029  25.837 -20.804  1.00  0.00     0.048 C 
ATOM      2  C   UNL     1       5.885  24.896 -21.605  1.00  0.00    -0.012 C 
ATOM      3  C   UNL     1       7.224  25.003 -21.558  1.00  0.00    -0.019 C 
ATOM      4  C   UNL     1       8.128  24.075 -22.326  1.00  0.00     0.036 C 
ATOM      5  C   UNL     1       7.474  23.633 -23.648  1.00  0.00     0.025 C 
ATOM      6  C   UNL     1       6.091  23.010 -23.378  1.00  0.00     0.089 C 
ATOM      7  C   UNL     1       5.250  23.933 -22.540  1.00  0.00     0.158 C 
ATOM      8  O   UNL     1       3.994  23.854 -22.613  1.00  0.00    -0.295 OA
ENDROOT
BRANCH   5   9
ATOM      9  C   UNL     1       8.373  22.685 -24.431  1.00  0.00    -0.077 C 
ATOM     10  C   UNL     1       9.625  22.414 -24.025  1.00  0.00     0.008 C 
ATOM     11  C   UNL     1       7.865  22.030 -25.690  1.00  0.00     0.039 C 
ENDBRANCH   5   9
TORSDOF 1
ENDMDL
MODEL 9
REMARK VINA RESULT:    -4.597     14.420     15.234
REMARK INTER + INTRA:          -4.962
REMARK INTER:                  -4.869
REMARK INTRA:                  -0.093
REMARK UNBOUND:                -0.097
REMARK SMILES C=C(C)[C@@H]1CC=C(C)C(=O)C1
REMARK SMILES IDX 8 1 7 2 6 3 5 4 4 5 11 6 9 7 10 8 2 9 1 10 3 11
REMARK H PARENT
REMARK Flexibility Score: inf
ROOT
ATOM      1  C   UNL     1       9.984  17.734 -18.461  1.00  0.00     0.048 C 
ATOM      2  C   UNL     1       9.853  18.764 -19.549  1.00  0.00    -0.012 C 
ATOM      3  C   UNL     1      10.713  19.796 -19.602  1.00  0.00    -0.019 C 
ATOM      4  C   UNL     1      10.638  20.845 -20.680  1.00  0.00     0.036 C 
ATOM      5  C   UNL     1       9.183  21.079 -21.126  1.00  0.00     0.025 C 
ATOM      6  C   UNL     1       8.537  19.749 -21.559  1.00  0.00     0.089 C 
ATOM      7  C   UNL     1       8.705  18.706 -20.489  1.00  0.00     0.158 C 
ATOM      8  O   UNL     1       7.877  17.758 -20.419  1.00  0.00    -0.295 OA
ENDROOT
BRANCH   5   9
ATOM      9  C   UNL     1       9.094  22.129 -22.224  1.00  0.00    -0.077 C 
ATOM     10  C   UNL     1       9.610  21.911 -23.446  1.00  0.00     0.008 C 
ATOM     11  C   UNL     1       8.417  23.450 -21.954  1.00  0.00     0.039 C 
ENDBRANCH   5   9
TORSDOF 1
ENDMDL
