MODEL 1
REMARK VINA RESULT:    -4.607      0.000      0.000
REMARK INTER + INTRA:          -6.842
REMARK INTER:                  -6.492
REMARK INTRA:                  -0.351
REMARK UNBOUND:                -0.351
REMARK SMILES CCCCCCCCC(=O)[O-]
REMARK SMILES IDX 6 1 7 2 8 3 9 4 10 5 11 6 5 7 4 8 3 9 2 10 1 11
REMARK H PARENT
REMARK Flexibility Score: inf
ROOT
ATOM      1  C   UNL     1     -16.810  42.002  21.503  1.00  0.00     0.000 C 
ENDROOT
BRANCH   1   2
ATOM      2  C   UNL     1     -18.080  42.366  20.713  1.00  0.00     0.006 C 
BRANCH   2   3
ATOM      3  C   UNL     1     -18.936  41.159  20.296  1.00  0.00     0.053 C 
BRANCH   3   4
ATOM      4  C   UNL     1     -18.210  40.254  19.350  1.00  0.00     0.041 C 
ATOM      5  O   UNL     1     -17.940  40.643  18.183  1.00  0.00    -0.550 OA
ATOM      6  O   UNL     1     -17.800  38.994  19.767  1.00  0.00    -0.550 OA
ENDBRANCH   3   4
ENDBRANCH   2   3
ENDBRANCH   1   2
BRANCH   1   7
ATOM      7  C   UNL     1     -15.975  43.231  21.889  1.00  0.00     0.000 C 
BRANCH   7   8
ATOM      8  C   UNL     1     -16.853  44.490  21.960  1.00  0.00    -0.000 C 
BRANCH   8   9
ATOM      9  C   UNL     1     -16.735  45.219  23.308  1.00  0.00    -0.000 C 
BRANCH   9  10
ATOM     10  C   UNL     1     -16.544  46.735  23.147  1.00  0.00    -0.003 C 
ATOM     11  C   UNL     1     -16.052  47.080  21.745  1.00  0.00     0.004 C 
ENDBRANCH   9  10
ENDBRANCH   8   9
ENDBRANCH   7   8
ENDBRANCH   1   7
TORSDOF 7
ENDMDL
MODEL 2
REMARK VINA RESULT:    -4.462      3.444      6.117
REMARK INTER + INTRA:          -6.639
REMARK INTER:                  -6.273
REMARK INTRA:                  -0.366
REMARK UNBOUND:                -0.351
REMARK SMILES CCCCCCCCC(=O)[O-]
REMARK SMILES IDX 6 1 7 2 8 3 9 4 10 5 11 6 5 7 4 8 3 9 2 10 1 11
REMARK H PARENT
REMARK Flexibility Score: inf
ROOT
ATOM      1  C   UNL     1     -16.512  42.237  21.695  1.00  0.00     0.000 C 
ENDROOT
BRANCH   1   2
ATOM      2  C   UNL     1     -15.825  43.534  22.161  1.00  0.00     0.006 C 
BRANCH   2   3
ATOM      3  C   UNL     1     -16.580  44.820  21.789  1.00  0.00     0.053 C 
BRANCH   3   4
ATOM      4  C   UNL     1     -16.557  45.827  22.898  1.00  0.00     0.041 C 
ATOM      5  O   UNL     1     -17.004  45.526  24.036  1.00  0.00    -0.550 OA
ATOM      6  O   UNL     1     -16.010  47.085  22.684  1.00  0.00    -0.550 OA
ENDBRANCH   3   4
ENDBRANCH   2   3
ENDBRANCH   1   2
BRANCH   1   7
ATOM      7  C   UNL     1     -17.869  42.490  21.022  1.00  0.00     0.000 C 
BRANCH   7   8
ATOM      8  C   UNL     1     -18.600  41.168  20.748  1.00  0.00    -0.000 C 
BRANCH   8   9
ATOM      9  C   UNL     1     -18.919  40.964  19.259  1.00  0.00    -0.000 C 
BRANCH   9  10
ATOM     10  C   UNL     1     -17.769  40.291  18.494  1.00  0.00    -0.003 C 
ATOM     11  C   UNL     1     -17.400  38.952  19.125  1.00  0.00     0.004 C 
ENDBRANCH   9  10
ENDBRANCH   8   9
ENDBRANCH   7   8
ENDBRANCH   1   7
TORSDOF 7
ENDMDL
MODEL 3
REMARK VINA RESULT:    -4.189     12.962     14.077
REMARK INTER + INTRA:          -6.254
REMARK INTER:                  -5.478
REMARK INTRA:                  -0.776
REMARK UNBOUND:                -0.351
REMARK SMILES CCCCCCCCC(=O)[O-]
REMARK SMILES IDX 6 1 7 2 8 3 9 4 10 5 11 6 5 7 4 8 3 9 2 10 1 11
REMARK H PARENT
REMARK Flexibility Score: inf
ROOT
ATOM      1  C   UNL     1     -29.098  39.975  20.028  1.00  0.00     0.000 C 
ENDROOT
BRANCH   1   2
ATOM      2  C   UNL     1     -29.490  39.464  18.629  1.00  0.00     0.006 C 
BRANCH   2   3
ATOM      3  C   UNL     1     -30.791  38.645  18.596  1.00  0.00     0.053 C 
BRANCH   3   4
ATOM      4  C   UNL     1     -31.993  39.484  18.899  1.00  0.00     0.041 C 
ATOM      5  O   UNL     1     -32.532  40.170  17.990  1.00  0.00    -0.550 OA
ATOM      6  O   UNL     1     -32.541  39.482  20.175  1.00  0.00    -0.550 OA
ENDBRANCH   3   4
ENDBRANCH   2   3
ENDBRANCH   1   2
BRANCH   1   7
ATOM      7  C   UNL     1     -29.120  41.508  20.130  1.00  0.00     0.000 C 
BRANCH   7   8
ATOM      8  C   UNL     1     -29.370  42.146  18.756  1.00  0.00    -0.000 C 
BRANCH   8   9
ATOM      9  C   UNL     1     -30.626  43.032  18.733  1.00  0.00    -0.000 C 
BRANCH   9  10
ATOM     10  C   UNL     1     -31.410  42.981  20.054  1.00  0.00    -0.003 C 
ATOM     11  C   UNL     1     -32.749  43.700  19.925  1.00  0.00     0.004 C 
ENDBRANCH   9  10
ENDBRANCH   8   9
ENDBRANCH   7   8
ENDBRANCH   1   7
TORSDOF 7
ENDMDL
MODEL 4
REMARK VINA RESULT:    -4.099     12.991     14.208
REMARK INTER + INTRA:          -6.128
REMARK INTER:                  -5.430
REMARK INTRA:                  -0.698
REMARK UNBOUND:                -0.351
REMARK SMILES CCCCCCCCC(=O)[O-]
REMARK SMILES IDX 6 1 7 2 8 3 9 4 10 5 11 6 5 7 4 8 3 9 2 10 1 11
REMARK H PARENT
REMARK Flexibility Score: inf
ROOT
ATOM      1  C   UNL     1     -29.648  41.218  20.197  1.00  0.00     0.000 C 
ENDROOT
BRANCH   1   2
ATOM      2  C   UNL     1     -30.985  40.464  20.313  1.00  0.00     0.006 C 
BRANCH   2   3
ATOM      3  C   UNL     1     -31.444  39.784  19.013  1.00  0.00     0.053 C 
BRANCH   3   4
ATOM      4  C   UNL     1     -30.868  38.411  18.862  1.00  0.00     0.041 C 
ATOM      5  O   UNL     1     -30.368  37.821  19.856  1.00  0.00    -0.550 OA
ATOM      6  O   UNL     1     -30.914  37.767  17.632  1.00  0.00    -0.550 OA
ENDBRANCH   3   4
ENDBRANCH   2   3
ENDBRANCH   1   2
BRANCH   1   7
ATOM      7  C   UNL     1     -29.497  41.962  18.862  1.00  0.00     0.000 C 
BRANCH   7   8
ATOM      8  C   UNL     1     -30.254  43.298  18.889  1.00  0.00    -0.000 C 
BRANCH   8   9
ATOM      9  C   UNL     1     -31.456  43.317  17.932  1.00  0.00    -0.000 C 
BRANCH   9  10
ATOM     10  C   UNL     1     -32.709  43.942  18.565  1.00  0.00    -0.003 C 
ATOM     11  C   UNL     1     -32.739  43.703  20.072  1.00  0.00     0.004 C 
ENDBRANCH   9  10
ENDBRANCH   8   9
ENDBRANCH   7   8
ENDBRANCH   1   7
TORSDOF 7
ENDMDL
MODEL 5
REMARK VINA RESULT:    -4.021      9.655     10.184
REMARK INTER + INTRA:          -6.017
REMARK INTER:                  -5.368
REMARK INTRA:                  -0.650
REMARK UNBOUND:                -0.351
REMARK SMILES CCCCCCCCC(=O)[O-]
REMARK SMILES IDX 6 1 7 2 8 3 9 4 10 5 11 6 5 7 4 8 3 9 2 10 1 11
REMARK H PARENT
REMARK Flexibility Score: inf
ROOT
ATOM      1  C   UNL     1     -15.124  36.483  15.463  1.00  0.00     0.000 C 
ENDROOT
BRANCH   1   2
ATOM      2  C   UNL     1     -16.208  35.399  15.327  1.00  0.00     0.006 C 
BRANCH   2   3
ATOM      3  C   UNL     1     -17.314  35.733  14.313  1.00  0.00     0.053 C 
BRANCH   3   4
ATOM      4  C   UNL     1     -17.301  34.802  13.139  1.00  0.00     0.041 C 
ATOM      5  O   UNL     1     -16.933  35.215  12.008  1.00  0.00    -0.550 OA
ATOM      6  O   UNL     1     -17.662  33.471  13.302  1.00  0.00    -0.550 OA
ENDBRANCH   3   4
ENDBRANCH   2   3
ENDBRANCH   1   2
BRANCH   1   7
ATOM      7  C   UNL     1     -13.912  36.231  14.554  1.00  0.00     0.000 C 
BRANCH   7   8
ATOM      8  C   UNL     1     -13.970  37.120  13.303  1.00  0.00    -0.000 C 
BRANCH   8   9
ATOM      9  C   UNL     1     -14.747  38.425  13.540  1.00  0.00    -0.000 C 
BRANCH   9  10
ATOM     10  C   UNL     1     -15.899  38.618  12.542  1.00  0.00    -0.003 C 
ATOM     11  C   UNL     1     -15.963  40.060  12.049  1.00  0.00     0.004 C 
ENDBRANCH   9  10
ENDBRANCH   8   9
ENDBRANCH   7   8
ENDBRANCH   1   7
TORSDOF 7
ENDMDL
MODEL 6
REMARK VINA RESULT:    -4.015     13.010     14.577
REMARK INTER + INTRA:          -6.008
REMARK INTER:                  -5.508
REMARK INTRA:                  -0.500
REMARK UNBOUND:                -0.351
REMARK SMILES CCCCCCCCC(=O)[O-]
REMARK SMILES IDX 6 1 7 2 8 3 9 4 10 5 11 6 5 7 4 8 3 9 2 10 1 11
REMARK H PARENT
REMARK Flexibility Score: inf
ROOT
ATOM      1  C   UNL     1     -30.084  42.991  19.738  1.00  0.00     0.000 C 
ENDROOT
BRANCH   1   2
ATOM      2  C   UNL     1     -31.554  42.905  20.189  1.00  0.00     0.006 C 
BRANCH   2   3
ATOM      3  C   UNL     1     -32.546  43.614  19.254  1.00  0.00     0.053 C 
BRANCH   3   4
ATOM      4  C   UNL     1     -32.392  43.174  17.831  1.00  0.00     0.041 C 
ATOM      5  O   UNL     1     -32.645  41.984  17.505  1.00  0.00    -0.550 OA
ATOM      6  O   UNL     1     -32.004  44.086  16.858  1.00  0.00    -0.550 OA
ENDBRANCH   3   4
ENDBRANCH   2   3
ENDBRANCH   1   2
BRANCH   1   7
ATOM      7  C   UNL     1     -29.260  41.763  20.154  1.00  0.00     0.000 C 
BRANCH   7   8
ATOM      8  C   UNL     1     -29.197  40.734  19.015  1.00  0.00    -0.000 C 
BRANCH   8   9
ATOM      9  C   UNL     1     -28.750  39.345  19.497  1.00  0.00    -0.000 C 
BRANCH   9  10
ATOM     10  C   UNL     1     -29.896  38.322  19.501  1.00  0.00    -0.003 C 
ATOM     11  C   UNL     1     -31.124  38.871  18.782  1.00  0.00     0.004 C 
ENDBRANCH   9  10
ENDBRANCH   8   9
ENDBRANCH   7   8
ENDBRANCH   1   7
TORSDOF 7
ENDMDL
MODEL 7
REMARK VINA RESULT:    -4.014      9.571     10.933
REMARK INTER + INTRA:          -6.008
REMARK INTER:                  -5.426
REMARK INTRA:                  -0.581
REMARK UNBOUND:                -0.351
REMARK SMILES CCCCCCCCC(=O)[O-]
REMARK SMILES IDX 6 1 7 2 8 3 9 4 10 5 11 6 5 7 4 8 3 9 2 10 1 11
REMARK H PARENT
REMARK Flexibility Score: inf
ROOT
ATOM      1  C   UNL     1     -14.670  37.054  13.779  1.00  0.00     0.000 C 
ENDROOT
BRANCH   1   2
ATOM      2  C   UNL     1     -14.929  38.501  13.323  1.00  0.00     0.006 C 
BRANCH   2   3
ATOM      3  C   UNL     1     -16.259  38.704  12.580  1.00  0.00     0.053 C 
BRANCH   3   4
ATOM      4  C   UNL     1     -16.319  40.028  11.883  1.00  0.00     0.041 C 
ATOM      5  O   UNL     1     -17.383  40.400  11.321  1.00  0.00    -0.550 OA
ATOM      6  O   UNL     1     -15.211  40.865  11.882  1.00  0.00    -0.550 OA
ENDBRANCH   3   4
ENDBRANCH   2   3
ENDBRANCH   1   2
BRANCH   1   7
ATOM      7  C   UNL     1     -15.302  36.736  15.143  1.00  0.00     0.000 C 
BRANCH   7   8
ATOM      8  C   UNL     1     -16.151  35.458  15.069  1.00  0.00    -0.000 C 
BRANCH   8   9
ATOM      9  C   UNL     1     -17.351  35.598  14.120  1.00  0.00    -0.000 C 
BRANCH   9  10
ATOM     10  C   UNL     1     -17.395  34.493  13.053  1.00  0.00    -0.003 C 
ATOM     11  C   UNL     1     -16.719  34.949  11.764  1.00  0.00     0.004 C 
ENDBRANCH   9  10
ENDBRANCH   8   9
ENDBRANCH   7   8
ENDBRANCH   1   7
TORSDOF 7
ENDMDL
MODEL 8
REMARK VINA RESULT:    -4.008     10.345     12.111
REMARK INTER + INTRA:          -5.999
REMARK INTER:                  -5.309
REMARK INTRA:                  -0.689
REMARK UNBOUND:                -0.351
REMARK SMILES CCCCCCCCC(=O)[O-]
REMARK SMILES IDX 6 1 7 2 8 3 9 4 10 5 11 6 5 7 4 8 3 9 2 10 1 11
REMARK H PARENT
REMARK Flexibility Score: inf
ROOT
ATOM      1  C   UNL     1     -15.518  41.221   8.313  1.00  0.00     0.000 C 
ENDROOT
BRANCH   1   2
ATOM      2  C   UNL     1     -16.267  40.384   9.366  1.00  0.00     0.006 C 
BRANCH   2   3
ATOM      3  C   UNL     1     -17.368  41.149  10.118  1.00  0.00     0.053 C 
BRANCH   3   4
ATOM      4  C   UNL     1     -17.118  41.192  11.593  1.00  0.00     0.041 C 
ATOM      5  O   UNL     1     -16.466  40.270  12.152  1.00  0.00    -0.550 OA
ATOM      6  O   UNL     1     -17.573  42.266  12.347  1.00  0.00    -0.550 OA
ENDBRANCH   3   4
ENDBRANCH   2   3
ENDBRANCH   1   2
BRANCH   1   7
ATOM      7  C   UNL     1     -16.462  41.898   7.309  1.00  0.00     0.000 C 
BRANCH   7   8
ATOM      8  C   UNL     1     -16.015  43.340   7.023  1.00  0.00    -0.000 C 
BRANCH   8   9
ATOM      9  C   UNL     1     -16.702  44.365   7.939  1.00  0.00    -0.000 C 
BRANCH   9  10
ATOM     10  C   UNL     1     -15.702  45.168   8.785  1.00  0.00    -0.003 C 
ATOM     11  C   UNL     1     -15.428  44.474  10.116  1.00  0.00     0.004 C 
ENDBRANCH   9  10
ENDBRANCH   8   9
ENDBRANCH   7   8
ENDBRANCH   1   7
TORSDOF 7
ENDMDL
MODEL 9
REMARK VINA RESULT:    -3.992      9.949     11.375
REMARK INTER + INTRA:          -5.976
REMARK INTER:                  -5.437
REMARK INTRA:                  -0.539
REMARK UNBOUND:                -0.351
REMARK SMILES CCCCCCCCC(=O)[O-]
REMARK SMILES IDX 6 1 7 2 8 3 9 4 10 5 11 6 5 7 4 8 3 9 2 10 1 11
REMARK H PARENT
REMARK Flexibility Score: inf
ROOT
ATOM      1  C   UNL     1     -17.754  39.006  12.873  1.00  0.00     0.000 C 
ENDROOT
BRANCH   1   2
ATOM      2  C   UNL     1     -16.329  39.183  12.318  1.00  0.00     0.006 C 
BRANCH   2   3
ATOM      3  C   UNL     1     -16.071  40.548  11.658  1.00  0.00     0.053 C 
BRANCH   3   4
ATOM      4  C   UNL     1     -16.764  40.675  10.337  1.00  0.00     0.041 C 
ATOM      5  O   UNL     1     -16.311  40.078   9.325  1.00  0.00    -0.550 OA
ATOM      6  O   UNL     1     -17.928  41.424  10.230  1.00  0.00    -0.550 OA
ENDBRANCH   3   4
ENDBRANCH   2   3
ENDBRANCH   1   2
BRANCH   1   7
ATOM      7  C   UNL     1     -18.048  37.564  13.311  1.00  0.00     0.000 C 
BRANCH   7   8
ATOM      8  C   UNL     1     -16.858  36.971  14.082  1.00  0.00    -0.000 C 
BRANCH   8   9
ATOM      9  C   UNL     1     -16.482  35.562  13.598  1.00  0.00    -0.000 C 
BRANCH   9  10
ATOM     10  C   UNL     1     -16.958  35.281  12.164  1.00  0.00    -0.003 C 
ATOM     11  C   UNL     1     -15.897  35.686  11.145  1.00  0.00     0.004 C 
ENDBRANCH   9  10
ENDBRANCH   8   9
ENDBRANCH   7   8
ENDBRANCH   1   7
TORSDOF 7
ENDMDL
