MODEL 1
REMARK VINA RESULT:    -4.759      0.000      0.000
REMARK INTER + INTRA:         -10.048
REMARK INTER:                  -8.098
REMARK INTRA:                  -1.949
REMARK UNBOUND:                -1.949
REMARK SMILES CCCCCCCCCCCCCC(=O)[O-]
REMARK SMILES IDX 8 1 9 2 10 3 11 4 12 5 13 6 14 7 15 8 16 9 7 10 6 11 5 12
REMARK SMILES IDX 4 13 3 14 2 15 1 16
REMARK H PARENT
REMARK Flexibility Score: inf
ROOT
ATOM      1  C   UNL     1       2.607  53.640  20.088  1.00  0.00     0.000 C 
ENDROOT
BRANCH   1   2
ATOM      2  C   UNL     1       1.910  54.832  20.760  1.00  0.00     0.000 C 
BRANCH   2   3
ATOM      3  C   UNL     1       0.385  54.723  20.627  1.00  0.00     0.000 C 
BRANCH   3   4
ATOM      4  C   UNL     1      -0.222  55.840  19.760  1.00  0.00     0.000 C 
BRANCH   4   5
ATOM      5  C   UNL     1      -1.604  55.486  19.172  1.00  0.00     0.006 C 
BRANCH   5   6
ATOM      6  C   UNL     1      -1.911  56.280  17.895  1.00  0.00     0.053 C 
BRANCH   6   7
ATOM      7  C   UNL     1      -3.298  56.839  17.948  1.00  0.00     0.041 C 
ATOM      8  O   UNL     1      -4.138  56.373  18.762  1.00  0.00    -0.550 OA
ATOM      9  O   UNL     1      -3.649  57.907  17.133  1.00  0.00    -0.550 OA
ENDBRANCH   6   7
ENDBRANCH   5   6
ENDBRANCH   4   5
ENDBRANCH   3   4
ENDBRANCH   2   3
ENDBRANCH   1   2
BRANCH   1  10
ATOM     10  C   UNL     1       1.618  52.678  19.404  1.00  0.00     0.000 C 
BRANCH  10  11
ATOM     11  C   UNL     1       1.914  52.390  17.919  1.00  0.00    -0.000 C 
BRANCH  11  12
ATOM     12  C   UNL     1       1.287  53.385  16.922  1.00  0.00    -0.000 C 
BRANCH  12  13
ATOM     13  C   UNL     1       2.255  54.439  16.354  1.00  0.00    -0.000 C 
BRANCH  13  14
ATOM     14  C   UNL     1       1.923  55.867  16.819  1.00  0.00    -0.000 C 
BRANCH  14  15
ATOM     15  C   UNL     1       3.036  56.478  17.684  1.00  0.00    -0.003 C 
ATOM     16  C   UNL     1       2.638  57.820  18.301  1.00  0.00     0.004 C 
ENDBRANCH  14  15
ENDBRANCH  13  14
ENDBRANCH  12  13
ENDBRANCH  11  12
ENDBRANCH  10  11
ENDBRANCH   1  10
TORSDOF 12
ENDMDL
MODEL 2
REMARK VINA RESULT:    -4.710      2.007      2.311
REMARK INTER + INTRA:          -9.964
REMARK INTER:                  -7.834
REMARK INTRA:                  -2.130
REMARK UNBOUND:                -1.949
REMARK SMILES CCCCCCCCCCCCCC(=O)[O-]
REMARK SMILES IDX 8 1 9 2 10 3 11 4 12 5 13 6 14 7 15 8 16 9 7 10 6 11 5 12
REMARK SMILES IDX 4 13 3 14 2 15 1 16
REMARK H PARENT
REMARK Flexibility Score: inf
ROOT
ATOM      1  C   UNL     1       2.256  53.716  20.107  1.00  0.00     0.000 C 
ENDROOT
BRANCH   1   2
ATOM      2  C   UNL     1       1.497  54.959  20.595  1.00  0.00     0.000 C 
BRANCH   2   3
ATOM      3  C   UNL     1      -0.012  54.690  20.659  1.00  0.00     0.000 C 
BRANCH   3   4
ATOM      4  C   UNL     1      -0.831  55.661  19.791  1.00  0.00     0.000 C 
BRANCH   4   5
ATOM      5  C   UNL     1      -2.265  55.171  19.497  1.00  0.00     0.006 C 
BRANCH   5   6
ATOM      6  C   UNL     1      -2.414  54.642  18.065  1.00  0.00     0.053 C 
BRANCH   6   7
ATOM      7  C   UNL     1      -2.328  53.148  18.048  1.00  0.00     0.041 C 
ATOM      8  O   UNL     1      -2.107  52.539  16.969  1.00  0.00    -0.550 OA
ATOM      9  O   UNL     1      -2.443  52.432  19.232  1.00  0.00    -0.550 OA
ENDBRANCH   6   7
ENDBRANCH   5   6
ENDBRANCH   4   5
ENDBRANCH   3   4
ENDBRANCH   2   3
ENDBRANCH   1   2
BRANCH   1  10
ATOM     10  C   UNL     1       1.452  52.887  19.089  1.00  0.00     0.000 C 
BRANCH  10  11
ATOM     11  C   UNL     1       1.879  53.072  17.619  1.00  0.00    -0.000 C 
BRANCH  11  12
ATOM     12  C   UNL     1       1.101  54.154  16.843  1.00  0.00    -0.000 C 
BRANCH  12  13
ATOM     13  C   UNL     1       1.833  55.500  16.687  1.00  0.00    -0.000 C 
BRANCH  13  14
ATOM     14  C   UNL     1       0.944  56.706  17.033  1.00  0.00    -0.000 C 
BRANCH  14  15
ATOM     15  C   UNL     1       1.672  57.744  17.901  1.00  0.00    -0.003 C 
ATOM     16  C   UNL     1       3.075  57.295  18.311  1.00  0.00     0.004 C 
ENDBRANCH  14  15
ENDBRANCH  13  14
ENDBRANCH  12  13
ENDBRANCH  11  12
ENDBRANCH  10  11
ENDBRANCH   1  10
TORSDOF 12
ENDMDL
MODEL 3
REMARK VINA RESULT:    -4.632      1.402      2.578
REMARK INTER + INTRA:          -9.832
REMARK INTER:                  -7.927
REMARK INTRA:                  -1.904
REMARK UNBOUND:                -1.949
REMARK SMILES CCCCCCCCCCCCCC(=O)[O-]
REMARK SMILES IDX 8 1 9 2 10 3 11 4 12 5 13 6 14 7 15 8 16 9 7 10 6 11 5 12
REMARK SMILES IDX 4 13 3 14 2 15 1 16
REMARK H PARENT
REMARK Flexibility Score: inf
ROOT
ATOM      1  C   UNL     1       0.569  53.383  19.940  1.00  0.00     0.000 C 
ENDROOT
BRANCH   1   2
ATOM      2  C   UNL     1      -0.500  54.148  20.732  1.00  0.00     0.000 C 
BRANCH   2   3
ATOM      3  C   UNL     1      -1.868  54.050  20.046  1.00  0.00     0.000 C 
BRANCH   3   4
ATOM      4  C   UNL     1      -1.765  53.958  18.513  1.00  0.00     0.000 C 
BRANCH   4   5
ATOM      5  C   UNL     1      -2.595  55.026  17.771  1.00  0.00     0.006 C 
BRANCH   5   6
ATOM      6  C   UNL     1      -2.639  56.358  18.531  1.00  0.00     0.053 C 
BRANCH   6   7
ATOM      7  C   UNL     1      -4.048  56.849  18.645  1.00  0.00     0.041 C 
ATOM      8  O   UNL     1      -4.434  57.830  17.956  1.00  0.00    -0.550 OA
ATOM      9  O   UNL     1      -4.948  56.193  19.474  1.00  0.00    -0.550 OA
ENDBRANCH   6   7
ENDBRANCH   5   6
ENDBRANCH   4   5
ENDBRANCH   3   4
ENDBRANCH   2   3
ENDBRANCH   1   2
BRANCH   1  10
ATOM     10  C   UNL     1       1.991  53.926  20.177  1.00  0.00     0.000 C 
BRANCH  10  11
ATOM     11  C   UNL     1       2.080  55.454  20.358  1.00  0.00    -0.000 C 
BRANCH  11  12
ATOM     12  C   UNL     1       2.316  56.255  19.063  1.00  0.00    -0.000 C 
BRANCH  12  13
ATOM     13  C   UNL     1       1.041  56.772  18.372  1.00  0.00    -0.000 C 
BRANCH  13  14
ATOM     14  C   UNL     1       0.914  56.291  16.916  1.00  0.00    -0.000 C 
BRANCH  14  15
ATOM     15  C   UNL     1       1.602  54.938  16.681  1.00  0.00    -0.003 C 
ATOM     16  C   UNL     1       2.692  55.004  15.611  1.00  0.00     0.004 C 
ENDBRANCH  14  15
ENDBRANCH  13  14
ENDBRANCH  12  13
ENDBRANCH  11  12
ENDBRANCH  10  11
ENDBRANCH   1  10
TORSDOF 12
ENDMDL
MODEL 4
REMARK VINA RESULT:    -4.624      1.288      1.890
REMARK INTER + INTRA:          -9.817
REMARK INTER:                  -7.598
REMARK INTRA:                  -2.218
REMARK UNBOUND:                -1.949
REMARK SMILES CCCCCCCCCCCCCC(=O)[O-]
REMARK SMILES IDX 8 1 9 2 10 3 11 4 12 5 13 6 14 7 15 8 16 9 7 10 6 11 5 12
REMARK SMILES IDX 4 13 3 14 2 15 1 16
REMARK H PARENT
REMARK Flexibility Score: inf
ROOT
ATOM      1  C   UNL     1       1.434  52.713  19.514  1.00  0.00     0.000 C 
ENDROOT
BRANCH   1   2
ATOM      2  C   UNL     1       2.355  53.771  20.138  1.00  0.00     0.000 C 
BRANCH   2   3
ATOM      3  C   UNL     1       1.541  54.927  20.733  1.00  0.00     0.000 C 
BRANCH   3   4
ATOM      4  C   UNL     1       0.044  54.846  20.387  1.00  0.00     0.000 C 
BRANCH   4   5
ATOM      5  C   UNL     1      -0.478  56.069  19.604  1.00  0.00     0.006 C 
BRANCH   5   6
ATOM      6  C   UNL     1      -1.172  55.666  18.296  1.00  0.00     0.053 C 
BRANCH   6   7
ATOM      7  C   UNL     1      -2.253  54.667  18.564  1.00  0.00     0.041 C 
ATOM      8  O   UNL     1      -2.189  53.514  18.064  1.00  0.00    -0.550 OA
ATOM      9  O   UNL     1      -3.308  54.994  19.407  1.00  0.00    -0.550 OA
ENDBRANCH   6   7
ENDBRANCH   5   6
ENDBRANCH   4   5
ENDBRANCH   3   4
ENDBRANCH   2   3
ENDBRANCH   1   2
BRANCH   1  10
ATOM     10  C   UNL     1       1.761  52.434  18.035  1.00  0.00     0.000 C 
BRANCH  10  11
ATOM     11  C   UNL     1       1.242  53.494  17.044  1.00  0.00    -0.000 C 
BRANCH  11  12
ATOM     12  C   UNL     1       2.330  54.374  16.396  1.00  0.00    -0.000 C 
BRANCH  12  13
ATOM     13  C   UNL     1       2.301  55.857  16.806  1.00  0.00    -0.000 C 
BRANCH  13  14
ATOM     14  C   UNL     1       3.516  56.267  17.655  1.00  0.00    -0.000 C 
BRANCH  14  15
ATOM     15  C   UNL     1       3.206  57.436  18.602  1.00  0.00    -0.003 C 
ATOM     16  C   UNL     1       2.037  58.296  18.120  1.00  0.00     0.004 C 
ENDBRANCH  14  15
ENDBRANCH  13  14
ENDBRANCH  12  13
ENDBRANCH  11  12
ENDBRANCH  10  11
ENDBRANCH   1  10
TORSDOF 12
ENDMDL
MODEL 5
REMARK VINA RESULT:    -4.583      3.113      4.797
REMARK INTER + INTRA:          -9.748
REMARK INTER:                  -7.683
REMARK INTRA:                  -2.065
REMARK UNBOUND:                -1.949
REMARK SMILES CCCCCCCCCCCCCC(=O)[O-]
REMARK SMILES IDX 8 1 9 2 10 3 11 4 12 5 13 6 14 7 15 8 16 9 7 10 6 11 5 12
REMARK SMILES IDX 4 13 3 14 2 15 1 16
REMARK H PARENT
REMARK Flexibility Score: inf
ROOT
ATOM      1  C   UNL     1       0.465  54.680  20.896  1.00  0.00     0.000 C 
ENDROOT
BRANCH   1   2
ATOM      2  C   UNL     1      -0.444  55.446  19.925  1.00  0.00     0.000 C 
BRANCH   2   3
ATOM      3  C   UNL     1       0.380  56.341  18.991  1.00  0.00     0.000 C 
BRANCH   3   4
ATOM      4  C   UNL     1      -0.114  56.303  17.534  1.00  0.00     0.000 C 
BRANCH   4   5
ATOM      5  C   UNL     1       1.019  56.405  16.492  1.00  0.00     0.006 C 
BRANCH   5   6
ATOM      6  C   UNL     1       2.048  55.276  16.642  1.00  0.00     0.053 C 
BRANCH   6   7
ATOM      7  C   UNL     1       3.421  55.842  16.826  1.00  0.00     0.041 C 
ATOM      8  O   UNL     1       3.683  56.556  17.828  1.00  0.00    -0.550 OA
ATOM      9  O   UNL     1       4.425  55.539  15.915  1.00  0.00    -0.550 OA
ENDBRANCH   6   7
ENDBRANCH   5   6
ENDBRANCH   4   5
ENDBRANCH   3   4
ENDBRANCH   2   3
ENDBRANCH   1   2
BRANCH   1  10
ATOM     10  C   UNL     1       1.962  54.875  20.593  1.00  0.00     0.000 C 
BRANCH  10  11
ATOM     11  C   UNL     1       2.729  53.583  20.248  1.00  0.00    -0.000 C 
BRANCH  11  12
ATOM     12  C   UNL     1       2.314  52.908  18.925  1.00  0.00    -0.000 C 
BRANCH  12  13
ATOM     13  C   UNL     1       1.515  51.602  19.080  1.00  0.00    -0.000 C 
BRANCH  13  14
ATOM     14  C   UNL     1       0.007  51.792  18.840  1.00  0.00    -0.000 C 
BRANCH  14  15
ATOM     15  C   UNL     1      -0.289  52.554  17.539  1.00  0.00    -0.003 C 
ATOM     16  C   UNL     1      -1.759  52.952  17.406  1.00  0.00     0.004 C 
ENDBRANCH  14  15
ENDBRANCH  13  14
ENDBRANCH  12  13
ENDBRANCH  11  12
ENDBRANCH  10  11
ENDBRANCH   1  10
TORSDOF 12
ENDMDL
MODEL 6
REMARK VINA RESULT:    -4.556      1.674      2.968
REMARK INTER + INTRA:          -9.701
REMARK INTER:                  -7.398
REMARK INTRA:                  -2.303
REMARK UNBOUND:                -1.949
REMARK SMILES CCCCCCCCCCCCCC(=O)[O-]
REMARK SMILES IDX 8 1 9 2 10 3 11 4 12 5 13 6 14 7 15 8 16 9 7 10 6 11 5 12
REMARK SMILES IDX 4 13 3 14 2 15 1 16
REMARK H PARENT
REMARK Flexibility Score: inf
ROOT
ATOM      1  C   UNL     1       2.934  53.377  19.314  1.00  0.00     0.000 C 
ENDROOT
BRANCH   1   2
ATOM      2  C   UNL     1       2.245  52.436  18.314  1.00  0.00     0.000 C 
BRANCH   2   3
ATOM      3  C   UNL     1       0.721  52.465  18.493  1.00  0.00     0.000 C 
BRANCH   3   4
ATOM      4  C   UNL     1      -0.032  52.714  17.175  1.00  0.00     0.000 C 
BRANCH   4   5
ATOM      5  C   UNL     1      -1.566  52.771  17.339  1.00  0.00     0.006 C 
BRANCH   5   6
ATOM      6  C   UNL     1      -1.984  53.050  18.789  1.00  0.00     0.053 C 
BRANCH   6   7
ATOM      7  C   UNL     1      -2.778  54.315  18.869  1.00  0.00     0.041 C 
ATOM      8  O   UNL     1      -3.195  54.731  19.982  1.00  0.00    -0.550 OA
ATOM      9  O   UNL     1      -3.016  55.061  17.722  1.00  0.00    -0.550 OA
ENDBRANCH   6   7
ENDBRANCH   5   6
ENDBRANCH   4   5
ENDBRANCH   3   4
ENDBRANCH   2   3
ENDBRANCH   1   2
BRANCH   1  10
ATOM     10  C   UNL     1       1.937  54.094  20.243  1.00  0.00     0.000 C 
BRANCH  10  11
ATOM     11  C   UNL     1       1.812  55.613  20.011  1.00  0.00    -0.000 C 
BRANCH  11  12
ATOM     12  C   UNL     1       0.448  56.083  19.468  1.00  0.00    -0.000 C 
BRANCH  12  13
ATOM     13  C   UNL     1       0.366  56.218  17.937  1.00  0.00    -0.000 C 
BRANCH  13  14
ATOM     14  C   UNL     1       1.730  56.510  17.289  1.00  0.00    -0.000 C 
BRANCH  14  15
ATOM     15  C   UNL     1       2.074  55.516  16.169  1.00  0.00    -0.003 C 
ATOM     16  C   UNL     1       3.567  55.196  16.098  1.00  0.00     0.004 C 
ENDBRANCH  14  15
ENDBRANCH  13  14
ENDBRANCH  12  13
ENDBRANCH  11  12
ENDBRANCH  10  11
ENDBRANCH   1  10
TORSDOF 12
ENDMDL
MODEL 7
REMARK VINA RESULT:    -4.528      2.563      5.246
REMARK INTER + INTRA:          -9.653
REMARK INTER:                  -7.953
REMARK INTRA:                  -1.700
REMARK UNBOUND:                -1.949
REMARK SMILES CCCCCCCCCCCCCC(=O)[O-]
REMARK SMILES IDX 8 1 9 2 10 3 11 4 12 5 13 6 14 7 15 8 16 9 7 10 6 11 5 12
REMARK SMILES IDX 4 13 3 14 2 15 1 16
REMARK H PARENT
REMARK Flexibility Score: inf
ROOT
ATOM      1  C   UNL     1       2.552  55.992  17.243  1.00  0.00     0.000 C 
ENDROOT
BRANCH   1   2
ATOM      2  C   UNL     1       2.217  54.823  16.305  1.00  0.00     0.000 C 
BRANCH   2   3
ATOM      3  C   UNL     1       1.233  53.851  16.968  1.00  0.00     0.000 C 
BRANCH   3   4
ATOM      4  C   UNL     1       1.934  52.705  17.718  1.00  0.00     0.000 C 
BRANCH   4   5
ATOM      5  C   UNL     1       1.566  52.627  19.215  1.00  0.00     0.006 C 
BRANCH   5   6
ATOM      6  C   UNL     1       2.489  53.491  20.084  1.00  0.00     0.053 C 
BRANCH   6   7
ATOM      7  C   UNL     1       1.716  54.602  20.722  1.00  0.00     0.041 C 
ATOM      8  O   UNL     1       2.291  55.680  21.025  1.00  0.00    -0.550 OA
ATOM      9  O   UNL     1       0.351  54.467  20.936  1.00  0.00    -0.550 OA
ENDBRANCH   6   7
ENDBRANCH   5   6
ENDBRANCH   4   5
ENDBRANCH   3   4
ENDBRANCH   2   3
ENDBRANCH   1   2
BRANCH   1  10
ATOM     10  C   UNL     1       1.297  56.685  17.804  1.00  0.00     0.000 C 
BRANCH  10  11
ATOM     11  C   UNL     1       0.280  57.147  16.741  1.00  0.00    -0.000 C 
BRANCH  11  12
ATOM     12  C   UNL     1      -1.199  56.904  17.100  1.00  0.00    -0.000 C 
BRANCH  12  13
ATOM     13  C   UNL     1      -1.438  55.926  18.264  1.00  0.00    -0.000 C 
BRANCH  13  14
ATOM     14  C   UNL     1      -2.576  54.930  17.984  1.00  0.00    -0.000 C 
BRANCH  14  15
ATOM     15  C   UNL     1      -2.230  53.501  18.430  1.00  0.00    -0.003 C 
ATOM     16  C   UNL     1      -2.220  52.504  17.271  1.00  0.00     0.004 C 
ENDBRANCH  14  15
ENDBRANCH  13  14
ENDBRANCH  12  13
ENDBRANCH  11  12
ENDBRANCH  10  11
ENDBRANCH   1  10
TORSDOF 12
ENDMDL
MODEL 8
REMARK VINA RESULT:    -4.510      3.534      5.377
REMARK INTER + INTRA:          -9.623
REMARK INTER:                  -7.467
REMARK INTRA:                  -2.157
REMARK UNBOUND:                -1.949
REMARK SMILES CCCCCCCCCCCCCC(=O)[O-]
REMARK SMILES IDX 8 1 9 2 10 3 11 4 12 5 13 6 14 7 15 8 16 9 7 10 6 11 5 12
REMARK SMILES IDX 4 13 3 14 2 15 1 16
REMARK H PARENT
REMARK Flexibility Score: inf
ROOT
ATOM      1  C   UNL     1      -1.816  56.139  17.821  1.00  0.00     0.000 C 
ENDROOT
BRANCH   1   2
ATOM      2  C   UNL     1      -0.840  56.171  19.006  1.00  0.00     0.000 C 
BRANCH   2   3
ATOM      3  C   UNL     1       0.599  56.400  18.526  1.00  0.00     0.000 C 
BRANCH   3   4
ATOM      4  C   UNL     1       0.769  56.177  17.013  1.00  0.00     0.000 C 
BRANCH   4   5
ATOM      5  C   UNL     1       2.177  55.686  16.613  1.00  0.00     0.006 C 
BRANCH   5   6
ATOM      6  C   UNL     1       3.268  56.236  17.541  1.00  0.00     0.053 C 
BRANCH   6   7
ATOM      7  C   UNL     1       4.530  55.448  17.388  1.00  0.00     0.041 C 
ATOM      8  O   UNL     1       4.489  54.261  16.970  1.00  0.00    -0.550 OA
ATOM      9  O   UNL     1       5.757  56.040  17.660  1.00  0.00    -0.550 OA
ENDBRANCH   6   7
ENDBRANCH   5   6
ENDBRANCH   4   5
ENDBRANCH   3   4
ENDBRANCH   2   3
ENDBRANCH   1   2
BRANCH   1  10
ATOM     10  C   UNL     1      -2.769  54.930  17.865  1.00  0.00     0.000 C 
BRANCH  10  11
ATOM     11  C   UNL     1      -2.147  53.632  18.416  1.00  0.00    -0.000 C 
BRANCH  11  12
ATOM     12  C   UNL     1      -1.475  52.729  17.363  1.00  0.00    -0.000 C 
BRANCH  12  13
ATOM     13  C   UNL     1       0.054  52.608  17.484  1.00  0.00    -0.000 C 
BRANCH  13  14
ATOM     14  C   UNL     1       0.534  52.542  18.944  1.00  0.00    -0.000 C 
BRANCH  14  15
ATOM     15  C   UNL     1       2.052  52.739  19.074  1.00  0.00    -0.003 C 
ATOM     16  C   UNL     1       2.432  53.702  20.199  1.00  0.00     0.004 C 
ENDBRANCH  14  15
ENDBRANCH  13  14
ENDBRANCH  12  13
ENDBRANCH  11  12
ENDBRANCH  10  11
ENDBRANCH   1  10
TORSDOF 12
ENDMDL
MODEL 9
REMARK VINA RESULT:    -4.495      4.887      7.052
REMARK INTER + INTRA:          -9.597
REMARK INTER:                  -8.399
REMARK INTRA:                  -1.198
REMARK UNBOUND:                -1.949
REMARK SMILES CCCCCCCCCCCCCC(=O)[O-]
REMARK SMILES IDX 8 1 9 2 10 3 11 4 12 5 13 6 14 7 15 8 16 9 7 10 6 11 5 12
REMARK SMILES IDX 4 13 3 14 2 15 1 16
REMARK H PARENT
REMARK Flexibility Score: inf
ROOT
ATOM      1  C   UNL     1       1.932  57.282  18.088  1.00  0.00     0.000 C 
ENDROOT
BRANCH   1   2
ATOM      2  C   UNL     1       3.439  57.094  18.318  1.00  0.00     0.000 C 
BRANCH   2   3
ATOM      3  C   UNL     1       4.068  56.270  17.187  1.00  0.00     0.000 C 
BRANCH   3   4
ATOM      4  C   UNL     1       5.482  56.748  16.813  1.00  0.00     0.000 C 
BRANCH   4   5
ATOM      5  C   UNL     1       6.480  56.712  17.989  1.00  0.00     0.006 C 
BRANCH   5   6
ATOM      6  C   UNL     1       7.889  57.151  17.568  1.00  0.00     0.053 C 
BRANCH   6   7
ATOM      7  C   UNL     1       8.226  58.477  18.174  1.00  0.00     0.041 C 
ATOM      8  O   UNL     1       7.538  58.932  19.124  1.00  0.00    -0.550 OA
ATOM      9  O   UNL     1       9.331  59.187  17.722  1.00  0.00    -0.550 OA
ENDBRANCH   6   7
ENDBRANCH   5   6
ENDBRANCH   4   5
ENDBRANCH   3   4
ENDBRANCH   2   3
ENDBRANCH   1   2
BRANCH   1  10
ATOM     10  C   UNL     1       1.382  56.381  16.967  1.00  0.00     0.000 C 
BRANCH  10  11
ATOM     11  C   UNL     1       0.690  55.092  17.452  1.00  0.00    -0.000 C 
BRANCH  11  12
ATOM     12  C   UNL     1       1.361  53.779  17.002  1.00  0.00    -0.000 C 
BRANCH  12  13
ATOM     13  C   UNL     1       1.370  52.656  18.055  1.00  0.00    -0.000 C 
BRANCH  13  14
ATOM     14  C   UNL     1       1.118  53.172  19.482  1.00  0.00    -0.000 C 
BRANCH  14  15
ATOM     15  C   UNL     1       2.401  53.676  20.160  1.00  0.00    -0.003 C 
ATOM     16  C   UNL     1       2.182  54.957  20.965  1.00  0.00     0.004 C 
ENDBRANCH  14  15
ENDBRANCH  13  14
ENDBRANCH  12  13
ENDBRANCH  11  12
ENDBRANCH  10  11
ENDBRANCH   1  10
TORSDOF 12
ENDMDL
