MODEL 1
REMARK VINA RESULT:    -3.906      0.000      0.000
REMARK INTER + INTRA:          -4.620
REMARK INTER:                  -4.591
REMARK INTRA:                  -0.029
REMARK UNBOUND:                -0.029
REMARK SMILES CCCCC(=O)[O-]
REMARK SMILES IDX 4 1 5 2 6 3 7 4 3 5 2 6 1 7
REMARK H PARENT
REMARK Flexibility Score: inf
ROOT
ATOM      1  C   UNL     1      12.203   1.934  -1.649  1.00  0.00     0.053 C 
ENDROOT
BRANCH   1   2
ATOM      2  C   UNL     1      11.182   1.560  -2.677  1.00  0.00     0.041 C 
ATOM      3  O   UNL     1       9.965   1.815  -2.484  1.00  0.00    -0.550 OA
ATOM      4  O   UNL     1      11.582   0.974  -3.871  1.00  0.00    -0.550 OA
ENDBRANCH   1   2
BRANCH   1   5
ATOM      5  C   UNL     1      11.917   1.219  -0.326  1.00  0.00     0.006 C 
BRANCH   5   6
ATOM      6  C   UNL     1      12.996   0.170  -0.024  1.00  0.00    -0.003 C 
ATOM      7  C   UNL     1      12.876  -0.348   1.405  1.00  0.00     0.004 C 
ENDBRANCH   5   6
ENDBRANCH   1   5
TORSDOF 3
ENDMDL
MODEL 2
REMARK VINA RESULT:    -3.710      2.641      4.090
REMARK INTER + INTRA:          -4.390
REMARK INTER:                  -4.340
REMARK INTRA:                  -0.050
REMARK UNBOUND:                -0.029
REMARK SMILES CCCCC(=O)[O-]
REMARK SMILES IDX 4 1 5 2 6 3 7 4 3 5 2 6 1 7
REMARK H PARENT
REMARK Flexibility Score: inf
ROOT
ATOM      1  C   UNL     1      11.830   1.232  -0.101  1.00  0.00     0.053 C 
ENDROOT
BRANCH   1   2
ATOM      2  C   UNL     1      12.780   0.166   0.348  1.00  0.00     0.041 C 
ATOM      3  O   UNL     1      13.748  -0.169  -0.383  1.00  0.00    -0.550 OA
ATOM      4  O   UNL     1      12.622  -0.423   1.596  1.00  0.00    -0.550 OA
ENDBRANCH   1   2
BRANCH   1   5
ATOM      5  C   UNL     1      12.264   1.800  -1.455  1.00  0.00     0.006 C 
BRANCH   5   6
ATOM      6  C   UNL     1      11.109   1.756  -2.464  1.00  0.00    -0.003 C 
ATOM      7  C   UNL     1      11.565   1.171  -3.797  1.00  0.00     0.004 C 
ENDBRANCH   5   6
ENDBRANCH   1   5
TORSDOF 3
ENDMDL
MODEL 3
REMARK VINA RESULT:    -3.703      1.456      2.125
REMARK INTER + INTRA:          -4.382
REMARK INTER:                  -4.363
REMARK INTRA:                  -0.019
REMARK UNBOUND:                -0.029
REMARK SMILES CCCCC(=O)[O-]
REMARK SMILES IDX 4 1 5 2 6 3 7 4 3 5 2 6 1 7
REMARK H PARENT
REMARK Flexibility Score: inf
ROOT
ATOM      1  C   UNL     1      10.980   1.641  -2.916  1.00  0.00     0.053 C 
ENDROOT
BRANCH   1   2
ATOM      2  C   UNL     1      11.470   1.610  -4.330  1.00  0.00     0.041 C 
ATOM      3  O   UNL     1      11.849   0.526  -4.845  1.00  0.00    -0.550 OA
ATOM      4  O   UNL     1      11.461   2.770  -5.093  1.00  0.00    -0.550 OA
ENDBRANCH   1   2
BRANCH   1   5
ATOM      5  C   UNL     1      12.105   2.064  -1.968  1.00  0.00     0.006 C 
BRANCH   5   6
ATOM      6  C   UNL     1      11.848   1.550  -0.546  1.00  0.00    -0.003 C 
ATOM      7  C   UNL     1      12.801   0.414  -0.190  1.00  0.00     0.004 C 
ENDBRANCH   5   6
ENDBRANCH   1   5
TORSDOF 3
ENDMDL
MODEL 4
REMARK VINA RESULT:    -3.681      2.187      3.983
REMARK INTER + INTRA:          -4.355
REMARK INTER:                  -4.278
REMARK INTRA:                  -0.077
REMARK UNBOUND:                -0.029
REMARK SMILES CCCCC(=O)[O-]
REMARK SMILES IDX 4 1 5 2 6 3 7 4 3 5 2 6 1 7
REMARK H PARENT
REMARK Flexibility Score: inf
ROOT
ATOM      1  C   UNL     1      12.242   2.478  -2.334  1.00  0.00     0.053 C 
ENDROOT
BRANCH   1   2
ATOM      2  C   UNL     1      11.750   1.620  -1.211  1.00  0.00     0.041 C 
ATOM      3  O   UNL     1      12.561   0.932  -0.537  1.00  0.00    -0.550 OA
ATOM      4  O   UNL     1      10.402   1.619  -0.878  1.00  0.00    -0.550 OA
ENDBRANCH   1   2
BRANCH   1   5
ATOM      5  C   UNL     1      11.357   2.303  -3.570  1.00  0.00     0.006 C 
BRANCH   5   6
ATOM      6  C   UNL     1      11.517   0.898  -4.166  1.00  0.00    -0.003 C 
ATOM      7  C   UNL     1      11.519   0.944  -5.691  1.00  0.00     0.004 C 
ENDBRANCH   5   6
ENDBRANCH   1   5
TORSDOF 3
ENDMDL
MODEL 5
REMARK VINA RESULT:    -3.621      1.827      2.397
REMARK INTER + INTRA:          -4.284
REMARK INTER:                  -4.199
REMARK INTRA:                  -0.085
REMARK UNBOUND:                -0.029
REMARK SMILES CCCCC(=O)[O-]
REMARK SMILES IDX 4 1 5 2 6 3 7 4 3 5 2 6 1 7
REMARK H PARENT
REMARK Flexibility Score: inf
ROOT
ATOM      1  C   UNL     1      12.238   2.372  -1.984  1.00  0.00     0.053 C 
ENDROOT
BRANCH   1   2
ATOM      2  C   UNL     1      11.583   2.156  -3.312  1.00  0.00     0.041 C 
ATOM      3  O   UNL     1      11.145   3.136  -3.969  1.00  0.00    -0.550 OA
ATOM      4  O   UNL     1      11.500   0.877  -3.846  1.00  0.00    -0.550 OA
ENDBRANCH   1   2
BRANCH   1   5
ATOM      5  C   UNL     1      11.471   1.636  -0.882  1.00  0.00     0.006 C 
BRANCH   5   6
ATOM      6  C   UNL     1      10.094   2.271  -0.654  1.00  0.00    -0.003 C 
ATOM      7  C   UNL     1      10.036   2.992   0.690  1.00  0.00     0.004 C 
ENDBRANCH   5   6
ENDBRANCH   1   5
TORSDOF 3
ENDMDL
MODEL 6
REMARK VINA RESULT:    -3.615      2.303      3.723
REMARK INTER + INTRA:          -4.278
REMARK INTER:                  -4.203
REMARK INTRA:                  -0.075
REMARK UNBOUND:                -0.029
REMARK SMILES CCCCC(=O)[O-]
REMARK SMILES IDX 4 1 5 2 6 3 7 4 3 5 2 6 1 7
REMARK H PARENT
REMARK Flexibility Score: inf
ROOT
ATOM      1  C   UNL     1      11.370   1.650  -0.517  1.00  0.00     0.053 C 
ENDROOT
BRANCH   1   2
ATOM      2  C   UNL     1      10.268   2.575  -0.107  1.00  0.00     0.041 C 
ATOM      3  O   UNL     1      10.187   2.975   1.084  1.00  0.00    -0.550 OA
ATOM      4  O   UNL     1       9.360   3.034  -1.051  1.00  0.00    -0.550 OA
ENDBRANCH   1   2
BRANCH   1   5
ATOM      5  C   UNL     1      12.087   2.187  -1.759  1.00  0.00     0.006 C 
BRANCH   5   6
ATOM      6  C   UNL     1      11.722   1.367  -3.003  1.00  0.00    -0.003 C 
ATOM      7  C   UNL     1      11.440   2.274  -4.196  1.00  0.00     0.004 C 
ENDBRANCH   5   6
ENDBRANCH   1   5
TORSDOF 3
ENDMDL
MODEL 7
REMARK VINA RESULT:    -3.447      2.773      3.659
REMARK INTER + INTRA:          -4.081
REMARK INTER:                  -4.009
REMARK INTRA:                  -0.072
REMARK UNBOUND:                -0.029
REMARK SMILES CCCCC(=O)[O-]
REMARK SMILES IDX 4 1 5 2 6 3 7 4 3 5 2 6 1 7
REMARK H PARENT
REMARK Flexibility Score: inf
ROOT
ATOM      1  C   UNL     1      10.040   1.929  -0.924  1.00  0.00     0.053 C 
ENDROOT
BRANCH   1   2
ATOM      2  C   UNL     1       9.606   3.129  -0.142  1.00  0.00     0.041 C 
ATOM      3  O   UNL     1       8.964   2.987   0.932  1.00  0.00    -0.550 OA
ATOM      4  O   UNL     1       9.953   4.402  -0.575  1.00  0.00    -0.550 OA
ENDBRANCH   1   2
BRANCH   1   5
ATOM      5  C   UNL     1      11.560   1.764  -0.854  1.00  0.00     0.006 C 
BRANCH   5   6
ATOM      6  C   UNL     1      12.219   2.169  -2.178  1.00  0.00    -0.003 C 
ATOM      7  C   UNL     1      11.542   1.485  -3.362  1.00  0.00     0.004 C 
ENDBRANCH   5   6
ENDBRANCH   1   5
TORSDOF 3
ENDMDL
MODEL 8
REMARK VINA RESULT:    -3.355      2.425      3.141
REMARK INTER + INTRA:          -3.972
REMARK INTER:                  -3.939
REMARK INTRA:                  -0.032
REMARK UNBOUND:                -0.029
REMARK SMILES CCCCC(=O)[O-]
REMARK SMILES IDX 4 1 5 2 6 3 7 4 3 5 2 6 1 7
REMARK H PARENT
REMARK Flexibility Score: inf
ROOT
ATOM      1  C   UNL     1      11.348   1.659  -0.748  1.00  0.00     0.053 C 
ENDROOT
BRANCH   1   2
ATOM      2  C   UNL     1      11.767   1.969  -2.150  1.00  0.00     0.041 C 
ATOM      3  O   UNL     1      12.249   3.097  -2.434  1.00  0.00    -0.550 OA
ATOM      4  O   UNL     1      11.672   0.993  -3.134  1.00  0.00    -0.550 OA
ENDBRANCH   1   2
BRANCH   1   5
ATOM      5  C   UNL     1       9.959   2.236  -0.464  1.00  0.00     0.006 C 
BRANCH   5   6
ATOM      6  C   UNL     1       9.957   3.052   0.835  1.00  0.00    -0.003 C 
ATOM      7  C   UNL     1       8.760   3.996   0.891  1.00  0.00     0.004 C 
ENDBRANCH   5   6
ENDBRANCH   1   5
TORSDOF 3
ENDMDL
MODEL 9
REMARK VINA RESULT:    -3.238      2.364      3.936
REMARK INTER + INTRA:          -3.834
REMARK INTER:                  -3.727
REMARK INTRA:                  -0.108
REMARK UNBOUND:                -0.029
REMARK SMILES CCCCC(=O)[O-]
REMARK SMILES IDX 4 1 5 2 6 3 7 4 3 5 2 6 1 7
REMARK H PARENT
REMARK Flexibility Score: inf
ROOT
ATOM      1  C   UNL     1      11.877   1.652  -2.010  1.00  0.00     0.053 C 
ENDROOT
BRANCH   1   2
ATOM      2  C   UNL     1      11.804   1.474  -0.526  1.00  0.00     0.041 C 
ATOM      3  O   UNL     1      10.977   2.138   0.152  1.00  0.00    -0.550 OA
ATOM      4  O   UNL     1      12.617   0.539   0.101  1.00  0.00    -0.550 OA
ENDBRANCH   1   2
BRANCH   1   5
ATOM      5  C   UNL     1      10.553   2.198  -2.550  1.00  0.00     0.006 C 
BRANCH   5   6
ATOM      6  C   UNL     1      10.763   3.535  -3.272  1.00  0.00    -0.003 C 
ATOM      7  C   UNL     1      10.796   4.696  -2.282  1.00  0.00     0.004 C 
ENDBRANCH   5   6
ENDBRANCH   1   5
TORSDOF 3
ENDMDL
