MODEL 1
REMARK VINA RESULT:    -4.226      0.000      0.000
REMARK INTER + INTRA:          -9.323
REMARK INTER:                  -7.438
REMARK INTRA:                  -1.885
REMARK UNBOUND:                -1.885
REMARK SMILES CCCCCCCCCCCCCCC(=O)[O-]
REMARK SMILES IDX 9 1 10 2 11 3 12 4 13 5 14 6 15 7 16 8 17 9 8 10 7 11 6 12
REMARK SMILES IDX 5 13 4 14 3 15 2 16 1 17
REMARK H PARENT
REMARK Flexibility Score: inf
ROOT
ATOM      1  C   UNL     1      -1.891  56.445  48.471  1.00  0.00     0.000 C 
ENDROOT
BRANCH   1   2
ATOM      2  C   UNL     1      -1.969  56.257  46.942  1.00  0.00     0.000 C 
BRANCH   2   3
ATOM      3  C   UNL     1      -3.218  56.862  46.271  1.00  0.00     0.000 C 
BRANCH   3   4
ATOM      4  C   UNL     1      -2.929  57.783  45.073  1.00  0.00     0.000 C 
BRANCH   4   5
ATOM      5  C   UNL     1      -1.427  57.984  44.823  1.00  0.00     0.006 C 
BRANCH   5   6
ATOM      6  C   UNL     1      -0.948  59.316  45.407  1.00  0.00     0.053 C 
BRANCH   6   7
ATOM      7  C   UNL     1       0.309  59.764  44.731  1.00  0.00     0.041 C 
ATOM      8  O   UNL     1       0.670  59.231  43.649  1.00  0.00    -0.550 OA
ATOM      9  O   UNL     1       1.109  60.733  45.321  1.00  0.00    -0.550 OA
ENDBRANCH   6   7
ENDBRANCH   5   6
ENDBRANCH   4   5
ENDBRANCH   3   4
ENDBRANCH   2   3
ENDBRANCH   1   2
BRANCH   1  10
ATOM     10  C   UNL     1      -2.807  57.545  49.038  1.00  0.00     0.000 C 
BRANCH  10  11
ATOM     11  C   UNL     1      -2.213  58.953  48.883  1.00  0.00    -0.000 C 
BRANCH  11  12
ATOM     12  C   UNL     1      -3.312  60.021  48.941  1.00  0.00    -0.000 C 
BRANCH  12  13
ATOM     13  C   UNL     1      -4.029  60.147  47.591  1.00  0.00    -0.000 C 
BRANCH  13  14
ATOM     14  C   UNL     1      -3.682  61.474  46.906  1.00  0.00    -0.000 C 
BRANCH  14  15
ATOM     15  C   UNL     1      -3.844  61.364  45.382  1.00  0.00    -0.000 C 
BRANCH  15  16
ATOM     16  C   UNL     1      -3.019  62.414  44.622  1.00  0.00    -0.003 C 
ATOM     17  C   UNL     1      -1.829  62.930  45.431  1.00  0.00     0.004 C 
ENDBRANCH  15  16
ENDBRANCH  14  15
ENDBRANCH  13  14
ENDBRANCH  12  13
ENDBRANCH  11  12
ENDBRANCH  10  11
ENDBRANCH   1  10
TORSDOF 13
ENDMDL
MODEL 2
REMARK VINA RESULT:    -4.077      1.273      2.050
REMARK INTER + INTRA:          -9.059
REMARK INTER:                  -7.609
REMARK INTRA:                  -1.450
REMARK UNBOUND:                -1.885
REMARK SMILES CCCCCCCCCCCCCCC(=O)[O-]
REMARK SMILES IDX 9 1 10 2 11 3 12 4 13 5 14 6 15 7 16 8 17 9 8 10 7 11 6 12
REMARK SMILES IDX 5 13 4 14 3 15 2 16 1 17
REMARK H PARENT
REMARK Flexibility Score: inf
ROOT
ATOM      1  C   UNL     1      -1.693  56.427  47.024  1.00  0.00     0.000 C 
ENDROOT
BRANCH   1   2
ATOM      2  C   UNL     1      -2.864  56.948  46.166  1.00  0.00     0.000 C 
BRANCH   2   3
ATOM      3  C   UNL     1      -2.465  57.903  45.023  1.00  0.00     0.000 C 
BRANCH   3   4
ATOM      4  C   UNL     1      -1.103  58.595  45.201  1.00  0.00     0.000 C 
BRANCH   4   5
ATOM      5  C   UNL     1       0.000  57.974  44.332  1.00  0.00     0.006 C 
BRANCH   5   6
ATOM      6  C   UNL     1       0.890  59.057  43.718  1.00  0.00     0.053 C 
BRANCH   6   7
ATOM      7  C   UNL     1       2.256  58.516  43.435  1.00  0.00     0.041 C 
ATOM      8  O   UNL     1       3.272  59.240  43.610  1.00  0.00    -0.550 OA
ATOM      9  O   UNL     1       2.405  57.231  42.931  1.00  0.00    -0.550 OA
ENDBRANCH   6   7
ENDBRANCH   5   6
ENDBRANCH   4   5
ENDBRANCH   3   4
ENDBRANCH   2   3
ENDBRANCH   1   2
BRANCH   1  10
ATOM     10  C   UNL     1      -1.989  56.322  48.530  1.00  0.00     0.000 C 
BRANCH  10  11
ATOM     11  C   UNL     1      -2.931  57.427  49.032  1.00  0.00    -0.000 C 
BRANCH  11  12
ATOM     12  C   UNL     1      -2.278  58.808  48.896  1.00  0.00    -0.000 C 
BRANCH  12  13
ATOM     13  C   UNL     1      -3.330  59.922  48.953  1.00  0.00    -0.000 C 
BRANCH  13  14
ATOM     14  C   UNL     1      -3.973  60.143  47.579  1.00  0.00    -0.000 C 
BRANCH  14  15
ATOM     15  C   UNL     1      -3.498  61.464  46.956  1.00  0.00    -0.000 C 
BRANCH  15  16
ATOM     16  C   UNL     1      -3.477  61.420  45.420  1.00  0.00    -0.003 C 
ATOM     17  C   UNL     1      -2.249  62.109  44.825  1.00  0.00     0.004 C 
ENDBRANCH  15  16
ENDBRANCH  14  15
ENDBRANCH  13  14
ENDBRANCH  12  13
ENDBRANCH  11  12
ENDBRANCH  10  11
ENDBRANCH   1  10
TORSDOF 13
ENDMDL
MODEL 3
REMARK VINA RESULT:    -4.075      1.442      3.823
REMARK INTER + INTRA:          -9.056
REMARK INTER:                  -7.086
REMARK INTRA:                  -1.970
REMARK UNBOUND:                -1.885
REMARK SMILES CCCCCCCCCCCCCCC(=O)[O-]
REMARK SMILES IDX 9 1 10 2 11 3 12 4 13 5 14 6 15 7 16 8 17 9 8 10 7 11 6 12
REMARK SMILES IDX 5 13 4 14 3 15 2 16 1 17
REMARK H PARENT
REMARK Flexibility Score: inf
ROOT
ATOM      1  C   UNL     1      -2.181  59.139  48.764  1.00  0.00     0.000 C 
ENDROOT
BRANCH   1   2
ATOM      2  C   UNL     1      -3.640  59.626  48.654  1.00  0.00     0.000 C 
BRANCH   2   3
ATOM      3  C   UNL     1      -4.048  60.168  47.270  1.00  0.00     0.000 C 
BRANCH   3   4
ATOM      4  C   UNL     1      -3.709  61.649  47.027  1.00  0.00     0.000 C 
BRANCH   4   5
ATOM      5  C   UNL     1      -4.100  62.128  45.622  1.00  0.00     0.006 C 
BRANCH   5   6
ATOM      6  C   UNL     1      -3.370  63.425  45.261  1.00  0.00     0.053 C 
BRANCH   6   7
ATOM      7  C   UNL     1      -2.036  63.124  44.654  1.00  0.00     0.041 C 
ATOM      8  O   UNL     1      -1.958  62.740  43.457  1.00  0.00    -0.550 OA
ATOM      9  O   UNL     1      -0.884  63.219  45.422  1.00  0.00    -0.550 OA
ENDBRANCH   6   7
ENDBRANCH   5   6
ENDBRANCH   4   5
ENDBRANCH   3   4
ENDBRANCH   2   3
ENDBRANCH   1   2
BRANCH   1  10
ATOM     10  C   UNL     1      -2.018  57.668  49.188  1.00  0.00     0.000 C 
BRANCH  10  11
ATOM     11  C   UNL     1      -2.926  56.715  48.397  1.00  0.00    -0.000 C 
BRANCH  11  12
ATOM     12  C   UNL     1      -2.413  56.530  46.965  1.00  0.00    -0.000 C 
BRANCH  12  13
ATOM     13  C   UNL     1      -3.485  56.922  45.940  1.00  0.00    -0.000 C 
BRANCH  13  14
ATOM     14  C   UNL     1      -2.914  57.873  44.882  1.00  0.00    -0.000 C 
BRANCH  14  15
ATOM     15  C   UNL     1      -1.409  58.095  45.097  1.00  0.00    -0.000 C 
BRANCH  15  16
ATOM     16  C   UNL     1      -1.043  59.581  45.224  1.00  0.00    -0.003 C 
ATOM     17  C   UNL     1       0.392  59.876  44.785  1.00  0.00     0.004 C 
ENDBRANCH  15  16
ENDBRANCH  14  15
ENDBRANCH  13  14
ENDBRANCH  12  13
ENDBRANCH  11  12
ENDBRANCH  10  11
ENDBRANCH   1  10
TORSDOF 13
ENDMDL
MODEL 4
REMARK VINA RESULT:    -4.063      1.086      4.053
REMARK INTER + INTRA:          -9.036
REMARK INTER:                  -7.334
REMARK INTRA:                  -1.702
REMARK UNBOUND:                -1.885
REMARK SMILES CCCCCCCCCCCCCCC(=O)[O-]
REMARK SMILES IDX 9 1 10 2 11 3 12 4 13 5 14 6 15 7 16 8 17 9 8 10 7 11 6 12
REMARK SMILES IDX 5 13 4 14 3 15 2 16 1 17
REMARK H PARENT
REMARK Flexibility Score: inf
ROOT
ATOM      1  C   UNL     1      -3.793  62.021  47.214  1.00  0.00     0.000 C 
ENDROOT
BRANCH   1   2
ATOM      2  C   UNL     1      -3.012  62.610  46.021  1.00  0.00     0.000 C 
BRANCH   2   3
ATOM      3  C   UNL     1      -2.693  61.611  44.890  1.00  0.00     0.000 C 
BRANCH   3   4
ATOM      4  C   UNL     1      -1.200  61.471  44.550  1.00  0.00     0.000 C 
BRANCH   4   5
ATOM      5  C   UNL     1      -0.431  60.628  45.578  1.00  0.00     0.006 C 
BRANCH   5   6
ATOM      6  C   UNL     1       1.065  60.596  45.252  1.00  0.00     0.053 C 
BRANCH   6   7
ATOM      7  C   UNL     1       1.336  59.654  44.121  1.00  0.00     0.041 C 
ATOM      8  O   UNL     1       2.103  59.996  43.183  1.00  0.00    -0.550 OA
ATOM      9  O   UNL     1       0.702  58.420  44.078  1.00  0.00    -0.550 OA
ENDBRANCH   6   7
ENDBRANCH   5   6
ENDBRANCH   4   5
ENDBRANCH   3   4
ENDBRANCH   2   3
ENDBRANCH   1   2
BRANCH   1  10
ATOM     10  C   UNL     1      -3.746  60.488  47.328  1.00  0.00     0.000 C 
BRANCH  10  11
ATOM     11  C   UNL     1      -3.460  60.004  48.758  1.00  0.00    -0.000 C 
BRANCH  11  12
ATOM     12  C   UNL     1      -2.235  59.084  48.791  1.00  0.00    -0.000 C 
BRANCH  12  13
ATOM     13  C   UNL     1      -2.654  57.610  48.862  1.00  0.00    -0.000 C 
BRANCH  13  14
ATOM     14  C   UNL     1      -2.203  56.848  47.611  1.00  0.00    -0.000 C 
BRANCH  14  15
ATOM     15  C   UNL     1      -3.412  56.347  46.806  1.00  0.00    -0.000 C 
BRANCH  15  16
ATOM     16  C   UNL     1      -3.923  57.388  45.798  1.00  0.00    -0.003 C 
ATOM     17  C   UNL     1      -2.844  57.838  44.814  1.00  0.00     0.004 C 
ENDBRANCH  15  16
ENDBRANCH  14  15
ENDBRANCH  13  14
ENDBRANCH  12  13
ENDBRANCH  11  12
ENDBRANCH  10  11
ENDBRANCH   1  10
TORSDOF 13
ENDMDL
MODEL 5
REMARK VINA RESULT:    -4.022      2.495      4.612
REMARK INTER + INTRA:          -8.963
REMARK INTER:                  -7.252
REMARK INTRA:                  -1.712
REMARK UNBOUND:                -1.885
REMARK SMILES CCCCCCCCCCCCCCC(=O)[O-]
REMARK SMILES IDX 9 1 10 2 11 3 12 4 13 5 14 6 15 7 16 8 17 9 8 10 7 11 6 12
REMARK SMILES IDX 5 13 4 14 3 15 2 16 1 17
REMARK H PARENT
REMARK Flexibility Score: inf
ROOT
ATOM      1  C   UNL     1       0.772  58.380  43.909  1.00  0.00     0.000 C 
ENDROOT
BRANCH   1   2
ATOM      2  C   UNL     1      -0.699  57.925  43.991  1.00  0.00     0.000 C 
BRANCH   2   3
ATOM      3  C   UNL     1      -1.257  57.766  45.419  1.00  0.00     0.000 C 
BRANCH   3   4
ATOM      4  C   UNL     1      -2.792  57.715  45.516  1.00  0.00     0.000 C 
BRANCH   4   5
ATOM      5  C   UNL     1      -3.289  56.796  46.641  1.00  0.00     0.006 C 
BRANCH   5   6
ATOM      6  C   UNL     1      -2.145  56.421  47.587  1.00  0.00     0.053 C 
BRANCH   6   7
ATOM      7  C   UNL     1      -2.347  57.049  48.930  1.00  0.00     0.041 C 
ATOM      8  O   UNL     1      -2.125  58.278  49.094  1.00  0.00    -0.550 OA
ATOM      9  O   UNL     1      -2.732  56.269  50.012  1.00  0.00    -0.550 OA
ENDBRANCH   6   7
ENDBRANCH   5   6
ENDBRANCH   4   5
ENDBRANCH   3   4
ENDBRANCH   2   3
ENDBRANCH   1   2
BRANCH   1  10
ATOM     10  C   UNL     1       0.973  59.867  43.568  1.00  0.00     0.000 C 
BRANCH  10  11
ATOM     11  C   UNL     1       1.460  60.694  44.767  1.00  0.00    -0.000 C 
BRANCH  11  12
ATOM     12  C   UNL     1       0.277  61.236  45.577  1.00  0.00    -0.000 C 
BRANCH  12  13
ATOM     13  C   UNL     1      -0.161  62.612  45.059  1.00  0.00    -0.000 C 
BRANCH  13  14
ATOM     14  C   UNL     1      -1.689  62.740  45.059  1.00  0.00    -0.000 C 
BRANCH  14  15
ATOM     15  C   UNL     1      -2.356  61.357  45.115  1.00  0.00    -0.000 C 
BRANCH  15  16
ATOM     16  C   UNL     1      -3.711  61.384  45.838  1.00  0.00    -0.003 C 
ATOM     17  C   UNL     1      -3.626  60.864  47.273  1.00  0.00     0.004 C 
ENDBRANCH  15  16
ENDBRANCH  14  15
ENDBRANCH  13  14
ENDBRANCH  12  13
ENDBRANCH  11  12
ENDBRANCH  10  11
ENDBRANCH   1  10
TORSDOF 13
ENDMDL
MODEL 6
REMARK VINA RESULT:    -4.006      2.194      4.528
REMARK INTER + INTRA:          -8.935
REMARK INTER:                  -6.976
REMARK INTRA:                  -1.959
REMARK UNBOUND:                -1.885
REMARK SMILES CCCCCCCCCCCCCCC(=O)[O-]
REMARK SMILES IDX 9 1 10 2 11 3 12 4 13 5 14 6 15 7 16 8 17 9 8 10 7 11 6 12
REMARK SMILES IDX 5 13 4 14 3 15 2 16 1 17
REMARK H PARENT
REMARK Flexibility Score: inf
ROOT
ATOM      1  C   UNL     1      -2.934  59.295  45.167  1.00  0.00     0.000 C 
ENDROOT
BRANCH   1   2
ATOM      2  C   UNL     1      -3.998  59.725  46.197  1.00  0.00     0.000 C 
BRANCH   2   3
ATOM      3  C   UNL     1      -3.446  60.411  47.462  1.00  0.00     0.000 C 
BRANCH   3   4
ATOM      4  C   UNL     1      -3.495  59.555  48.739  1.00  0.00     0.000 C 
BRANCH   4   5
ATOM      5  C   UNL     1      -2.229  58.709  48.940  1.00  0.00     0.006 C 
BRANCH   5   6
ATOM      6  C   UNL     1      -2.570  57.218  48.999  1.00  0.00     0.053 C 
BRANCH   6   7
ATOM      7  C   UNL     1      -2.402  56.587  47.653  1.00  0.00     0.041 C 
ATOM      8  O   UNL     1      -3.412  56.311  46.953  1.00  0.00    -0.550 OA
ATOM      9  O   UNL     1      -1.135  56.258  47.192  1.00  0.00    -0.550 OA
ENDBRANCH   6   7
ENDBRANCH   5   6
ENDBRANCH   4   5
ENDBRANCH   3   4
ENDBRANCH   2   3
ENDBRANCH   1   2
BRANCH   1  10
ATOM     10  C   UNL     1      -1.477  59.531  45.601  1.00  0.00     0.000 C 
BRANCH  10  11
ATOM     11  C   UNL     1      -0.462  58.801  44.709  1.00  0.00    -0.000 C 
BRANCH  11  12
ATOM     12  C   UNL     1       0.705  59.723  44.337  1.00  0.00    -0.000 C 
BRANCH  12  13
ATOM     13  C   UNL     1       0.912  60.807  45.402  1.00  0.00    -0.000 C 
BRANCH  13  14
ATOM     14  C   UNL     1       0.970  62.201  44.765  1.00  0.00    -0.000 C 
BRANCH  14  15
ATOM     15  C   UNL     1      -0.288  63.014  45.109  1.00  0.00    -0.000 C 
BRANCH  15  16
ATOM     16  C   UNL     1      -1.386  62.884  44.042  1.00  0.00    -0.003 C 
ATOM     17  C   UNL     1      -2.794  62.980  44.629  1.00  0.00     0.004 C 
ENDBRANCH  15  16
ENDBRANCH  14  15
ENDBRANCH  13  14
ENDBRANCH  12  13
ENDBRANCH  11  12
ENDBRANCH  10  11
ENDBRANCH   1  10
TORSDOF 13
ENDMDL
MODEL 7
REMARK VINA RESULT:    -3.978     14.235     15.935
REMARK INTER + INTRA:          -8.886
REMARK INTER:                  -7.446
REMARK INTRA:                  -1.440
REMARK UNBOUND:                -1.885
REMARK SMILES CCCCCCCCCCCCCCC(=O)[O-]
REMARK SMILES IDX 9 1 10 2 11 3 12 4 13 5 14 6 15 7 16 8 17 9 8 10 7 11 6 12
REMARK SMILES IDX 5 13 4 14 3 15 2 16 1 17
REMARK H PARENT
REMARK Flexibility Score: inf
ROOT
ATOM      1  C   UNL     1       7.676  61.870  60.489  1.00  0.00     0.000 C 
ENDROOT
BRANCH   1   2
ATOM      2  C   UNL     1       8.500  62.377  59.288  1.00  0.00     0.000 C 
BRANCH   2   3
ATOM      3  C   UNL     1      10.021  62.456  59.523  1.00  0.00     0.000 C 
BRANCH   3   4
ATOM      4  C   UNL     1      10.828  63.055  58.358  1.00  0.00     0.000 C 
BRANCH   4   5
ATOM      5  C   UNL     1       9.938  63.573  57.219  1.00  0.00     0.006 C 
BRANCH   5   6
ATOM      6  C   UNL     1      10.369  64.975  56.781  1.00  0.00     0.053 C 
BRANCH   6   7
ATOM      7  C   UNL     1      10.984  64.932  55.418  1.00  0.00     0.041 C 
ATOM      8  O   UNL     1      11.529  65.961  54.937  1.00  0.00    -0.550 OA
ATOM      9  O   UNL     1      10.913  63.772  54.658  1.00  0.00    -0.550 OA
ENDBRANCH   6   7
ENDBRANCH   5   6
ENDBRANCH   4   5
ENDBRANCH   3   4
ENDBRANCH   2   3
ENDBRANCH   1   2
BRANCH   1  10
ATOM     10  C   UNL     1       6.175  61.677  60.212  1.00  0.00     0.000 C 
BRANCH  10  11
ATOM     11  C   UNL     1       5.741  62.248  58.854  1.00  0.00    -0.000 C 
BRANCH  11  12
ATOM     12  C   UNL     1       4.680  61.356  58.197  1.00  0.00    -0.000 C 
BRANCH  12  13
ATOM     13  C   UNL     1       5.271  60.575  57.017  1.00  0.00    -0.000 C 
BRANCH  13  14
ATOM     14  C   UNL     1       6.372  59.617  57.487  1.00  0.00    -0.000 C 
BRANCH  14  15
ATOM     15  C   UNL     1       7.499  59.524  56.447  1.00  0.00    -0.000 C 
BRANCH  15  16
ATOM     16  C   UNL     1       7.958  60.902  55.946  1.00  0.00    -0.003 C 
ATOM     17  C   UNL     1       8.345  60.895  54.468  1.00  0.00     0.004 C 
ENDBRANCH  15  16
ENDBRANCH  14  15
ENDBRANCH  13  14
ENDBRANCH  12  13
ENDBRANCH  11  12
ENDBRANCH  10  11
ENDBRANCH   1  10
TORSDOF 13
ENDMDL
MODEL 8
REMARK VINA RESULT:    -3.946      2.019      3.967
REMARK INTER + INTRA:          -8.830
REMARK INTER:                  -7.104
REMARK INTRA:                  -1.726
REMARK UNBOUND:                -1.885
REMARK SMILES CCCCCCCCCCCCCCC(=O)[O-]
REMARK SMILES IDX 9 1 10 2 11 3 12 4 13 5 14 6 15 7 16 8 17 9 8 10 7 11 6 12
REMARK SMILES IDX 5 13 4 14 3 15 2 16 1 17
REMARK H PARENT
REMARK Flexibility Score: inf
ROOT
ATOM      1  C   UNL     1      -2.281  56.468  47.677  1.00  0.00     0.000 C 
ENDROOT
BRANCH   1   2
ATOM      2  C   UNL     1      -2.563  57.262  48.969  1.00  0.00     0.000 C 
BRANCH   2   3
ATOM      3  C   UNL     1      -2.368  58.787  48.855  1.00  0.00     0.000 C 
BRANCH   3   4
ATOM      4  C   UNL     1      -3.649  59.585  48.555  1.00  0.00     0.000 C 
BRANCH   4   5
ATOM      5  C   UNL     1      -3.377  60.881  47.777  1.00  0.00     0.006 C 
BRANCH   5   6
ATOM      6  C   UNL     1      -4.125  60.885  46.441  1.00  0.00     0.053 C 
BRANCH   6   7
ATOM      7  C   UNL     1      -3.705  62.055  45.608  1.00  0.00     0.041 C 
ATOM      8  O   UNL     1      -3.348  61.885  44.413  1.00  0.00    -0.550 OA
ATOM      9  O   UNL     1      -3.659  63.325  46.166  1.00  0.00    -0.550 OA
ENDBRANCH   6   7
ENDBRANCH   5   6
ENDBRANCH   4   5
ENDBRANCH   3   4
ENDBRANCH   2   3
ENDBRANCH   1   2
BRANCH   1  10
ATOM     10  C   UNL     1      -3.376  56.569  46.601  1.00  0.00     0.000 C 
BRANCH  10  11
ATOM     11  C   UNL     1      -2.989  57.503  45.444  1.00  0.00    -0.000 C 
BRANCH  11  12
ATOM     12  C   UNL     1      -1.471  57.713  45.392  1.00  0.00    -0.000 C 
BRANCH  12  13
ATOM     13  C   UNL     1      -1.124  59.205  45.307  1.00  0.00    -0.000 C 
BRANCH  13  14
ATOM     14  C   UNL     1       0.191  59.423  44.550  1.00  0.00    -0.000 C 
BRANCH  14  15
ATOM     15  C   UNL     1       0.994  60.579  45.165  1.00  0.00    -0.000 C 
BRANCH  15  16
ATOM     16  C   UNL     1       0.175  61.874  45.276  1.00  0.00    -0.003 C 
ATOM     17  C   UNL     1       0.232  62.720  44.004  1.00  0.00     0.004 C 
ENDBRANCH  15  16
ENDBRANCH  14  15
ENDBRANCH  13  14
ENDBRANCH  12  13
ENDBRANCH  11  12
ENDBRANCH  10  11
ENDBRANCH   1  10
TORSDOF 13
ENDMDL
MODEL 9
REMARK VINA RESULT:    -3.888      2.594      4.114
REMARK INTER + INTRA:          -8.728
REMARK INTER:                  -7.029
REMARK INTRA:                  -1.699
REMARK UNBOUND:                -1.885
REMARK SMILES CCCCCCCCCCCCCCC(=O)[O-]
REMARK SMILES IDX 9 1 10 2 11 3 12 4 13 5 14 6 15 7 16 8 17 9 8 10 7 11 6 12
REMARK SMILES IDX 5 13 4 14 3 15 2 16 1 17
REMARK H PARENT
REMARK Flexibility Score: inf
ROOT
ATOM      1  C   UNL     1      -1.201  60.153  45.773  1.00  0.00     0.000 C 
ENDROOT
BRANCH   1   2
ATOM      2  C   UNL     1      -0.601  59.005  44.937  1.00  0.00     0.000 C 
BRANCH   2   3
ATOM      3  C   UNL     1      -1.444  57.715  44.894  1.00  0.00     0.000 C 
BRANCH   3   4
ATOM      4  C   UNL     1      -2.966  57.932  44.951  1.00  0.00     0.000 C 
BRANCH   4   5
ATOM      5  C   UNL     1      -3.634  57.171  46.105  1.00  0.00     0.006 C 
BRANCH   5   6
ATOM      6  C   UNL     1      -2.587  56.624  47.080  1.00  0.00     0.053 C 
BRANCH   6   7
ATOM      7  C   UNL     1      -2.711  57.293  48.412  1.00  0.00     0.041 C 
ATOM      8  O   UNL     1      -2.881  58.539  48.482  1.00  0.00    -0.550 OA
ATOM      9  O   UNL     1      -2.589  56.550  49.578  1.00  0.00    -0.550 OA
ENDBRANCH   6   7
ENDBRANCH   5   6
ENDBRANCH   4   5
ENDBRANCH   3   4
ENDBRANCH   2   3
ENDBRANCH   1   2
BRANCH   1  10
ATOM     10  C   UNL     1      -1.587  61.408  44.970  1.00  0.00     0.000 C 
BRANCH  10  11
ATOM     11  C   UNL     1      -3.107  61.590  44.842  1.00  0.00    -0.000 C 
BRANCH  11  12
ATOM     12  C   UNL     1      -3.805  61.334  46.183  1.00  0.00    -0.000 C 
BRANCH  12  13
ATOM     13  C   UNL     1      -3.812  62.598  47.051  1.00  0.00    -0.000 C 
BRANCH  13  14
ATOM     14  C   UNL     1      -4.097  63.845  46.206  1.00  0.00    -0.000 C 
BRANCH  14  15
ATOM     15  C   UNL     1      -2.976  64.883  46.363  1.00  0.00    -0.000 C 
BRANCH  15  16
ATOM     16  C   UNL     1      -2.420  65.362  45.012  1.00  0.00    -0.003 C 
ATOM     17  C   UNL     1      -3.407  65.162  43.863  1.00  0.00     0.004 C 
ENDBRANCH  15  16
ENDBRANCH  14  15
ENDBRANCH  13  14
ENDBRANCH  12  13
ENDBRANCH  11  12
ENDBRANCH  10  11
ENDBRANCH   1  10
TORSDOF 13
ENDMDL
