MODEL 1
REMARK VINA RESULT:    -4.158      0.000      0.000
REMARK INTER + INTRA:          -4.491
REMARK INTER:                  -4.401
REMARK INTRA:                  -0.090
REMARK UNBOUND:                -0.090
REMARK SMILES C=C(C)[C@H]1CC=C(C)C(=O)C1
REMARK SMILES IDX 8 1 7 2 6 3 5 4 4 5 11 6 9 7 10 8 2 9 1 10 3 11
REMARK H PARENT
REMARK Flexibility Score: inf
ROOT
ATOM      1  C   UNL     1     142.394 157.403 204.173  1.00  0.00     0.048 C 
ATOM      2  C   UNL     1     142.304 156.158 203.334  1.00  0.00    -0.012 C 
ATOM      3  C   UNL     1     141.746 156.214 202.113  1.00  0.00    -0.019 C 
ATOM      4  C   UNL     1     141.614 154.995 201.239  1.00  0.00     0.036 C 
ATOM      5  C   UNL     1     142.785 154.019 201.468  1.00  0.00     0.025 C 
ATOM      6  C   UNL     1     142.896 153.658 202.960  1.00  0.00     0.089 C 
ATOM      7  C   UNL     1     142.942 154.903 203.803  1.00  0.00     0.158 C 
ATOM      8  O   UNL     1     143.498 154.858 204.934  1.00  0.00    -0.295 OA
ENDROOT
BRANCH   5   9
ATOM      9  C   UNL     1     142.660 152.776 200.597  1.00  0.00    -0.077 C 
ATOM     10  C   UNL     1     143.726 152.249 199.970  1.00  0.00     0.008 C 
ATOM     11  C   UNL     1     141.320 152.107 200.424  1.00  0.00     0.039 C 
ENDBRANCH   5   9
TORSDOF 1
ENDMDL
MODEL 2
REMARK VINA RESULT:    -3.930     10.757     11.776
REMARK INTER + INTRA:          -4.251
REMARK INTER:                  -4.161
REMARK INTRA:                  -0.090
REMARK UNBOUND:                -0.090
REMARK SMILES C=C(C)[C@H]1CC=C(C)C(=O)C1
REMARK SMILES IDX 8 1 7 2 6 3 5 4 4 5 11 6 9 7 10 8 2 9 1 10 3 11
REMARK H PARENT
REMARK Flexibility Score: inf
ROOT
ATOM      1  C   UNL     1     150.171 160.088 196.254  1.00  0.00     0.048 C 
ATOM      2  C   UNL     1     150.504 160.396 197.688  1.00  0.00    -0.012 C 
ATOM      3  C   UNL     1     149.609 160.132 198.653  1.00  0.00    -0.019 C 
ATOM      4  C   UNL     1     149.883 160.437 200.102  1.00  0.00     0.036 C 
ATOM      5  C   UNL     1     151.381 160.282 200.427  1.00  0.00     0.025 C 
ATOM      6  C   UNL     1     152.227 161.150 199.477  1.00  0.00     0.089 C 
ATOM      7  C   UNL     1     151.864 160.873 198.045  1.00  0.00     0.158 C 
ATOM      8  O   UNL     1     152.717 161.088 197.142  1.00  0.00    -0.295 OA
ENDROOT
BRANCH   5   9
ATOM      9  C   UNL     1     151.676 160.598 201.888  1.00  0.00    -0.077 C 
ATOM     10  C   UNL     1     151.424 159.706 202.862  1.00  0.00     0.008 C 
ATOM     11  C   UNL     1     152.264 161.933 202.268  1.00  0.00     0.039 C 
ENDBRANCH   5   9
TORSDOF 1
ENDMDL
MODEL 3
REMARK VINA RESULT:    -3.894     11.417     12.199
REMARK INTER + INTRA:          -4.213
REMARK INTER:                  -4.115
REMARK INTRA:                  -0.097
REMARK UNBOUND:                -0.090
REMARK SMILES C=C(C)[C@H]1CC=C(C)C(=O)C1
REMARK SMILES IDX 8 1 7 2 6 3 5 4 4 5 11 6 9 7 10 8 2 9 1 10 3 11
REMARK H PARENT
REMARK Flexibility Score: inf
ROOT
ATOM      1  C   UNL     1     149.454 160.375 202.375  1.00  0.00     0.048 C 
ATOM      2  C   UNL     1     150.739 160.618 201.633  1.00  0.00    -0.012 C 
ATOM      3  C   UNL     1     151.870 160.858 202.317  1.00  0.00    -0.019 C 
ATOM      4  C   UNL     1     153.181 161.125 201.625  1.00  0.00     0.036 C 
ATOM      5  C   UNL     1     153.276 160.347 200.298  1.00  0.00     0.025 C 
ATOM      6  C   UNL     1     152.066 160.670 199.402  1.00  0.00     0.089 C 
ATOM      7  C   UNL     1     150.781 160.469 200.157  1.00  0.00     0.158 C 
ATOM      8  O   UNL     1     149.727 160.209 199.516  1.00  0.00    -0.295 OA
ENDROOT
BRANCH   5   9
ATOM      9  C   UNL     1     154.593 160.616 199.581  1.00  0.00    -0.077 C 
ATOM     10  C   UNL     1     154.648 160.750 198.245  1.00  0.00     0.008 C 
ATOM     11  C   UNL     1     155.871 160.739 200.371  1.00  0.00     0.039 C 
ENDBRANCH   5   9
TORSDOF 1
ENDMDL
MODEL 4
REMARK VINA RESULT:    -3.892     11.183     12.163
REMARK INTER + INTRA:          -4.210
REMARK INTER:                  -4.116
REMARK INTRA:                  -0.094
REMARK UNBOUND:                -0.090
REMARK SMILES C=C(C)[C@H]1CC=C(C)C(=O)C1
REMARK SMILES IDX 8 1 7 2 6 3 5 4 4 5 11 6 9 7 10 8 2 9 1 10 3 11
REMARK H PARENT
REMARK Flexibility Score: inf
ROOT
ATOM      1  C   UNL     1     150.287 160.124 196.017  1.00  0.00     0.048 C 
ATOM      2  C   UNL     1     150.985 160.240 197.345  1.00  0.00    -0.012 C 
ATOM      3  C   UNL     1     152.254 160.675 197.397  1.00  0.00    -0.019 C 
ATOM      4  C   UNL     1     153.006 160.793 198.696  1.00  0.00     0.036 C 
ATOM      5  C   UNL     1     152.057 161.157 199.855  1.00  0.00     0.025 C 
ATOM      6  C   UNL     1     150.902 160.141 199.938  1.00  0.00     0.089 C 
ATOM      7  C   UNL     1     150.232 159.993 198.600  1.00  0.00     0.158 C 
ATOM      8  O   UNL     1     149.029 159.619 198.554  1.00  0.00    -0.295 OA
ENDROOT
BRANCH   5   9
ATOM      9  C   UNL     1     152.802 161.269 201.178  1.00  0.00    -0.077 C 
ATOM     10  C   UNL     1     152.252 161.880 202.242  1.00  0.00     0.008 C 
ATOM     11  C   UNL     1     154.186 160.688 201.318  1.00  0.00     0.039 C 
ENDBRANCH   5   9
TORSDOF 1
ENDMDL
MODEL 5
REMARK VINA RESULT:    -3.884     12.182     13.280
REMARK INTER + INTRA:          -4.202
REMARK INTER:                  -4.113
REMARK INTRA:                  -0.089
REMARK UNBOUND:                -0.090
REMARK SMILES C=C(C)[C@H]1CC=C(C)C(=O)C1
REMARK SMILES IDX 8 1 7 2 6 3 5 4 4 5 11 6 9 7 10 8 2 9 1 10 3 11
REMARK H PARENT
REMARK Flexibility Score: inf
ROOT
ATOM      1  C   UNL     1     155.331 160.602 197.600  1.00  0.00     0.048 C 
ATOM      2  C   UNL     1     154.427 160.639 198.802  1.00  0.00    -0.012 C 
ATOM      3  C   UNL     1     154.958 160.662 200.036  1.00  0.00    -0.019 C 
ATOM      4  C   UNL     1     154.100 160.681 201.274  1.00  0.00     0.036 C 
ATOM      5  C   UNL     1     152.785 161.445 201.025  1.00  0.00     0.025 C 
ATOM      6  C   UNL     1     152.045 160.853 199.812  1.00  0.00     0.089 C 
ATOM      7  C   UNL     1     152.960 160.776 198.621  1.00  0.00     0.158 C 
ATOM      8  O   UNL     1     152.464 160.790 197.462  1.00  0.00    -0.295 OA
ENDROOT
BRANCH   5   9
ATOM      9  C   UNL     1     151.902 161.463 202.267  1.00  0.00    -0.077 C 
ATOM     10  C   UNL     1     151.948 162.481 203.143  1.00  0.00     0.008 C 
ATOM     11  C   UNL     1     150.949 160.326 202.532  1.00  0.00     0.039 C 
ENDBRANCH   5   9
TORSDOF 1
ENDMDL
MODEL 6
REMARK VINA RESULT:    -3.867     12.295     13.284
REMARK INTER + INTRA:          -4.184
REMARK INTER:                  -4.090
REMARK INTRA:                  -0.094
REMARK UNBOUND:                -0.090
REMARK SMILES C=C(C)[C@H]1CC=C(C)C(=O)C1
REMARK SMILES IDX 8 1 7 2 6 3 5 4 4 5 11 6 9 7 10 8 2 9 1 10 3 11
REMARK H PARENT
REMARK Flexibility Score: inf
ROOT
ATOM      1  C   UNL     1     155.375 159.744 197.602  1.00  0.00     0.048 C 
ATOM      2  C   UNL     1     154.517 160.282 198.714  1.00  0.00    -0.012 C 
ATOM      3  C   UNL     1     153.241 160.621 198.468  1.00  0.00    -0.019 C 
ATOM      4  C   UNL     1     152.343 161.182 199.538  1.00  0.00     0.036 C 
ATOM      5  C   UNL     1     152.695 160.596 200.920  1.00  0.00     0.025 C 
ATOM      6  C   UNL     1     154.186 160.821 201.231  1.00  0.00     0.089 C 
ATOM      7  C   UNL     1     155.043 160.322 200.101  1.00  0.00     0.158 C 
ATOM      8  O   UNL     1     156.230 159.971 200.339  1.00  0.00    -0.295 OA
ENDROOT
BRANCH   5   9
ATOM      9  C   UNL     1     151.801 161.162 202.016  1.00  0.00    -0.077 C 
ATOM     10  C   UNL     1     152.097 162.319 202.633  1.00  0.00     0.008 C 
ATOM     11  C   UNL     1     150.552 160.425 202.428  1.00  0.00     0.039 C 
ENDBRANCH   5   9
TORSDOF 1
ENDMDL
MODEL 7
REMARK VINA RESULT:    -3.846      9.975     11.239
REMARK INTER + INTRA:          -4.161
REMARK INTER:                  -4.068
REMARK INTRA:                  -0.093
REMARK UNBOUND:                -0.090
REMARK SMILES C=C(C)[C@H]1CC=C(C)C(=O)C1
REMARK SMILES IDX 8 1 7 2 6 3 5 4 4 5 11 6 9 7 10 8 2 9 1 10 3 11
REMARK H PARENT
REMARK Flexibility Score: inf
ROOT
ATOM      1  C   UNL     1     151.130 157.863 196.468  1.00  0.00     0.048 C 
ATOM      2  C   UNL     1     151.026 158.480 197.836  1.00  0.00    -0.012 C 
ATOM      3  C   UNL     1     151.928 158.166 198.780  1.00  0.00    -0.019 C 
ATOM      4  C   UNL     1     151.860 158.739 200.171  1.00  0.00     0.036 C 
ATOM      5  C   UNL     1     151.281 160.168 200.154  1.00  0.00     0.025 C 
ATOM      6  C   UNL     1     149.911 160.180 199.451  1.00  0.00     0.089 C 
ATOM      7  C   UNL     1     150.005 159.525 198.100  1.00  0.00     0.158 C 
ATOM      8  O   UNL     1     149.180 159.846 197.203  1.00  0.00    -0.295 OA
ENDROOT
BRANCH   5   9
ATOM      9  C   UNL     1     151.197 160.757 201.556  1.00  0.00    -0.077 C 
ATOM     10  C   UNL     1     150.247 160.368 202.424  1.00  0.00     0.008 C 
ATOM     11  C   UNL     1     152.193 161.799 201.998  1.00  0.00     0.039 C 
ENDBRANCH   5   9
TORSDOF 1
ENDMDL
MODEL 8
REMARK VINA RESULT:    -3.757     18.385     19.089
REMARK INTER + INTRA:          -4.067
REMARK INTER:                  -3.972
REMARK INTRA:                  -0.095
REMARK UNBOUND:                -0.090
REMARK SMILES C=C(C)[C@H]1CC=C(C)C(=O)C1
REMARK SMILES IDX 8 1 7 2 6 3 5 4 4 5 11 6 9 7 10 8 2 9 1 10 3 11
REMARK H PARENT
REMARK Flexibility Score: inf
ROOT
ATOM      1  C   UNL     1     159.787 167.125 199.923  1.00  0.00     0.048 C 
ATOM      2  C   UNL     1     159.432 165.703 199.585  1.00  0.00    -0.012 C 
ATOM      3  C   UNL     1     160.108 164.692 200.155  1.00  0.00    -0.019 C 
ATOM      4  C   UNL     1     159.807 163.251 199.839  1.00  0.00     0.036 C 
ATOM      5  C   UNL     1     158.310 163.052 199.532  1.00  0.00     0.025 C 
ATOM      6  C   UNL     1     157.865 164.002 198.405  1.00  0.00     0.089 C 
ATOM      7  C   UNL     1     158.258 165.419 198.723  1.00  0.00     0.158 C 
ATOM      8  O   UNL     1     157.600 166.367 198.216  1.00  0.00    -0.295 OA
ENDROOT
BRANCH   5   9
ATOM      9  C   UNL     1     157.992 161.600 199.200  1.00  0.00    -0.077 C 
ATOM     10  C   UNL     1     156.724 161.174 199.064  1.00  0.00     0.008 C 
ATOM     11  C   UNL     1     159.109 160.605 199.014  1.00  0.00     0.039 C 
ENDBRANCH   5   9
TORSDOF 1
ENDMDL
MODEL 9
REMARK VINA RESULT:    -3.705     11.848     12.481
REMARK INTER + INTRA:          -4.012
REMARK INTER:                  -3.918
REMARK INTRA:                  -0.094
REMARK UNBOUND:                -0.090
REMARK SMILES C=C(C)[C@H]1CC=C(C)C(=O)C1
REMARK SMILES IDX 8 1 7 2 6 3 5 4 4 5 11 6 9 7 10 8 2 9 1 10 3 11
REMARK H PARENT
REMARK Flexibility Score: inf
ROOT
ATOM      1  C   UNL     1     150.073 160.353 202.416  1.00  0.00     0.048 C 
ATOM      2  C   UNL     1     151.346 160.280 201.618  1.00  0.00    -0.012 C 
ATOM      3  C   UNL     1     151.499 161.057 200.533  1.00  0.00    -0.019 C 
ATOM      4  C   UNL     1     152.744 161.012 199.687  1.00  0.00     0.036 C 
ATOM      5  C   UNL     1     153.985 160.693 200.544  1.00  0.00     0.025 C 
ATOM      6  C   UNL     1     153.768 159.390 201.334  1.00  0.00     0.089 C 
ATOM      7  C   UNL     1     152.474 159.445 202.099  1.00  0.00     0.158 C 
ATOM      8  O   UNL     1     152.344 158.741 203.137  1.00  0.00    -0.295 OA
ENDROOT
BRANCH   5   9
ATOM      9  C   UNL     1     155.252 160.634 199.700  1.00  0.00    -0.077 C 
ATOM     10  C   UNL     1     156.471 160.655 200.265  1.00  0.00     0.008 C 
ATOM     11  C   UNL     1     155.155 160.546 198.198  1.00  0.00     0.039 C 
ENDBRANCH   5   9
TORSDOF 1
ENDMDL
