MODEL 1
REMARK VINA RESULT:    -4.133      0.000      0.000
REMARK INTER + INTRA:         -15.985
REMARK INTER:                 -10.898
REMARK INTRA:                  -5.087
REMARK UNBOUND:                -5.087
REMARK SMILES CCCCCCCCCCCCCCCCCCCCCCCCCCCCCC(=O)[O-]
REMARK SMILES IDX 16 1 17 2 18 3 19 4 20 5 21 6 22 7 23 8 24 9 25 10 26 11
REMARK SMILES IDX 27 12 28 13 29 14 30 15 31 16 32 17 15 18 14 19 13 20 12 21
REMARK SMILES IDX 11 22 10 23 9 24 8 25 7 26 6 27 5 28 4 29 3 30 2 31 1 32
REMARK H PARENT
REMARK Flexibility Score: inf
ROOT
ATOM      1  C   UNL     1       2.642  26.781 112.365  1.00  0.00     0.000 C 
ENDROOT
BRANCH   1   2
ATOM      2  C   UNL     1       1.250  26.812 113.035  1.00  0.00     0.000 C 
BRANCH   2   3
ATOM      3  C   UNL     1       0.967  25.661 114.019  1.00  0.00     0.000 C 
BRANCH   3   4
ATOM      4  C   UNL     1       0.791  24.305 113.318  1.00  0.00     0.000 C 
BRANCH   4   5
ATOM      5  C   UNL     1       0.143  23.248 114.225  1.00  0.00     0.000 C 
BRANCH   5   6
ATOM      6  C   UNL     1       1.125  22.147 114.663  1.00  0.00     0.000 C 
BRANCH   6   7
ATOM      7  C   UNL     1       2.457  22.226 113.890  1.00  0.00     0.000 C 
BRANCH   7   8
ATOM      8  C   UNL     1       3.670  22.470 114.808  1.00  0.00     0.000 C 
BRANCH   8   9
ATOM      9  C   UNL     1       4.608  23.550 114.243  1.00  0.00     0.000 C 
BRANCH   9  10
ATOM     10  C   UNL     1       4.444  23.743 112.723  1.00  0.00     0.000 C 
BRANCH  10  11
ATOM     11  C   UNL     1       5.671  24.354 112.011  1.00  0.00     0.000 C 
BRANCH  11  12
ATOM     12  C   UNL     1       6.206  25.666 112.623  1.00  0.00     0.000 C 
BRANCH  12  13
ATOM     13  C   UNL     1       6.356  26.833 111.629  1.00  0.00     0.006 C 
BRANCH  13  14
ATOM     14  C   UNL     1       7.659  26.764 110.822  1.00  0.00     0.053 C 
BRANCH  14  15
ATOM     15  C   UNL     1       7.380  26.347 109.412  1.00  0.00     0.041 C 
ATOM     16  O   UNL     1       8.209  25.634 108.788  1.00  0.00    -0.550 OA
ATOM     17  O   UNL     1       6.177  26.692 108.811  1.00  0.00    -0.550 OA
ENDBRANCH  14  15
ENDBRANCH  13  14
ENDBRANCH  12  13
ENDBRANCH  11  12
ENDBRANCH  10  11
ENDBRANCH   9  10
ENDBRANCH   8   9
ENDBRANCH   7   8
ENDBRANCH   6   7
ENDBRANCH   5   6
ENDBRANCH   4   5
ENDBRANCH   3   4
ENDBRANCH   2   3
ENDBRANCH   1   2
BRANCH   1  18
ATOM     18  C   UNL     1       2.626  26.654 110.832  1.00  0.00     0.000 C 
BRANCH  18  19
ATOM     19  C   UNL     1       3.187  27.898 110.127  1.00  0.00     0.000 C 
BRANCH  19  20
ATOM     20  C   UNL     1       2.123  29.000 110.026  1.00  0.00     0.000 C 
BRANCH  20  21
ATOM     21  C   UNL     1       2.551  30.292 110.754  1.00  0.00     0.000 C 
BRANCH  21  22
ATOM     22  C   UNL     1       1.735  30.591 112.023  1.00  0.00     0.000 C 
BRANCH  22  23
ATOM     23  C   UNL     1       2.534  30.375 113.319  1.00  0.00     0.000 C 
BRANCH  23  24
ATOM     24  C   UNL     1       4.051  30.307 113.061  1.00  0.00    -0.000 C 
BRANCH  24  25
ATOM     25  C   UNL     1       4.748  29.270 113.960  1.00  0.00    -0.000 C 
BRANCH  25  26
ATOM     26  C   UNL     1       5.913  29.881 114.770  1.00  0.00    -0.000 C 
BRANCH  26  27
ATOM     27  C   UNL     1       6.227  31.343 114.399  1.00  0.00    -0.000 C 
BRANCH  27  28
ATOM     28  C   UNL     1       6.523  32.264 115.597  1.00  0.00    -0.000 C 
BRANCH  28  29
ATOM     29  C   UNL     1       5.407  33.278 115.914  1.00  0.00    -0.000 C 
BRANCH  29  30
ATOM     30  C   UNL     1       4.052  32.617 116.259  1.00  0.00    -0.000 C 
BRANCH  30  31
ATOM     31  C   UNL     1       2.840  33.381 115.700  1.00  0.00    -0.003 C 
ATOM     32  C   UNL     1       3.110  33.947 114.308  1.00  0.00     0.004 C 
ENDBRANCH  30  31
ENDBRANCH  29  30
ENDBRANCH  28  29
ENDBRANCH  27  28
ENDBRANCH  26  27
ENDBRANCH  25  26
ENDBRANCH  24  25
ENDBRANCH  23  24
ENDBRANCH  22  23
ENDBRANCH  21  22
ENDBRANCH  20  21
ENDBRANCH  19  20
ENDBRANCH  18  19
ENDBRANCH   1  18
TORSDOF 28
ENDMDL
MODEL 2
REMARK VINA RESULT:    -4.052      2.693      7.173
REMARK INTER + INTRA:         -15.772
REMARK INTER:                  -9.675
REMARK INTRA:                  -6.097
REMARK UNBOUND:                -5.087
REMARK SMILES CCCCCCCCCCCCCCCCCCCCCCCCCCCCCC(=O)[O-]
REMARK SMILES IDX 16 1 17 2 18 3 19 4 20 5 21 6 22 7 23 8 24 9 25 10 26 11
REMARK SMILES IDX 27 12 28 13 29 14 30 15 31 16 32 17 15 18 14 19 13 20 12 21
REMARK SMILES IDX 11 22 10 23 9 24 8 25 7 26 6 27 5 28 4 29 3 30 2 31 1 32
REMARK H PARENT
REMARK Flexibility Score: inf
ROOT
ATOM      1  C   UNL     1       4.925  25.584 111.937  1.00  0.00     0.000 C 
ENDROOT
BRANCH   1   2
ATOM      2  C   UNL     1       5.481  26.903 112.519  1.00  0.00     0.000 C 
BRANCH   2   3
ATOM      3  C   UNL     1       5.225  27.119 114.023  1.00  0.00     0.000 C 
BRANCH   3   4
ATOM      4  C   UNL     1       4.041  26.294 114.551  1.00  0.00     0.000 C 
BRANCH   4   5
ATOM      5  C   UNL     1       3.787  26.515 116.050  1.00  0.00     0.000 C 
BRANCH   5   6
ATOM      6  C   UNL     1       3.955  27.985 116.478  1.00  0.00     0.000 C 
BRANCH   6   7
ATOM      7  C   UNL     1       2.632  28.587 116.993  1.00  0.00     0.000 C 
BRANCH   7   8
ATOM      8  C   UNL     1       2.258  29.904 116.286  1.00  0.00     0.000 C 
BRANCH   8   9
ATOM      9  C   UNL     1       3.004  31.108 116.887  1.00  0.00     0.000 C 
BRANCH   9  10
ATOM     10  C   UNL     1       2.975  32.344 115.968  1.00  0.00     0.000 C 
BRANCH  10  11
ATOM     11  C   UNL     1       3.072  32.030 114.458  1.00  0.00     0.000 C 
BRANCH  11  12
ATOM     12  C   UNL     1       4.481  32.166 113.843  1.00  0.00     0.000 C 
BRANCH  12  13
ATOM     13  C   UNL     1       5.299  30.862 113.799  1.00  0.00     0.006 C 
BRANCH  13  14
ATOM     14  C   UNL     1       6.231  30.704 115.008  1.00  0.00     0.053 C 
BRANCH  14  15
ATOM     15  C   UNL     1       7.375  31.665 114.916  1.00  0.00     0.041 C 
ATOM     16  O   UNL     1       7.596  32.477 115.852  1.00  0.00    -0.550 OA
ATOM     17  O   UNL     1       8.232  31.621 113.825  1.00  0.00    -0.550 OA
ENDBRANCH  14  15
ENDBRANCH  13  14
ENDBRANCH  12  13
ENDBRANCH  11  12
ENDBRANCH  10  11
ENDBRANCH   9  10
ENDBRANCH   8   9
ENDBRANCH   7   8
ENDBRANCH   6   7
ENDBRANCH   5   6
ENDBRANCH   4   5
ENDBRANCH   3   4
ENDBRANCH   2   3
ENDBRANCH   1   2
BRANCH   1  18
ATOM     18  C   UNL     1       3.872  25.752 110.828  1.00  0.00     0.000 C 
BRANCH  18  19
ATOM     19  C   UNL     1       3.892  27.152 110.196  1.00  0.00     0.000 C 
BRANCH  19  20
ATOM     20  C   UNL     1       2.576  27.896 110.463  1.00  0.00     0.000 C 
BRANCH  20  21
ATOM     21  C   UNL     1       2.760  29.075 111.441  1.00  0.00     0.000 C 
BRANCH  21  22
ATOM     22  C   UNL     1       1.964  28.928 112.749  1.00  0.00     0.000 C 
BRANCH  22  23
ATOM     23  C   UNL     1       1.128  27.639 112.805  1.00  0.00     0.000 C 
BRANCH  23  24
ATOM     24  C   UNL     1       0.514  27.405 114.197  1.00  0.00    -0.000 C 
BRANCH  24  25
ATOM     25  C   UNL     1       0.205  25.918 114.455  1.00  0.00    -0.000 C 
BRANCH  25  26
ATOM     26  C   UNL     1       0.900  24.989 113.435  1.00  0.00    -0.000 C 
BRANCH  26  27
ATOM     27  C   UNL     1       0.342  23.553 113.423  1.00  0.00    -0.000 C 
BRANCH  27  28
ATOM     28  C   UNL     1       0.323  22.855 114.795  1.00  0.00    -0.000 C 
BRANCH  28  29
ATOM     29  C   UNL     1       1.651  22.178 115.185  1.00  0.00    -0.000 C 
BRANCH  29  30
ATOM     30  C   UNL     1       2.466  21.673 113.972  1.00  0.00    -0.000 C 
BRANCH  30  31
ATOM     31  C   UNL     1       3.752  22.478 113.721  1.00  0.00    -0.003 C 
ATOM     32  C   UNL     1       4.490  22.800 115.020  1.00  0.00     0.004 C 
ENDBRANCH  30  31
ENDBRANCH  29  30
ENDBRANCH  28  29
ENDBRANCH  27  28
ENDBRANCH  26  27
ENDBRANCH  25  26
ENDBRANCH  24  25
ENDBRANCH  23  24
ENDBRANCH  22  23
ENDBRANCH  21  22
ENDBRANCH  20  21
ENDBRANCH  19  20
ENDBRANCH  18  19
ENDBRANCH   1  18
TORSDOF 28
ENDMDL
MODEL 3
REMARK VINA RESULT:    -4.010      2.613      5.632
REMARK INTER + INTRA:         -15.661
REMARK INTER:                  -9.885
REMARK INTRA:                  -5.776
REMARK UNBOUND:                -5.087
REMARK SMILES CCCCCCCCCCCCCCCCCCCCCCCCCCCCCC(=O)[O-]
REMARK SMILES IDX 16 1 17 2 18 3 19 4 20 5 21 6 22 7 23 8 24 9 25 10 26 11
REMARK SMILES IDX 27 12 28 13 29 14 30 15 31 16 32 17 15 18 14 19 13 20 12 21
REMARK SMILES IDX 11 22 10 23 9 24 8 25 7 26 6 27 5 28 4 29 3 30 2 31 1 32
REMARK H PARENT
REMARK Flexibility Score: inf
ROOT
ATOM      1  C   UNL     1       2.699  28.969 114.395  1.00  0.00     0.000 C 
ENDROOT
BRANCH   1   2
ATOM      2  C   UNL     1       2.078  27.567 114.587  1.00  0.00     0.000 C 
BRANCH   2   3
ATOM      3  C   UNL     1       0.553  27.489 114.382  1.00  0.00     0.000 C 
BRANCH   3   4
ATOM      4  C   UNL     1       0.015  26.052 114.449  1.00  0.00     0.000 C 
BRANCH   4   5
ATOM      5  C   UNL     1       0.783  25.088 113.532  1.00  0.00     0.000 C 
BRANCH   5   6
ATOM      6  C   UNL     1       0.462  23.608 113.811  1.00  0.00     0.000 C 
BRANCH   6   7
ATOM      7  C   UNL     1       1.732  22.733 113.798  1.00  0.00     0.000 C 
BRANCH   7   8
ATOM      8  C   UNL     1       2.387  22.609 115.187  1.00  0.00     0.000 C 
BRANCH   8   9
ATOM      9  C   UNL     1       3.590  23.557 115.339  1.00  0.00     0.000 C 
BRANCH   9  10
ATOM     10  C   UNL     1       3.291  24.751 116.265  1.00  0.00     0.000 C 
BRANCH  10  11
ATOM     11  C   UNL     1       4.522  25.609 116.633  1.00  0.00     0.000 C 
BRANCH  11  12
ATOM     12  C   UNL     1       5.395  26.059 115.443  1.00  0.00     0.000 C 
BRANCH  12  13
ATOM     13  C   UNL     1       6.245  27.318 115.699  1.00  0.00     0.006 C 
BRANCH  13  14
ATOM     14  C   UNL     1       5.560  28.316 116.642  1.00  0.00     0.053 C 
BRANCH  14  15
ATOM     15  C   UNL     1       5.881  29.721 116.240  1.00  0.00     0.041 C 
ATOM     16  O   UNL     1       6.623  29.941 115.247  1.00  0.00    -0.550 OA
ATOM     17  O   UNL     1       5.311  30.786 116.923  1.00  0.00    -0.550 OA
ENDBRANCH  14  15
ENDBRANCH  13  14
ENDBRANCH  12  13
ENDBRANCH  11  12
ENDBRANCH  10  11
ENDBRANCH   9  10
ENDBRANCH   8   9
ENDBRANCH   7   8
ENDBRANCH   6   7
ENDBRANCH   5   6
ENDBRANCH   4   5
ENDBRANCH   3   4
ENDBRANCH   2   3
ENDBRANCH   1   2
BRANCH   1  18
ATOM     18  C   UNL     1       3.820  29.049 113.344  1.00  0.00     0.000 C 
BRANCH  18  19
ATOM     19  C   UNL     1       3.737  30.319 112.483  1.00  0.00     0.000 C 
BRANCH  19  20
ATOM     20  C   UNL     1       2.400  30.390 111.733  1.00  0.00     0.000 C 
BRANCH  20  21
ATOM     21  C   UNL     1       2.474  29.719 110.345  1.00  0.00     0.000 C 
BRANCH  21  22
ATOM     22  C   UNL     1       2.131  28.220 110.361  1.00  0.00     0.000 C 
BRANCH  22  23
ATOM     23  C   UNL     1       3.360  27.318 110.159  1.00  0.00     0.000 C 
BRANCH  23  24
ATOM     24  C   UNL     1       3.163  25.921 110.776  1.00  0.00    -0.000 C 
BRANCH  24  25
ATOM     25  C   UNL     1       4.099  25.676 111.974  1.00  0.00    -0.000 C 
BRANCH  25  26
ATOM     26  C   UNL     1       4.674  24.242 111.987  1.00  0.00    -0.000 C 
BRANCH  26  27
ATOM     27  C   UNL     1       6.204  24.188 112.155  1.00  0.00    -0.000 C 
BRANCH  27  28
ATOM     28  C   UNL     1       6.900  25.561 112.189  1.00  0.00    -0.000 C 
BRANCH  28  29
ATOM     29  C   UNL     1       8.103  25.691 111.235  1.00  0.00    -0.000 C 
BRANCH  29  30
ATOM     30  C   UNL     1       7.877  26.708 110.092  1.00  0.00    -0.000 C 
BRANCH  30  31
ATOM     31  C   UNL     1       6.859  26.230 109.042  1.00  0.00    -0.003 C 
ATOM     32  C   UNL     1       7.526  25.876 107.715  1.00  0.00     0.004 C 
ENDBRANCH  30  31
ENDBRANCH  29  30
ENDBRANCH  28  29
ENDBRANCH  27  28
ENDBRANCH  26  27
ENDBRANCH  25  26
ENDBRANCH  24  25
ENDBRANCH  23  24
ENDBRANCH  22  23
ENDBRANCH  21  22
ENDBRANCH  20  21
ENDBRANCH  19  20
ENDBRANCH  18  19
ENDBRANCH   1  18
TORSDOF 28
ENDMDL
MODEL 4
REMARK VINA RESULT:    -3.999      1.524      3.587
REMARK INTER + INTRA:         -15.631
REMARK INTER:                 -10.219
REMARK INTRA:                  -5.412
REMARK UNBOUND:                -5.087
REMARK SMILES CCCCCCCCCCCCCCCCCCCCCCCCCCCCCC(=O)[O-]
REMARK SMILES IDX 16 1 17 2 18 3 19 4 20 5 21 6 22 7 23 8 24 9 25 10 26 11
REMARK SMILES IDX 27 12 28 13 29 14 30 15 31 16 32 17 15 18 14 19 13 20 12 21
REMARK SMILES IDX 11 22 10 23 9 24 8 25 7 26 6 27 5 28 4 29 3 30 2 31 1 32
REMARK H PARENT
REMARK Flexibility Score: inf
ROOT
ATOM      1  C   UNL     1       4.095  28.055 111.736  1.00  0.00     0.000 C 
ENDROOT
BRANCH   1   2
ATOM      2  C   UNL     1       4.023  26.812 110.822  1.00  0.00     0.000 C 
BRANCH   2   3
ATOM      3  C   UNL     1       2.821  25.880 111.069  1.00  0.00     0.000 C 
BRANCH   3   4
ATOM      4  C   UNL     1       1.884  26.395 112.172  1.00  0.00     0.000 C 
BRANCH   4   5
ATOM      5  C   UNL     1       1.344  25.267 113.065  1.00  0.00     0.000 C 
BRANCH   5   6
ATOM      6  C   UNL     1       2.403  24.706 114.031  1.00  0.00     0.000 C 
BRANCH   6   7
ATOM      7  C   UNL     1       2.654  23.203 113.796  1.00  0.00     0.000 C 
BRANCH   7   8
ATOM      8  C   UNL     1       4.109  22.894 113.390  1.00  0.00     0.000 C 
BRANCH   8   9
ATOM      9  C   UNL     1       4.974  24.166 113.352  1.00  0.00     0.000 C 
BRANCH   9  10
ATOM     10  C   UNL     1       6.034  24.129 112.235  1.00  0.00     0.000 C 
BRANCH  10  11
ATOM     11  C   UNL     1       7.291  24.985 112.505  1.00  0.00     0.000 C 
BRANCH  11  12
ATOM     12  C   UNL     1       7.817  25.789 111.297  1.00  0.00     0.000 C 
BRANCH  12  13
ATOM     13  C   UNL     1       7.518  25.164 109.921  1.00  0.00     0.006 C 
BRANCH  13  14
ATOM     14  C   UNL     1       7.192  26.213 108.850  1.00  0.00     0.053 C 
BRANCH  14  15
ATOM     15  C   UNL     1       7.899  25.893 107.571  1.00  0.00     0.041 C 
ATOM     16  O   UNL     1       9.121  25.591 107.582  1.00  0.00    -0.550 OA
ATOM     17  O   UNL     1       7.194  25.866 106.375  1.00  0.00    -0.550 OA
ENDBRANCH  14  15
ENDBRANCH  13  14
ENDBRANCH  12  13
ENDBRANCH  11  12
ENDBRANCH  10  11
ENDBRANCH   9  10
ENDBRANCH   8   9
ENDBRANCH   7   8
ENDBRANCH   6   7
ENDBRANCH   5   6
ENDBRANCH   4   5
ENDBRANCH   3   4
ENDBRANCH   2   3
ENDBRANCH   1   2
BRANCH   1  18
ATOM     18  C   UNL     1       5.317  28.110 112.669  1.00  0.00     0.000 C 
BRANCH  18  19
ATOM     19  C   UNL     1       4.995  27.649 114.098  1.00  0.00     0.000 C 
BRANCH  19  20
ATOM     20  C   UNL     1       3.783  28.406 114.661  1.00  0.00     0.000 C 
BRANCH  20  21
ATOM     21  C   UNL     1       4.201  29.588 115.561  1.00  0.00     0.000 C 
BRANCH  21  22
ATOM     22  C   UNL     1       5.708  29.634 115.867  1.00  0.00     0.000 C 
BRANCH  22  23
ATOM     23  C   UNL     1       6.408  30.862 115.263  1.00  0.00     0.000 C 
BRANCH  23  24
ATOM     24  C   UNL     1       5.413  31.826 114.591  1.00  0.00    -0.000 C 
BRANCH  24  25
ATOM     25  C   UNL     1       5.229  33.126 115.395  1.00  0.00    -0.000 C 
BRANCH  25  26
ATOM     26  C   UNL     1       3.877  33.814 115.099  1.00  0.00    -0.000 C 
BRANCH  26  27
ATOM     27  C   UNL     1       2.688  33.201 115.862  1.00  0.00    -0.000 C 
BRANCH  27  28
ATOM     28  C   UNL     1       1.472  32.847 114.986  1.00  0.00    -0.000 C 
BRANCH  28  29
ATOM     29  C   UNL     1       1.366  31.355 114.615  1.00  0.00    -0.000 C 
BRANCH  29  30
ATOM     30  C   UNL     1       1.591  31.076 113.110  1.00  0.00    -0.000 C 
BRANCH  30  31
ATOM     31  C   UNL     1       0.920  29.781 112.621  1.00  0.00    -0.003 C 
ATOM     32  C   UNL     1      -0.248  29.367 113.514  1.00  0.00     0.004 C 
ENDBRANCH  30  31
ENDBRANCH  29  30
ENDBRANCH  28  29
ENDBRANCH  27  28
ENDBRANCH  26  27
ENDBRANCH  25  26
ENDBRANCH  24  25
ENDBRANCH  23  24
ENDBRANCH  22  23
ENDBRANCH  21  22
ENDBRANCH  20  21
ENDBRANCH  19  20
ENDBRANCH  18  19
ENDBRANCH   1  18
TORSDOF 28
ENDMDL
MODEL 5
REMARK VINA RESULT:    -3.990      1.424      2.328
REMARK INTER + INTRA:         -15.607
REMARK INTER:                  -9.787
REMARK INTRA:                  -5.820
REMARK UNBOUND:                -5.087
REMARK SMILES CCCCCCCCCCCCCCCCCCCCCCCCCCCCCC(=O)[O-]
REMARK SMILES IDX 16 1 17 2 18 3 19 4 20 5 21 6 22 7 23 8 24 9 25 10 26 11
REMARK SMILES IDX 27 12 28 13 29 14 30 15 31 16 32 17 15 18 14 19 13 20 12 21
REMARK SMILES IDX 11 22 10 23 9 24 8 25 7 26 6 27 5 28 4 29 3 30 2 31 1 32
REMARK H PARENT
REMARK Flexibility Score: inf
ROOT
ATOM      1  C   UNL     1       2.895  26.309 110.944  1.00  0.00     0.000 C 
ENDROOT
BRANCH   1   2
ATOM      2  C   UNL     1       2.645  26.389 112.466  1.00  0.00     0.000 C 
BRANCH   2   3
ATOM      3  C   UNL     1       1.239  25.958 112.926  1.00  0.00     0.000 C 
BRANCH   3   4
ATOM      4  C   UNL     1       1.115  25.861 114.454  1.00  0.00     0.000 C 
BRANCH   4   5
ATOM      5  C   UNL     1       0.569  24.502 114.919  1.00  0.00     0.000 C 
BRANCH   5   6
ATOM      6  C   UNL     1       0.422  23.488 113.770  1.00  0.00     0.000 C 
BRANCH   6   7
ATOM      7  C   UNL     1       1.109  22.147 114.097  1.00  0.00     0.000 C 
BRANCH   7   8
ATOM      8  C   UNL     1       2.338  22.311 115.011  1.00  0.00     0.000 C 
BRANCH   8   9
ATOM      9  C   UNL     1       3.646  21.962 114.280  1.00  0.00     0.000 C 
BRANCH   9  10
ATOM     10  C   UNL     1       4.207  23.146 113.469  1.00  0.00     0.000 C 
BRANCH  10  11
ATOM     11  C   UNL     1       4.799  24.291 114.319  1.00  0.00     0.000 C 
BRANCH  11  12
ATOM     12  C   UNL     1       6.217  24.750 113.917  1.00  0.00     0.000 C 
BRANCH  12  13
ATOM     13  C   UNL     1       6.276  25.663 112.677  1.00  0.00     0.006 C 
BRANCH  13  14
ATOM     14  C   UNL     1       7.643  25.631 111.981  1.00  0.00     0.053 C 
BRANCH  14  15
ATOM     15  C   UNL     1       7.681  26.618 110.856  1.00  0.00     0.041 C 
ATOM     16  O   UNL     1       7.521  27.845 111.086  1.00  0.00    -0.550 OA
ATOM     17  O   UNL     1       7.954  26.189 109.565  1.00  0.00    -0.550 OA
ENDBRANCH  14  15
ENDBRANCH  13  14
ENDBRANCH  12  13
ENDBRANCH  11  12
ENDBRANCH  10  11
ENDBRANCH   9  10
ENDBRANCH   8   9
ENDBRANCH   7   8
ENDBRANCH   6   7
ENDBRANCH   5   6
ENDBRANCH   4   5
ENDBRANCH   3   4
ENDBRANCH   2   3
ENDBRANCH   1   2
BRANCH   1  18
ATOM     18  C   UNL     1       3.308  27.635 110.279  1.00  0.00     0.000 C 
BRANCH  18  19
ATOM     19  C   UNL     1       2.128  28.602 110.100  1.00  0.00     0.000 C 
BRANCH  19  20
ATOM     20  C   UNL     1       2.478  30.001 110.626  1.00  0.00     0.000 C 
BRANCH  20  21
ATOM     21  C   UNL     1       1.905  30.252 112.037  1.00  0.00     0.000 C 
BRANCH  21  22
ATOM     22  C   UNL     1       0.517  29.629 112.265  1.00  0.00     0.000 C 
BRANCH  22  23
ATOM     23  C   UNL     1       0.207  29.373 113.749  1.00  0.00     0.000 C 
BRANCH  23  24
ATOM     24  C   UNL     1       1.246  30.024 114.680  1.00  0.00    -0.000 C 
BRANCH  24  25
ATOM     25  C   UNL     1       1.404  29.254 116.004  1.00  0.00    -0.000 C 
BRANCH  25  26
ATOM     26  C   UNL     1       2.803  28.616 116.150  1.00  0.00    -0.000 C 
BRANCH  26  27
ATOM     27  C   UNL     1       3.579  28.510 114.824  1.00  0.00    -0.000 C 
BRANCH  27  28
ATOM     28  C   UNL     1       4.972  29.166 114.837  1.00  0.00    -0.000 C 
BRANCH  28  29
ATOM     29  C   UNL     1       5.408  29.764 113.484  1.00  0.00    -0.000 C 
BRANCH  29  30
ATOM     30  C   UNL     1       5.181  31.291 113.384  1.00  0.00    -0.000 C 
BRANCH  30  31
ATOM     31  C   UNL     1       4.444  31.880 114.598  1.00  0.00    -0.003 C 
ATOM     32  C   UNL     1       3.609  33.104 114.225  1.00  0.00     0.004 C 
ENDBRANCH  30  31
ENDBRANCH  29  30
ENDBRANCH  28  29
ENDBRANCH  27  28
ENDBRANCH  26  27
ENDBRANCH  25  26
ENDBRANCH  24  25
ENDBRANCH  23  24
ENDBRANCH  22  23
ENDBRANCH  21  22
ENDBRANCH  20  21
ENDBRANCH  19  20
ENDBRANCH  18  19
ENDBRANCH   1  18
TORSDOF 28
ENDMDL
MODEL 6
REMARK VINA RESULT:    -3.963      1.452      3.028
REMARK INTER + INTRA:         -15.537
REMARK INTER:                  -9.815
REMARK INTRA:                  -5.722
REMARK UNBOUND:                -5.087
REMARK SMILES CCCCCCCCCCCCCCCCCCCCCCCCCCCCCC(=O)[O-]
REMARK SMILES IDX 16 1 17 2 18 3 19 4 20 5 21 6 22 7 23 8 24 9 25 10 26 11
REMARK SMILES IDX 27 12 28 13 29 14 30 15 31 16 32 17 15 18 14 19 13 20 12 21
REMARK SMILES IDX 11 22 10 23 9 24 8 25 7 26 6 27 5 28 4 29 3 30 2 31 1 32
REMARK H PARENT
REMARK Flexibility Score: inf
ROOT
ATOM      1  C   UNL     1       1.433  25.638 114.459  1.00  0.00     0.000 C 
ENDROOT
BRANCH   1   2
ATOM      2  C   UNL     1       0.254  24.742 114.898  1.00  0.00     0.000 C 
BRANCH   2   3
ATOM      3  C   UNL     1       0.168  23.375 114.193  1.00  0.00     0.000 C 
BRANCH   3   4
ATOM      4  C   UNL     1       0.432  22.196 115.141  1.00  0.00     0.000 C 
BRANCH   4   5
ATOM      5  C   UNL     1       1.905  21.755 115.142  1.00  0.00     0.000 C 
BRANCH   5   6
ATOM      6  C   UNL     1       2.543  21.786 113.742  1.00  0.00     0.000 C 
BRANCH   6   7
ATOM      7  C   UNL     1       3.844  22.612 113.722  1.00  0.00     0.000 C 
BRANCH   7   8
ATOM      8  C   UNL     1       4.188  23.221 115.096  1.00  0.00     0.000 C 
BRANCH   8   9
ATOM      9  C   UNL     1       5.446  24.105 115.031  1.00  0.00     0.000 C 
BRANCH   9  10
ATOM     10  C   UNL     1       5.151  25.517 114.491  1.00  0.00     0.000 C 
BRANCH  10  11
ATOM     11  C   UNL     1       5.827  25.850 113.143  1.00  0.00     0.000 C 
BRANCH  11  12
ATOM     12  C   UNL     1       7.032  24.960 112.769  1.00  0.00     0.000 C 
BRANCH  12  13
ATOM     13  C   UNL     1       7.922  25.512 111.639  1.00  0.00     0.006 C 
BRANCH  13  14
ATOM     14  C   UNL     1       7.275  26.685 110.892  1.00  0.00     0.053 C 
BRANCH  14  15
ATOM     15  C   UNL     1       6.979  26.304 109.475  1.00  0.00     0.041 C 
ATOM     16  O   UNL     1       7.762  25.545 108.848  1.00  0.00    -0.550 OA
ATOM     17  O   UNL     1       5.807  26.736 108.871  1.00  0.00    -0.550 OA
ENDBRANCH  14  15
ENDBRANCH  13  14
ENDBRANCH  12  13
ENDBRANCH  11  12
ENDBRANCH  10  11
ENDBRANCH   9  10
ENDBRANCH   8   9
ENDBRANCH   7   8
ENDBRANCH   6   7
ENDBRANCH   5   6
ENDBRANCH   4   5
ENDBRANCH   3   4
ENDBRANCH   2   3
ENDBRANCH   1   2
BRANCH   1  18
ATOM     18  C   UNL     1       1.349  26.169 113.017  1.00  0.00     0.000 C 
BRANCH  18  19
ATOM     19  C   UNL     1       2.399  25.538 112.090  1.00  0.00     0.000 C 
BRANCH  19  20
ATOM     20  C   UNL     1       2.668  26.432 110.872  1.00  0.00     0.000 C 
BRANCH  20  21
ATOM     21  C   UNL     1       3.474  27.695 111.242  1.00  0.00     0.000 C 
BRANCH  21  22
ATOM     22  C   UNL     1       2.868  29.001 110.700  1.00  0.00     0.000 C 
BRANCH  22  23
ATOM     23  C   UNL     1       1.354  28.905 110.448  1.00  0.00     0.000 C 
BRANCH  23  24
ATOM     24  C   UNL     1       0.562  29.937 111.272  1.00  0.00    -0.000 C 
BRANCH  24  25
ATOM     25  C   UNL     1       0.144  29.386 112.647  1.00  0.00    -0.000 C 
BRANCH  25  26
ATOM     26  C   UNL     1       0.724  30.216 113.814  1.00  0.00    -0.000 C 
BRANCH  26  27
ATOM     27  C   UNL     1       0.728  29.474 115.163  1.00  0.00    -0.000 C 
BRANCH  27  28
ATOM     28  C   UNL     1       2.116  29.010 115.642  1.00  0.00    -0.000 C 
BRANCH  28  29
ATOM     29  C   UNL     1       3.179  28.926 114.529  1.00  0.00    -0.000 C 
BRANCH  29  30
ATOM     30  C   UNL     1       4.511  29.622 114.894  1.00  0.00    -0.000 C 
BRANCH  30  31
ATOM     31  C   UNL     1       4.464  31.151 114.737  1.00  0.00    -0.003 C 
ATOM     32  C   UNL     1       4.240  31.572 113.285  1.00  0.00     0.004 C 
ENDBRANCH  30  31
ENDBRANCH  29  30
ENDBRANCH  28  29
ENDBRANCH  27  28
ENDBRANCH  26  27
ENDBRANCH  25  26
ENDBRANCH  24  25
ENDBRANCH  23  24
ENDBRANCH  22  23
ENDBRANCH  21  22
ENDBRANCH  20  21
ENDBRANCH  19  20
ENDBRANCH  18  19
ENDBRANCH   1  18
TORSDOF 28
ENDMDL
MODEL 7
REMARK VINA RESULT:    -3.915      1.775      3.076
REMARK INTER + INTRA:         -15.410
REMARK INTER:                 -10.503
REMARK INTRA:                  -4.907
REMARK UNBOUND:                -5.087
REMARK SMILES CCCCCCCCCCCCCCCCCCCCCCCCCCCCCC(=O)[O-]
REMARK SMILES IDX 16 1 17 2 18 3 19 4 20 5 21 6 22 7 23 8 24 9 25 10 26 11
REMARK SMILES IDX 27 12 28 13 29 14 30 15 31 16 32 17 15 18 14 19 13 20 12 21
REMARK SMILES IDX 11 22 10 23 9 24 8 25 7 26 6 27 5 28 4 29 3 30 2 31 1 32
REMARK H PARENT
REMARK Flexibility Score: inf
ROOT
ATOM      1  C   UNL     1       2.617  28.609 110.243  1.00  0.00     0.000 C 
ENDROOT
BRANCH   1   2
ATOM      2  C   UNL     1       3.021  27.244 110.842  1.00  0.00     0.000 C 
BRANCH   2   3
ATOM      3  C   UNL     1       3.651  27.301 112.246  1.00  0.00     0.000 C 
BRANCH   3   4
ATOM      4  C   UNL     1       2.723  26.752 113.340  1.00  0.00     0.000 C 
BRANCH   4   5
ATOM      5  C   UNL     1       1.507  26.007 112.767  1.00  0.00     0.000 C 
BRANCH   5   6
ATOM      6  C   UNL     1       0.786  25.139 113.813  1.00  0.00     0.000 C 
BRANCH   6   7
ATOM      7  C   UNL     1       0.721  23.659 113.384  1.00  0.00     0.000 C 
BRANCH   7   8
ATOM      8  C   UNL     1       1.490  22.724 114.337  1.00  0.00     0.000 C 
BRANCH   8   9
ATOM      9  C   UNL     1       2.860  22.323 113.764  1.00  0.00     0.000 C 
BRANCH   9  10
ATOM     10  C   UNL     1       3.995  23.256 114.228  1.00  0.00     0.000 C 
BRANCH  10  11
ATOM     11  C   UNL     1       4.900  23.787 113.095  1.00  0.00     0.000 C 
BRANCH  11  12
ATOM     12  C   UNL     1       5.994  24.784 113.533  1.00  0.00     0.000 C 
BRANCH  12  13
ATOM     13  C   UNL     1       7.074  25.072 112.473  1.00  0.00     0.006 C 
BRANCH  13  14
ATOM     14  C   UNL     1       6.497  25.208 111.058  1.00  0.00     0.053 C 
BRANCH  14  15
ATOM     15  C   UNL     1       6.854  26.538 110.473  1.00  0.00     0.041 C 
ATOM     16  O   UNL     1       7.388  27.422 111.193  1.00  0.00    -0.550 OA
ATOM     17  O   UNL     1       6.654  26.778 109.121  1.00  0.00    -0.550 OA
ENDBRANCH  14  15
ENDBRANCH  13  14
ENDBRANCH  12  13
ENDBRANCH  11  12
ENDBRANCH  10  11
ENDBRANCH   9  10
ENDBRANCH   8   9
ENDBRANCH   7   8
ENDBRANCH   6   7
ENDBRANCH   5   6
ENDBRANCH   4   5
ENDBRANCH   3   4
ENDBRANCH   2   3
ENDBRANCH   1   2
BRANCH   1  18
ATOM     18  C   UNL     1       1.208  29.099 110.624  1.00  0.00     0.000 C 
BRANCH  18  19
ATOM     19  C   UNL     1       1.234  30.384 111.464  1.00  0.00     0.000 C 
BRANCH  19  20
ATOM     20  C   UNL     1       1.088  30.068 112.959  1.00  0.00     0.000 C 
BRANCH  20  21
ATOM     21  C   UNL     1       2.352  30.445 113.761  1.00  0.00     0.000 C 
BRANCH  21  22
ATOM     22  C   UNL     1       3.487  31.022 112.897  1.00  0.00     0.000 C 
BRANCH  22  23
ATOM     23  C   UNL     1       4.412  31.973 113.673  1.00  0.00     0.000 C 
BRANCH  23  24
ATOM     24  C   UNL     1       5.869  31.476 113.696  1.00  0.00    -0.000 C 
BRANCH  24  25
ATOM     25  C   UNL     1       6.582  31.825 115.015  1.00  0.00    -0.000 C 
BRANCH  25  26
ATOM     26  C   UNL     1       5.748  31.434 116.255  1.00  0.00    -0.000 C 
BRANCH  26  27
ATOM     27  C   UNL     1       5.603  29.913 116.453  1.00  0.00    -0.000 C 
BRANCH  27  28
ATOM     28  C   UNL     1       4.177  29.438 116.787  1.00  0.00    -0.000 C 
BRANCH  28  29
ATOM     29  C   UNL     1       3.277  30.516 117.423  1.00  0.00    -0.000 C 
BRANCH  29  30
ATOM     30  C   UNL     1       3.171  30.400 118.961  1.00  0.00    -0.000 C 
BRANCH  30  31
ATOM     31  C   UNL     1       4.372  31.009 119.704  1.00  0.00    -0.003 C 
ATOM     32  C   UNL     1       5.205  29.945 120.418  1.00  0.00     0.004 C 
ENDBRANCH  30  31
ENDBRANCH  29  30
ENDBRANCH  28  29
ENDBRANCH  27  28
ENDBRANCH  26  27
ENDBRANCH  25  26
ENDBRANCH  24  25
ENDBRANCH  23  24
ENDBRANCH  22  23
ENDBRANCH  21  22
ENDBRANCH  20  21
ENDBRANCH  19  20
ENDBRANCH  18  19
ENDBRANCH   1  18
TORSDOF 28
ENDMDL
MODEL 8
REMARK VINA RESULT:    -3.909      2.620      6.633
REMARK INTER + INTRA:         -15.396
REMARK INTER:                  -9.937
REMARK INTRA:                  -5.459
REMARK UNBOUND:                -5.087
REMARK SMILES CCCCCCCCCCCCCCCCCCCCCCCCCCCCCC(=O)[O-]
REMARK SMILES IDX 16 1 17 2 18 3 19 4 20 5 21 6 22 7 23 8 24 9 25 10 26 11
REMARK SMILES IDX 27 12 28 13 29 14 30 15 31 16 32 17 15 18 14 19 13 20 12 21
REMARK SMILES IDX 11 22 10 23 9 24 8 25 7 26 6 27 5 28 4 29 3 30 2 31 1 32
REMARK H PARENT
REMARK Flexibility Score: inf
ROOT
ATOM      1  C   UNL     1       5.761  24.420 113.985  1.00  0.00     0.000 C 
ENDROOT
BRANCH   1   2
ATOM      2  C   UNL     1       6.767  25.497 113.523  1.00  0.00     0.000 C 
BRANCH   2   3
ATOM      3  C   UNL     1       7.647  25.105 112.321  1.00  0.00     0.000 C 
BRANCH   3   4
ATOM      4  C   UNL     1       7.693  26.190 111.235  1.00  0.00     0.000 C 
BRANCH   4   5
ATOM      5  C   UNL     1       6.368  26.959 111.109  1.00  0.00     0.000 C 
BRANCH   5   6
ATOM      6  C   UNL     1       5.401  26.327 110.092  1.00  0.00     0.000 C 
BRANCH   6   7
ATOM      7  C   UNL     1       3.928  26.520 110.504  1.00  0.00     0.000 C 
BRANCH   7   8
ATOM      8  C   UNL     1       3.774  27.236 111.860  1.00  0.00     0.000 C 
BRANCH   8   9
ATOM      9  C   UNL     1       2.640  28.276 111.833  1.00  0.00     0.000 C 
BRANCH   9  10
ATOM     10  C   UNL     1       3.046  29.580 111.122  1.00  0.00     0.000 C 
BRANCH  10  11
ATOM     11  C   UNL     1       3.206  30.803 112.052  1.00  0.00     0.000 C 
BRANCH  11  12
ATOM     12  C   UNL     1       3.945  30.533 113.380  1.00  0.00     0.000 C 
BRANCH  12  13
ATOM     13  C   UNL     1       5.113  31.491 113.680  1.00  0.00     0.006 C 
BRANCH  13  14
ATOM     14  C   UNL     1       6.152  30.882 114.631  1.00  0.00     0.053 C 
BRANCH  14  15
ATOM     15  C   UNL     1       7.372  31.747 114.696  1.00  0.00     0.041 C 
ATOM     16  O   UNL     1       7.648  32.373 115.752  1.00  0.00    -0.550 OA
ATOM     17  O   UNL     1       8.236  31.809 113.611  1.00  0.00    -0.550 OA
ENDBRANCH  14  15
ENDBRANCH  13  14
ENDBRANCH  12  13
ENDBRANCH  11  12
ENDBRANCH  10  11
ENDBRANCH   9  10
ENDBRANCH   8   9
ENDBRANCH   7   8
ENDBRANCH   6   7
ENDBRANCH   5   6
ENDBRANCH   4   5
ENDBRANCH   3   4
ENDBRANCH   2   3
ENDBRANCH   1   2
BRANCH   1  18
ATOM     18  C   UNL     1       4.847  23.862 112.880  1.00  0.00     0.000 C 
BRANCH  18  19
ATOM     19  C   UNL     1       4.031  22.646 113.341  1.00  0.00     0.000 C 
BRANCH  19  20
ATOM     20  C   UNL     1       4.038  22.527 114.872  1.00  0.00     0.000 C 
BRANCH  20  21
ATOM     21  C   UNL     1       2.755  21.859 115.410  1.00  0.00     0.000 C 
BRANCH  21  22
ATOM     22  C   UNL     1       1.591  21.849 114.404  1.00  0.00     0.000 C 
BRANCH  22  23
ATOM     23  C   UNL     1       0.581  22.985 114.638  1.00  0.00     0.000 C 
BRANCH  23  24
ATOM     24  C   UNL     1       0.331  23.810 113.363  1.00  0.00    -0.000 C 
BRANCH  24  25
ATOM     25  C   UNL     1       1.220  25.066 113.298  1.00  0.00    -0.000 C 
BRANCH  25  26
ATOM     26  C   UNL     1       1.300  25.799 114.655  1.00  0.00    -0.000 C 
BRANCH  26  27
ATOM     27  C   UNL     1       2.735  25.957 115.192  1.00  0.00    -0.000 C 
BRANCH  27  28
ATOM     28  C   UNL     1       3.134  27.399 115.555  1.00  0.00    -0.000 C 
BRANCH  28  29
ATOM     29  C   UNL     1       1.987  28.424 115.453  1.00  0.00    -0.000 C 
BRANCH  29  30
ATOM     30  C   UNL     1       1.855  29.327 116.702  1.00  0.00    -0.000 C 
BRANCH  30  31
ATOM     31  C   UNL     1       3.106  30.180 116.974  1.00  0.00    -0.003 C 
ATOM     32  C   UNL     1       3.856  29.716 118.222  1.00  0.00     0.004 C 
ENDBRANCH  30  31
ENDBRANCH  29  30
ENDBRANCH  28  29
ENDBRANCH  27  28
ENDBRANCH  26  27
ENDBRANCH  25  26
ENDBRANCH  24  25
ENDBRANCH  23  24
ENDBRANCH  22  23
ENDBRANCH  21  22
ENDBRANCH  20  21
ENDBRANCH  19  20
ENDBRANCH  18  19
ENDBRANCH   1  18
TORSDOF 28
ENDMDL
MODEL 9
REMARK VINA RESULT:    -3.903      2.396      4.739
REMARK INTER + INTRA:         -15.378
REMARK INTER:                  -9.330
REMARK INTRA:                  -6.048
REMARK UNBOUND:                -5.087
REMARK SMILES CCCCCCCCCCCCCCCCCCCCCCCCCCCCCC(=O)[O-]
REMARK SMILES IDX 16 1 17 2 18 3 19 4 20 5 21 6 22 7 23 8 24 9 25 10 26 11
REMARK SMILES IDX 27 12 28 13 29 14 30 15 31 16 32 17 15 18 14 19 13 20 12 21
REMARK SMILES IDX 11 22 10 23 9 24 8 25 7 26 6 27 5 28 4 29 3 30 2 31 1 32
REMARK H PARENT
REMARK Flexibility Score: inf
ROOT
ATOM      1  C   UNL     1       5.260  23.634 111.889  1.00  0.00     0.000 C 
ENDROOT
BRANCH   1   2
ATOM      2  C   UNL     1       4.207  24.015 112.952  1.00  0.00     0.000 C 
BRANCH   2   3
ATOM      3  C   UNL     1       4.452  23.436 114.359  1.00  0.00     0.000 C 
BRANCH   3   4
ATOM      4  C   UNL     1       3.746  22.090 114.581  1.00  0.00     0.000 C 
BRANCH   4   5
ATOM      5  C   UNL     1       2.514  21.911 113.681  1.00  0.00     0.000 C 
BRANCH   5   6
ATOM      6  C   UNL     1       1.209  22.382 114.348  1.00  0.00     0.000 C 
BRANCH   6   7
ATOM      7  C   UNL     1       0.626  23.628 113.652  1.00  0.00     0.000 C 
BRANCH   7   8
ATOM      8  C   UNL     1       0.561  24.857 114.580  1.00  0.00     0.000 C 
BRANCH   8   9
ATOM      9  C   UNL     1       1.192  24.572 115.954  1.00  0.00     0.000 C 
BRANCH   9  10
ATOM     10  C   UNL     1       2.086  25.724 116.448  1.00  0.00     0.000 C 
BRANCH  10  11
ATOM     11  C   UNL     1       2.822  26.497 115.331  1.00  0.00     0.000 C 
BRANCH  11  12
ATOM     12  C   UNL     1       3.753  27.630 115.813  1.00  0.00     0.000 C 
BRANCH  12  13
ATOM     13  C   UNL     1       5.131  27.675 115.125  1.00  0.00     0.006 C 
BRANCH  13  14
ATOM     14  C   UNL     1       6.289  27.414 116.097  1.00  0.00     0.053 C 
BRANCH  14  15
ATOM     15  C   UNL     1       6.611  25.953 116.148  1.00  0.00     0.041 C 
ATOM     16  O   UNL     1       6.078  25.219 117.020  1.00  0.00    -0.550 OA
ATOM     17  O   UNL     1       7.449  25.393 115.194  1.00  0.00    -0.550 OA
ENDBRANCH  14  15
ENDBRANCH  13  14
ENDBRANCH  12  13
ENDBRANCH  11  12
ENDBRANCH  10  11
ENDBRANCH   9  10
ENDBRANCH   8   9
ENDBRANCH   7   8
ENDBRANCH   6   7
ENDBRANCH   5   6
ENDBRANCH   4   5
ENDBRANCH   3   4
ENDBRANCH   2   3
ENDBRANCH   1   2
BRANCH   1  18
ATOM     18  C   UNL     1       6.602  24.380 112.000  1.00  0.00     0.000 C 
BRANCH  18  19
ATOM     19  C   UNL     1       7.143  24.835 110.636  1.00  0.00     0.000 C 
BRANCH  19  20
ATOM     20  C   UNL     1       6.817  26.312 110.379  1.00  0.00     0.000 C 
BRANCH  20  21
ATOM     21  C   UNL     1       6.353  27.038 111.659  1.00  0.00     0.000 C 
BRANCH  21  22
ATOM     22  C   UNL     1       4.873  27.457 111.635  1.00  0.00     0.000 C 
BRANCH  22  23
ATOM     23  C   UNL     1       4.112  26.912 110.415  1.00  0.00     0.000 C 
BRANCH  23  24
ATOM     24  C   UNL     1       2.607  27.234 110.479  1.00  0.00    -0.000 C 
BRANCH  24  25
ATOM     25  C   UNL     1       2.023  27.008 111.885  1.00  0.00    -0.000 C 
BRANCH  25  26
ATOM     26  C   UNL     1       1.052  28.133 112.306  1.00  0.00    -0.000 C 
BRANCH  26  27
ATOM     27  C   UNL     1       1.688  29.192 113.226  1.00  0.00    -0.000 C 
BRANCH  27  28
ATOM     28  C   UNL     1       2.104  30.495 112.519  1.00  0.00    -0.000 C 
BRANCH  28  29
ATOM     29  C   UNL     1       3.626  30.727 112.451  1.00  0.00    -0.000 C 
BRANCH  29  30
ATOM     30  C   UNL     1       4.264  31.045 113.824  1.00  0.00    -0.000 C 
BRANCH  30  31
ATOM     31  C   UNL     1       5.799  31.123 113.781  1.00  0.00    -0.003 C 
ATOM     32  C   UNL     1       6.353  32.105 114.812  1.00  0.00     0.004 C 
ENDBRANCH  30  31
ENDBRANCH  29  30
ENDBRANCH  28  29
ENDBRANCH  27  28
ENDBRANCH  26  27
ENDBRANCH  25  26
ENDBRANCH  24  25
ENDBRANCH  23  24
ENDBRANCH  22  23
ENDBRANCH  21  22
ENDBRANCH  20  21
ENDBRANCH  19  20
ENDBRANCH  18  19
ENDBRANCH   1  18
TORSDOF 28
ENDMDL
