MODEL 1
REMARK VINA RESULT:    -6.571      0.000      0.000
REMARK INTER + INTRA:          -8.659
REMARK INTER:                  -8.107
REMARK INTRA:                  -0.552
REMARK UNBOUND:                -0.552
REMARK SMILES CC(C)=CCC[C@H](C)c1ccc(C)cc1
REMARK SMILES IDX 6 1 7 2 8 3 9 4 13 5 12 6 11 7 14 8 10 9 15 10 5 11 4 12
REMARK SMILES IDX 2 13 1 14 3 15
REMARK H PARENT
REMARK Flexibility Score: inf
ROOT
ATOM      1  C   UNL     1      -8.438 -14.864  18.852  1.00  0.00     0.012 C 
ENDROOT
BRANCH   1   2
ATOM      2  C   UNL     1      -9.979 -15.027  18.824  1.00  0.00     0.016 C 
ATOM      3  C   UNL     1     -10.694 -13.984  19.697  1.00  0.00     0.013 C 
BRANCH   2   4
ATOM      4  C   UNL     1     -10.366 -16.431  19.251  1.00  0.00    -0.045 A 
ATOM      5  C   UNL     1     -11.501 -20.416  20.473  1.00  0.00     0.044 C 
ATOM      6  C   UNL     1     -11.117 -19.039  20.019  1.00  0.00    -0.051 A 
ATOM      7  C   UNL     1     -12.035 -17.984  20.106  1.00  0.00     0.004 A 
ATOM      8  C   UNL     1      -9.814 -18.782  19.568  1.00  0.00     0.004 A 
ATOM      9  C   UNL     1     -11.667 -16.693  19.718  1.00  0.00     0.004 A 
ATOM     10  C   UNL     1      -9.443 -17.492  19.180  1.00  0.00     0.004 A 
ENDBRANCH   2   4
ENDBRANCH   1   2
BRANCH   1  11
ATOM     11  C   UNL     1      -7.883 -13.911  17.779  1.00  0.00     0.028 C 
BRANCH  11  12
ATOM     12  C   UNL     1      -8.275 -12.474  18.029  1.00  0.00    -0.028 C 
ATOM     13  C   UNL     1      -9.235 -11.810  17.348  1.00  0.00    -0.080 C 
ATOM     14  C   UNL     1      -9.537 -10.386  17.739  1.00  0.00     0.039 C 
ATOM     15  C   UNL     1      -9.988 -12.441  16.200  1.00  0.00     0.039 C 
ENDBRANCH  11  12
ENDBRANCH   1  11
TORSDOF 4
ENDMDL
MODEL 2
REMARK VINA RESULT:    -6.356      1.311      2.345
REMARK INTER + INTRA:          -8.395
REMARK INTER:                  -7.849
REMARK INTRA:                  -0.546
REMARK UNBOUND:                -0.552
REMARK SMILES CC(C)=CCC[C@H](C)c1ccc(C)cc1
REMARK SMILES IDX 6 1 7 2 8 3 9 4 13 5 12 6 11 7 14 8 10 9 15 10 5 11 4 12
REMARK SMILES IDX 2 13 1 14 3 15
REMARK H PARENT
REMARK Flexibility Score: inf
ROOT
ATOM      1  C   UNL     1     -10.526 -14.730  18.864  1.00  0.00     0.012 C 
ENDROOT
BRANCH   1   2
ATOM      2  C   UNL     1      -9.948 -16.077  19.366  1.00  0.00     0.016 C 
ATOM      3  C   UNL     1      -8.755 -16.553  18.522  1.00  0.00     0.013 C 
BRANCH   2   4
ATOM      4  C   UNL     1     -11.034 -17.137  19.393  1.00  0.00    -0.045 A 
ATOM      5  C   UNL     1     -14.108 -20.172  19.446  1.00  0.00     0.044 C 
ATOM      6  C   UNL     1     -13.025 -19.134  19.451  1.00  0.00    -0.051 A 
ATOM      7  C   UNL     1     -11.916 -19.265  18.603  1.00  0.00     0.004 A 
ATOM      8  C   UNL     1     -13.147 -17.991  20.253  1.00  0.00     0.004 A 
ATOM      9  C   UNL     1     -10.925 -18.279  18.580  1.00  0.00     0.004 A 
ATOM     10  C   UNL     1     -12.157 -17.004  20.231  1.00  0.00     0.004 A 
ENDBRANCH   2   4
ENDBRANCH   1   2
BRANCH   1  11
ATOM     11  C   UNL     1     -10.046 -13.501  19.657  1.00  0.00     0.028 C 
BRANCH  11  12
ATOM     12  C   UNL     1      -8.657 -13.065  19.256  1.00  0.00    -0.028 C 
ATOM     13  C   UNL     1      -8.374 -12.275  18.197  1.00  0.00    -0.080 C 
ATOM     14  C   UNL     1      -6.937 -11.896  17.948  1.00  0.00     0.039 C 
ATOM     15  C   UNL     1      -9.446 -11.788  17.250  1.00  0.00     0.039 C 
ENDBRANCH  11  12
ENDBRANCH   1  11
TORSDOF 4
ENDMDL
MODEL 3
REMARK VINA RESULT:    -6.328      1.373      2.507
REMARK INTER + INTRA:          -8.360
REMARK INTER:                  -7.220
REMARK INTRA:                  -1.140
REMARK UNBOUND:                -0.552
REMARK SMILES CC(C)=CCC[C@H](C)c1ccc(C)cc1
REMARK SMILES IDX 6 1 7 2 8 3 9 4 13 5 12 6 11 7 14 8 10 9 15 10 5 11 4 12
REMARK SMILES IDX 2 13 1 14 3 15
REMARK H PARENT
REMARK Flexibility Score: inf
ROOT
ATOM      1  C   UNL     1      -7.291 -12.917  18.961  1.00  0.00     0.012 C 
ENDROOT
BRANCH   1   2
ATOM      2  C   UNL     1      -8.577 -13.137  19.797  1.00  0.00     0.016 C 
ATOM      3  C   UNL     1      -8.320 -13.024  21.308  1.00  0.00     0.013 C 
BRANCH   2   4
ATOM      4  C   UNL     1      -9.195 -14.483  19.464  1.00  0.00    -0.045 A 
ATOM      5  C   UNL     1     -10.923 -18.324  18.505  1.00  0.00     0.044 C 
ATOM      6  C   UNL     1     -10.314 -17.002  18.866  1.00  0.00    -0.051 A 
ATOM      7  C   UNL     1      -8.985 -16.717  18.520  1.00  0.00     0.004 A 
ATOM      8  C   UNL     1     -11.088 -16.015  19.492  1.00  0.00     0.004 A 
ATOM      9  C   UNL     1      -8.428 -15.472  18.823  1.00  0.00     0.004 A 
ATOM     10  C   UNL     1     -10.533 -14.769  19.796  1.00  0.00     0.004 A 
ENDBRANCH   2   4
ENDBRANCH   1   2
BRANCH   1  11
ATOM     11  C   UNL     1      -7.479 -11.997  17.742  1.00  0.00     0.028 C 
BRANCH  11  12
ATOM     12  C   UNL     1      -8.774 -11.222  17.800  1.00  0.00    -0.028 C 
ATOM     13  C   UNL     1      -9.907 -11.569  17.152  1.00  0.00    -0.080 C 
ATOM     14  C   UNL     1     -11.132 -10.711  17.339  1.00  0.00     0.039 C 
ATOM     15  C   UNL     1      -9.972 -12.767  16.233  1.00  0.00     0.039 C 
ENDBRANCH  11  12
ENDBRANCH   1  11
TORSDOF 4
ENDMDL
MODEL 4
REMARK VINA RESULT:    -6.272      1.606      6.714
REMARK INTER + INTRA:          -8.291
REMARK INTER:                  -7.728
REMARK INTRA:                  -0.564
REMARK UNBOUND:                -0.552
REMARK SMILES CC(C)=CCC[C@H](C)c1ccc(C)cc1
REMARK SMILES IDX 6 1 7 2 8 3 9 4 13 5 12 6 11 7 14 8 10 9 15 10 5 11 4 12
REMARK SMILES IDX 2 13 1 14 3 15
REMARK H PARENT
REMARK Flexibility Score: inf
ROOT
ATOM      1  C   UNL     1     -11.548 -16.776  19.933  1.00  0.00     0.012 C 
ENDROOT
BRANCH   1   2
ATOM      2  C   UNL     1     -10.392 -16.841  18.903  1.00  0.00     0.016 C 
ATOM      3  C   UNL     1      -9.355 -17.921  19.253  1.00  0.00     0.013 C 
BRANCH   2   4
ATOM      4  C   UNL     1      -9.722 -15.484  18.780  1.00  0.00    -0.045 A 
ATOM      5  C   UNL     1      -7.791 -11.638  18.413  1.00  0.00     0.044 C 
ATOM      6  C   UNL     1      -8.474 -12.970  18.512  1.00  0.00    -0.051 A 
ATOM      7  C   UNL     1      -7.826 -14.132  18.072  1.00  0.00     0.004 A 
ATOM      8  C   UNL     1      -9.740 -13.071  19.107  1.00  0.00     0.004 A 
ATOM      9  C   UNL     1      -8.447 -15.378  18.198  1.00  0.00     0.004 A 
ATOM     10  C   UNL     1     -10.363 -14.315  19.233  1.00  0.00     0.004 A 
ENDBRANCH   2   4
ENDBRANCH   1   2
BRANCH   1  11
ATOM     11  C   UNL     1     -12.378 -18.068  20.034  1.00  0.00     0.028 C 
BRANCH  11  12
ATOM     12  C   UNL     1     -13.345 -18.040  21.194  1.00  0.00    -0.028 C 
ATOM     13  C   UNL     1     -13.064 -18.482  22.440  1.00  0.00    -0.080 C 
ATOM     14  C   UNL     1     -14.125 -18.353  23.503  1.00  0.00     0.039 C 
ATOM     15  C   UNL     1     -11.739 -19.119  22.786  1.00  0.00     0.039 C 
ENDBRANCH  11  12
ENDBRANCH   1  11
TORSDOF 4
ENDMDL
MODEL 5
REMARK VINA RESULT:    -6.159      1.179      6.656
REMARK INTER + INTRA:          -8.151
REMARK INTER:                  -7.379
REMARK INTRA:                  -0.772
REMARK UNBOUND:                -0.552
REMARK SMILES CC(C)=CCC[C@H](C)c1ccc(C)cc1
REMARK SMILES IDX 6 1 7 2 8 3 9 4 13 5 12 6 11 7 14 8 10 9 15 10 5 11 4 12
REMARK SMILES IDX 2 13 1 14 3 15
REMARK H PARENT
REMARK Flexibility Score: inf
ROOT
ATOM      1  C   UNL     1     -11.363 -16.834  20.205  1.00  0.00     0.012 C 
ENDROOT
BRANCH   1   2
ATOM      2  C   UNL     1     -10.327 -16.857  19.054  1.00  0.00     0.016 C 
ATOM      3  C   UNL     1      -9.202 -17.876  19.298  1.00  0.00     0.013 C 
BRANCH   2   4
ATOM      4  C   UNL     1      -9.748 -15.470  18.840  1.00  0.00    -0.045 A 
ATOM      5  C   UNL     1      -8.075 -11.536  18.218  1.00  0.00     0.044 C 
ATOM      6  C   UNL     1      -8.669 -12.901  18.406  1.00  0.00    -0.051 A 
ATOM      7  C   UNL     1      -7.954 -14.043  18.021  1.00  0.00     0.004 A 
ATOM      8  C   UNL     1      -9.917 -13.048  19.028  1.00  0.00     0.004 A 
ATOM      9  C   UNL     1      -8.491 -15.317  18.229  1.00  0.00     0.004 A 
ATOM     10  C   UNL     1     -10.456 -14.320  19.237  1.00  0.00     0.004 A 
ENDBRANCH   2   4
ENDBRANCH   1   2
BRANCH   1  11
ATOM     11  C   UNL     1     -12.661 -17.605  19.905  1.00  0.00     0.028 C 
BRANCH  11  12
ATOM     12  C   UNL     1     -12.603 -19.036  20.384  1.00  0.00    -0.028 C 
ATOM     13  C   UNL     1     -12.249 -20.090  19.616  1.00  0.00    -0.080 C 
ATOM     14  C   UNL     1     -12.204 -21.457  20.250  1.00  0.00     0.039 C 
ATOM     15  C   UNL     1     -11.924 -19.941  18.148  1.00  0.00     0.039 C 
ENDBRANCH  11  12
ENDBRANCH   1  11
TORSDOF 4
ENDMDL
MODEL 6
REMARK VINA RESULT:    -6.027      1.918      6.463
REMARK INTER + INTRA:          -7.988
REMARK INTER:                  -7.253
REMARK INTRA:                  -0.735
REMARK UNBOUND:                -0.552
REMARK SMILES CC(C)=CCC[C@H](C)c1ccc(C)cc1
REMARK SMILES IDX 6 1 7 2 8 3 9 4 13 5 12 6 11 7 14 8 10 9 15 10 5 11 4 12
REMARK SMILES IDX 2 13 1 14 3 15
REMARK H PARENT
REMARK Flexibility Score: inf
ROOT
ATOM      1  C   UNL     1     -10.298 -19.131  20.275  1.00  0.00     0.012 C 
ENDROOT
BRANCH   1   2
ATOM      2  C   UNL     1     -11.140 -18.143  19.430  1.00  0.00     0.016 C 
ATOM      3  C   UNL     1     -11.610 -18.760  18.103  1.00  0.00     0.013 C 
BRANCH   2   4
ATOM      4  C   UNL     1     -10.354 -16.870  19.174  1.00  0.00    -0.045 A 
ATOM      5  C   UNL     1      -8.141 -13.229  18.458  1.00  0.00     0.044 C 
ATOM      6  C   UNL     1      -8.897 -14.495  18.736  1.00  0.00    -0.051 A 
ATOM      7  C   UNL     1     -10.182 -14.444  19.292  1.00  0.00     0.004 A 
ATOM      8  C   UNL     1      -8.350 -15.736  18.378  1.00  0.00     0.004 A 
ATOM      9  C   UNL     1     -10.902 -15.621  19.517  1.00  0.00     0.004 A 
ATOM     10  C   UNL     1      -9.068 -16.914  18.602  1.00  0.00     0.004 A 
ENDBRANCH   2   4
ENDBRANCH   1   2
BRANCH   1  11
ATOM     11  C   UNL     1     -11.129 -20.058  21.180  1.00  0.00     0.028 C 
BRANCH  11  12
ATOM     12  C   UNL     1     -11.138 -19.598  22.619  1.00  0.00    -0.028 C 
ATOM     13  C   UNL     1     -12.136 -18.890  23.193  1.00  0.00    -0.080 C 
ATOM     14  C   UNL     1     -12.016 -18.537  24.654  1.00  0.00     0.039 C 
ATOM     15  C   UNL     1     -13.343 -18.426  22.414  1.00  0.00     0.039 C 
ENDBRANCH  11  12
ENDBRANCH   1  11
TORSDOF 4
ENDMDL
MODEL 7
REMARK VINA RESULT:    -5.849      1.207      6.503
REMARK INTER + INTRA:          -7.769
REMARK INTER:                  -7.101
REMARK INTRA:                  -0.668
REMARK UNBOUND:                -0.552
REMARK SMILES CC(C)=CCC[C@H](C)c1ccc(C)cc1
REMARK SMILES IDX 6 1 7 2 8 3 9 4 13 5 12 6 11 7 14 8 10 9 15 10 5 11 4 12
REMARK SMILES IDX 2 13 1 14 3 15
REMARK H PARENT
REMARK Flexibility Score: inf
ROOT
ATOM      1  C   UNL     1     -10.573 -17.596  18.165  1.00  0.00     0.012 C 
ENDROOT
BRANCH   1   2
ATOM      2  C   UNL     1     -10.499 -16.658  19.396  1.00  0.00     0.016 C 
ATOM      3  C   UNL     1     -11.883 -16.377  20.002  1.00  0.00     0.013 C 
BRANCH   2   4
ATOM      4  C   UNL     1      -9.809 -15.358  19.024  1.00  0.00    -0.045 A 
ATOM      5  C   UNL     1      -7.820 -11.677  17.950  1.00  0.00     0.044 C 
ATOM      6  C   UNL     1      -8.524 -12.956  18.294  1.00  0.00    -0.051 A 
ATOM      7  C   UNL     1      -7.914 -14.191  18.035  1.00  0.00     0.004 A 
ATOM      8  C   UNL     1      -9.769 -12.924  18.939  1.00  0.00     0.004 A 
ATOM      9  C   UNL     1      -8.554 -15.382  18.389  1.00  0.00     0.004 A 
ATOM     10  C   UNL     1     -10.410 -14.114  19.294  1.00  0.00     0.004 A 
ENDBRANCH   2   4
ENDBRANCH   1   2
BRANCH   1  11
ATOM     11  C   UNL     1     -10.378 -19.087  18.493  1.00  0.00     0.028 C 
BRANCH  11  12
ATOM     12  C   UNL     1     -10.355 -19.351  19.980  1.00  0.00    -0.028 C 
ATOM     13  C   UNL     1     -11.369 -19.911  20.677  1.00  0.00    -0.080 C 
ATOM     14  C   UNL     1     -11.181 -20.144  22.154  1.00  0.00     0.039 C 
ATOM     15  C   UNL     1     -12.681 -20.283  20.028  1.00  0.00     0.039 C 
ENDBRANCH  11  12
ENDBRANCH   1  11
TORSDOF 4
ENDMDL
MODEL 8
REMARK VINA RESULT:    -5.612      4.840      7.491
REMARK INTER + INTRA:          -7.477
REMARK INTER:                  -6.701
REMARK INTRA:                  -0.776
REMARK UNBOUND:                -0.552
REMARK SMILES CC(C)=CCC[C@H](C)c1ccc(C)cc1
REMARK SMILES IDX 6 1 7 2 8 3 9 4 13 5 12 6 11 7 14 8 10 9 15 10 5 11 4 12
REMARK SMILES IDX 2 13 1 14 3 15
REMARK H PARENT
REMARK Flexibility Score: inf
ROOT
ATOM      1  C   UNL     1     -11.498 -19.123  22.863  1.00  0.00     0.012 C 
ENDROOT
BRANCH   1   2
ATOM      2  C   UNL     1     -12.917 -18.721  23.338  1.00  0.00     0.016 C 
ATOM      3  C   UNL     1     -13.530 -17.608  22.474  1.00  0.00     0.013 C 
BRANCH   2   4
ATOM      4  C   UNL     1     -12.882 -18.302  24.797  1.00  0.00    -0.045 A 
ATOM      5  C   UNL     1     -12.814 -17.092  28.943  1.00  0.00     0.044 C 
ATOM      6  C   UNL     1     -12.857 -17.536  27.511  1.00  0.00    -0.051 A 
ATOM      7  C   UNL     1     -13.827 -17.021  26.639  1.00  0.00     0.004 A 
ATOM      8  C   UNL     1     -11.886 -18.418  27.016  1.00  0.00     0.004 A 
ATOM      9  C   UNL     1     -13.845 -17.407  25.296  1.00  0.00     0.004 A 
ATOM     10  C   UNL     1     -11.902 -18.805  25.673  1.00  0.00     0.004 A 
ENDBRANCH   2   4
ENDBRANCH   1   2
BRANCH   1  11
ATOM     11  C   UNL     1     -11.481 -20.167  21.733  1.00  0.00     0.028 C 
BRANCH  11  12
ATOM     12  C   UNL     1     -11.077 -19.571  20.405  1.00  0.00    -0.028 C 
ATOM     13  C   UNL     1     -11.926 -19.333  19.380  1.00  0.00    -0.080 C 
ATOM     14  C   UNL     1     -11.377 -18.697  18.128  1.00  0.00     0.039 C 
ATOM     15  C   UNL     1     -13.388 -19.706  19.444  1.00  0.00     0.039 C 
ENDBRANCH  11  12
ENDBRANCH   1  11
TORSDOF 4
ENDMDL
