MODEL 1
REMARK VINA RESULT:    -4.728      0.000      0.000
REMARK INTER + INTRA:          -5.392
REMARK INTER:                  -5.142
REMARK INTRA:                  -0.250
REMARK UNBOUND:                -0.250
REMARK SMILES O=C([O-])c1ccccc1O
REMARK SMILES IDX 4 1 9 2 5 3 8 4 6 5 7 6 2 7 1 8 3 9 10 10
REMARK H PARENT 10 11
REMARK Flexibility Score: inf
ROOT
ATOM      1  C   UNL     1      26.822  30.565 -12.733  1.00  0.00     0.039 A 
ATOM      2  C   UNL     1      28.030  30.428 -13.463  1.00  0.00     0.124 A 
ATOM      3  C   UNL     1      26.851  30.418 -11.334  1.00  0.00     0.014 A 
ATOM      4  C   UNL     1      29.232  30.214 -12.777  1.00  0.00     0.047 A 
ATOM      5  C   UNL     1      28.055  30.184 -10.667  1.00  0.00     0.001 A 
ATOM      6  C   UNL     1      29.246  30.092 -11.386  1.00  0.00     0.004 A 
ENDROOT
BRANCH   1   7
ATOM      7  C   UNL     1      25.534  30.893 -13.384  1.00  0.00     0.075 C 
ATOM      8  O   UNL     1      25.486  31.773 -14.284  1.00  0.00    -0.545 OA
ATOM      9  O   UNL     1      24.377  30.191 -13.066  1.00  0.00    -0.545 OA
ENDBRANCH   1   7
BRANCH   2  10
ATOM     10  O   UNL     1      28.074  30.461 -14.858  1.00  0.00    -0.507 OA
ATOM     11  H   UNL     1      28.627  31.128 -15.381  1.00  0.00     0.293 HD
ENDBRANCH   2  10
TORSDOF 2
ENDMDL
MODEL 2
REMARK VINA RESULT:    -4.384      0.944      2.399
REMARK INTER + INTRA:          -5.019
REMARK INTER:                  -4.774
REMARK INTRA:                  -0.244
REMARK UNBOUND:                -0.250
REMARK SMILES O=C([O-])c1ccccc1O
REMARK SMILES IDX 4 1 9 2 5 3 8 4 6 5 7 6 2 7 1 8 3 9 10 10
REMARK H PARENT 10 11
REMARK Flexibility Score: inf
ROOT
ATOM      1  C   UNL     1      26.853  30.557 -12.847  1.00  0.00     0.039 A 
ATOM      2  C   UNL     1      26.829  30.423 -11.435  1.00  0.00     0.124 A 
ATOM      3  C   UNL     1      28.087  30.476 -13.518  1.00  0.00     0.014 A 
ATOM      4  C   UNL     1      28.017  30.150 -10.746  1.00  0.00     0.047 A 
ATOM      5  C   UNL     1      29.267  30.226 -12.813  1.00  0.00     0.001 A 
ATOM      6  C   UNL     1      29.230  30.053 -11.430  1.00  0.00     0.004 A 
ENDROOT
BRANCH   1   7
ATOM      7  C   UNL     1      25.622  30.742 -13.648  1.00  0.00     0.075 C 
ATOM      8  O   UNL     1      24.632  29.986 -13.470  1.00  0.00    -0.545 OA
ATOM      9  O   UNL     1      25.514  31.791 -14.553  1.00  0.00    -0.545 OA
ENDBRANCH   1   7
BRANCH   2  10
ATOM     10  O   UNL     1      25.664  30.586 -10.684  1.00  0.00    -0.507 OA
ATOM     11  H   UNL     1      24.824  31.016 -11.047  1.00  0.00     0.293 HD
ENDBRANCH   2  10
TORSDOF 2
ENDMDL
MODEL 3
REMARK VINA RESULT:    -4.333      1.861      3.506
REMARK INTER + INTRA:          -4.964
REMARK INTER:                  -4.724
REMARK INTRA:                  -0.239
REMARK UNBOUND:                -0.250
REMARK SMILES O=C([O-])c1ccccc1O
REMARK SMILES IDX 4 1 9 2 5 3 8 4 6 5 7 6 2 7 1 8 3 9 10 10
REMARK H PARENT 10 11
REMARK Flexibility Score: inf
ROOT
ATOM      1  C   UNL     1      26.852  30.526 -12.871  1.00  0.00     0.039 A 
ATOM      2  C   UNL     1      26.602  30.936 -14.205  1.00  0.00     0.124 A 
ATOM      3  C   UNL     1      25.966  30.931 -11.856  1.00  0.00     0.014 A 
ATOM      4  C   UNL     1      25.450  31.678 -14.496  1.00  0.00     0.047 A 
ATOM      5  C   UNL     1      24.833  31.690 -12.160  1.00  0.00     0.001 A 
ATOM      6  C   UNL     1      24.570  32.054 -13.480  1.00  0.00     0.004 A 
ENDROOT
BRANCH   1   7
ATOM      7  C   UNL     1      27.993  29.655 -12.509  1.00  0.00     0.075 C 
ATOM      8  O   UNL     1      27.790  28.555 -11.931  1.00  0.00    -0.545 OA
ATOM      9  O   UNL     1      29.292  30.002 -12.861  1.00  0.00    -0.545 OA
ENDBRANCH   1   7
BRANCH   2  10
ATOM     10  O   UNL     1      27.481  30.661 -15.254  1.00  0.00    -0.507 OA
ATOM     11  H   UNL     1      27.999  29.796 -15.333  1.00  0.00     0.293 HD
ENDBRANCH   2  10
TORSDOF 2
ENDMDL
MODEL 4
REMARK VINA RESULT:    -4.208      2.725      3.462
REMARK INTER + INTRA:          -4.827
REMARK INTER:                  -4.589
REMARK INTRA:                  -0.238
REMARK UNBOUND:                -0.250
REMARK SMILES O=C([O-])c1ccccc1O
REMARK SMILES IDX 4 1 9 2 5 3 8 4 6 5 7 6 2 7 1 8 3 9 10 10
REMARK H PARENT 10 11
REMARK Flexibility Score: inf
ROOT
ATOM      1  C   UNL     1      27.568  29.939 -11.346  1.00  0.00     0.039 A 
ATOM      2  C   UNL     1      28.788  30.191 -12.023  1.00  0.00     0.124 A 
ATOM      3  C   UNL     1      26.358  30.059 -12.055  1.00  0.00     0.014 A 
ATOM      4  C   UNL     1      28.771  30.489 -13.392  1.00  0.00     0.047 A 
ATOM      5  C   UNL     1      26.358  30.378 -13.415  1.00  0.00     0.001 A 
ATOM      6  C   UNL     1      27.563  30.583 -14.085  1.00  0.00     0.004 A 
ENDROOT
BRANCH   1   7
ATOM      7  C   UNL     1      27.519  29.519  -9.928  1.00  0.00     0.075 C 
ATOM      8  O   UNL     1      28.057  30.229  -9.039  1.00  0.00    -0.545 OA
ATOM      9  O   UNL     1      26.822  28.378  -9.548  1.00  0.00    -0.545 OA
ENDBRANCH   1   7
BRANCH   2  10
ATOM     10  O   UNL     1      30.024  30.189 -11.373  1.00  0.00    -0.507 OA
ATOM     11  H   UNL     1      30.164  30.568 -10.446  1.00  0.00     0.293 HD
ENDBRANCH   2  10
TORSDOF 2
ENDMDL
MODEL 5
REMARK VINA RESULT:    -4.117      1.953      2.735
REMARK INTER + INTRA:          -4.728
REMARK INTER:                  -4.479
REMARK INTRA:                  -0.249
REMARK UNBOUND:                -0.250
REMARK SMILES O=C([O-])c1ccccc1O
REMARK SMILES IDX 4 1 9 2 5 3 8 4 6 5 7 6 2 7 1 8 3 9 10 10
REMARK H PARENT 10 11
REMARK Flexibility Score: inf
ROOT
ATOM      1  C   UNL     1      26.629  30.413 -11.729  1.00  0.00     0.039 A 
ATOM      2  C   UNL     1      27.751  30.262 -10.873  1.00  0.00     0.124 A 
ATOM      3  C   UNL     1      26.842  30.535 -13.114  1.00  0.00     0.014 A 
ATOM      4  C   UNL     1      29.035  30.175 -11.425  1.00  0.00     0.047 A 
ATOM      5  C   UNL     1      28.131  30.467 -13.646  1.00  0.00     0.001 A 
ATOM      6  C   UNL     1      29.225  30.277 -12.804  1.00  0.00     0.004 A 
ENDROOT
BRANCH   1   7
ATOM      7  C   UNL     1      25.239  30.409 -11.222  1.00  0.00     0.075 C 
ATOM      8  O   UNL     1      24.388  31.202 -11.705  1.00  0.00    -0.545 OA
ATOM      9  O   UNL     1      24.834  29.490 -10.262  1.00  0.00    -0.545 OA
ENDBRANCH   1   7
BRANCH   2  10
ATOM     10  O   UNL     1      27.637  30.231  -9.482  1.00  0.00    -0.507 OA
ATOM     11  H   UNL     1      26.970  29.650  -8.991  1.00  0.00     0.293 HD
ENDBRANCH   2  10
TORSDOF 2
ENDMDL
MODEL 6
REMARK VINA RESULT:    -4.046      2.031      4.020
REMARK INTER + INTRA:          -4.651
REMARK INTER:                  -4.407
REMARK INTRA:                  -0.244
REMARK UNBOUND:                -0.250
REMARK SMILES O=C([O-])c1ccccc1O
REMARK SMILES IDX 4 1 9 2 5 3 8 4 6 5 7 6 2 7 1 8 3 9 10 10
REMARK H PARENT 10 11
REMARK Flexibility Score: inf
ROOT
ATOM      1  C   UNL     1      26.481  30.780 -13.063  1.00  0.00     0.039 A 
ATOM      2  C   UNL     1      25.661  31.077 -11.945  1.00  0.00     0.124 A 
ATOM      3  C   UNL     1      26.127  31.297 -14.324  1.00  0.00     0.014 A 
ATOM      4  C   UNL     1      24.558  31.926 -12.101  1.00  0.00     0.047 A 
ATOM      5  C   UNL     1      25.011  32.124 -14.466  1.00  0.00     0.001 A 
ATOM      6  C   UNL     1      24.233  32.447 -13.355  1.00  0.00     0.004 A 
ENDROOT
BRANCH   1   7
ATOM      7  C   UNL     1      27.718  29.975 -12.950  1.00  0.00     0.075 C 
ATOM      8  O   UNL     1      28.815  30.443 -13.350  1.00  0.00    -0.545 OA
ATOM      9  O   UNL     1      27.700  28.727 -12.339  1.00  0.00    -0.545 OA
ENDBRANCH   1   7
BRANCH   2  10
ATOM     10  O   UNL     1      25.885  30.528 -10.681  1.00  0.00    -0.507 OA
ATOM     11  H   UNL     1      25.164  30.440  -9.977  1.00  0.00     0.293 HD
ENDBRANCH   2  10
TORSDOF 2
ENDMDL
MODEL 7
REMARK VINA RESULT:    -3.942      2.170      3.936
REMARK INTER + INTRA:          -4.538
REMARK INTER:                  -4.287
REMARK INTRA:                  -0.251
REMARK UNBOUND:                -0.250
REMARK SMILES O=C([O-])c1ccccc1O
REMARK SMILES IDX 4 1 9 2 5 3 8 4 6 5 7 6 2 7 1 8 3 9 10 10
REMARK H PARENT 10 11
REMARK Flexibility Score: inf
ROOT
ATOM      1  C   UNL     1      26.111  31.113 -13.578  1.00  0.00     0.039 A 
ATOM      2  C   UNL     1      25.826  30.976 -12.195  1.00  0.00     0.124 A 
ATOM      3  C   UNL     1      25.263  31.905 -14.374  1.00  0.00     0.014 A 
ATOM      4  C   UNL     1      24.749  31.678 -11.639  1.00  0.00     0.047 A 
ATOM      5  C   UNL     1      24.180  32.581 -13.806  1.00  0.00     0.001 A 
ATOM      6  C   UNL     1      23.929  32.476 -12.439  1.00  0.00     0.004 A 
ENDROOT
BRANCH   1   7
ATOM      7  C   UNL     1      27.292  30.484 -14.211  1.00  0.00     0.075 C 
ATOM      8  O   UNL     1      27.202  29.989 -15.365  1.00  0.00    -0.545 OA
ATOM      9  O   UNL     1      28.528  30.490 -13.575  1.00  0.00    -0.545 OA
ENDBRANCH   1   7
BRANCH   2  10
ATOM     10  O   UNL     1      26.558  30.135 -11.356  1.00  0.00    -0.507 OA
ATOM     11  H   UNL     1      26.753  29.166 -11.572  1.00  0.00     0.293 HD
ENDBRANCH   2  10
TORSDOF 2
ENDMDL
MODEL 8
REMARK VINA RESULT:    -3.796      2.798      3.930
REMARK INTER + INTRA:          -4.379
REMARK INTER:                  -4.127
REMARK INTRA:                  -0.252
REMARK UNBOUND:                -0.250
REMARK SMILES O=C([O-])c1ccccc1O
REMARK SMILES IDX 4 1 9 2 5 3 8 4 6 5 7 6 2 7 1 8 3 9 10 10
REMARK H PARENT 10 11
REMARK Flexibility Score: inf
ROOT
ATOM      1  C   UNL     1      27.770  29.429 -12.553  1.00  0.00     0.039 A 
ATOM      2  C   UNL     1      26.984  28.288 -12.859  1.00  0.00     0.124 A 
ATOM      3  C   UNL     1      27.805  30.498 -13.467  1.00  0.00     0.014 A 
ATOM      4  C   UNL     1      26.213  28.274 -14.028  1.00  0.00     0.047 A 
ATOM      5  C   UNL     1      27.046  30.458 -14.639  1.00  0.00     0.001 A 
ATOM      6  C   UNL     1      26.243  29.352 -14.914  1.00  0.00     0.004 A 
ENDROOT
BRANCH   1   7
ATOM      7  C   UNL     1      28.528  29.554 -11.288  1.00  0.00     0.075 C 
ATOM      8  O   UNL     1      29.658  30.108 -11.280  1.00  0.00    -0.545 OA
ATOM      9  O   UNL     1      27.978  29.127 -10.084  1.00  0.00    -0.545 OA
ENDBRANCH   1   7
BRANCH   2  10
ATOM     10  O   UNL     1      26.970  27.147 -12.056  1.00  0.00    -0.507 OA
ATOM     11  H   UNL     1      26.119  26.700 -11.739  1.00  0.00     0.293 HD
ENDBRANCH   2  10
TORSDOF 2
ENDMDL
MODEL 9
REMARK VINA RESULT:    -3.747      2.438      3.614
REMARK INTER + INTRA:          -4.325
REMARK INTER:                  -4.072
REMARK INTRA:                  -0.253
REMARK UNBOUND:                -0.250
REMARK SMILES O=C([O-])c1ccccc1O
REMARK SMILES IDX 4 1 9 2 5 3 8 4 6 5 7 6 2 7 1 8 3 9 10 10
REMARK H PARENT 10 11
REMARK Flexibility Score: inf
ROOT
ATOM      1  C   UNL     1      27.411  29.403 -11.149  1.00  0.00     0.039 A 
ATOM      2  C   UNL     1      26.410  29.656 -12.122  1.00  0.00     0.124 A 
ATOM      3  C   UNL     1      28.751  29.699 -11.457  1.00  0.00     0.014 A 
ATOM      4  C   UNL     1      26.764  30.251 -13.339  1.00  0.00     0.047 A 
ATOM      5  C   UNL     1      29.090  30.272 -12.685  1.00  0.00     0.001 A 
ATOM      6  C   UNL     1      28.097  30.557 -13.621  1.00  0.00     0.004 A 
ENDROOT
BRANCH   1   7
ATOM      7  C   UNL     1      27.094  28.872  -9.804  1.00  0.00     0.075 C 
ATOM      8  O   UNL     1      27.593  29.407  -8.780  1.00  0.00    -0.545 OA
ATOM      9  O   UNL     1      26.190  27.827  -9.647  1.00  0.00    -0.545 OA
ENDBRANCH   1   7
BRANCH   2  10
ATOM     10  O   UNL     1      25.072  29.303 -11.935  1.00  0.00    -0.507 OA
ATOM     11  H   UNL     1      24.743  28.347 -11.944  1.00  0.00     0.293 HD
ENDBRANCH   2  10
TORSDOF 2
ENDMDL
