MODEL 1
REMARK VINA RESULT:    -4.661      0.000      0.000
REMARK INTER + INTRA:          -7.073
REMARK INTER:                  -6.840
REMARK INTRA:                  -0.232
REMARK UNBOUND:                -0.232
REMARK SMILES O=C([O-])CCCCCCCC(=O)[O-]
REMARK SMILES IDX 7 1 6 2 5 3 4 4 2 5 1 6 3 7 8 8 9 9 10 10 11 11 12 12 13 13
REMARK H PARENT
REMARK Flexibility Score: inf
ROOT
ATOM      1  C   UNL     1      -2.178 -35.903  21.308  1.00  0.00     0.000 C 
ENDROOT
BRANCH   1   2
ATOM      2  C   UNL     1      -2.481 -37.413  21.304  1.00  0.00     0.000 C 
BRANCH   2   3
ATOM      3  C   UNL     1      -3.824 -37.803  20.653  1.00  0.00     0.006 C 
BRANCH   3   4
ATOM      4  C   UNL     1      -3.738 -38.125  19.153  1.00  0.00     0.053 C 
BRANCH   4   5
ATOM      5  C   UNL     1      -4.379 -37.064  18.313  1.00  0.00     0.041 C 
ATOM      6  O   UNL     1      -4.382 -35.866  18.700  1.00  0.00    -0.550 OA
ATOM      7  O   UNL     1      -4.945 -37.392  17.088  1.00  0.00    -0.550 OA
ENDBRANCH   4   5
ENDBRANCH   3   4
ENDBRANCH   2   3
ENDBRANCH   1   2
BRANCH   1   8
ATOM      8  C   UNL     1      -2.678 -35.196  22.579  1.00  0.00     0.000 C 
BRANCH   8   9
ATOM      9  C   UNL     1      -1.880 -33.923  22.900  1.00  0.00     0.006 C 
BRANCH   9  10
ATOM     10  C   UNL     1      -2.610 -33.004  23.887  1.00  0.00     0.053 C 
BRANCH  10  11
ATOM     11  C   UNL     1      -1.714 -31.886  24.320  1.00  0.00     0.041 C 
ATOM     12  O   UNL     1      -2.180 -30.728  24.481  1.00  0.00    -0.550 OA
ATOM     13  O   UNL     1      -0.355 -32.112  24.496  1.00  0.00    -0.550 OA
ENDBRANCH  10  11
ENDBRANCH   9  10
ENDBRANCH   8   9
ENDBRANCH   1   8
TORSDOF 8
ENDMDL
MODEL 2
REMARK VINA RESULT:    -4.577      3.519      4.882
REMARK INTER + INTRA:          -6.950
REMARK INTER:                  -6.520
REMARK INTRA:                  -0.430
REMARK UNBOUND:                -0.232
REMARK SMILES O=C([O-])CCCCCCCC(=O)[O-]
REMARK SMILES IDX 7 1 6 2 5 3 4 4 2 5 1 6 3 7 8 8 9 9 10 10 11 11 12 12 13 13
REMARK H PARENT
REMARK Flexibility Score: inf
ROOT
ATOM      1  C   UNL     1      -1.451 -35.930  21.206  1.00  0.00     0.000 C 
ENDROOT
BRANCH   1   2
ATOM      2  C   UNL     1      -0.736 -37.292  21.286  1.00  0.00     0.000 C 
BRANCH   2   3
ATOM      3  C   UNL     1       0.800 -37.226  21.168  1.00  0.00     0.006 C 
BRANCH   3   4
ATOM      4  C   UNL     1       1.387 -35.808  21.232  1.00  0.00     0.053 C 
BRANCH   4   5
ATOM      5  C   UNL     1       2.452 -35.688  22.278  1.00  0.00     0.041 C 
ATOM      6  O   UNL     1       3.329 -36.583  22.393  1.00  0.00    -0.550 OA
ATOM      7  O   UNL     1       2.496 -34.572  23.103  1.00  0.00    -0.550 OA
ENDBRANCH   4   5
ENDBRANCH   3   4
ENDBRANCH   2   3
ENDBRANCH   1   2
BRANCH   1   8
ATOM      8  C   UNL     1      -2.835 -35.941  21.877  1.00  0.00     0.000 C 
BRANCH   8   9
ATOM      9  C   UNL     1      -2.962 -34.889  22.989  1.00  0.00     0.006 C 
BRANCH   9  10
ATOM     10  C   UNL     1      -1.836 -33.848  22.946  1.00  0.00     0.053 C 
BRANCH  10  11
ATOM     11  C   UNL     1      -2.147 -32.704  23.859  1.00  0.00     0.041 C 
ATOM     12  O   UNL     1      -3.302 -32.201  23.873  1.00  0.00    -0.550 OA
ATOM     13  O   UNL     1      -1.149 -32.160  24.657  1.00  0.00    -0.550 OA
ENDBRANCH  10  11
ENDBRANCH   9  10
ENDBRANCH   8   9
ENDBRANCH   1   8
TORSDOF 8
ENDMDL
MODEL 3
REMARK VINA RESULT:    -4.560      3.509      5.760
REMARK INTER + INTRA:          -6.925
REMARK INTER:                  -6.474
REMARK INTRA:                  -0.451
REMARK UNBOUND:                -0.232
REMARK SMILES O=C([O-])CCCCCCCC(=O)[O-]
REMARK SMILES IDX 7 1 6 2 5 3 4 4 2 5 1 6 3 7 8 8 9 9 10 10 11 11 12 12 13 13
REMARK H PARENT
REMARK Flexibility Score: inf
ROOT
ATOM      1  C   UNL     1      -1.550 -35.998  21.100  1.00  0.00     0.000 C 
ENDROOT
BRANCH   1   2
ATOM      2  C   UNL     1      -2.887 -35.974  21.862  1.00  0.00     0.000 C 
BRANCH   2   3
ATOM      3  C   UNL     1      -3.009 -34.863  22.924  1.00  0.00     0.006 C 
BRANCH   3   4
ATOM      4  C   UNL     1      -1.833 -33.875  22.954  1.00  0.00     0.053 C 
BRANCH   4   5
ATOM      5  C   UNL     1      -2.116 -32.691  23.827  1.00  0.00     0.041 C 
ATOM      6  O   UNL     1      -3.270 -32.192  23.862  1.00  0.00    -0.550 OA
ATOM      7  O   UNL     1      -1.112 -32.160  24.627  1.00  0.00    -0.550 OA
ENDBRANCH   4   5
ENDBRANCH   3   4
ENDBRANCH   2   3
ENDBRANCH   1   2
BRANCH   1   8
ATOM      8  C   UNL     1      -0.746 -37.287  21.344  1.00  0.00     0.000 C 
BRANCH   8   9
ATOM      9  C   UNL     1       0.690 -37.198  20.807  1.00  0.00     0.006 C 
BRANCH   9  10
ATOM     10  C   UNL     1       1.284 -35.791  20.944  1.00  0.00     0.053 C 
BRANCH  10  11
ATOM     11  C   UNL     1       2.269 -35.747  22.069  1.00  0.00     0.041 C 
ATOM     12  O   UNL     1       3.067 -36.704  22.251  1.00  0.00    -0.550 OA
ATOM     13  O   UNL     1       2.273 -34.671  22.949  1.00  0.00    -0.550 OA
ENDBRANCH  10  11
ENDBRANCH   9  10
ENDBRANCH   8   9
ENDBRANCH   1   8
TORSDOF 8
ENDMDL
MODEL 4
REMARK VINA RESULT:    -4.495     18.632     20.503
REMARK INTER + INTRA:          -6.829
REMARK INTER:                  -6.571
REMARK INTRA:                  -0.258
REMARK UNBOUND:                -0.232
REMARK SMILES O=C([O-])CCCCCCCC(=O)[O-]
REMARK SMILES IDX 7 1 6 2 5 3 4 4 2 5 1 6 3 7 8 8 9 9 10 10 11 11 12 12 13 13
REMARK H PARENT
REMARK Flexibility Score: inf
ROOT
ATOM      1  C   UNL     1      -7.481 -18.029  32.078  1.00  0.00     0.000 C 
ENDROOT
BRANCH   1   2
ATOM      2  C   UNL     1      -6.754 -19.055  32.966  1.00  0.00     0.000 C 
BRANCH   2   3
ATOM      3  C   UNL     1      -5.249 -19.217  32.672  1.00  0.00     0.006 C 
BRANCH   3   4
ATOM      4  C   UNL     1      -4.321 -18.614  33.738  1.00  0.00     0.053 C 
BRANCH   4   5
ATOM      5  C   UNL     1      -3.898 -19.630  34.754  1.00  0.00     0.041 C 
ATOM      6  O   UNL     1      -4.656 -19.914  35.718  1.00  0.00    -0.550 OA
ATOM      7  O   UNL     1      -2.682 -20.287  34.618  1.00  0.00    -0.550 OA
ENDBRANCH   4   5
ENDBRANCH   3   4
ENDBRANCH   2   3
ENDBRANCH   1   2
BRANCH   1   8
ATOM      8  C   UNL     1      -8.078 -18.656  30.807  1.00  0.00     0.000 C 
BRANCH   8   9
ATOM      9  C   UNL     1      -9.609 -18.766  30.866  1.00  0.00     0.006 C 
BRANCH   9  10
ATOM     10  C   UNL     1     -10.275 -18.458  29.519  1.00  0.00     0.053 C 
BRANCH  10  11
ATOM     11  C   UNL     1      -9.954 -19.526  28.521  1.00  0.00     0.041 C 
ATOM     12  O   UNL     1      -9.523 -19.217  27.379  1.00  0.00    -0.550 OA
ATOM     13  O   UNL     1     -10.180 -20.861  28.833  1.00  0.00    -0.550 OA
ENDBRANCH  10  11
ENDBRANCH   9  10
ENDBRANCH   8   9
ENDBRANCH   1   8
TORSDOF 8
ENDMDL
MODEL 5
REMARK VINA RESULT:    -4.454     18.498     20.673
REMARK INTER + INTRA:          -6.770
REMARK INTER:                  -6.397
REMARK INTRA:                  -0.372
REMARK UNBOUND:                -0.232
REMARK SMILES O=C([O-])CCCCCCCC(=O)[O-]
REMARK SMILES IDX 7 1 6 2 5 3 4 4 2 5 1 6 3 7 8 8 9 9 10 10 11 11 12 12 13 13
REMARK H PARENT
REMARK Flexibility Score: inf
ROOT
ATOM      1  C   UNL     1     -11.273 -20.043  31.878  1.00  0.00     0.000 C 
ENDROOT
BRANCH   1   2
ATOM      2  C   UNL     1     -12.620 -20.047  32.625  1.00  0.00     0.000 C 
BRANCH   2   3
ATOM      3  C   UNL     1     -12.523 -20.343  34.135  1.00  0.00     0.006 C 
BRANCH   3   4
ATOM      4  C   UNL     1     -11.161 -20.885  34.595  1.00  0.00     0.053 C 
BRANCH   4   5
ATOM      5  C   UNL     1     -11.292 -22.187  35.324  1.00  0.00     0.041 C 
ATOM      6  O   UNL     1     -12.431 -22.649  35.595  1.00  0.00    -0.550 OA
ATOM      7  O   UNL     1     -10.156 -22.906  35.675  1.00  0.00    -0.550 OA
ENDBRANCH   4   5
ENDBRANCH   3   4
ENDBRANCH   2   3
ENDBRANCH   1   2
BRANCH   1   8
ATOM      8  C   UNL     1     -10.728 -18.625  31.637  1.00  0.00     0.000 C 
BRANCH   8   9
ATOM      9  C   UNL     1     -10.737 -18.234  30.151  1.00  0.00     0.006 C 
BRANCH   9  10
ATOM     10  C   UNL     1      -9.463 -18.672  29.418  1.00  0.00     0.053 C 
BRANCH  10  11
ATOM     11  C   UNL     1      -9.806 -19.531  28.242  1.00  0.00     0.041 C 
ATOM     12  O   UNL     1     -10.174 -20.723  28.414  1.00  0.00    -0.550 OA
ATOM     13  O   UNL     1      -9.672 -19.031  26.953  1.00  0.00    -0.550 OA
ENDBRANCH  10  11
ENDBRANCH   9  10
ENDBRANCH   8   9
ENDBRANCH   1   8
TORSDOF 8
ENDMDL
MODEL 6
REMARK VINA RESULT:    -4.454     18.451     19.598
REMARK INTER + INTRA:          -6.769
REMARK INTER:                  -6.118
REMARK INTRA:                  -0.652
REMARK UNBOUND:                -0.232
REMARK SMILES O=C([O-])CCCCCCCC(=O)[O-]
REMARK SMILES IDX 7 1 6 2 5 3 4 4 2 5 1 6 3 7 8 8 9 9 10 10 11 11 12 12 13 13
REMARK H PARENT
REMARK Flexibility Score: inf
ROOT
ATOM      1  C   UNL     1      -9.891 -20.115  32.023  1.00  0.00     0.000 C 
ENDROOT
BRANCH   1   2
ATOM      2  C   UNL     1     -10.594 -18.766  31.784  1.00  0.00     0.000 C 
BRANCH   2   3
ATOM      3  C   UNL     1     -10.669 -18.326  30.308  1.00  0.00     0.006 C 
BRANCH   3   4
ATOM      4  C   UNL     1      -9.438 -18.698  29.467  1.00  0.00     0.053 C 
BRANCH   4   5
ATOM      5  C   UNL     1      -9.790 -19.600  28.325  1.00  0.00     0.041 C 
ATOM      6  O   UNL     1      -9.675 -19.195  27.139  1.00  0.00    -0.550 OA
ATOM      7  O   UNL     1     -10.213 -20.901  28.569  1.00  0.00    -0.550 OA
ENDBRANCH   4   5
ENDBRANCH   3   4
ENDBRANCH   2   3
ENDBRANCH   1   2
BRANCH   1   8
ATOM      8  C   UNL     1      -8.837 -20.049  33.141  1.00  0.00     0.000 C 
BRANCH   8   9
ATOM      9  C   UNL     1      -7.983 -18.773  33.073  1.00  0.00     0.006 C 
BRANCH   9  10
ATOM     10  C   UNL     1      -6.810 -18.900  32.095  1.00  0.00     0.053 C 
BRANCH  10  11
ATOM     11  C   UNL     1      -5.535 -19.151  32.837  1.00  0.00     0.041 C 
ATOM     12  O   UNL     1      -5.198 -20.327  33.136  1.00  0.00    -0.550 OA
ATOM     13  O   UNL     1      -4.743 -18.084  33.242  1.00  0.00    -0.550 OA
ENDBRANCH  10  11
ENDBRANCH   9  10
ENDBRANCH   8   9
ENDBRANCH   1   8
TORSDOF 8
ENDMDL
MODEL 7
REMARK VINA RESULT:    -4.453     18.612     19.565
REMARK INTER + INTRA:          -6.768
REMARK INTER:                  -6.499
REMARK INTRA:                  -0.269
REMARK UNBOUND:                -0.232
REMARK SMILES O=C([O-])CCCCCCCC(=O)[O-]
REMARK SMILES IDX 7 1 6 2 5 3 4 4 2 5 1 6 3 7 8 8 9 9 10 10 11 11 12 12 13 13
REMARK H PARENT
REMARK Flexibility Score: inf
ROOT
ATOM      1  C   UNL     1      -7.643 -17.875  32.178  1.00  0.00     0.000 C 
ENDROOT
BRANCH   1   2
ATOM      2  C   UNL     1      -8.113 -18.523  30.863  1.00  0.00     0.000 C 
BRANCH   2   3
ATOM      3  C   UNL     1      -9.622 -18.835  30.797  1.00  0.00     0.006 C 
BRANCH   3   4
ATOM      4  C   UNL     1     -10.292 -18.473  29.463  1.00  0.00     0.053 C 
BRANCH   4   5
ATOM      5  C   UNL     1      -9.964 -19.458  28.384  1.00  0.00     0.041 C 
ATOM      6  O   UNL     1     -10.078 -20.693  28.598  1.00  0.00    -0.550 OA
ATOM      7  O   UNL     1      -9.563 -19.012  27.131  1.00  0.00    -0.550 OA
ENDBRANCH   4   5
ENDBRANCH   3   4
ENDBRANCH   2   3
ENDBRANCH   1   2
BRANCH   1   8
ATOM      8  C   UNL     1      -7.004 -18.885  33.147  1.00  0.00     0.000 C 
BRANCH   8   9
ATOM      9  C   UNL     1      -5.635 -19.384  32.662  1.00  0.00     0.006 C 
BRANCH   9  10
ATOM     10  C   UNL     1      -5.028 -20.439  33.595  1.00  0.00     0.053 C 
BRANCH  10  11
ATOM     11  C   UNL     1      -3.925 -19.844  34.411  1.00  0.00     0.041 C 
ATOM     12  O   UNL     1      -3.525 -18.673  34.176  1.00  0.00    -0.550 OA
ATOM     13  O   UNL     1      -3.303 -20.598  35.398  1.00  0.00    -0.550 OA
ENDBRANCH  10  11
ENDBRANCH   9  10
ENDBRANCH   8   9
ENDBRANCH   1   8
TORSDOF 8
ENDMDL
MODEL 8
REMARK VINA RESULT:    -4.417      4.194      5.679
REMARK INTER + INTRA:          -6.715
REMARK INTER:                  -6.219
REMARK INTRA:                  -0.496
REMARK UNBOUND:                -0.232
REMARK SMILES O=C([O-])CCCCCCCC(=O)[O-]
REMARK SMILES IDX 7 1 6 2 5 3 4 4 2 5 1 6 3 7 8 8 9 9 10 10 11 11 12 12 13 13
REMARK H PARENT
REMARK Flexibility Score: inf
ROOT
ATOM      1  C   UNL     1       0.842 -38.118  19.770  1.00  0.00     0.000 C 
ENDROOT
BRANCH   1   2
ATOM      2  C   UNL     1       0.473 -37.706  21.207  1.00  0.00     0.000 C 
BRANCH   2   3
ATOM      3  C   UNL     1      -0.952 -37.141  21.375  1.00  0.00     0.006 C 
BRANCH   3   4
ATOM      4  C   UNL     1      -1.025 -35.609  21.473  1.00  0.00     0.053 C 
BRANCH   4   5
ATOM      5  C   UNL     1      -2.219 -35.153  22.254  1.00  0.00     0.041 C 
ATOM      6  O   UNL     1      -3.273 -35.840  22.258  1.00  0.00    -0.550 OA
ATOM      7  O   UNL     1      -2.156 -33.987  23.005  1.00  0.00    -0.550 OA
ENDBRANCH   4   5
ENDBRANCH   3   4
ENDBRANCH   2   3
ENDBRANCH   1   2
BRANCH   1   8
ATOM      8  C   UNL     1       1.965 -37.254  19.170  1.00  0.00     0.000 C 
BRANCH   8   9
ATOM      9  C   UNL     1       2.343 -36.068  20.070  1.00  0.00     0.006 C 
BRANCH   9  10
ATOM     10  C   UNL     1       3.725 -36.233  20.714  1.00  0.00     0.053 C 
BRANCH  10  11
ATOM     11  C   UNL     1       3.747 -35.609  22.073  1.00  0.00     0.041 C 
ATOM     12  O   UNL     1       4.825 -35.538  22.720  1.00  0.00    -0.550 OA
ATOM     13  O   UNL     1       2.568 -35.149  22.647  1.00  0.00    -0.550 OA
ENDBRANCH  10  11
ENDBRANCH   9  10
ENDBRANCH   8   9
ENDBRANCH   1   8
TORSDOF 8
ENDMDL
MODEL 9
REMARK VINA RESULT:    -4.287     19.810     20.839
REMARK INTER + INTRA:          -6.524
REMARK INTER:                  -6.023
REMARK INTRA:                  -0.501
REMARK UNBOUND:                -0.232
REMARK SMILES O=C([O-])CCCCCCCC(=O)[O-]
REMARK SMILES IDX 7 1 6 2 5 3 4 4 2 5 1 6 3 7 8 8 9 9 10 10 11 11 12 12 13 13
REMARK H PARENT
REMARK Flexibility Score: inf
ROOT
ATOM      1  C   UNL     1      -9.634 -18.785  29.570  1.00  0.00     0.000 C 
ENDROOT
BRANCH   1   2
ATOM      2  C   UNL     1      -8.242 -18.682  30.220  1.00  0.00     0.000 C 
BRANCH   2   3
ATOM      3  C   UNL     1      -8.253 -18.474  31.748  1.00  0.00     0.006 C 
BRANCH   3   4
ATOM      4  C   UNL     1      -6.960 -17.876  32.321  1.00  0.00     0.053 C 
BRANCH   4   5
ATOM      5  C   UNL     1      -6.073 -18.924  32.919  1.00  0.00     0.041 C 
ATOM      6  O   UNL     1      -4.823 -18.772  32.917  1.00  0.00    -0.550 OA
ATOM      7  O   UNL     1      -6.627 -20.053  33.507  1.00  0.00    -0.550 OA
ENDBRANCH   4   5
ENDBRANCH   3   4
ENDBRANCH   2   3
ENDBRANCH   1   2
BRANCH   1   8
ATOM      8  C   UNL     1     -10.778 -18.741  30.598  1.00  0.00     0.000 C 
BRANCH   8   9
ATOM      9  C   UNL     1     -11.401 -20.123  30.849  1.00  0.00     0.006 C 
BRANCH   9  10
ATOM     10  C   UNL     1     -12.245 -20.165  32.128  1.00  0.00     0.053 C 
BRANCH  10  11
ATOM     11  C   UNL     1     -11.394 -19.878  33.325  1.00  0.00     0.041 C 
ATOM     12  O   UNL     1     -10.457 -20.658  33.637  1.00  0.00    -0.550 OA
ATOM     13  O   UNL     1     -11.668 -18.776  34.126  1.00  0.00    -0.550 OA
ENDBRANCH  10  11
ENDBRANCH   9  10
ENDBRANCH   8   9
ENDBRANCH   1   8
TORSDOF 8
ENDMDL
