MODEL 1
REMARK VINA RESULT:    -2.692      0.000      0.000
REMARK INTER + INTRA:          -7.292
REMARK INTER:                  -4.895
REMARK INTRA:                  -2.397
REMARK UNBOUND:                -2.397
REMARK SMILES CCCCCCCCCCCCCC[C@@H](C)C(=O)[O-]
REMARK SMILES IDX 9 1 10 2 11 3 12 4 13 5 14 6 15 7 16 8 17 9 18 10 19 11 8 12
REMARK SMILES IDX 7 13 6 14 5 15 4 16 3 17 2 18 1 19
REMARK H PARENT
REMARK Flexibility Score: inf
ROOT
ATOM      1  C   UNL     1      53.079  -0.472  21.651  1.00  0.00     0.000 C 
ENDROOT
BRANCH   1   2
ATOM      2  C   UNL     1      53.658   0.823  21.050  1.00  0.00     0.000 C 
BRANCH   2   3
ATOM      3  C   UNL     1      54.060   1.897  22.081  1.00  0.00     0.000 C 
BRANCH   3   4
ATOM      4  C   UNL     1      54.473   1.356  23.465  1.00  0.00     0.000 C 
BRANCH   4   5
ATOM      5  C   UNL     1      55.972   1.040  23.619  1.00  0.00     0.001 C 
BRANCH   5   6
ATOM      6  C   UNL     1      56.239  -0.455  23.888  1.00  0.00     0.009 C 
BRANCH   6   7
ATOM      7  C   UNL     1      57.075  -1.155  22.792  1.00  0.00     0.032 C 
ATOM      8  C   UNL     1      57.282  -0.273  21.550  1.00  0.00     0.014 C 
BRANCH   7   9
ATOM      9  C   UNL     1      58.378  -1.679  23.340  1.00  0.00     0.044 C 
ATOM     10  O   UNL     1      59.421  -1.693  22.634  1.00  0.00    -0.550 OA
ATOM     11  O   UNL     1      58.449  -2.084  24.670  1.00  0.00    -0.550 OA
ENDBRANCH   7   9
ENDBRANCH   6   7
ENDBRANCH   5   6
ENDBRANCH   4   5
ENDBRANCH   3   4
ENDBRANCH   2   3
ENDBRANCH   1   2
BRANCH   1  12
ATOM     12  C   UNL     1      51.644  -0.760  21.172  1.00  0.00     0.000 C 
BRANCH  12  13
ATOM     13  C   UNL     1      51.397  -0.280  19.732  1.00  0.00    -0.000 C 
BRANCH  13  14
ATOM     14  C   UNL     1      50.200   0.681  19.629  1.00  0.00    -0.000 C 
BRANCH  14  15
ATOM     15  C   UNL     1      50.606   2.152  19.795  1.00  0.00    -0.000 C 
BRANCH  15  16
ATOM     16  C   UNL     1      49.905   2.827  20.986  1.00  0.00    -0.000 C 
BRANCH  16  17
ATOM     17  C   UNL     1      50.647   2.613  22.316  1.00  0.00    -0.000 C 
BRANCH  17  18
ATOM     18  C   UNL     1      49.924   1.700  23.323  1.00  0.00    -0.003 C 
ATOM     19  C   UNL     1      50.849   1.155  24.409  1.00  0.00     0.004 C 
ENDBRANCH  17  18
ENDBRANCH  16  17
ENDBRANCH  15  16
ENDBRANCH  14  15
ENDBRANCH  13  14
ENDBRANCH  12  13
ENDBRANCH   1  12
TORSDOF 14
ENDMDL
MODEL 2
REMARK VINA RESULT:    -2.642      1.296      2.163
REMARK INTER + INTRA:          -7.202
REMARK INTER:                  -5.090
REMARK INTRA:                  -2.112
REMARK UNBOUND:                -2.397
REMARK SMILES CCCCCCCCCCCCCC[C@@H](C)C(=O)[O-]
REMARK SMILES IDX 9 1 10 2 11 3 12 4 13 5 14 6 15 7 16 8 17 9 18 10 19 11 8 12
REMARK SMILES IDX 7 13 6 14 5 15 4 16 3 17 2 18 1 19
REMARK H PARENT
REMARK Flexibility Score: inf
ROOT
ATOM      1  C   UNL     1      53.348   0.788  21.606  1.00  0.00     0.000 C 
ENDROOT
BRANCH   1   2
ATOM      2  C   UNL     1      53.839   2.016  22.395  1.00  0.00     0.000 C 
BRANCH   2   3
ATOM      3  C   UNL     1      54.054   1.777  23.904  1.00  0.00     0.000 C 
BRANCH   3   4
ATOM      4  C   UNL     1      55.453   2.151  24.435  1.00  0.00     0.000 C 
BRANCH   4   5
ATOM      5  C   UNL     1      56.629   1.665  23.567  1.00  0.00     0.001 C 
BRANCH   5   6
ATOM      6  C   UNL     1      56.989   0.188  23.828  1.00  0.00     0.009 C 
BRANCH   6   7
ATOM      7  C   UNL     1      56.995  -0.695  22.559  1.00  0.00     0.032 C 
ATOM      8  C   UNL     1      57.034   0.130  21.262  1.00  0.00     0.014 C 
BRANCH   7   9
ATOM      9  C   UNL     1      58.093  -1.727  22.609  1.00  0.00     0.044 C 
ATOM     10  O   UNL     1      58.144  -2.663  21.767  1.00  0.00    -0.550 OA
ATOM     11  O   UNL     1      59.109  -1.603  23.552  1.00  0.00    -0.550 OA
ENDBRANCH   7   9
ENDBRANCH   6   7
ENDBRANCH   5   6
ENDBRANCH   4   5
ENDBRANCH   3   4
ENDBRANCH   2   3
ENDBRANCH   1   2
BRANCH   1  12
ATOM     12  C   UNL     1      52.231   1.133  20.605  1.00  0.00     0.000 C 
BRANCH  12  13
ATOM     13  C   UNL     1      51.811  -0.075  19.752  1.00  0.00    -0.000 C 
BRANCH  13  14
ATOM     14  C   UNL     1      50.390  -0.563  20.080  1.00  0.00    -0.000 C 
BRANCH  14  15
ATOM     15  C   UNL     1      50.382  -1.910  20.817  1.00  0.00    -0.000 C 
BRANCH  15  16
ATOM     16  C   UNL     1      49.878  -1.788  22.265  1.00  0.00    -0.000 C 
BRANCH  16  17
ATOM     17  C   UNL     1      50.981  -1.358  23.248  1.00  0.00    -0.000 C 
BRANCH  17  18
ATOM     18  C   UNL     1      50.560  -0.286  24.269  1.00  0.00    -0.003 C 
ATOM     19  C   UNL     1      50.191   1.047  23.621  1.00  0.00     0.004 C 
ENDBRANCH  17  18
ENDBRANCH  16  17
ENDBRANCH  15  16
ENDBRANCH  14  15
ENDBRANCH  13  14
ENDBRANCH  12  13
ENDBRANCH   1  12
TORSDOF 14
ENDMDL
MODEL 3
REMARK VINA RESULT:    -2.629      2.886      6.887
REMARK INTER + INTRA:          -7.177
REMARK INTER:                  -5.067
REMARK INTRA:                  -2.111
REMARK UNBOUND:                -2.397
REMARK SMILES CCCCCCCCCCCCCC[C@@H](C)C(=O)[O-]
REMARK SMILES IDX 9 1 10 2 11 3 12 4 13 5 14 6 15 7 16 8 17 9 18 10 19 11 8 12
REMARK SMILES IDX 7 13 6 14 5 15 4 16 3 17 2 18 1 19
REMARK H PARENT
REMARK Flexibility Score: inf
ROOT
ATOM      1  C   UNL     1      54.133   0.339  22.358  1.00  0.00     0.000 C 
ENDROOT
BRANCH   1   2
ATOM      2  C   UNL     1      53.547   1.031  21.112  1.00  0.00     0.000 C 
BRANCH   2   3
ATOM      3  C   UNL     1      52.728   2.306  21.400  1.00  0.00     0.000 C 
BRANCH   3   4
ATOM      4  C   UNL     1      51.806   2.766  20.252  1.00  0.00     0.000 C 
BRANCH   4   5
ATOM      5  C   UNL     1      50.590   1.858  19.993  1.00  0.00     0.001 C 
BRANCH   5   6
ATOM      6  C   UNL     1      49.917   1.379  21.296  1.00  0.00     0.009 C 
BRANCH   6   7
ATOM      7  C   UNL     1      49.910  -0.156  21.477  1.00  0.00     0.032 C 
ATOM      8  C   UNL     1      50.495  -0.899  20.264  1.00  0.00     0.014 C 
BRANCH   7   9
ATOM      9  C   UNL     1      50.575  -0.563  22.767  1.00  0.00     0.044 C 
ATOM     10  O   UNL     1      51.001  -1.737  22.936  1.00  0.00    -0.550 OA
ATOM     11  O   UNL     1      50.790   0.389  23.759  1.00  0.00    -0.550 OA
ENDBRANCH   7   9
ENDBRANCH   6   7
ENDBRANCH   5   6
ENDBRANCH   4   5
ENDBRANCH   3   4
ENDBRANCH   2   3
ENDBRANCH   1   2
BRANCH   1  12
ATOM     12  C   UNL     1      54.304   1.302  23.547  1.00  0.00     0.000 C 
BRANCH  12  13
ATOM     13  C   UNL     1      55.770   1.712  23.765  1.00  0.00    -0.000 C 
BRANCH  13  14
ATOM     14  C   UNL     1      56.316   1.244  25.125  1.00  0.00    -0.000 C 
BRANCH  14  15
ATOM     15  C   UNL     1      57.513   0.293  24.985  1.00  0.00    -0.000 C 
BRANCH  15  16
ATOM     16  C   UNL     1      57.144  -1.022  24.277  1.00  0.00    -0.000 C 
BRANCH  16  17
ATOM     17  C   UNL     1      58.171  -1.433  23.208  1.00  0.00    -0.000 C 
BRANCH  17  18
ATOM     18  C   UNL     1      57.621  -1.501  21.772  1.00  0.00    -0.003 C 
ATOM     19  C   UNL     1      57.514  -0.131  21.106  1.00  0.00     0.004 C 
ENDBRANCH  17  18
ENDBRANCH  16  17
ENDBRANCH  15  16
ENDBRANCH  14  15
ENDBRANCH  13  14
ENDBRANCH  12  13
ENDBRANCH   1  12
TORSDOF 14
ENDMDL
MODEL 4
REMARK VINA RESULT:    -2.626     19.844     21.636
REMARK INTER + INTRA:          -7.173
REMARK INTER:                  -6.099
REMARK INTRA:                  -1.074
REMARK UNBOUND:                -2.397
REMARK SMILES CCCCCCCCCCCCCC[C@@H](C)C(=O)[O-]
REMARK SMILES IDX 9 1 10 2 11 3 12 4 13 5 14 6 15 7 16 8 17 9 18 10 19 11 8 12
REMARK SMILES IDX 7 13 6 14 5 15 4 16 3 17 2 18 1 19
REMARK H PARENT
REMARK Flexibility Score: inf
ROOT
ATOM      1  C   UNL     1      57.749 -14.901   8.659  1.00  0.00     0.000 C 
ENDROOT
BRANCH   1   2
ATOM      2  C   UNL     1      56.262 -14.661   8.979  1.00  0.00     0.000 C 
BRANCH   2   3
ATOM      3  C   UNL     1      55.388 -15.932   9.009  1.00  0.00     0.000 C 
BRANCH   3   4
ATOM      4  C   UNL     1      55.642 -16.875  10.203  1.00  0.00     0.000 C 
BRANCH   4   5
ATOM      5  C   UNL     1      55.581 -16.201  11.586  1.00  0.00     0.001 C 
BRANCH   5   6
ATOM      6  C   UNL     1      56.076 -17.124  12.719  1.00  0.00     0.009 C 
BRANCH   6   7
ATOM      7  C   UNL     1      57.250 -16.544  13.540  1.00  0.00     0.032 C 
ATOM      8  C   UNL     1      57.265 -17.050  14.993  1.00  0.00     0.014 C 
BRANCH   7   9
ATOM      9  C   UNL     1      58.571 -16.764  12.848  1.00  0.00     0.044 C 
ATOM     10  O   UNL     1      59.657 -16.696  13.483  1.00  0.00    -0.550 OA
ATOM     11  O   UNL     1      58.589 -17.122  11.504  1.00  0.00    -0.550 OA
ENDBRANCH   7   9
ENDBRANCH   6   7
ENDBRANCH   5   6
ENDBRANCH   4   5
ENDBRANCH   3   4
ENDBRANCH   2   3
ENDBRANCH   1   2
BRANCH   1  12
ATOM     12  C   UNL     1      58.117 -14.507   7.217  1.00  0.00     0.000 C 
BRANCH  12  13
ATOM     13  C   UNL     1      58.781 -15.658   6.443  1.00  0.00    -0.000 C 
BRANCH  13  14
ATOM     14  C   UNL     1      57.988 -16.058   5.187  1.00  0.00    -0.000 C 
BRANCH  14  15
ATOM     15  C   UNL     1      56.595 -16.612   5.520  1.00  0.00    -0.000 C 
BRANCH  15  16
ATOM     16  C   UNL     1      55.464 -15.788   4.884  1.00  0.00    -0.000 C 
BRANCH  16  17
ATOM     17  C   UNL     1      54.085 -16.094   5.494  1.00  0.00    -0.000 C 
BRANCH  17  18
ATOM     18  C   UNL     1      52.941 -15.190   4.999  1.00  0.00    -0.003 C 
ATOM     19  C   UNL     1      51.653 -15.361   5.801  1.00  0.00     0.004 C 
ENDBRANCH  17  18
ENDBRANCH  16  17
ENDBRANCH  15  16
ENDBRANCH  14  15
ENDBRANCH  13  14
ENDBRANCH  12  13
ENDBRANCH   1  12
TORSDOF 14
ENDMDL
MODEL 5
REMARK VINA RESULT:    -2.559      2.532      6.542
REMARK INTER + INTRA:          -7.051
REMARK INTER:                  -5.567
REMARK INTRA:                  -1.484
REMARK UNBOUND:                -2.397
REMARK SMILES CCCCCCCCCCCCCC[C@@H](C)C(=O)[O-]
REMARK SMILES IDX 9 1 10 2 11 3 12 4 13 5 14 6 15 7 16 8 17 9 18 10 19 11 8 12
REMARK SMILES IDX 7 13 6 14 5 15 4 16 3 17 2 18 1 19
REMARK H PARENT
REMARK Flexibility Score: inf
ROOT
ATOM      1  C   UNL     1      53.632   2.020  24.137  1.00  0.00     0.000 C 
ENDROOT
BRANCH   1   2
ATOM      2  C   UNL     1      52.967   3.038  23.192  1.00  0.00     0.000 C 
BRANCH   2   3
ATOM      3  C   UNL     1      51.460   2.815  22.950  1.00  0.00     0.000 C 
BRANCH   3   4
ATOM      4  C   UNL     1      51.083   2.374  21.521  1.00  0.00     0.000 C 
BRANCH   4   5
ATOM      5  C   UNL     1      52.269   1.933  20.643  1.00  0.00     0.001 C 
BRANCH   5   6
ATOM      6  C   UNL     1      52.225   0.430  20.296  1.00  0.00     0.009 C 
BRANCH   6   7
ATOM      7  C   UNL     1      51.093  -0.349  21.004  1.00  0.00     0.032 C 
ATOM      8  C   UNL     1      50.194  -1.115  20.020  1.00  0.00     0.014 C 
BRANCH   7   9
ATOM      9  C   UNL     1      51.633  -1.242  22.093  1.00  0.00     0.044 C 
ATOM     10  O   UNL     1      50.864  -1.783  22.931  1.00  0.00    -0.550 OA
ATOM     11  O   UNL     1      52.993  -1.533  22.128  1.00  0.00    -0.550 OA
ENDBRANCH   7   9
ENDBRANCH   6   7
ENDBRANCH   5   6
ENDBRANCH   4   5
ENDBRANCH   3   4
ENDBRANCH   2   3
ENDBRANCH   1   2
BRANCH   1  12
ATOM     12  C   UNL     1      55.104   2.358  24.433  1.00  0.00     0.000 C 
BRANCH  12  13
ATOM     13  C   UNL     1      55.985   1.103  24.548  1.00  0.00    -0.000 C 
BRANCH  13  14
ATOM     14  C   UNL     1      55.914   0.218  23.292  1.00  0.00    -0.000 C 
BRANCH  14  15
ATOM     15  C   UNL     1      56.640   0.838  22.090  1.00  0.00    -0.000 C 
BRANCH  15  16
ATOM     16  C   UNL     1      57.418  -0.203  21.268  1.00  0.00    -0.000 C 
BRANCH  16  17
ATOM     17  C   UNL     1      57.514  -1.568  21.969  1.00  0.00    -0.000 C 
BRANCH  17  18
ATOM     18  C   UNL     1      58.838  -1.826  22.712  1.00  0.00    -0.003 C 
ATOM     19  C   UNL     1      58.643  -2.143  24.193  1.00  0.00     0.004 C 
ENDBRANCH  17  18
ENDBRANCH  16  17
ENDBRANCH  15  16
ENDBRANCH  14  15
ENDBRANCH  13  14
ENDBRANCH  12  13
ENDBRANCH   1  12
TORSDOF 14
ENDMDL
MODEL 6
REMARK VINA RESULT:    -2.530      1.201      3.069
REMARK INTER + INTRA:          -6.998
REMARK INTER:                  -4.877
REMARK INTRA:                  -2.121
REMARK UNBOUND:                -2.397
REMARK SMILES CCCCCCCCCCCCCC[C@@H](C)C(=O)[O-]
REMARK SMILES IDX 9 1 10 2 11 3 12 4 13 5 14 6 15 7 16 8 17 9 18 10 19 11 8 12
REMARK SMILES IDX 7 13 6 14 5 15 4 16 3 17 2 18 1 19
REMARK H PARENT
REMARK Flexibility Score: inf
ROOT
ATOM      1  C   UNL     1      54.103   2.194  22.311  1.00  0.00     0.000 C 
ENDROOT
BRANCH   1   2
ATOM      2  C   UNL     1      55.320   3.109  22.546  1.00  0.00     0.000 C 
BRANCH   2   3
ATOM      3  C   UNL     1      55.898   3.069  23.976  1.00  0.00     0.000 C 
BRANCH   3   4
ATOM      4  C   UNL     1      55.216   2.070  24.932  1.00  0.00     0.000 C 
BRANCH   4   5
ATOM      5  C   UNL     1      55.961   0.734  25.114  1.00  0.00     0.001 C 
BRANCH   5   6
ATOM      6  C   UNL     1      57.162   0.588  24.157  1.00  0.00     0.009 C 
BRANCH   6   7
ATOM      7  C   UNL     1      57.045  -0.598  23.172  1.00  0.00     0.032 C 
ATOM      8  C   UNL     1      56.962  -0.145  21.705  1.00  0.00     0.014 C 
BRANCH   7   9
ATOM      9  C   UNL     1      58.141  -1.610  23.394  1.00  0.00     0.044 C 
ATOM     10  O   UNL     1      58.896  -1.967  22.450  1.00  0.00    -0.550 OA
ATOM     11  O   UNL     1      58.372  -2.102  24.675  1.00  0.00    -0.550 OA
ENDBRANCH   7   9
ENDBRANCH   6   7
ENDBRANCH   5   6
ENDBRANCH   4   5
ENDBRANCH   3   4
ENDBRANCH   2   3
ENDBRANCH   1   2
BRANCH   1  12
ATOM     12  C   UNL     1      52.792   2.981  22.142  1.00  0.00     0.000 C 
BRANCH  12  13
ATOM     13  C   UNL     1      51.666   2.451  23.046  1.00  0.00    -0.000 C 
BRANCH  13  14
ATOM     14  C   UNL     1      51.970   1.049  23.603  1.00  0.00    -0.000 C 
BRANCH  14  15
ATOM     15  C   UNL     1      50.891   0.020  23.236  1.00  0.00    -0.000 C 
BRANCH  15  16
ATOM     16  C   UNL     1      51.429  -1.101  22.330  1.00  0.00    -0.000 C 
BRANCH  16  17
ATOM     17  C   UNL     1      52.095  -0.568  21.050  1.00  0.00    -0.000 C 
BRANCH  17  18
ATOM     18  C   UNL     1      51.140  -0.351  19.862  1.00  0.00    -0.003 C 
ATOM     19  C   UNL     1      50.661   1.093  19.734  1.00  0.00     0.004 C 
ENDBRANCH  17  18
ENDBRANCH  16  17
ENDBRANCH  15  16
ENDBRANCH  14  15
ENDBRANCH  13  14
ENDBRANCH  12  13
ENDBRANCH   1  12
TORSDOF 14
ENDMDL
MODEL 7
REMARK VINA RESULT:    -2.510      1.533      2.613
REMARK INTER + INTRA:          -6.961
REMARK INTER:                  -5.373
REMARK INTRA:                  -1.588
REMARK UNBOUND:                -2.397
REMARK SMILES CCCCCCCCCCCCCC[C@@H](C)C(=O)[O-]
REMARK SMILES IDX 9 1 10 2 11 3 12 4 13 5 14 6 15 7 16 8 17 9 18 10 19 11 8 12
REMARK SMILES IDX 7 13 6 14 5 15 4 16 3 17 2 18 1 19
REMARK H PARENT
REMARK Flexibility Score: inf
ROOT
ATOM      1  C   UNL     1      53.298   1.399  21.337  1.00  0.00     0.000 C 
ENDROOT
BRANCH   1   2
ATOM      2  C   UNL     1      54.108   0.649  22.411  1.00  0.00     0.000 C 
BRANCH   2   3
ATOM      3  C   UNL     1      55.281   1.446  23.019  1.00  0.00     0.000 C 
BRANCH   3   4
ATOM      4  C   UNL     1      55.452   1.301  24.544  1.00  0.00     0.000 C 
BRANCH   4   5
ATOM      5  C   UNL     1      56.728   0.561  24.987  1.00  0.00     0.001 C 
BRANCH   5   6
ATOM      6  C   UNL     1      56.854  -0.838  24.348  1.00  0.00     0.009 C 
BRANCH   6   7
ATOM      7  C   UNL     1      58.130  -1.031  23.497  1.00  0.00     0.032 C 
ATOM      8  C   UNL     1      59.092  -2.072  24.096  1.00  0.00     0.014 C 
BRANCH   7   9
ATOM      9  C   UNL     1      57.795  -1.331  22.058  1.00  0.00     0.044 C 
ATOM     10  O   UNL     1      57.555  -0.403  21.240  1.00  0.00    -0.550 OA
ATOM     11  O   UNL     1      57.824  -2.646  21.606  1.00  0.00    -0.550 OA
ENDBRANCH   7   9
ENDBRANCH   6   7
ENDBRANCH   5   6
ENDBRANCH   4   5
ENDBRANCH   3   4
ENDBRANCH   2   3
ENDBRANCH   1   2
BRANCH   1  12
ATOM     12  C   UNL     1      52.329   2.432  21.939  1.00  0.00     0.000 C 
BRANCH  12  13
ATOM     13  C   UNL     1      50.885   2.241  21.446  1.00  0.00    -0.000 C 
BRANCH  13  14
ATOM     14  C   UNL     1      50.819   1.784  19.979  1.00  0.00    -0.000 C 
BRANCH  14  15
ATOM     15  C   UNL     1      49.914   0.560  19.781  1.00  0.00    -0.000 C 
BRANCH  15  16
ATOM     16  C   UNL     1      50.698  -0.763  19.796  1.00  0.00    -0.000 C 
BRANCH  16  17
ATOM     17  C   UNL     1      50.317  -1.670  20.979  1.00  0.00    -0.000 C 
BRANCH  17  18
ATOM     18  C   UNL     1      51.099  -1.406  22.279  1.00  0.00    -0.003 C 
ATOM     19  C   UNL     1      50.282  -1.687  23.537  1.00  0.00     0.004 C 
ENDBRANCH  17  18
ENDBRANCH  16  17
ENDBRANCH  15  16
ENDBRANCH  14  15
ENDBRANCH  13  14
ENDBRANCH  12  13
ENDBRANCH   1  12
TORSDOF 14
ENDMDL
MODEL 8
REMARK VINA RESULT:    -2.396      3.393      6.941
REMARK INTER + INTRA:          -6.754
REMARK INTER:                  -5.179
REMARK INTRA:                  -1.575
REMARK UNBOUND:                -2.397
REMARK SMILES CCCCCCCCCCCCCC[C@@H](C)C(=O)[O-]
REMARK SMILES IDX 9 1 10 2 11 3 12 4 13 5 14 6 15 7 16 8 17 9 18 10 19 11 8 12
REMARK SMILES IDX 7 13 6 14 5 15 4 16 3 17 2 18 1 19
REMARK H PARENT
REMARK Flexibility Score: inf
ROOT
ATOM      1  C   UNL     1      53.968   2.263  22.533  1.00  0.00     0.000 C 
ENDROOT
BRANCH   1   2
ATOM      2  C   UNL     1      53.100   2.842  23.666  1.00  0.00     0.000 C 
BRANCH   2   3
ATOM      3  C   UNL     1      52.687   1.829  24.754  1.00  0.00     0.000 C 
BRANCH   3   4
ATOM      4  C   UNL     1      51.202   1.413  24.733  1.00  0.00     0.000 C 
BRANCH   4   5
ATOM      5  C   UNL     1      50.895   0.140  23.922  1.00  0.00     0.001 C 
BRANCH   5   6
ATOM      6  C   UNL     1      50.332   0.451  22.520  1.00  0.00     0.009 C 
BRANCH   6   7
ATOM      7  C   UNL     1      51.312   0.148  21.363  1.00  0.00     0.032 C 
ATOM      8  C   UNL     1      52.308  -0.972  21.708  1.00  0.00     0.014 C 
BRANCH   7   9
ATOM      9  C   UNL     1      50.579  -0.121  20.073  1.00  0.00     0.044 C 
ATOM     10  O   UNL     1      50.290   0.817  19.283  1.00  0.00    -0.550 OA
ATOM     11  O   UNL     1      50.283  -1.432  19.713  1.00  0.00    -0.550 OA
ENDBRANCH   7   9
ENDBRANCH   6   7
ENDBRANCH   5   6
ENDBRANCH   4   5
ENDBRANCH   3   4
ENDBRANCH   2   3
ENDBRANCH   1   2
BRANCH   1  12
ATOM     12  C   UNL     1      55.398   2.830  22.531  1.00  0.00     0.000 C 
BRANCH  12  13
ATOM     13  C   UNL     1      56.433   1.819  23.054  1.00  0.00    -0.000 C 
BRANCH  13  14
ATOM     14  C   UNL     1      55.813   0.442  23.351  1.00  0.00    -0.000 C 
BRANCH  14  15
ATOM     15  C   UNL     1      56.111  -0.589  22.254  1.00  0.00    -0.000 C 
BRANCH  15  16
ATOM     16  C   UNL     1      57.596  -0.613  21.853  1.00  0.00    -0.000 C 
BRANCH  16  17
ATOM     17  C   UNL     1      58.352  -1.819  22.435  1.00  0.00    -0.000 C 
BRANCH  17  18
ATOM     18  C   UNL     1      58.295  -1.944  23.969  1.00  0.00    -0.003 C 
ATOM     19  C   UNL     1      59.674  -1.915  24.624  1.00  0.00     0.004 C 
ENDBRANCH  17  18
ENDBRANCH  16  17
ENDBRANCH  15  16
ENDBRANCH  14  15
ENDBRANCH  13  14
ENDBRANCH  12  13
ENDBRANCH   1  12
TORSDOF 14
ENDMDL
MODEL 9
REMARK VINA RESULT:    -2.345      2.967      7.201
REMARK INTER + INTRA:          -6.661
REMARK INTER:                  -5.058
REMARK INTRA:                  -1.603
REMARK UNBOUND:                -2.397
REMARK SMILES CCCCCCCCCCCCCC[C@@H](C)C(=O)[O-]
REMARK SMILES IDX 9 1 10 2 11 3 12 4 13 5 14 6 15 7 16 8 17 9 18 10 19 11 8 12
REMARK SMILES IDX 7 13 6 14 5 15 4 16 3 17 2 18 1 19
REMARK H PARENT
REMARK Flexibility Score: inf
ROOT
ATOM      1  C   UNL     1      55.310   1.479  22.585  1.00  0.00     0.000 C 
ENDROOT
BRANCH   1   2
ATOM      2  C   UNL     1      53.922   2.148  22.580  1.00  0.00     0.000 C 
BRANCH   2   3
ATOM      3  C   UNL     1      52.861   1.453  23.457  1.00  0.00     0.000 C 
BRANCH   3   4
ATOM      4  C   UNL     1      51.683   2.348  23.894  1.00  0.00     0.000 C 
BRANCH   4   5
ATOM      5  C   UNL     1      50.519   2.426  22.889  1.00  0.00     0.001 C 
BRANCH   5   6
ATOM      6  C   UNL     1      50.249   1.079  22.187  1.00  0.00     0.009 C 
BRANCH   6   7
ATOM      7  C   UNL     1      50.426   1.120  20.652  1.00  0.00     0.032 C 
ATOM      8  C   UNL     1      51.049   2.438  20.162  1.00  0.00     0.014 C 
BRANCH   7   9
ATOM      9  C   UNL     1      51.181  -0.086  20.150  1.00  0.00     0.044 C 
ATOM     10  O   UNL     1      50.583  -1.029  19.567  1.00  0.00    -0.550 OA
ATOM     11  O   UNL     1      52.567  -0.125  20.266  1.00  0.00    -0.550 OA
ENDBRANCH   7   9
ENDBRANCH   6   7
ENDBRANCH   5   6
ENDBRANCH   4   5
ENDBRANCH   3   4
ENDBRANCH   2   3
ENDBRANCH   1   2
BRANCH   1  12
ATOM     12  C   UNL     1      56.355   2.287  23.375  1.00  0.00     0.000 C 
BRANCH  12  13
ATOM     13  C   UNL     1      56.598   1.717  24.782  1.00  0.00    -0.000 C 
BRANCH  13  14
ATOM     14  C   UNL     1      56.629   0.179  24.798  1.00  0.00    -0.000 C 
BRANCH  14  15
ATOM     15  C   UNL     1      58.040  -0.382  25.025  1.00  0.00    -0.000 C 
BRANCH  15  16
ATOM     16  C   UNL     1      58.218  -1.791  24.434  1.00  0.00    -0.000 C 
BRANCH  16  17
ATOM     17  C   UNL     1      58.780  -1.772  23.003  1.00  0.00    -0.000 C 
BRANCH  17  18
ATOM     18  C   UNL     1      57.718  -1.717  21.889  1.00  0.00    -0.003 C 
ATOM     19  C   UNL     1      57.714  -0.393  21.128  1.00  0.00     0.004 C 
ENDBRANCH  17  18
ENDBRANCH  16  17
ENDBRANCH  15  16
ENDBRANCH  14  15
ENDBRANCH  13  14
ENDBRANCH  12  13
ENDBRANCH   1  12
TORSDOF 14
ENDMDL
