MODEL 1
REMARK VINA RESULT:    -8.219      0.000      0.000
REMARK INTER + INTRA:         -10.153
REMARK INTER:                 -10.141
REMARK INTRA:                  -0.012
REMARK UNBOUND:                -0.012
REMARK SMILES COc1cc(-c2oc3cc(O)cc(O)c3c(=O)c2O)ccc1O
REMARK SMILES IDX 6 1 18 2 16 3 17 4 15 5 13 6 12 7 10 8 9 9 8 10 7 11 5 12
REMARK SMILES IDX 3 13 22 14 4 15 21 16 20 17 2 18 1 19 23 20 19 22 14 24
REMARK SMILES IDX 11 26
REMARK H PARENT 23 21 19 23 14 25 11 27
REMARK Flexibility Score: inf
ROOT
ATOM      1  C   UNL     1       7.958  -6.830 -10.322  1.00  0.00     0.180 A 
ATOM      2  C   UNL     1       8.545  -8.076 -10.619  1.00  0.00     0.208 A 
ATOM      3  C   UNL     1       9.838  -8.104 -11.164  1.00  0.00     0.238 A 
ATOM      4  O   UNL     1      10.377  -9.214 -11.424  1.00  0.00    -0.285 OA
ATOM      5  C   UNL     1      10.512  -6.893 -11.420  1.00  0.00     0.111 A 
ATOM      6  C   UNL     1      11.815  -6.835 -11.972  1.00  0.00     0.134 A 
ATOM      7  C   UNL     1      12.416  -5.588 -12.206  1.00  0.00     0.093 A 
ATOM      8  C   UNL     1      11.739  -4.402 -11.900  1.00  0.00     0.123 A 
ATOM      9  C   UNL     1      10.454  -4.455 -11.356  1.00  0.00     0.094 A 
ATOM     10  C   UNL     1       9.839  -5.688 -11.114  1.00  0.00     0.146 A 
ATOM     11  O   UNL     1       8.619  -5.708 -10.591  1.00  0.00    -0.452 OA
ENDROOT
BRANCH   1  12
ATOM     12  C   UNL     1       6.606  -6.719  -9.729  1.00  0.00     0.025 A 
ATOM     13  C   UNL     1       5.142  -5.815  -7.992  1.00  0.00     0.161 A 
ATOM     14  C   UNL     1       4.065  -6.529  -8.536  1.00  0.00     0.157 A 
ATOM     15  C   UNL     1       6.413  -5.920  -8.591  1.00  0.00     0.062 A 
ATOM     16  C   UNL     1       4.258  -7.342  -9.660  1.00  0.00     0.051 A 
ATOM     17  C   UNL     1       5.519  -7.443 -10.249  1.00  0.00     0.016 A 
BRANCH  13  18
ATOM     18  O   UNL     1       4.911  -5.016  -6.861  1.00  0.00    -0.493 OA
ATOM     19  C   UNL     1       4.553  -3.638  -6.906  1.00  0.00     0.278 C 
ENDBRANCH  13  18
BRANCH  14  20
ATOM     20  O   UNL     1       2.805  -6.428  -7.950  1.00  0.00    -0.504 OA
ATOM     21  H   UNL     1       2.021  -6.017  -8.444  1.00  0.00     0.293 HD
ENDBRANCH  14  20
ENDBRANCH   1  12
BRANCH   2  22
ATOM     22  O   UNL     1       7.835  -9.260 -10.401  1.00  0.00    -0.502 OA
ATOM     23  H   UNL     1       6.940  -9.445 -10.839  1.00  0.00     0.293 HD
ENDBRANCH   2  22
BRANCH   6  24
ATOM     24  O   UNL     1      12.515  -8.000 -12.288  1.00  0.00    -0.507 OA
ATOM     25  H   UNL     1      13.248  -8.009 -12.988  1.00  0.00     0.293 HD
ENDBRANCH   6  24
BRANCH   8  26
ATOM     26  O   UNL     1      12.334  -3.165 -12.134  1.00  0.00    -0.508 OA
ATOM     27  H   UNL     1      12.420  -2.471 -11.400  1.00  0.00     0.293 HD
ENDBRANCH   8  26
TORSDOF 6
ENDMDL
MODEL 2
REMARK VINA RESULT:    -7.728      1.996      7.566
REMARK INTER + INTRA:          -9.548
REMARK INTER:                  -9.922
REMARK INTRA:                   0.375
REMARK UNBOUND:                -0.012
REMARK SMILES COc1cc(-c2oc3cc(O)cc(O)c3c(=O)c2O)ccc1O
REMARK SMILES IDX 6 1 18 2 16 3 17 4 15 5 13 6 12 7 10 8 9 9 8 10 7 11 5 12
REMARK SMILES IDX 3 13 22 14 4 15 21 16 20 17 2 18 1 19 23 20 19 22 14 24
REMARK SMILES IDX 11 26
REMARK H PARENT 23 21 19 23 14 25 11 27
REMARK Flexibility Score: inf
ROOT
ATOM      1  C   UNL     1      11.109  -6.153 -11.881  1.00  0.00     0.180 A 
ATOM      2  C   UNL     1      11.288  -7.542 -12.025  1.00  0.00     0.208 A 
ATOM      3  C   UNL     1      10.299  -8.409 -11.535  1.00  0.00     0.238 A 
ATOM      4  O   UNL     1      10.444  -9.655 -11.668  1.00  0.00    -0.285 OA
ATOM      5  C   UNL     1       9.161  -7.876 -10.895  1.00  0.00     0.111 A 
ATOM      6  C   UNL     1       8.121  -8.681 -10.370  1.00  0.00     0.134 A 
ATOM      7  C   UNL     1       7.025  -8.074  -9.738  1.00  0.00     0.093 A 
ATOM      8  C   UNL     1       6.950  -6.682  -9.621  1.00  0.00     0.123 A 
ATOM      9  C   UNL     1       7.973  -5.885 -10.137  1.00  0.00     0.094 A 
ATOM     10  C   UNL     1       9.073  -6.470 -10.772  1.00  0.00     0.146 A 
ATOM     11  O   UNL     1      10.029  -5.687 -11.258  1.00  0.00    -0.452 OA
ENDROOT
BRANCH   1  12
ATOM     12  C   UNL     1      12.098  -5.175 -12.387  1.00  0.00     0.025 A 
ATOM     13  C   UNL     1      14.008  -4.674 -13.828  1.00  0.00     0.161 A 
ATOM     14  C   UNL     1      14.035  -3.365 -13.328  1.00  0.00     0.157 A 
ATOM     15  C   UNL     1      13.040  -5.577 -13.347  1.00  0.00     0.062 A 
ATOM     16  C   UNL     1      13.111  -2.966 -12.356  1.00  0.00     0.051 A 
ATOM     17  C   UNL     1      12.153  -3.864 -11.882  1.00  0.00     0.016 A 
BRANCH  13  18
ATOM     18  O   UNL     1      14.956  -5.040 -14.797  1.00  0.00    -0.493 OA
ATOM     19  C   UNL     1      14.673  -5.840 -15.941  1.00  0.00     0.278 C 
ENDBRANCH  13  18
BRANCH  14  20
ATOM     20  O   UNL     1      14.990  -2.467 -13.802  1.00  0.00    -0.504 OA
ATOM     21  H   UNL     1      15.522  -1.877 -13.171  1.00  0.00     0.293 HD
ENDBRANCH  14  20
ENDBRANCH   1  12
BRANCH   2  22
ATOM     22  O   UNL     1      12.449  -8.046 -12.619  1.00  0.00    -0.502 OA
ATOM     23  H   UNL     1      12.705  -7.834 -13.576  1.00  0.00     0.293 HD
ENDBRANCH   2  22
BRANCH   6  24
ATOM     24  O   UNL     1       8.167 -10.072 -10.471  1.00  0.00    -0.507 OA
ATOM     25  H   UNL     1       7.334 -10.623 -10.641  1.00  0.00     0.293 HD
ENDBRANCH   6  24
BRANCH   8  26
ATOM     26  O   UNL     1       5.862  -6.080  -8.992  1.00  0.00    -0.508 OA
ATOM     27  H   UNL     1       5.000  -6.586  -8.825  1.00  0.00     0.293 HD
ENDBRANCH   8  26
TORSDOF 6
ENDMDL
MODEL 3
REMARK VINA RESULT:    -7.460      4.825     10.651
REMARK INTER + INTRA:          -9.217
REMARK INTER:                  -8.873
REMARK INTRA:                  -0.344
REMARK UNBOUND:                -0.012
REMARK SMILES COc1cc(-c2oc3cc(O)cc(O)c3c(=O)c2O)ccc1O
REMARK SMILES IDX 6 1 18 2 16 3 17 4 15 5 13 6 12 7 10 8 9 9 8 10 7 11 5 12
REMARK SMILES IDX 3 13 22 14 4 15 21 16 20 17 2 18 1 19 23 20 19 22 14 24
REMARK SMILES IDX 11 26
REMARK H PARENT 23 21 19 23 14 25 11 27
REMARK Flexibility Score: inf
ROOT
ATOM      1  C   UNL     1       0.909  -7.026  -7.746  1.00  0.00     0.180 A 
ATOM      2  C   UNL     1      -0.195  -6.167  -7.909  1.00  0.00     0.208 A 
ATOM      3  C   UNL     1      -1.390  -6.462  -7.236  1.00  0.00     0.238 A 
ATOM      4  O   UNL     1      -2.382  -5.693  -7.366  1.00  0.00    -0.285 OA
ATOM      5  C   UNL     1      -1.469  -7.616  -6.430  1.00  0.00     0.111 A 
ATOM      6  C   UNL     1      -2.638  -7.987  -5.722  1.00  0.00     0.134 A 
ATOM      7  C   UNL     1      -2.639  -9.158  -4.948  1.00  0.00     0.093 A 
ATOM      8  C   UNL     1      -1.497  -9.962  -4.870  1.00  0.00     0.123 A 
ATOM      9  C   UNL     1      -0.343  -9.600  -5.567  1.00  0.00     0.094 A 
ATOM     10  C   UNL     1      -0.321  -8.437  -6.342  1.00  0.00     0.146 A 
ATOM     11  O   UNL     1       0.793  -8.114  -6.990  1.00  0.00    -0.452 OA
ENDROOT
BRANCH   1  12
ATOM     12  C   UNL     1       2.208  -6.773  -8.409  1.00  0.00     0.025 A 
ATOM     13  C   UNL     1       4.301  -5.513  -8.516  1.00  0.00     0.161 A 
ATOM     14  C   UNL     1       4.658  -6.217  -9.675  1.00  0.00     0.157 A 
ATOM     15  C   UNL     1       3.069  -5.792  -7.892  1.00  0.00     0.062 A 
ATOM     16  C   UNL     1       3.793  -7.181 -10.205  1.00  0.00     0.051 A 
ATOM     17  C   UNL     1       2.574  -7.454  -9.583  1.00  0.00     0.016 A 
BRANCH  13  18
ATOM     18  O   UNL     1       5.191  -4.548  -8.018  1.00  0.00    -0.493 OA
ATOM     19  C   UNL     1       4.841  -3.538  -7.076  1.00  0.00     0.278 C 
ENDBRANCH  13  18
BRANCH  14  20
ATOM     20  O   UNL     1       5.876  -5.947 -10.296  1.00  0.00    -0.504 OA
ATOM     21  H   UNL     1       6.753  -5.996  -9.789  1.00  0.00     0.293 HD
ENDBRANCH  14  20
ENDBRANCH   1  12
BRANCH   2  22
ATOM     22  O   UNL     1      -0.106  -5.056  -8.753  1.00  0.00    -0.502 OA
ATOM     23  H   UNL     1       0.591  -4.332  -8.626  1.00  0.00     0.293 HD
ENDBRANCH   2  22
BRANCH   6  24
ATOM     24  O   UNL     1      -3.793  -7.206  -5.780  1.00  0.00    -0.507 OA
ATOM     25  H   UNL     1      -4.694  -7.603  -6.018  1.00  0.00     0.293 HD
ENDBRANCH   6  24
BRANCH   8  26
ATOM     26  O   UNL     1      -1.499 -11.125  -4.103  1.00  0.00    -0.508 OA
ATOM     27  H   UNL     1      -1.284 -12.028  -4.509  1.00  0.00     0.293 HD
ENDBRANCH   8  26
TORSDOF 6
ENDMDL
MODEL 4
REMARK VINA RESULT:    -7.264      2.366      5.028
REMARK INTER + INTRA:          -8.974
REMARK INTER:                  -9.241
REMARK INTRA:                   0.267
REMARK UNBOUND:                -0.012
REMARK SMILES COc1cc(-c2oc3cc(O)cc(O)c3c(=O)c2O)ccc1O
REMARK SMILES IDX 6 1 18 2 16 3 17 4 15 5 13 6 12 7 10 8 9 9 8 10 7 11 5 12
REMARK SMILES IDX 3 13 22 14 4 15 21 16 20 17 2 18 1 19 23 20 19 22 14 24
REMARK SMILES IDX 11 26
REMARK H PARENT 23 21 19 23 14 25 11 27
REMARK Flexibility Score: inf
ROOT
ATOM      1  C   UNL     1      11.391  -6.746 -12.147  1.00  0.00     0.180 A 
ATOM      2  C   UNL     1      11.531  -5.519 -11.470  1.00  0.00     0.208 A 
ATOM      3  C   UNL     1      12.417  -4.558 -11.982  1.00  0.00     0.238 A 
ATOM      4  O   UNL     1      12.543  -3.451 -11.390  1.00  0.00    -0.285 OA
ATOM      5  C   UNL     1      13.159  -4.845 -13.146  1.00  0.00     0.111 A 
ATOM      6  C   UNL     1      14.075  -3.934 -13.724  1.00  0.00     0.134 A 
ATOM      7  C   UNL     1      14.784  -4.298 -14.880  1.00  0.00     0.093 A 
ATOM      8  C   UNL     1      14.593  -5.555 -15.465  1.00  0.00     0.123 A 
ATOM      9  C   UNL     1      13.691  -6.456 -14.899  1.00  0.00     0.094 A 
ATOM     10  C   UNL     1      12.974  -6.111 -13.748  1.00  0.00     0.146 A 
ATOM     11  O   UNL     1      12.118  -6.987 -13.235  1.00  0.00    -0.452 OA
ENDROOT
BRANCH   1  12
ATOM     12  C   UNL     1      10.464  -7.801 -11.679  1.00  0.00     0.025 A 
ATOM     13  C   UNL     1       8.430  -8.428 -10.476  1.00  0.00     0.161 A 
ATOM     14  C   UNL     1       8.711  -9.780 -10.718  1.00  0.00     0.157 A 
ATOM     15  C   UNL     1       9.317  -7.443 -10.954  1.00  0.00     0.062 A 
ATOM     16  C   UNL     1       9.865 -10.142 -11.423  1.00  0.00     0.051 A 
ATOM     17  C   UNL     1      10.740  -9.162 -11.895  1.00  0.00     0.016 A 
BRANCH  13  18
ATOM     18  O   UNL     1       7.267  -8.104  -9.759  1.00  0.00    -0.493 OA
ATOM     19  C   UNL     1       6.870  -6.778  -9.423  1.00  0.00     0.278 C 
ENDBRANCH  13  18
BRANCH  14  20
ATOM     20  O   UNL     1       7.837 -10.759 -10.249  1.00  0.00    -0.504 OA
ATOM     21  H   UNL     1       7.008 -11.023 -10.769  1.00  0.00     0.293 HD
ENDBRANCH  14  20
ENDBRANCH   1  12
BRANCH   2  22
ATOM     22  O   UNL     1      10.821  -5.278 -10.290  1.00  0.00    -0.502 OA
ATOM     23  H   UNL     1      10.823  -4.376  -9.830  1.00  0.00     0.293 HD
ENDBRANCH   2  22
BRANCH   6  24
ATOM     24  O   UNL     1      14.287  -2.674 -13.163  1.00  0.00    -0.507 OA
ATOM     25  H   UNL     1      14.658  -2.561 -12.226  1.00  0.00     0.293 HD
ENDBRANCH   6  24
BRANCH   8  26
ATOM     26  O   UNL     1      15.297  -5.917 -16.611  1.00  0.00    -0.508 OA
ATOM     27  H   UNL     1      16.305  -5.827 -16.665  1.00  0.00     0.293 HD
ENDBRANCH   8  26
TORSDOF 6
ENDMDL
MODEL 5
REMARK VINA RESULT:    -7.125      2.278      4.692
REMARK INTER + INTRA:          -8.803
REMARK INTER:                  -8.697
REMARK INTRA:                  -0.106
REMARK UNBOUND:                -0.012
REMARK SMILES COc1cc(-c2oc3cc(O)cc(O)c3c(=O)c2O)ccc1O
REMARK SMILES IDX 6 1 18 2 16 3 17 4 15 5 13 6 12 7 10 8 9 9 8 10 7 11 5 12
REMARK SMILES IDX 3 13 22 14 4 15 21 16 20 17 2 18 1 19 23 20 19 22 14 24
REMARK SMILES IDX 11 26
REMARK H PARENT 23 21 19 23 14 25 11 27
REMARK Flexibility Score: inf
ROOT
ATOM      1  C   UNL     1      10.565  -5.527 -11.642  1.00  0.00     0.180 A 
ATOM      2  C   UNL     1      11.205  -4.416 -11.060  1.00  0.00     0.208 A 
ATOM      3  C   UNL     1      12.373  -3.916 -11.656  1.00  0.00     0.238 A 
ATOM      4  O   UNL     1      12.948  -2.914 -11.148  1.00  0.00    -0.285 OA
ATOM      5  C   UNL     1      12.891  -4.543 -12.807  1.00  0.00     0.111 A 
ATOM      6  C   UNL     1      14.065  -4.104 -13.465  1.00  0.00     0.134 A 
ATOM      7  C   UNL     1      14.523  -4.789 -14.602  1.00  0.00     0.093 A 
ATOM      8  C   UNL     1      13.829  -5.901 -15.090  1.00  0.00     0.123 A 
ATOM      9  C   UNL     1      12.671  -6.338 -14.444  1.00  0.00     0.094 A 
ATOM     10  C   UNL     1      12.199  -5.668 -13.311  1.00  0.00     0.146 A 
ATOM     11  O   UNL     1      11.091  -6.102 -12.720  1.00  0.00    -0.452 OA
ENDROOT
BRANCH   1  12
ATOM     12  C   UNL     1       9.320  -6.101 -11.083  1.00  0.00     0.025 A 
ATOM     13  C   UNL     1       8.048  -8.063 -10.370  1.00  0.00     0.161 A 
ATOM     14  C   UNL     1       6.951  -7.239 -10.081  1.00  0.00     0.157 A 
ATOM     15  C   UNL     1       9.228  -7.487 -10.879  1.00  0.00     0.062 A 
ATOM     16  C   UNL     1       7.032  -5.859 -10.302  1.00  0.00     0.051 A 
ATOM     17  C   UNL     1       8.204  -5.294 -10.806  1.00  0.00     0.016 A 
BRANCH  13  18
ATOM     18  O   UNL     1       7.926  -9.443 -10.142  1.00  0.00    -0.493 OA
ATOM     19  C   UNL     1       8.586 -10.448 -10.906  1.00  0.00     0.278 C 
ENDBRANCH  13  18
BRANCH  14  20
ATOM     20  O   UNL     1       5.781  -7.803  -9.576  1.00  0.00    -0.504 OA
ATOM     21  H   UNL     1       5.392  -7.511  -8.686  1.00  0.00     0.293 HD
ENDBRANCH  14  20
ENDBRANCH   1  12
BRANCH   2  22
ATOM     22  O   UNL     1      10.698  -3.843  -9.890  1.00  0.00    -0.502 OA
ATOM     23  H   UNL     1      10.691  -4.334  -9.004  1.00  0.00     0.293 HD
ENDBRANCH   2  22
BRANCH   6  24
ATOM     24  O   UNL     1      14.779  -2.998 -13.002  1.00  0.00    -0.507 OA
ATOM     25  H   UNL     1      14.314  -2.198 -12.588  1.00  0.00     0.293 HD
ENDBRANCH   6  24
BRANCH   8  26
ATOM     26  O   UNL     1      14.284  -6.582 -16.217  1.00  0.00    -0.508 OA
ATOM     27  H   UNL     1      13.712  -6.670 -17.050  1.00  0.00     0.293 HD
ENDBRANCH   8  26
TORSDOF 6
ENDMDL
MODEL 6
REMARK VINA RESULT:    -6.921      4.180      9.872
REMARK INTER + INTRA:          -8.551
REMARK INTER:                  -9.014
REMARK INTRA:                   0.463
REMARK UNBOUND:                -0.012
REMARK SMILES COc1cc(-c2oc3cc(O)cc(O)c3c(=O)c2O)ccc1O
REMARK SMILES IDX 6 1 18 2 16 3 17 4 15 5 13 6 12 7 10 8 9 9 8 10 7 11 5 12
REMARK SMILES IDX 3 13 22 14 4 15 21 16 20 17 2 18 1 19 23 20 19 22 14 24
REMARK SMILES IDX 11 26
REMARK H PARENT 23 21 19 23 14 25 11 27
REMARK Flexibility Score: inf
ROOT
ATOM      1  C   UNL     1       1.404  -6.380  -8.242  1.00  0.00     0.180 A 
ATOM      2  C   UNL     1       0.635  -7.442  -7.726  1.00  0.00     0.208 A 
ATOM      3  C   UNL     1      -0.584  -7.153  -7.093  1.00  0.00     0.238 A 
ATOM      4  O   UNL     1      -1.285  -8.097  -6.636  1.00  0.00    -0.285 OA
ATOM      5  C   UNL     1      -1.004  -5.813  -6.970  1.00  0.00     0.111 A 
ATOM      6  C   UNL     1      -2.216  -5.436  -6.344  1.00  0.00     0.134 A 
ATOM      7  C   UNL     1      -2.560  -4.079  -6.253  1.00  0.00     0.093 A 
ATOM      8  C   UNL     1      -1.716  -3.094  -6.776  1.00  0.00     0.123 A 
ATOM      9  C   UNL     1      -0.519  -3.460  -7.395  1.00  0.00     0.094 A 
ATOM     10  C   UNL     1      -0.160  -4.808  -7.496  1.00  0.00     0.146 A 
ATOM     11  O   UNL     1       0.981  -5.127  -8.095  1.00  0.00    -0.452 OA
ENDROOT
BRANCH   1  12
ATOM     12  C   UNL     1       2.691  -6.606  -8.937  1.00  0.00     0.025 A 
ATOM     13  C   UNL     1       5.131  -6.728  -8.851  1.00  0.00     0.161 A 
ATOM     14  C   UNL     1       5.162  -6.967 -10.232  1.00  0.00     0.157 A 
ATOM     15  C   UNL     1       3.890  -6.541  -8.210  1.00  0.00     0.062 A 
ATOM     16  C   UNL     1       3.970  -7.013 -10.964  1.00  0.00     0.051 A 
ATOM     17  C   UNL     1       2.743  -6.827 -10.324  1.00  0.00     0.016 A 
BRANCH  13  18
ATOM     18  O   UNL     1       6.348  -6.682  -8.152  1.00  0.00    -0.493 OA
ATOM     19  C   UNL     1       7.595  -6.306  -8.728  1.00  0.00     0.278 C 
ENDBRANCH  13  18
BRANCH  14  20
ATOM     20  O   UNL     1       6.386  -7.155 -10.871  1.00  0.00    -0.504 OA
ATOM     21  H   UNL     1       6.813  -8.071 -10.941  1.00  0.00     0.293 HD
ENDBRANCH  14  20
ENDBRANCH   1  12
BRANCH   2  22
ATOM     22  O   UNL     1       1.099  -8.758  -7.816  1.00  0.00    -0.502 OA
ATOM     23  H   UNL     1       1.934  -9.073  -7.338  1.00  0.00     0.293 HD
ENDBRANCH   2  22
BRANCH   6  24
ATOM     24  O   UNL     1      -3.080  -6.396  -5.813  1.00  0.00    -0.507 OA
ATOM     25  H   UNL     1      -3.677  -6.195  -5.019  1.00  0.00     0.293 HD
ENDBRANCH   6  24
BRANCH   8  26
ATOM     26  O   UNL     1      -2.056  -1.746  -6.685  1.00  0.00    -0.508 OA
ATOM     27  H   UNL     1      -1.670  -1.149  -5.962  1.00  0.00     0.293 HD
ENDBRANCH   8  26
TORSDOF 6
ENDMDL
MODEL 7
REMARK VINA RESULT:    -6.899      4.303     10.346
REMARK INTER + INTRA:          -8.525
REMARK INTER:                  -8.979
REMARK INTRA:                   0.454
REMARK UNBOUND:                -0.012
REMARK SMILES COc1cc(-c2oc3cc(O)cc(O)c3c(=O)c2O)ccc1O
REMARK SMILES IDX 6 1 18 2 16 3 17 4 15 5 13 6 12 7 10 8 9 9 8 10 7 11 5 12
REMARK SMILES IDX 3 13 22 14 4 15 21 16 20 17 2 18 1 19 23 20 19 22 14 24
REMARK SMILES IDX 11 26
REMARK H PARENT 23 21 19 23 14 25 11 27
REMARK Flexibility Score: inf
ROOT
ATOM      1  C   UNL     1       1.376  -6.330  -8.294  1.00  0.00     0.180 A 
ATOM      2  C   UNL     1       0.813  -5.041  -8.218  1.00  0.00     0.208 A 
ATOM      3  C   UNL     1      -0.414  -4.873  -7.558  1.00  0.00     0.238 A 
ATOM      4  O   UNL     1      -0.922  -3.722  -7.475  1.00  0.00    -0.285 OA
ATOM      5  C   UNL     1      -1.065  -5.994  -7.003  1.00  0.00     0.111 A 
ATOM      6  C   UNL     1      -2.305  -5.912  -6.325  1.00  0.00     0.134 A 
ATOM      7  C   UNL     1      -2.894  -7.076  -5.808  1.00  0.00     0.093 A 
ATOM      8  C   UNL     1      -2.267  -8.318  -5.957  1.00  0.00     0.123 A 
ATOM      9  C   UNL     1      -1.044  -8.404  -6.625  1.00  0.00     0.094 A 
ATOM     10  C   UNL     1      -0.440  -7.255  -7.146  1.00  0.00     0.146 A 
ATOM     11  O   UNL     1       0.726  -7.366  -7.771  1.00  0.00    -0.452 OA
ENDROOT
BRANCH   1  12
ATOM     12  C   UNL     1       2.674  -6.583  -8.958  1.00  0.00     0.025 A 
ATOM     13  C   UNL     1       5.112  -6.708  -8.825  1.00  0.00     0.161 A 
ATOM     14  C   UNL     1       5.166  -6.998 -10.196  1.00  0.00     0.157 A 
ATOM     15  C   UNL     1       3.861  -6.495  -8.213  1.00  0.00     0.062 A 
ATOM     16  C   UNL     1       3.986  -7.067 -10.946  1.00  0.00     0.051 A 
ATOM     17  C   UNL     1       2.749  -6.855 -10.335  1.00  0.00     0.016 A 
BRANCH  13  18
ATOM     18  O   UNL     1       6.317  -6.640  -8.108  1.00  0.00    -0.493 OA
ATOM     19  C   UNL     1       7.570  -6.262  -8.670  1.00  0.00     0.278 C 
ENDBRANCH  13  18
BRANCH  14  20
ATOM     20  O   UNL     1       6.401  -7.211 -10.806  1.00  0.00    -0.504 OA
ATOM     21  H   UNL     1       6.699  -8.137 -11.091  1.00  0.00     0.293 HD
ENDBRANCH  14  20
ENDBRANCH   1  12
BRANCH   2  22
ATOM     22  O   UNL     1       1.455  -3.954  -8.820  1.00  0.00    -0.502 OA
ATOM     23  H   UNL     1       1.893  -4.019  -9.730  1.00  0.00     0.293 HD
ENDBRANCH   2  22
BRANCH   6  24
ATOM     24  O   UNL     1      -2.955  -4.688  -6.161  1.00  0.00    -0.507 OA
ATOM     25  H   UNL     1      -3.788  -4.451  -6.686  1.00  0.00     0.293 HD
ENDBRANCH   6  24
BRANCH   8  26
ATOM     26  O   UNL     1      -2.852  -9.474  -5.446  1.00  0.00    -0.508 OA
ATOM     27  H   UNL     1      -2.293 -10.214  -5.036  1.00  0.00     0.293 HD
ENDBRANCH   8  26
TORSDOF 6
ENDMDL
MODEL 8
REMARK VINA RESULT:    -6.684      5.008     10.762
REMARK INTER + INTRA:          -8.259
REMARK INTER:                  -8.313
REMARK INTRA:                   0.054
REMARK UNBOUND:                -0.012
REMARK SMILES COc1cc(-c2oc3cc(O)cc(O)c3c(=O)c2O)ccc1O
REMARK SMILES IDX 6 1 18 2 16 3 17 4 15 5 13 6 12 7 10 8 9 9 8 10 7 11 5 12
REMARK SMILES IDX 3 13 22 14 4 15 21 16 20 17 2 18 1 19 23 20 19 22 14 24
REMARK SMILES IDX 11 26
REMARK H PARENT 23 21 19 23 14 25 11 27
REMARK Flexibility Score: inf
ROOT
ATOM      1  C   UNL     1       0.867  -4.386  -8.194  1.00  0.00     0.180 A 
ATOM      2  C   UNL     1       0.139  -4.430  -9.399  1.00  0.00     0.208 A 
ATOM      3  C   UNL     1      -1.217  -4.068  -9.386  1.00  0.00     0.238 A 
ATOM      4  O   UNL     1      -1.876  -4.093 -10.461  1.00  0.00    -0.285 OA
ATOM      5  C   UNL     1      -1.826  -3.689  -8.172  1.00  0.00     0.111 A 
ATOM      6  C   UNL     1      -3.187  -3.315  -8.072  1.00  0.00     0.134 A 
ATOM      7  C   UNL     1      -3.721  -2.959  -6.824  1.00  0.00     0.093 A 
ATOM      8  C   UNL     1      -2.920  -2.972  -5.677  1.00  0.00     0.123 A 
ATOM      9  C   UNL     1      -1.577  -3.341  -5.770  1.00  0.00     0.094 A 
ATOM     10  C   UNL     1      -1.026  -3.697  -7.005  1.00  0.00     0.146 A 
ATOM     11  O   UNL     1       0.256  -4.038  -7.065  1.00  0.00    -0.452 OA
ENDROOT
BRANCH   1  12
ATOM     12  C   UNL     1       2.304  -4.736  -8.130  1.00  0.00     0.025 A 
ATOM     13  C   UNL     1       4.118  -6.275  -8.694  1.00  0.00     0.161 A 
ATOM     14  C   UNL     1       5.015  -5.470  -7.980  1.00  0.00     0.157 A 
ATOM     15  C   UNL     1       2.760  -5.906  -8.759  1.00  0.00     0.062 A 
ATOM     16  C   UNL     1       4.561  -4.314  -7.334  1.00  0.00     0.051 A 
ATOM     17  C   UNL     1       3.215  -3.952  -7.402  1.00  0.00     0.016 A 
BRANCH  13  18
ATOM     18  O   UNL     1       4.609  -7.431  -9.322  1.00  0.00    -0.493 OA
ATOM     19  C   UNL     1       5.123  -7.471 -10.650  1.00  0.00     0.278 C 
ENDBRANCH  13  18
BRANCH  14  20
ATOM     20  O   UNL     1       6.360  -5.830  -7.913  1.00  0.00    -0.504 OA
ATOM     21  H   UNL     1       6.706  -6.675  -8.354  1.00  0.00     0.293 HD
ENDBRANCH  14  20
ENDBRANCH   1  12
BRANCH   2  22
ATOM     22  O   UNL     1       0.753  -4.857 -10.580  1.00  0.00    -0.502 OA
ATOM     23  H   UNL     1       1.660  -5.308 -10.587  1.00  0.00     0.293 HD
ENDBRANCH   2  22
BRANCH   6  24
ATOM     24  O   UNL     1      -4.011  -3.292  -9.198  1.00  0.00    -0.507 OA
ATOM     25  H   UNL     1      -3.635  -3.358 -10.137  1.00  0.00     0.293 HD
ENDBRANCH   6  24
BRANCH   8  26
ATOM     26  O   UNL     1      -3.451  -2.620  -4.437  1.00  0.00    -0.508 OA
ATOM     27  H   UNL     1      -2.866  -2.546  -3.612  1.00  0.00     0.293 HD
ENDBRANCH   8  26
TORSDOF 6
ENDMDL
MODEL 9
REMARK VINA RESULT:    -6.506      3.673      9.724
REMARK INTER + INTRA:          -8.040
REMARK INTER:                  -7.953
REMARK INTRA:                  -0.087
REMARK UNBOUND:                -0.012
REMARK SMILES COc1cc(-c2oc3cc(O)cc(O)c3c(=O)c2O)ccc1O
REMARK SMILES IDX 6 1 18 2 16 3 17 4 15 5 13 6 12 7 10 8 9 9 8 10 7 11 5 12
REMARK SMILES IDX 3 13 22 14 4 15 21 16 20 17 2 18 1 19 23 20 19 22 14 24
REMARK SMILES IDX 11 26
REMARK H PARENT 23 21 19 23 14 25 11 27
REMARK Flexibility Score: inf
ROOT
ATOM      1  C   UNL     1       2.483  -6.364  -8.191  1.00  0.00     0.180 A 
ATOM      2  C   UNL     1       1.675  -5.210  -8.230  1.00  0.00     0.208 A 
ATOM      3  C   UNL     1       0.337  -5.305  -7.818  1.00  0.00     0.238 A 
ATOM      4  O   UNL     1      -0.393  -4.275  -7.840  1.00  0.00    -0.285 OA
ATOM      5  C   UNL     1      -0.176  -6.548  -7.395  1.00  0.00     0.111 A 
ATOM      6  C   UNL     1      -1.514  -6.728  -6.969  1.00  0.00     0.134 A 
ATOM      7  C   UNL     1      -1.951  -8.001  -6.570  1.00  0.00     0.093 A 
ATOM      8  C   UNL     1      -1.077  -9.093  -6.591  1.00  0.00     0.123 A 
ATOM      9  C   UNL     1       0.243  -8.920  -7.011  1.00  0.00     0.094 A 
ATOM     10  C   UNL     1       0.698  -7.659  -7.410  1.00  0.00     0.146 A 
ATOM     11  O   UNL     1       1.960  -7.522  -7.799  1.00  0.00    -0.452 OA
ENDROOT
BRANCH   1  12
ATOM     12  C   UNL     1       3.907  -6.341  -8.593  1.00  0.00     0.025 A 
ATOM     13  C   UNL     1       5.594  -6.009 -10.331  1.00  0.00     0.161 A 
ATOM     14  C   UNL     1       6.598  -6.346  -9.412  1.00  0.00     0.157 A 
ATOM     15  C   UNL     1       4.248  -6.016  -9.915  1.00  0.00     0.062 A 
ATOM     16  C   UNL     1       6.261  -6.690  -8.098  1.00  0.00     0.051 A 
ATOM     17  C   UNL     1       4.925  -6.694  -7.691  1.00  0.00     0.016 A 
BRANCH  13  18
ATOM     18  O   UNL     1       5.971  -5.677 -11.642  1.00  0.00    -0.493 OA
ATOM     19  C   UNL     1       6.489  -4.410 -12.037  1.00  0.00     0.278 C 
ENDBRANCH  13  18
BRANCH  14  20
ATOM     20  O   UNL     1       7.932  -6.340  -9.817  1.00  0.00    -0.504 OA
ATOM     21  H   UNL     1       8.290  -5.638 -10.455  1.00  0.00     0.293 HD
ENDBRANCH  14  20
ENDBRANCH   1  12
BRANCH   2  22
ATOM     22  O   UNL     1       2.194  -4.001  -8.702  1.00  0.00    -0.502 OA
ATOM     23  H   UNL     1       3.189  -3.813  -8.732  1.00  0.00     0.293 HD
ENDBRANCH   2  22
BRANCH   6  24
ATOM     24  O   UNL     1      -2.409  -5.658  -6.937  1.00  0.00    -0.507 OA
ATOM     25  H   UNL     1      -3.063  -5.532  -6.173  1.00  0.00     0.293 HD
ENDBRANCH   6  24
BRANCH   8  26
ATOM     26  O   UNL     1      -1.511 -10.357  -6.197  1.00  0.00    -0.508 OA
ATOM     27  H   UNL     1      -2.138 -10.906  -6.775  1.00  0.00     0.293 HD
ENDBRANCH   8  26
TORSDOF 6
ENDMDL
