MODEL 1
REMARK VINA RESULT:    -4.314      0.000      0.000
REMARK INTER + INTRA:          -7.599
REMARK INTER:                  -6.583
REMARK INTRA:                  -1.016
REMARK UNBOUND:                -1.016
REMARK SMILES CCCCCCCCCCC(=O)[O-]
REMARK SMILES IDX 7 1 8 2 9 3 10 4 11 5 12 6 13 7 6 8 5 9 4 10 3 11 2 12 1 13
REMARK H PARENT
REMARK Flexibility Score: inf
ROOT
ATOM      1  C   UNL     1      -1.679   8.557  24.304  1.00  0.00     0.000 C 
ENDROOT
BRANCH   1   2
ATOM      2  C   UNL     1      -2.626   9.595  24.932  1.00  0.00     0.000 C 
BRANCH   2   3
ATOM      3  C   UNL     1      -2.042  11.018  24.909  1.00  0.00     0.006 C 
BRANCH   3   4
ATOM      4  C   UNL     1      -1.506  11.444  26.284  1.00  0.00     0.053 C 
BRANCH   4   5
ATOM      5  C   UNL     1      -0.035  11.728  26.245  1.00  0.00     0.041 C 
ATOM      6  O   UNL     1       0.763  10.875  25.773  1.00  0.00    -0.550 OA
ATOM      7  O   UNL     1       0.457  12.921  26.757  1.00  0.00    -0.550 OA
ENDBRANCH   4   5
ENDBRANCH   3   4
ENDBRANCH   2   3
ENDBRANCH   1   2
BRANCH   1   8
ATOM      8  C   UNL     1      -1.212   8.961  22.895  1.00  0.00     0.000 C 
BRANCH   8   9
ATOM      9  C   UNL     1      -1.976   8.222  21.785  1.00  0.00    -0.000 C 
BRANCH   9  10
ATOM     10  C   UNL     1      -2.611   9.178  20.762  1.00  0.00    -0.000 C 
BRANCH  10  11
ATOM     11  C   UNL     1      -3.717  10.020  21.411  1.00  0.00    -0.000 C 
BRANCH  11  12
ATOM     12  C   UNL     1      -3.327  11.501  21.452  1.00  0.00    -0.003 C 
ATOM     13  C   UNL     1      -4.366  12.325  22.207  1.00  0.00     0.004 C 
ENDBRANCH  11  12
ENDBRANCH  10  11
ENDBRANCH   9  10
ENDBRANCH   8   9
ENDBRANCH   1   8
TORSDOF 9
ENDMDL
MODEL 2
REMARK VINA RESULT:    -4.313      1.686      1.957
REMARK INTER + INTRA:          -7.598
REMARK INTER:                  -6.856
REMARK INTRA:                  -0.742
REMARK UNBOUND:                -1.016
REMARK SMILES CCCCCCCCCCC(=O)[O-]
REMARK SMILES IDX 7 1 8 2 9 3 10 4 11 5 12 6 13 7 6 8 5 9 4 10 3 11 2 12 1 13
REMARK H PARENT
REMARK Flexibility Score: inf
ROOT
ATOM      1  C   UNL     1      -3.152   9.038  24.535  1.00  0.00     0.000 C 
ENDROOT
BRANCH   1   2
ATOM      2  C   UNL     1      -2.436   9.290  25.873  1.00  0.00     0.000 C 
BRANCH   2   3
ATOM      3  C   UNL     1      -0.954   8.877  25.838  1.00  0.00     0.006 C 
BRANCH   3   4
ATOM      4  C   UNL     1      -0.031  10.066  25.535  1.00  0.00     0.053 C 
BRANCH   4   5
ATOM      5  C   UNL     1       1.280   9.623  24.962  1.00  0.00     0.041 C 
ATOM      6  O   UNL     1       1.370   9.325  23.742  1.00  0.00    -0.550 OA
ATOM      7  O   UNL     1       2.396   9.511  25.782  1.00  0.00    -0.550 OA
ENDBRANCH   4   5
ENDBRANCH   3   4
ENDBRANCH   2   3
ENDBRANCH   1   2
BRANCH   1   8
ATOM      8  C   UNL     1      -2.324   8.164  23.576  1.00  0.00     0.000 C 
BRANCH   8   9
ATOM      9  C   UNL     1      -1.774   8.958  22.381  1.00  0.00    -0.000 C 
BRANCH   9  10
ATOM     10  C   UNL     1      -2.620   8.781  21.110  1.00  0.00    -0.000 C 
BRANCH  10  11
ATOM     11  C   UNL     1      -3.748   9.818  21.052  1.00  0.00    -0.000 C 
BRANCH  11  12
ATOM     12  C   UNL     1      -3.236  11.210  21.437  1.00  0.00    -0.003 C 
ATOM     13  C   UNL     1      -4.223  11.928  22.353  1.00  0.00     0.004 C 
ENDBRANCH  11  12
ENDBRANCH  10  11
ENDBRANCH   9  10
ENDBRANCH   8   9
ENDBRANCH   1   8
TORSDOF 9
ENDMDL
MODEL 3
REMARK VINA RESULT:    -4.299      1.246      1.693
REMARK INTER + INTRA:          -7.576
REMARK INTER:                  -6.512
REMARK INTRA:                  -1.064
REMARK UNBOUND:                -1.016
REMARK SMILES CCCCCCCCCCC(=O)[O-]
REMARK SMILES IDX 7 1 8 2 9 3 10 4 11 5 12 6 13 7 6 8 5 9 4 10 3 11 2 12 1 13
REMARK H PARENT
REMARK Flexibility Score: inf
ROOT
ATOM      1  C   UNL     1      -2.429   7.788  22.959  1.00  0.00     0.000 C 
ENDROOT
BRANCH   1   2
ATOM      2  C   UNL     1      -1.931   8.486  24.236  1.00  0.00     0.000 C 
BRANCH   2   3
ATOM      3  C   UNL     1      -0.621   9.262  24.014  1.00  0.00     0.006 C 
BRANCH   3   4
ATOM      4  C   UNL     1       0.137   9.503  25.327  1.00  0.00     0.053 C 
BRANCH   4   5
ATOM      5  C   UNL     1      -0.115  10.875  25.873  1.00  0.00     0.041 C 
ATOM      6  O   UNL     1      -1.281  11.225  26.196  1.00  0.00    -0.550 OA
ATOM      7  O   UNL     1       0.934  11.778  25.998  1.00  0.00    -0.550 OA
ENDBRANCH   4   5
ENDBRANCH   3   4
ENDBRANCH   2   3
ENDBRANCH   1   2
BRANCH   1   8
ATOM      8  C   UNL     1      -1.764   8.340  21.686  1.00  0.00     0.000 C 
BRANCH   8   9
ATOM      9  C   UNL     1      -2.750   9.104  20.789  1.00  0.00    -0.000 C 
BRANCH   9  10
ATOM     10  C   UNL     1      -4.179   9.122  21.356  1.00  0.00    -0.000 C 
BRANCH  10  11
ATOM     11  C   UNL     1      -4.628  10.554  21.669  1.00  0.00    -0.000 C 
BRANCH  11  12
ATOM     12  C   UNL     1      -3.424  11.493  21.797  1.00  0.00    -0.003 C 
ATOM     13  C   UNL     1      -3.173  11.873  23.253  1.00  0.00     0.004 C 
ENDBRANCH  11  12
ENDBRANCH  10  11
ENDBRANCH   9  10
ENDBRANCH   8   9
ENDBRANCH   1   8
TORSDOF 9
ENDMDL
MODEL 4
REMARK VINA RESULT:    -4.177      1.951      3.144
REMARK INTER + INTRA:          -7.390
REMARK INTER:                  -6.508
REMARK INTRA:                  -0.882
REMARK UNBOUND:                -1.016
REMARK SMILES CCCCCCCCCCC(=O)[O-]
REMARK SMILES IDX 7 1 8 2 9 3 10 4 11 5 12 6 13 7 6 8 5 9 4 10 3 11 2 12 1 13
REMARK H PARENT
REMARK Flexibility Score: inf
ROOT
ATOM      1  C   UNL     1      -2.670   9.363  26.823  1.00  0.00     0.000 C 
ENDROOT
BRANCH   1   2
ATOM      2  C   UNL     1      -1.333   8.914  26.207  1.00  0.00     0.000 C 
BRANCH   2   3
ATOM      3  C   UNL     1      -0.664  10.021  25.374  1.00  0.00     0.006 C 
BRANCH   3   4
ATOM      4  C   UNL     1       0.612   9.527  24.678  1.00  0.00     0.053 C 
BRANCH   4   5
ATOM      5  C   UNL     1       1.845   9.891  25.448  1.00  0.00     0.041 C 
ATOM      6  O   UNL     1       2.101  11.098  25.700  1.00  0.00    -0.550 OA
ATOM      7  O   UNL     1       2.725   8.899  25.862  1.00  0.00    -0.550 OA
ENDBRANCH   4   5
ENDBRANCH   3   4
ENDBRANCH   2   3
ENDBRANCH   1   2
BRANCH   1   8
ATOM      8  C   UNL     1      -3.679   9.836  25.762  1.00  0.00     0.000 C 
BRANCH   8   9
ATOM      9  C   UNL     1      -4.081   8.716  24.790  1.00  0.00    -0.000 C 
BRANCH   9  10
ATOM     10  C   UNL     1      -3.630   8.991  23.346  1.00  0.00    -0.000 C 
BRANCH  10  11
ATOM     11  C   UNL     1      -2.604   7.949  22.884  1.00  0.00    -0.000 C 
BRANCH  11  12
ATOM     12  C   UNL     1      -1.864   8.425  21.629  1.00  0.00    -0.003 C 
ATOM     13  C   UNL     1      -2.825   9.058  20.627  1.00  0.00     0.004 C 
ENDBRANCH  11  12
ENDBRANCH  10  11
ENDBRANCH   9  10
ENDBRANCH   8   9
ENDBRANCH   1   8
TORSDOF 9
ENDMDL
MODEL 5
REMARK VINA RESULT:    -4.166      7.538      9.326
REMARK INTER + INTRA:          -7.374
REMARK INTER:                  -6.277
REMARK INTRA:                  -1.097
REMARK UNBOUND:                -1.016
REMARK SMILES CCCCCCCCCCC(=O)[O-]
REMARK SMILES IDX 7 1 8 2 9 3 10 4 11 5 12 6 13 7 6 8 5 9 4 10 3 11 2 12 1 13
REMARK H PARENT
REMARK Flexibility Score: inf
ROOT
ATOM      1  C   UNL     1       4.226  18.765  23.526  1.00  0.00     0.000 C 
ENDROOT
BRANCH   1   2
ATOM      2  C   UNL     1       3.678  17.328  23.475  1.00  0.00     0.000 C 
BRANCH   2   3
ATOM      3  C   UNL     1       2.573  17.079  24.516  1.00  0.00     0.006 C 
BRANCH   3   4
ATOM      4  C   UNL     1       1.573  16.011  24.051  1.00  0.00     0.053 C 
BRANCH   4   5
ATOM      5  C   UNL     1       1.727  14.732  24.816  1.00  0.00     0.041 C 
ATOM      6  O   UNL     1       2.730  13.995  24.623  1.00  0.00    -0.550 OA
ATOM      7  O   UNL     1       0.748  14.339  25.720  1.00  0.00    -0.550 OA
ENDBRANCH   4   5
ENDBRANCH   3   4
ENDBRANCH   2   3
ENDBRANCH   1   2
BRANCH   1   8
ATOM      8  C   UNL     1       4.091  19.498  22.180  1.00  0.00     0.000 C 
BRANCH   8   9
ATOM      9  C   UNL     1       3.282  20.799  22.296  1.00  0.00    -0.000 C 
BRANCH   9  10
ATOM     10  C   UNL     1       1.764  20.564  22.229  1.00  0.00    -0.000 C 
BRANCH  10  11
ATOM     11  C   UNL     1       1.122  20.723  23.612  1.00  0.00    -0.000 C 
BRANCH  11  12
ATOM     12  C   UNL     1       0.048  19.656  23.846  1.00  0.00    -0.003 C 
ATOM     13  C   UNL     1      -0.316  18.945  22.546  1.00  0.00     0.004 C 
ENDBRANCH  11  12
ENDBRANCH  10  11
ENDBRANCH   9  10
ENDBRANCH   8   9
ENDBRANCH   1   8
TORSDOF 9
ENDMDL
MODEL 6
REMARK VINA RESULT:    -4.127      1.292      2.833
REMARK INTER + INTRA:          -7.315
REMARK INTER:                  -6.229
REMARK INTRA:                  -1.086
REMARK UNBOUND:                -1.016
REMARK SMILES CCCCCCCCCCC(=O)[O-]
REMARK SMILES IDX 7 1 8 2 9 3 10 4 11 5 12 6 13 7 6 8 5 9 4 10 3 11 2 12 1 13
REMARK H PARENT
REMARK Flexibility Score: inf
ROOT
ATOM      1  C   UNL     1      -4.133  11.022  23.932  1.00  0.00     0.000 C 
ENDROOT
BRANCH   1   2
ATOM      2  C   UNL     1      -3.496  10.922  25.329  1.00  0.00     0.000 C 
BRANCH   2   3
ATOM      3  C   UNL     1      -1.986  11.222  25.313  1.00  0.00     0.006 C 
BRANCH   3   4
ATOM      4  C   UNL     1      -1.154  10.022  25.786  1.00  0.00     0.053 C 
BRANCH   4   5
ATOM      5  C   UNL     1       0.270  10.117  25.333  1.00  0.00     0.041 C 
ATOM      6  O   UNL     1       1.066  10.907  25.907  1.00  0.00    -0.550 OA
ATOM      7  O   UNL     1       0.712   9.355  24.259  1.00  0.00    -0.550 OA
ENDBRANCH   4   5
ENDBRANCH   3   4
ENDBRANCH   2   3
ENDBRANCH   1   2
BRANCH   1   8
ATOM      8  C   UNL     1      -3.310  11.894  22.968  1.00  0.00     0.000 C 
BRANCH   8   9
ATOM      9  C   UNL     1      -3.376  11.393  21.517  1.00  0.00    -0.000 C 
BRANCH   9  10
ATOM     10  C   UNL     1      -3.830   9.928  21.413  1.00  0.00    -0.000 C 
BRANCH  10  11
ATOM     11  C   UNL     1      -2.766   9.072  20.714  1.00  0.00    -0.000 C 
BRANCH  11  12
ATOM     12  C   UNL     1      -1.781   8.482  21.729  1.00  0.00    -0.003 C 
ATOM     13  C   UNL     1      -2.503   8.004  22.985  1.00  0.00     0.004 C 
ENDBRANCH  11  12
ENDBRANCH  10  11
ENDBRANCH   9  10
ENDBRANCH   8   9
ENDBRANCH   1   8
TORSDOF 9
ENDMDL
MODEL 7
REMARK VINA RESULT:    -4.119      0.924      2.743
REMARK INTER + INTRA:          -7.302
REMARK INTER:                  -6.205
REMARK INTRA:                  -1.097
REMARK UNBOUND:                -1.016
REMARK SMILES CCCCCCCCCCC(=O)[O-]
REMARK SMILES IDX 7 1 8 2 9 3 10 4 11 5 12 6 13 7 6 8 5 9 4 10 3 11 2 12 1 13
REMARK H PARENT
REMARK Flexibility Score: inf
ROOT
ATOM      1  C   UNL     1      -3.246  11.890  23.156  1.00  0.00     0.000 C 
ENDROOT
BRANCH   1   2
ATOM      2  C   UNL     1      -3.710  10.868  24.209  1.00  0.00     0.000 C 
BRANCH   2   3
ATOM      3  C   UNL     1      -2.637  10.589  25.276  1.00  0.00     0.006 C 
BRANCH   3   4
ATOM      4  C   UNL     1      -1.790  11.833  25.582  1.00  0.00     0.053 C 
BRANCH   4   5
ATOM      5  C   UNL     1      -0.429  11.470  26.091  1.00  0.00     0.041 C 
ATOM      6  O   UNL     1       0.179  12.241  26.879  1.00  0.00    -0.550 OA
ATOM      7  O   UNL     1       0.181  10.295  25.671  1.00  0.00    -0.550 OA
ENDBRANCH   4   5
ENDBRANCH   3   4
ENDBRANCH   2   3
ENDBRANCH   1   2
BRANCH   1   8
ATOM      8  C   UNL     1      -3.495  11.409  21.716  1.00  0.00     0.000 C 
BRANCH   8   9
ATOM      9  C   UNL     1      -4.527  10.273  21.644  1.00  0.00    -0.000 C 
BRANCH   9  10
ATOM     10  C   UNL     1      -4.046   9.085  20.796  1.00  0.00    -0.000 C 
BRANCH  10  11
ATOM     11  C   UNL     1      -2.517   8.975  20.823  1.00  0.00    -0.000 C 
BRANCH  11  12
ATOM     12  C   UNL     1      -2.043   8.173  22.039  1.00  0.00    -0.003 C 
ATOM     13  C   UNL     1      -0.824   8.822  22.688  1.00  0.00     0.004 C 
ENDBRANCH  11  12
ENDBRANCH  10  11
ENDBRANCH   9  10
ENDBRANCH   8   9
ENDBRANCH   1   8
TORSDOF 9
ENDMDL
MODEL 8
REMARK VINA RESULT:    -4.034      1.596      1.852
REMARK INTER + INTRA:          -7.172
REMARK INTER:                  -5.889
REMARK INTRA:                  -1.283
REMARK UNBOUND:                -1.016
REMARK SMILES CCCCCCCCCCC(=O)[O-]
REMARK SMILES IDX 7 1 8 2 9 3 10 4 11 5 12 6 13 7 6 8 5 9 4 10 3 11 2 12 1 13
REMARK H PARENT
REMARK Flexibility Score: inf
ROOT
ATOM      1  C   UNL     1      -1.286   9.631  23.957  1.00  0.00     0.000 C 
ENDROOT
BRANCH   1   2
ATOM      2  C   UNL     1      -2.123   8.766  24.916  1.00  0.00     0.000 C 
BRANCH   2   3
ATOM      3  C   UNL     1      -3.375   9.497  25.431  1.00  0.00     0.006 C 
BRANCH   3   4
ATOM      4  C   UNL     1      -3.053  10.911  25.935  1.00  0.00     0.053 C 
BRANCH   4   5
ATOM      5  C   UNL     1      -2.322  10.885  27.242  1.00  0.00     0.041 C 
ATOM      6  O   UNL     1      -2.761  10.194  28.200  1.00  0.00    -0.550 OA
ATOM      7  O   UNL     1      -1.173  11.646  27.413  1.00  0.00    -0.550 OA
ENDBRANCH   4   5
ENDBRANCH   3   4
ENDBRANCH   2   3
ENDBRANCH   1   2
BRANCH   1   8
ATOM      8  C   UNL     1      -0.868   8.869  22.688  1.00  0.00     0.000 C 
BRANCH   8   9
ATOM      9  C   UNL     1      -2.064   8.246  21.952  1.00  0.00    -0.000 C 
BRANCH   9  10
ATOM     10  C   UNL     1      -2.806   9.256  21.061  1.00  0.00    -0.000 C 
BRANCH  10  11
ATOM     11  C   UNL     1      -4.237   9.483  21.562  1.00  0.00    -0.000 C 
BRANCH  11  12
ATOM     12  C   UNL     1      -4.418  10.912  22.082  1.00  0.00    -0.003 C 
ATOM     13  C   UNL     1      -3.257  11.806  21.654  1.00  0.00     0.004 C 
ENDBRANCH  11  12
ENDBRANCH  10  11
ENDBRANCH   9  10
ENDBRANCH   8   9
ENDBRANCH   1   8
TORSDOF 9
ENDMDL
MODEL 9
REMARK VINA RESULT:    -4.004      1.639      2.862
REMARK INTER + INTRA:          -7.126
REMARK INTER:                  -6.021
REMARK INTRA:                  -1.105
REMARK UNBOUND:                -1.016
REMARK SMILES CCCCCCCCCCC(=O)[O-]
REMARK SMILES IDX 7 1 8 2 9 3 10 4 11 5 12 6 13 7 6 8 5 9 4 10 3 11 2 12 1 13
REMARK H PARENT
REMARK Flexibility Score: inf
ROOT
ATOM      1  C   UNL     1      -4.733   8.072  23.944  1.00  0.00     0.000 C 
ENDROOT
BRANCH   1   2
ATOM      2  C   UNL     1      -4.818   9.230  24.954  1.00  0.00     0.000 C 
BRANCH   2   3
ATOM      3  C   UNL     1      -3.633   9.248  25.934  1.00  0.00     0.006 C 
BRANCH   3   4
ATOM      4  C   UNL     1      -2.640  10.376  25.619  1.00  0.00     0.053 C 
BRANCH   4   5
ATOM      5  C   UNL     1      -1.239  10.011  26.005  1.00  0.00     0.041 C 
ATOM      6  O   UNL     1      -0.956   8.823  26.314  1.00  0.00    -0.550 OA
ATOM      7  O   UNL     1      -0.253  10.988  26.053  1.00  0.00    -0.550 OA
ENDBRANCH   4   5
ENDBRANCH   3   4
ENDBRANCH   2   3
ENDBRANCH   1   2
BRANCH   1   8
ATOM      8  C   UNL     1      -5.089   8.509  22.512  1.00  0.00     0.000 C 
BRANCH   8   9
ATOM      9  C   UNL     1      -4.784   9.993  22.256  1.00  0.00    -0.000 C 
BRANCH   9  10
ATOM     10  C   UNL     1      -3.345  10.230  21.769  1.00  0.00    -0.000 C 
BRANCH  10  11
ATOM     11  C   UNL     1      -2.950   9.199  20.704  1.00  0.00    -0.000 C 
BRANCH  11  12
ATOM     12  C   UNL     1      -1.768   8.346  21.176  1.00  0.00    -0.003 C 
ATOM     13  C   UNL     1      -1.263   8.809  22.540  1.00  0.00     0.004 C 
ENDBRANCH  11  12
ENDBRANCH  10  11
ENDBRANCH   9  10
ENDBRANCH   8   9
ENDBRANCH   1   8
TORSDOF 9
ENDMDL
