MODEL 1
REMARK VINA RESULT:    -3.930      0.000      0.000
REMARK INTER + INTRA:          -5.072
REMARK INTER:                  -4.849
REMARK INTRA:                  -0.223
REMARK UNBOUND:                -0.223
REMARK SMILES CCCCC=CC(C)=O
REMARK SMILES IDX 4 1 3 2 2 3 1 4 5 5 6 6 7 7 9 8 8 9
REMARK H PARENT
REMARK Flexibility Score: inf
ROOT
ATOM      1  C   UNL     1     137.152 182.823 189.380  1.00  0.00     0.027 C 
ENDROOT
BRANCH   1   2
ATOM      2  C   UNL     1     135.923 182.580 188.495  1.00  0.00     0.004 C 
BRANCH   2   3
ATOM      3  C   UNL     1     134.998 183.802 188.493  1.00  0.00    -0.003 C 
ATOM      4  C   UNL     1     133.875 183.641 187.472  1.00  0.00     0.004 C 
ENDBRANCH   2   3
ENDBRANCH   1   2
BRANCH   1   5
ATOM      5  C   UNL     1     136.980 184.050 190.226  1.00  0.00    -0.023 C 
ATOM      6  C   UNL     1     138.033 184.724 190.704  1.00  0.00     0.042 C 
BRANCH   6   7
ATOM      7  C   UNL     1     137.887 185.924 191.548  1.00  0.00     0.152 C 
ATOM      8  O   UNL     1     138.483 186.010 192.656  1.00  0.00    -0.295 OA
ATOM      9  C   UNL     1     137.021 187.051 191.088  1.00  0.00     0.093 C 
ENDBRANCH   6   7
ENDBRANCH   1   5
TORSDOF 4
ENDMDL
MODEL 2
REMARK VINA RESULT:    -3.795      2.467      4.774
REMARK INTER + INTRA:          -4.904
REMARK INTER:                  -4.632
REMARK INTRA:                  -0.273
REMARK UNBOUND:                -0.223
REMARK SMILES CCCCC=CC(C)=O
REMARK SMILES IDX 4 1 3 2 2 3 1 4 5 5 6 6 7 7 9 8 8 9
REMARK H PARENT
REMARK Flexibility Score: inf
ROOT
ATOM      1  C   UNL     1     137.538 184.086 190.974  1.00  0.00     0.027 C 
ENDROOT
BRANCH   1   2
ATOM      2  C   UNL     1     138.572 185.101 190.472  1.00  0.00     0.004 C 
BRANCH   2   3
ATOM      3  C   UNL     1     138.447 186.431 191.224  1.00  0.00    -0.003 C 
ATOM      4  C   UNL     1     137.021 186.969 191.158  1.00  0.00     0.004 C 
ENDBRANCH   2   3
ENDBRANCH   1   2
BRANCH   1   5
ATOM      5  C   UNL     1     136.794 183.456 189.833  1.00  0.00    -0.023 C 
ATOM      6  C   UNL     1     135.703 184.029 189.309  1.00  0.00     0.042 C 
BRANCH   6   7
ATOM      7  C   UNL     1     134.950 183.422 188.197  1.00  0.00     0.152 C 
ATOM      8  O   UNL     1     133.953 184.010 187.695  1.00  0.00    -0.295 OA
ATOM      9  C   UNL     1     135.369 182.093 187.657  1.00  0.00     0.093 C 
ENDBRANCH   6   7
ENDBRANCH   1   5
TORSDOF 4
ENDMDL
MODEL 3
REMARK VINA RESULT:    -3.781      1.008      1.331
REMARK INTER + INTRA:          -4.888
REMARK INTER:                  -4.675
REMARK INTRA:                  -0.213
REMARK UNBOUND:                -0.223
REMARK SMILES CCCCC=CC(C)=O
REMARK SMILES IDX 4 1 3 2 2 3 1 4 5 5 6 6 7 7 9 8 8 9
REMARK H PARENT
REMARK Flexibility Score: inf
ROOT
ATOM      1  C   UNL     1     136.632 182.863 189.296  1.00  0.00     0.027 C 
ENDROOT
BRANCH   1   2
ATOM      2  C   UNL     1     135.389 183.669 188.898  1.00  0.00     0.004 C 
BRANCH   2   3
ATOM      3  C   UNL     1     134.655 183.005 187.728  1.00  0.00    -0.003 C 
ATOM      4  C   UNL     1     135.399 181.764 187.243  1.00  0.00     0.004 C 
ENDBRANCH   2   3
ENDBRANCH   1   2
BRANCH   1   5
ATOM      5  C   UNL     1     137.613 183.712 190.051  1.00  0.00    -0.023 C 
ATOM      6  C   UNL     1     137.284 184.930 190.497  1.00  0.00     0.042 C 
BRANCH   6   7
ATOM      7  C   UNL     1     138.236 185.786 191.229  1.00  0.00     0.152 C 
ATOM      8  O   UNL     1     138.257 185.796 192.490  1.00  0.00    -0.295 OA
ATOM      9  C   UNL     1     139.186 186.654 190.470  1.00  0.00     0.093 C 
ENDBRANCH   6   7
ENDBRANCH   1   5
TORSDOF 4
ENDMDL
MODEL 4
REMARK VINA RESULT:    -3.737      2.317      4.652
REMARK INTER + INTRA:          -4.833
REMARK INTER:                  -4.578
REMARK INTRA:                  -0.255
REMARK UNBOUND:                -0.223
REMARK SMILES CCCCC=CC(C)=O
REMARK SMILES IDX 4 1 3 2 2 3 1 4 5 5 6 6 7 7 9 8 8 9
REMARK H PARENT
REMARK Flexibility Score: inf
ROOT
ATOM      1  C   UNL     1     137.878 184.517 191.168  1.00  0.00     0.027 C 
ENDROOT
BRANCH   1   2
ATOM      2  C   UNL     1     138.402 185.906 190.784  1.00  0.00     0.004 C 
BRANCH   2   3
ATOM      3  C   UNL     1     137.419 187.002 191.213  1.00  0.00    -0.003 C 
ATOM      4  C   UNL     1     136.683 186.612 192.492  1.00  0.00     0.004 C 
ENDBRANCH   2   3
ENDBRANCH   1   2
BRANCH   1   5
ATOM      5  C   UNL     1     137.299 183.806 189.979  1.00  0.00    -0.023 C 
ATOM      6  C   UNL     1     136.011 183.941 189.643  1.00  0.00     0.042 C 
BRANCH   6   7
ATOM      7  C   UNL     1     135.419 183.242 188.488  1.00  0.00     0.152 C 
ATOM      8  O   UNL     1     135.932 182.179 188.044  1.00  0.00    -0.295 OA
ATOM      9  C   UNL     1     134.197 183.799 187.833  1.00  0.00     0.093 C 
ENDBRANCH   6   7
ENDBRANCH   1   5
TORSDOF 4
ENDMDL
MODEL 5
REMARK VINA RESULT:    -3.669      0.991      1.387
REMARK INTER + INTRA:          -4.750
REMARK INTER:                  -4.538
REMARK INTRA:                  -0.211
REMARK UNBOUND:                -0.223
REMARK SMILES CCCCC=CC(C)=O
REMARK SMILES IDX 4 1 3 2 2 3 1 4 5 5 6 6 7 7 9 8 8 9
REMARK H PARENT
REMARK Flexibility Score: inf
ROOT
ATOM      1  C   UNL     1     135.264 184.094 189.364  1.00  0.00     0.027 C 
ENDROOT
BRANCH   1   2
ATOM      2  C   UNL     1     136.116 182.908 188.894  1.00  0.00     0.004 C 
BRANCH   2   3
ATOM      3  C   UNL     1     135.441 182.174 187.731  1.00  0.00    -0.003 C 
ATOM      4  C   UNL     1     134.201 182.922 187.251  1.00  0.00     0.004 C 
ENDBRANCH   2   3
ENDBRANCH   1   2
BRANCH   1   5
ATOM      5  C   UNL     1     136.088 185.086 190.132  1.00  0.00    -0.023 C 
ATOM      6  C   UNL     1     137.353 184.823 190.480  1.00  0.00     0.042 C 
BRANCH   6   7
ATOM      7  C   UNL     1     138.177 185.777 191.246  1.00  0.00     0.152 C 
ATOM      8  O   UNL     1     138.080 185.849 192.502  1.00  0.00    -0.295 OA
ATOM      9  C   UNL     1     139.135 186.669 190.529  1.00  0.00     0.093 C 
ENDBRANCH   6   7
ENDBRANCH   1   5
TORSDOF 4
ENDMDL
MODEL 6
REMARK VINA RESULT:    -3.627     10.404     10.905
REMARK INTER + INTRA:          -4.698
REMARK INTER:                  -4.609
REMARK INTRA:                  -0.089
REMARK UNBOUND:                -0.223
REMARK SMILES CCCCC=CC(C)=O
REMARK SMILES IDX 4 1 3 2 2 3 1 4 5 5 6 6 7 7 9 8 8 9
REMARK H PARENT
REMARK Flexibility Score: inf
ROOT
ATOM      1  C   UNL     1     131.537 188.122 197.817  1.00  0.00     0.027 C 
ENDROOT
BRANCH   1   2
ATOM      2  C   UNL     1     130.471 187.373 198.626  1.00  0.00     0.004 C 
BRANCH   2   3
ATOM      3  C   UNL     1     129.240 187.070 197.765  1.00  0.00    -0.003 C 
ATOM      4  C   UNL     1     127.994 186.890 198.628  1.00  0.00     0.004 C 
ENDBRANCH   2   3
ENDBRANCH   1   2
BRANCH   1   5
ATOM      5  C   UNL     1     132.410 188.957 198.707  1.00  0.00    -0.023 C 
ATOM      6  C   UNL     1     133.443 189.654 198.219  1.00  0.00     0.042 C 
BRANCH   6   7
ATOM      7  C   UNL     1     134.322 190.470 199.078  1.00  0.00     0.152 C 
ATOM      8  O   UNL     1     133.837 191.235 199.955  1.00  0.00    -0.295 OA
ATOM      9  C   UNL     1     135.804 190.392 198.906  1.00  0.00     0.093 C 
ENDBRANCH   6   7
ENDBRANCH   1   5
TORSDOF 4
ENDMDL
MODEL 7
REMARK VINA RESULT:    -3.556     10.168     11.430
REMARK INTER + INTRA:          -4.610
REMARK INTER:                  -4.424
REMARK INTRA:                  -0.186
REMARK UNBOUND:                -0.223
REMARK SMILES CCCCC=CC(C)=O
REMARK SMILES IDX 4 1 3 2 2 3 1 4 5 5 6 6 7 7 9 8 8 9
REMARK H PARENT
REMARK Flexibility Score: inf
ROOT
ATOM      1  C   UNL     1     132.967 189.293 199.514  1.00  0.00     0.027 C 
ENDROOT
BRANCH   1   2
ATOM      2  C   UNL     1     133.734 189.762 198.271  1.00  0.00     0.004 C 
BRANCH   2   3
ATOM      3  C   UNL     1     134.732 190.869 198.627  1.00  0.00    -0.003 C 
ATOM      4  C   UNL     1     135.739 190.391 199.670  1.00  0.00     0.004 C 
ENDBRANCH   2   3
ENDBRANCH   1   2
BRANCH   1   5
ATOM      5  C   UNL     1     131.868 188.339 199.148  1.00  0.00    -0.023 C 
ATOM      6  C   UNL     1     131.529 188.121 197.872  1.00  0.00     0.042 C 
BRANCH   6   7
ATOM      7  C   UNL     1     130.444 187.198 197.490  1.00  0.00     0.152 C 
ATOM      8  O   UNL     1     130.647 186.273 196.657  1.00  0.00    -0.295 OA
ATOM      9  C   UNL     1     129.087 187.361 198.095  1.00  0.00     0.093 C 
ENDBRANCH   6   7
ENDBRANCH   1   5
TORSDOF 4
ENDMDL
MODEL 8
REMARK VINA RESULT:    -3.481      1.722      2.904
REMARK INTER + INTRA:          -4.518
REMARK INTER:                  -4.333
REMARK INTRA:                  -0.185
REMARK UNBOUND:                -0.223
REMARK SMILES CCCCC=CC(C)=O
REMARK SMILES IDX 4 1 3 2 2 3 1 4 5 5 6 6 7 7 9 8 8 9
REMARK H PARENT
REMARK Flexibility Score: inf
ROOT
ATOM      1  C   UNL     1     134.191 183.170 187.637  1.00  0.00     0.027 C 
ENDROOT
BRANCH   1   2
ATOM      2  C   UNL     1     133.123 183.983 186.894  1.00  0.00     0.004 C 
BRANCH   2   3
ATOM      3  C   UNL     1     133.044 183.568 185.420  1.00  0.00    -0.003 C 
ATOM      4  C   UNL     1     133.860 182.305 185.159  1.00  0.00     0.004 C 
ENDBRANCH   2   3
ENDBRANCH   1   2
BRANCH   1   5
ATOM      5  C   UNL     1     134.977 184.036 188.578  1.00  0.00    -0.023 C 
ATOM      6  C   UNL     1     136.003 183.547 189.285  1.00  0.00     0.042 C 
BRANCH   6   7
ATOM      7  C   UNL     1     136.781 184.377 190.224  1.00  0.00     0.152 C 
ATOM      8  O   UNL     1     137.968 184.074 190.522  1.00  0.00    -0.295 OA
ATOM      9  C   UNL     1     136.155 185.589 190.833  1.00  0.00     0.093 C 
ENDBRANCH   6   7
ENDBRANCH   1   5
TORSDOF 4
ENDMDL
MODEL 9
REMARK VINA RESULT:    -3.399      1.864      2.424
REMARK INTER + INTRA:          -4.416
REMARK INTER:                  -4.242
REMARK INTRA:                  -0.174
REMARK UNBOUND:                -0.223
REMARK SMILES CCCCC=CC(C)=O
REMARK SMILES IDX 4 1 3 2 2 3 1 4 5 5 6 6 7 7 9 8 8 9
REMARK H PARENT
REMARK Flexibility Score: inf
ROOT
ATOM      1  C   UNL     1     138.045 184.615 190.710  1.00  0.00     0.027 C 
ENDROOT
BRANCH   1   2
ATOM      2  C   UNL     1     137.075 183.680 189.977  1.00  0.00     0.004 C 
BRANCH   2   3
ATOM      3  C   UNL     1     135.757 184.396 189.660  1.00  0.00    -0.003 C 
ATOM      4  C   UNL     1     135.041 183.738 188.484  1.00  0.00     0.004 C 
ENDBRANCH   2   3
ENDBRANCH   1   2
BRANCH   1   5
ATOM      5  C   UNL     1     137.627 184.824 192.136  1.00  0.00    -0.023 C 
ATOM      6  C   UNL     1     137.566 186.048 192.674  1.00  0.00     0.042 C 
BRANCH   6   7
ATOM      7  C   UNL     1     137.170 186.276 194.076  1.00  0.00     0.152 C 
ATOM      8  O   UNL     1     138.006 186.693 194.923  1.00  0.00    -0.295 OA
ATOM      9  C   UNL     1     135.763 186.008 194.500  1.00  0.00     0.093 C 
ENDBRANCH   6   7
ENDBRANCH   1   5
TORSDOF 4
ENDMDL
