MODEL 1
REMARK VINA RESULT:     3.773      0.000      0.000
REMARK INTER + INTRA:           5.866
REMARK INTER:                   5.096
REMARK INTRA:                   0.770
REMARK UNBOUND:                 0.770
REMARK SMILES COc1ccc(-c2cc(=O)c3c(OC)c(OC)c(OC)c(OC)c3o2)cc1
REMARK SMILES IDX 7 1 8 2 9 3 10 4 11 5 24 6 25 7 21 8 18 9 15 10 12 11 6 12
REMARK SMILES IDX 3 13 4 14 27 15 5 16 26 17 2 18 1 19 22 20 23 21 13 22 14 23
REMARK SMILES IDX 19 24 20 25 16 26 17 27
REMARK H PARENT
REMARK Flexibility Score: inf
ROOT
ATOM      1  C   UNL     1       1.628  14.565  17.542  1.00  0.00     0.138 A 
ATOM      2  C   UNL     1       1.710  14.549  16.146  1.00  0.00     0.100 A 
ATOM      3  C   UNL     1       2.647  13.726  15.527  1.00  0.00     0.197 A 
ATOM      4  O   UNL     1       2.713  13.728  14.267  1.00  0.00    -0.289 OA
ATOM      5  C   UNL     1       3.500  12.919  16.313  1.00  0.00     0.115 A 
ATOM      6  C   UNL     1       3.361  12.989  17.721  1.00  0.00     0.188 A 
ATOM      7  O   UNL     1       2.451  13.801  18.255  1.00  0.00    -0.452 OA
ATOM      8  C   UNL     1       4.172  12.184  18.555  1.00  0.00     0.209 A 
ATOM      9  C   UNL     1       5.142  11.345  17.987  1.00  0.00     0.211 A 
ATOM     10  C   UNL     1       5.327  11.323  16.586  1.00  0.00     0.208 A 
ATOM     11  C   UNL     1       4.458  12.050  15.744  1.00  0.00     0.179 A 
ENDROOT
BRANCH   1  12
ATOM     12  C   UNL     1       0.646  15.422  18.250  1.00  0.00     0.018 A 
ATOM     13  C   UNL     1      -1.185  17.078  19.620  1.00  0.00     0.118 A 
ATOM     14  C   UNL     1      -0.023  17.624  19.045  1.00  0.00     0.047 A 
ATOM     15  C   UNL     1      -1.419  15.703  19.509  1.00  0.00     0.047 A 
ATOM     16  C   UNL     1       0.884  16.801  18.371  1.00  0.00     0.016 A 
ATOM     17  C   UNL     1      -0.514  14.879  18.834  1.00  0.00     0.016 A 
BRANCH  13  18
ATOM     18  O   UNL     1      -2.125  17.861  20.307  1.00  0.00    -0.497 OA
ATOM     19  C   UNL     1      -1.991  19.260  20.535  1.00  0.00     0.278 C 
ENDBRANCH  13  18
ENDBRANCH   1  12
BRANCH   8  20
ATOM     20  O   UNL     1       4.067  12.162  19.959  1.00  0.00    -0.490 OA
ATOM     21  C   UNL     1       4.219  11.029  20.807  1.00  0.00     0.278 C 
ENDBRANCH   8  20
BRANCH  11  22
ATOM     22  O   UNL     1       4.526  11.920  14.347  1.00  0.00    -0.492 OA
ATOM     23  C   UNL     1       4.295  10.701  13.645  1.00  0.00     0.278 C 
ENDBRANCH  11  22
BRANCH   9  24
ATOM     24  O   UNL     1       5.901  10.563  18.881  1.00  0.00    -0.490 OA
ATOM     25  C   UNL     1       7.177  10.891  19.418  1.00  0.00     0.279 C 
ENDBRANCH   9  24
BRANCH  10  26
ATOM     26  O   UNL     1       6.401  10.624  16.035  1.00  0.00    -0.490 OA
ATOM     27  C   UNL     1       7.736  11.104  16.157  1.00  0.00     0.278 C 
ENDBRANCH  10  26
TORSDOF 6
ENDMDL
MODEL 2
REMARK VINA RESULT:     5.361      1.137      3.615
REMARK INTER + INTRA:           8.012
REMARK INTER:                   7.160
REMARK INTRA:                   0.852
REMARK UNBOUND:                 0.770
REMARK SMILES COc1ccc(-c2cc(=O)c3c(OC)c(OC)c(OC)c(OC)c3o2)cc1
REMARK SMILES IDX 7 1 8 2 9 3 10 4 11 5 24 6 25 7 21 8 18 9 15 10 12 11 6 12
REMARK SMILES IDX 3 13 4 14 27 15 5 16 26 17 2 18 1 19 22 20 23 21 13 22 14 23
REMARK SMILES IDX 19 24 20 25 16 26 17 27
REMARK H PARENT
REMARK Flexibility Score: inf
ROOT
ATOM      1  C   UNL     1       1.861  14.416  18.086  1.00  0.00     0.138 A 
ATOM      2  C   UNL     1       2.568  13.783  19.114  1.00  0.00     0.100 A 
ATOM      3  C   UNL     1       3.514  12.814  18.795  1.00  0.00     0.197 A 
ATOM      4  O   UNL     1       4.138  12.246  19.734  1.00  0.00    -0.289 OA
ATOM      5  C   UNL     1       3.750  12.482  17.442  1.00  0.00     0.115 A 
ATOM      6  C   UNL     1       2.996  13.163  16.455  1.00  0.00     0.188 A 
ATOM      7  O   UNL     1       2.099  14.076  16.823  1.00  0.00    -0.452 OA
ATOM      8  C   UNL     1       3.210  12.888  15.084  1.00  0.00     0.209 A 
ATOM      9  C   UNL     1       4.141  11.912  14.704  1.00  0.00     0.211 A 
ATOM     10  C   UNL     1       4.847  11.184  15.689  1.00  0.00     0.208 A 
ATOM     11  C   UNL     1       4.710  11.520  17.053  1.00  0.00     0.179 A 
ENDROOT
BRANCH   1  12
ATOM     12  C   UNL     1       0.844  15.458  18.373  1.00  0.00     0.018 A 
ATOM     13  C   UNL     1      -1.056  17.464  18.949  1.00  0.00     0.118 A 
ATOM     14  C   UNL     1       0.278  17.807  18.662  1.00  0.00     0.047 A 
ATOM     15  C   UNL     1      -1.427  16.116  18.951  1.00  0.00     0.047 A 
ATOM     16  C   UNL     1       1.217  16.812  18.381  1.00  0.00     0.016 A 
ATOM     17  C   UNL     1      -0.489  15.119  18.669  1.00  0.00     0.016 A 
BRANCH  13  18
ATOM     18  O   UNL     1      -2.036  18.426  19.238  1.00  0.00    -0.497 OA
ATOM     19  C   UNL     1      -1.881  19.469  20.195  1.00  0.00     0.278 C 
ENDBRANCH  13  18
ENDBRANCH   1  12
BRANCH   8  20
ATOM     20  O   UNL     1       2.533  13.551  14.041  1.00  0.00    -0.490 OA
ATOM     21  C   UNL     1       1.181  13.355  13.644  1.00  0.00     0.278 C 
ENDBRANCH   8  20
BRANCH  11  22
ATOM     22  O   UNL     1       5.516  10.917  18.033  1.00  0.00    -0.492 OA
ATOM     23  C   UNL     1       6.892  11.227  18.238  1.00  0.00     0.278 C 
ENDBRANCH  11  22
BRANCH   9  24
ATOM     24  O   UNL     1       4.310  11.705  13.320  1.00  0.00    -0.490 OA
ATOM     25  C   UNL     1       3.602  10.770  12.512  1.00  0.00     0.279 C 
ENDBRANCH   9  24
BRANCH  10  26
ATOM     26  O   UNL     1       5.643  10.100  15.320  1.00  0.00    -0.490 OA
ATOM     27  C   UNL     1       5.316   9.293  14.193  1.00  0.00     0.278 C 
ENDBRANCH  10  26
TORSDOF 6
ENDMDL
