MODEL 1
REMARK VINA RESULT:    22.002      0.000      0.000
REMARK INTER + INTRA:          25.763
REMARK INTER:                  23.931
REMARK INTRA:                   1.832
REMARK UNBOUND:                 1.832
REMARK SMILES C[C@H]1[C@H]2C3=CC[C@@H]4[C@@]5(C)CC[C@@H](O)C(C)(C)[C@@H]5CC[C@]4(C)[C@]3(C)CC[C@]2(C(=O)[O-])CC[C@@H]1C
REMARK SMILES IDX 26 1 30 2 25 3 3 4 31 5 24 6 4 7 2 8 32 9 22 10 5 11 1 12
REMARK SMILES IDX 33 13 23 14 20 15 6 16 7 17 19 18 21 19 8 20 18 21 17 22
REMARK SMILES IDX 10 23 9 24 14 25 11 26 12 27 15 28 16 29 27 30 28 31 29 32
REMARK SMILES IDX 13 33
REMARK H PARENT 13 34
REMARK Flexibility Score: inf
ROOT
ATOM      1  C   UNL     1     162.265 152.817 155.874  1.00  0.00     0.017 C 
ATOM      2  C   UNL     1     163.750 152.944 156.299  1.00  0.00     0.014 C 
ATOM      3  C   UNL     1     161.440 152.038 156.968  1.00  0.00     0.014 C 
ATOM      4  C   UNL     1     161.675 154.260 155.728  1.00  0.00     0.030 C 
ATOM      5  C   UNL     1     164.620 153.644 155.225  1.00  0.00     0.004 C 
ATOM      6  C   UNL     1     160.072 152.683 157.348  1.00  0.00     0.013 C 
ATOM      7  C   UNL     1     160.214 154.129 155.266  1.00  0.00    -0.063 C 
ATOM      8  C   UNL     1     162.707 155.343 155.200  1.00  0.00    -0.003 C 
ATOM      9  C   UNL     1     163.867 154.715 154.378  1.00  0.00    -0.011 C 
ATOM     10  C   UNL     1     159.274 153.243 156.107  1.00  0.00    -0.006 C 
ATOM     11  C   UNL     1     159.722 154.681 154.148  1.00  0.00    -0.027 C 
ATOM     12  C   UNL     1     162.110 156.618 154.585  1.00  0.00     0.008 C 
ATOM     13  C   UNL     1     164.877 155.760 153.875  1.00  0.00     0.008 C 
ATOM     14  C   UNL     1     158.860 151.972 155.282  1.00  0.00     0.017 C 
ATOM     15  C   UNL     1     157.978 154.117 156.483  1.00  0.00    -0.020 C 
ATOM     16  C   UNL     1     158.244 154.691 153.875  1.00  0.00     0.032 C 
ATOM     17  C   UNL     1     157.373 154.845 155.177  1.00  0.00     0.006 C 
ATOM     18  C   UNL     1     158.328 155.202 157.546  1.00  0.00     0.008 C 
ATOM     19  C   UNL     1     156.911 153.169 157.139  1.00  0.00     0.012 C 
ATOM     20  C   UNL     1     156.850 156.352 155.376  1.00  0.00    -0.025 C 
ATOM     21  C   UNL     1     157.152 156.123 157.938  1.00  0.00     0.005 C 
ATOM     22  C   UNL     1     156.166 156.446 156.784  1.00  0.00     0.003 C 
ATOM     23  C   UNL     1     155.767 156.643 154.278  1.00  0.00     0.010 C 
ATOM     24  C   UNL     1     158.008 157.402 155.239  1.00  0.00     0.012 C 
ATOM     25  C   UNL     1     155.240 157.704 157.059  1.00  0.00    -0.006 C 
ATOM     26  C   UNL     1     154.929 157.905 154.525  1.00  0.00     0.033 C 
ATOM     27  C   UNL     1     154.224 157.864 155.885  1.00  0.00     0.120 C 
ATOM     28  C   UNL     1     154.435 157.473 158.368  1.00  0.00     0.014 C 
ATOM     29  C   UNL     1     156.016 159.036 157.255  1.00  0.00     0.014 C 
ENDROOT
BRANCH   1  30
ATOM     30  C   UNL     1     162.232 152.011 154.570  1.00  0.00     0.048 C 
ATOM     31  O   UNL     1     161.174 151.967 153.889  1.00  0.00    -0.550 OA
ATOM     32  O   UNL     1     163.343 151.311 154.113  1.00  0.00    -0.550 OA
ENDBRANCH   1  30
BRANCH  27  33
ATOM     33  O   UNL     1     153.295 156.804 155.874  1.00  0.00    -0.393 OA
ATOM     34  H   UNL     1     153.778 155.981 156.148  1.00  0.00     0.210 HD
ENDBRANCH  27  33
TORSDOF 2
ENDMDL
MODEL 2
REMARK VINA RESULT:    23.847      1.763      7.871
REMARK INTER + INTRA:          27.770
REMARK INTER:                  26.580
REMARK INTRA:                   1.190
REMARK UNBOUND:                 1.832
REMARK SMILES C[C@H]1[C@H]2C3=CC[C@@H]4[C@@]5(C)CC[C@@H](O)C(C)(C)[C@@H]5CC[C@]4(C)[C@]3(C)CC[C@]2(C(=O)[O-])CC[C@@H]1C
REMARK SMILES IDX 26 1 30 2 25 3 3 4 31 5 24 6 4 7 2 8 32 9 22 10 5 11 1 12
REMARK SMILES IDX 33 13 23 14 20 15 6 16 7 17 19 18 21 19 8 20 18 21 17 22
REMARK SMILES IDX 10 23 9 24 14 25 11 26 12 27 15 28 16 29 27 30 28 31 29 32
REMARK SMILES IDX 13 33
REMARK H PARENT 13 34
REMARK Flexibility Score: inf
ROOT
ATOM      1  C   UNL     1     153.736 157.438 154.745  1.00  0.00     0.017 C 
ATOM      2  C   UNL     1     152.997 158.485 153.875  1.00  0.00     0.014 C 
ATOM      3  C   UNL     1     153.660 156.011 154.079  1.00  0.00     0.014 C 
ATOM      4  C   UNL     1     155.239 157.866 154.852  1.00  0.00     0.030 C 
ATOM      5  C   UNL     1     152.985 159.894 154.520  1.00  0.00     0.004 C 
ATOM      6  C   UNL     1     155.006 155.225 154.044  1.00  0.00     0.013 C 
ATOM      7  C   UNL     1     155.959 156.845 155.750  1.00  0.00    -0.063 C 
ATOM      8  C   UNL     1     155.476 159.434 154.878  1.00  0.00    -0.003 C 
ATOM      9  C   UNL     1     154.237 160.220 155.390  1.00  0.00    -0.011 C 
ATOM     10  C   UNL     1     155.846 155.355 155.374  1.00  0.00    -0.006 C 
ATOM     11  C   UNL     1     156.621 157.160 156.873  1.00  0.00    -0.027 C 
ATOM     12  C   UNL     1     156.817 159.916 155.454  1.00  0.00     0.008 C 
ATOM     13  C   UNL     1     154.459 161.741 155.406  1.00  0.00     0.008 C 
ATOM     14  C   UNL     1     155.008 154.592 156.460  1.00  0.00     0.017 C 
ATOM     15  C   UNL     1     157.335 154.755 155.286  1.00  0.00    -0.020 C 
ATOM     16  C   UNL     1     157.476 156.145 157.577  1.00  0.00     0.032 C 
ATOM     17  C   UNL     1     158.194 155.148 156.594  1.00  0.00     0.006 C 
ATOM     18  C   UNL     1     158.076 155.286 154.021  1.00  0.00     0.008 C 
ATOM     19  C   UNL     1     157.236 153.196 155.131  1.00  0.00     0.012 C 
ATOM     20  C   UNL     1     159.732 155.549 156.346  1.00  0.00    -0.025 C 
ATOM     21  C   UNL     1     159.534 154.798 153.875  1.00  0.00     0.005 C 
ATOM     22  C   UNL     1     160.298 154.622 155.214  1.00  0.00     0.003 C 
ATOM     23  C   UNL     1     160.530 155.263 157.667  1.00  0.00     0.010 C 
ATOM     24  C   UNL     1     159.894 157.063 155.970  1.00  0.00     0.012 C 
ATOM     25  C   UNL     1     161.874 154.553 155.054  1.00  0.00    -0.006 C 
ATOM     26  C   UNL     1     162.056 155.272 157.505  1.00  0.00     0.033 C 
ATOM     27  C   UNL     1     162.522 154.269 156.445  1.00  0.00     0.120 C 
ATOM     28  C   UNL     1     162.243 153.383 154.101  1.00  0.00     0.014 C 
ATOM     29  C   UNL     1     162.510 155.831 154.440  1.00  0.00     0.014 C 
ENDROOT
BRANCH   1  30
ATOM     30  C   UNL     1     153.020 157.384 156.100  1.00  0.00     0.048 C 
ATOM     31  O   UNL     1     151.772 157.544 156.155  1.00  0.00    -0.550 OA
ATOM     32  O   UNL     1     153.712 157.170 157.286  1.00  0.00    -0.550 OA
ENDBRANCH   1  30
BRANCH  27  33
ATOM     33  O   UNL     1     162.209 152.969 156.892  1.00  0.00    -0.393 OA
ATOM     34  H   UNL     1     162.068 152.404 156.088  1.00  0.00     0.210 HD
ENDBRANCH  27  33
TORSDOF 2
ENDMDL
