MODEL 1
REMARK VINA RESULT:    -4.273      0.000      0.000
REMARK INTER + INTRA:         -15.820
REMARK INTER:                 -10.767
REMARK INTRA:                  -5.052
REMARK UNBOUND:                -5.052
REMARK SMILES CCCCCCCCCCCCCCCCCCCCCCCCCCCC(=O)[O-]
REMARK SMILES IDX 15 1 16 2 17 3 18 4 19 5 20 6 21 7 22 8 23 9 24 10 25 11
REMARK SMILES IDX 26 12 27 13 28 14 29 15 30 16 14 17 13 18 12 19 11 20 10 21
REMARK SMILES IDX 9 22 8 23 7 24 6 25 5 26 4 27 3 28 2 29 1 30
REMARK H PARENT
REMARK Flexibility Score: inf
ROOT
ATOM      1  C   UNL     1      24.416   3.543   9.504  1.00  0.00     0.000 C 
ENDROOT
BRANCH   1   2
ATOM      2  C   UNL     1      25.107   2.855   8.312  1.00  0.00     0.000 C 
BRANCH   2   3
ATOM      3  C   UNL     1      24.850   3.579   6.978  1.00  0.00     0.000 C 
BRANCH   3   4
ATOM      4  C   UNL     1      25.904   4.655   6.672  1.00  0.00     0.000 C 
BRANCH   4   5
ATOM      5  C   UNL     1      25.357   6.085   6.804  1.00  0.00     0.000 C 
BRANCH   5   6
ATOM      6  C   UNL     1      26.347   7.039   7.495  1.00  0.00     0.000 C 
BRANCH   6   7
ATOM      7  C   UNL     1      25.717   7.874   8.630  1.00  0.00     0.000 C 
BRANCH   7   8
ATOM      8  C   UNL     1      24.383   7.282   9.124  1.00  0.00     0.000 C 
BRANCH   8   9
ATOM      9  C   UNL     1      23.235   8.302   9.085  1.00  0.00     0.000 C 
BRANCH   9  10
ATOM     10  C   UNL     1      21.875   7.652   8.771  1.00  0.00     0.000 C 
BRANCH  10  11
ATOM     11  C   UNL     1      21.958   6.122   8.655  1.00  0.00     0.000 C 
BRANCH  11  12
ATOM     12  C   UNL     1      21.785   5.563   7.229  1.00  0.00     0.006 C 
BRANCH  12  13
ATOM     13  C   UNL     1      21.029   6.504   6.271  1.00  0.00     0.053 C 
BRANCH  13  14
ATOM     14  C   UNL     1      19.590   6.119   6.096  1.00  0.00     0.041 C 
ATOM     15  O   UNL     1      18.900   5.773   7.091  1.00  0.00    -0.550 OA
ATOM     16  O   UNL     1      19.021   6.107   4.829  1.00  0.00    -0.550 OA
ENDBRANCH  13  14
ENDBRANCH  12  13
ENDBRANCH  11  12
ENDBRANCH  10  11
ENDBRANCH   9  10
ENDBRANCH   8   9
ENDBRANCH   7   8
ENDBRANCH   6   7
ENDBRANCH   5   6
ENDBRANCH   4   5
ENDBRANCH   3   4
ENDBRANCH   2   3
ENDBRANCH   1   2
BRANCH   1  17
ATOM     17  C   UNL     1      25.372   4.115  10.570  1.00  0.00     0.000 C 
BRANCH  17  18
ATOM     18  C   UNL     1      26.783   4.485  10.066  1.00  0.00     0.000 C 
BRANCH  18  19
ATOM     19  C   UNL     1      27.943   3.873  10.872  1.00  0.00     0.000 C 
BRANCH  19  20
ATOM     20  C   UNL     1      28.889   3.027  10.008  1.00  0.00     0.000 C 
BRANCH  20  21
ATOM     21  C   UNL     1      28.769   3.418   8.527  1.00  0.00     0.000 C 
BRANCH  21  22
ATOM     22  C   UNL     1      28.563   2.196   7.616  1.00  0.00    -0.000 C 
BRANCH  22  23
ATOM     23  C   UNL     1      28.182   0.938   8.413  1.00  0.00    -0.000 C 
BRANCH  23  24
ATOM     24  C   UNL     1      28.892  -0.325   7.893  1.00  0.00    -0.000 C 
BRANCH  24  25
ATOM     25  C   UNL     1      27.937  -1.506   7.610  1.00  0.00    -0.000 C 
BRANCH  25  26
ATOM     26  C   UNL     1      27.385  -1.524   6.171  1.00  0.00    -0.000 C 
BRANCH  26  27
ATOM     27  C   UNL     1      25.927  -1.057   6.036  1.00  0.00    -0.000 C 
BRANCH  27  28
ATOM     28  C   UNL     1      25.812   0.391   5.536  1.00  0.00    -0.000 C 
BRANCH  28  29
ATOM     29  C   UNL     1      26.965   0.736   4.586  1.00  0.00    -0.003 C 
ATOM     30  C   UNL     1      26.564   0.511   3.130  1.00  0.00     0.004 C 
ENDBRANCH  28  29
ENDBRANCH  27  28
ENDBRANCH  26  27
ENDBRANCH  25  26
ENDBRANCH  24  25
ENDBRANCH  23  24
ENDBRANCH  22  23
ENDBRANCH  21  22
ENDBRANCH  20  21
ENDBRANCH  19  20
ENDBRANCH  18  19
ENDBRANCH  17  18
ENDBRANCH   1  17
TORSDOF 26
ENDMDL
MODEL 2
REMARK VINA RESULT:    -4.028      1.530      5.371
REMARK INTER + INTRA:         -15.202
REMARK INTER:                  -9.983
REMARK INTRA:                  -5.219
REMARK UNBOUND:                -5.052
REMARK SMILES CCCCCCCCCCCCCCCCCCCCCCCCCCCC(=O)[O-]
REMARK SMILES IDX 15 1 16 2 17 3 18 4 19 5 20 6 21 7 22 8 23 9 24 10 25 11
REMARK SMILES IDX 26 12 27 13 28 14 29 15 30 16 14 17 13 18 12 19 11 20 10 21
REMARK SMILES IDX 9 22 8 23 7 24 6 25 5 26 4 27 3 28 2 29 1 30
REMARK H PARENT
REMARK Flexibility Score: inf
ROOT
ATOM      1  C   UNL     1      26.521  -1.096   6.992  1.00  0.00     0.000 C 
ENDROOT
BRANCH   1   2
ATOM      2  C   UNL     1      26.512  -0.994   5.455  1.00  0.00     0.000 C 
BRANCH   2   3
ATOM      3  C   UNL     1      26.309   0.447   4.957  1.00  0.00     0.000 C 
BRANCH   3   4
ATOM      4  C   UNL     1      27.526   1.347   5.221  1.00  0.00     0.000 C 
BRANCH   4   5
ATOM      5  C   UNL     1      27.225   2.493   6.199  1.00  0.00     0.000 C 
BRANCH   5   6
ATOM      6  C   UNL     1      25.731   2.592   6.557  1.00  0.00     0.000 C 
BRANCH   6   7
ATOM      7  C   UNL     1      25.432   2.341   8.051  1.00  0.00     0.000 C 
BRANCH   7   8
ATOM      8  C   UNL     1      23.923   2.211   8.333  1.00  0.00     0.000 C 
BRANCH   8   9
ATOM      9  C   UNL     1      23.195   1.367   7.275  1.00  0.00     0.000 C 
BRANCH   9  10
ATOM     10  C   UNL     1      21.811   1.935   6.914  1.00  0.00     0.000 C 
BRANCH  10  11
ATOM     11  C   UNL     1      21.808   3.467   6.791  1.00  0.00     0.000 C 
BRANCH  11  12
ATOM     12  C   UNL     1      20.559   4.168   7.361  1.00  0.00     0.006 C 
BRANCH  12  13
ATOM     13  C   UNL     1      19.789   5.018   6.332  1.00  0.00     0.053 C 
BRANCH  13  14
ATOM     14  C   UNL     1      19.960   6.492   6.555  1.00  0.00     0.041 C 
ATOM     15  O   UNL     1      19.011   7.177   7.020  1.00  0.00    -0.550 OA
ATOM     16  O   UNL     1      21.155   7.114   6.216  1.00  0.00    -0.550 OA
ENDBRANCH  13  14
ENDBRANCH  12  13
ENDBRANCH  11  12
ENDBRANCH  10  11
ENDBRANCH   9  10
ENDBRANCH   8   9
ENDBRANCH   7   8
ENDBRANCH   6   7
ENDBRANCH   5   6
ENDBRANCH   4   5
ENDBRANCH   3   4
ENDBRANCH   2   3
ENDBRANCH   1   2
BRANCH   1  17
ATOM     17  C   UNL     1      27.839  -1.615   7.603  1.00  0.00     0.000 C 
BRANCH  17  18
ATOM     18  C   UNL     1      28.309  -0.886   8.880  1.00  0.00     0.000 C 
BRANCH  18  19
ATOM     19  C   UNL     1      28.809   0.553   8.661  1.00  0.00     0.000 C 
BRANCH  19  20
ATOM     20  C   UNL     1      28.778   1.397   9.944  1.00  0.00     0.000 C 
BRANCH  20  21
ATOM     21  C   UNL     1      28.741   2.896   9.609  1.00  0.00     0.000 C 
BRANCH  21  22
ATOM     22  C   UNL     1      28.170   3.738  10.762  1.00  0.00    -0.000 C 
BRANCH  22  23
ATOM     23  C   UNL     1      27.198   4.819  10.262  1.00  0.00    -0.000 C 
BRANCH  23  24
ATOM     24  C   UNL     1      27.465   5.218   8.799  1.00  0.00    -0.000 C 
BRANCH  24  25
ATOM     25  C   UNL     1      26.625   6.422   8.317  1.00  0.00    -0.000 C 
BRANCH  25  26
ATOM     26  C   UNL     1      25.795   6.130   7.052  1.00  0.00    -0.000 C 
BRANCH  26  27
ATOM     27  C   UNL     1      24.282   5.996   7.292  1.00  0.00    -0.000 C 
BRANCH  27  28
ATOM     28  C   UNL     1      23.819   6.713   8.568  1.00  0.00    -0.000 C 
BRANCH  28  29
ATOM     29  C   UNL     1      23.537   5.708   9.691  1.00  0.00    -0.003 C 
ATOM     30  C   UNL     1      23.940   6.275  11.051  1.00  0.00     0.004 C 
ENDBRANCH  28  29
ENDBRANCH  27  28
ENDBRANCH  26  27
ENDBRANCH  25  26
ENDBRANCH  24  25
ENDBRANCH  23  24
ENDBRANCH  22  23
ENDBRANCH  21  22
ENDBRANCH  20  21
ENDBRANCH  19  20
ENDBRANCH  18  19
ENDBRANCH  17  18
ENDBRANCH   1  17
TORSDOF 26
ENDMDL
MODEL 3
REMARK VINA RESULT:    -3.981      2.216      6.702
REMARK INTER + INTRA:         -15.085
REMARK INTER:                  -9.981
REMARK INTRA:                  -5.103
REMARK UNBOUND:                -5.052
REMARK SMILES CCCCCCCCCCCCCCCCCCCCCCCCCCCC(=O)[O-]
REMARK SMILES IDX 15 1 16 2 17 3 18 4 19 5 20 6 21 7 22 8 23 9 24 10 25 11
REMARK SMILES IDX 26 12 27 13 28 14 29 15 30 16 14 17 13 18 12 19 11 20 10 21
REMARK SMILES IDX 9 22 8 23 7 24 6 25 5 26 4 27 3 28 2 29 1 30
REMARK H PARENT
REMARK Flexibility Score: inf
ROOT
ATOM      1  C   UNL     1      28.563   3.371   9.561  1.00  0.00     0.000 C 
ENDROOT
BRANCH   1   2
ATOM      2  C   UNL     1      28.655   1.837   9.480  1.00  0.00     0.000 C 
BRANCH   2   3
ATOM      3  C   UNL     1      28.530   1.309   8.040  1.00  0.00     0.000 C 
BRANCH   3   4
ATOM      4  C   UNL     1      28.235   2.421   7.021  1.00  0.00     0.000 C 
BRANCH   4   5
ATOM      5  C   UNL     1      26.908   2.214   6.274  1.00  0.00     0.000 C 
BRANCH   5   6
ATOM      6  C   UNL     1      25.715   2.877   6.985  1.00  0.00     0.000 C 
BRANCH   6   7
ATOM      7  C   UNL     1      24.942   1.926   7.923  1.00  0.00     0.000 C 
BRANCH   7   8
ATOM      8  C   UNL     1      23.917   2.669   8.800  1.00  0.00     0.000 C 
BRANCH   8   9
ATOM      9  C   UNL     1      23.760   4.145   8.401  1.00  0.00     0.000 C 
BRANCH   9  10
ATOM     10  C   UNL     1      22.310   4.508   8.032  1.00  0.00     0.000 C 
BRANCH  10  11
ATOM     11  C   UNL     1      22.182   5.088   6.613  1.00  0.00     0.000 C 
BRANCH  11  12
ATOM     12  C   UNL     1      21.283   4.283   5.655  1.00  0.00     0.006 C 
BRANCH  12  13
ATOM     13  C   UNL     1      21.287   2.764   5.914  1.00  0.00     0.053 C 
BRANCH  13  14
ATOM     14  C   UNL     1      22.086   2.005   4.897  1.00  0.00     0.041 C 
ATOM     15  O   UNL     1      22.038   2.330   3.681  1.00  0.00    -0.550 OA
ATOM     16  O   UNL     1      22.855   0.915   5.286  1.00  0.00    -0.550 OA
ENDBRANCH  13  14
ENDBRANCH  12  13
ENDBRANCH  11  12
ENDBRANCH  10  11
ENDBRANCH   9  10
ENDBRANCH   8   9
ENDBRANCH   7   8
ENDBRANCH   6   7
ENDBRANCH   5   6
ENDBRANCH   4   5
ENDBRANCH   3   4
ENDBRANCH   2   3
ENDBRANCH   1   2
BRANCH   1  17
ATOM     17  C   UNL     1      27.356   3.912  10.355  1.00  0.00     0.000 C 
BRANCH  17  18
ATOM     18  C   UNL     1      26.805   5.272   9.879  1.00  0.00     0.000 C 
BRANCH  18  19
ATOM     19  C   UNL     1      27.316   5.734   8.501  1.00  0.00     0.000 C 
BRANCH  19  20
ATOM     20  C   UNL     1      26.323   6.651   7.774  1.00  0.00     0.000 C 
BRANCH  20  21
ATOM     21  C   UNL     1      26.535   8.117   8.184  1.00  0.00     0.000 C 
BRANCH  21  22
ATOM     22  C   UNL     1      25.327   8.692   8.943  1.00  0.00    -0.000 C 
BRANCH  22  23
ATOM     23  C   UNL     1      24.109   7.756   8.884  1.00  0.00    -0.000 C 
BRANCH  23  24
ATOM     24  C   UNL     1      23.373   7.662  10.233  1.00  0.00    -0.000 C 
BRANCH  24  25
ATOM     25  C   UNL     1      21.837   7.554  10.100  1.00  0.00    -0.000 C 
BRANCH  25  26
ATOM     26  C   UNL     1      21.230   8.560   9.103  1.00  0.00    -0.000 C 
BRANCH  26  27
ATOM     27  C   UNL     1      19.694   8.635   9.121  1.00  0.00    -0.000 C 
BRANCH  27  28
ATOM     28  C   UNL     1      19.085   8.637   7.711  1.00  0.00    -0.000 C 
BRANCH  28  29
ATOM     29  C   UNL     1      19.351   7.307   6.996  1.00  0.00    -0.003 C 
ATOM     30  C   UNL     1      18.723   6.139   7.753  1.00  0.00     0.004 C 
ENDBRANCH  28  29
ENDBRANCH  27  28
ENDBRANCH  26  27
ENDBRANCH  25  26
ENDBRANCH  24  25
ENDBRANCH  23  24
ENDBRANCH  22  23
ENDBRANCH  21  22
ENDBRANCH  20  21
ENDBRANCH  19  20
ENDBRANCH  18  19
ENDBRANCH  17  18
ENDBRANCH   1  17
TORSDOF 26
ENDMDL
MODEL 4
REMARK VINA RESULT:    -3.975      1.286      2.083
REMARK INTER + INTRA:         -15.068
REMARK INTER:                 -10.982
REMARK INTRA:                  -4.086
REMARK UNBOUND:                -5.052
REMARK SMILES CCCCCCCCCCCCCCCCCCCCCCCCCCCC(=O)[O-]
REMARK SMILES IDX 15 1 16 2 17 3 18 4 19 5 20 6 21 7 22 8 23 9 24 10 25 11
REMARK SMILES IDX 26 12 27 13 28 14 29 15 30 16 14 17 13 18 12 19 11 20 10 21
REMARK SMILES IDX 9 22 8 23 7 24 6 25 5 26 4 27 3 28 2 29 1 30
REMARK H PARENT
REMARK Flexibility Score: inf
ROOT
ATOM      1  C   UNL     1      24.852   4.173   8.427  1.00  0.00     0.000 C 
ENDROOT
BRANCH   1   2
ATOM      2  C   UNL     1      25.751   4.806   7.349  1.00  0.00     0.000 C 
BRANCH   2   3
ATOM      3  C   UNL     1      25.319   6.237   6.982  1.00  0.00     0.000 C 
BRANCH   3   4
ATOM      4  C   UNL     1      26.151   7.313   7.698  1.00  0.00     0.000 C 
BRANCH   4   5
ATOM      5  C   UNL     1      25.292   8.293   8.511  1.00  0.00     0.000 C 
BRANCH   5   6
ATOM      6  C   UNL     1      24.859   7.719   9.872  1.00  0.00     0.000 C 
BRANCH   6   7
ATOM      7  C   UNL     1      23.352   7.396   9.960  1.00  0.00     0.000 C 
BRANCH   7   8
ATOM      8  C   UNL     1      22.543   8.054   8.826  1.00  0.00     0.000 C 
BRANCH   8   9
ATOM      9  C   UNL     1      21.701   7.039   8.037  1.00  0.00     0.000 C 
BRANCH   9  10
ATOM     10  C   UNL     1      20.775   7.711   7.007  1.00  0.00     0.000 C 
BRANCH  10  11
ATOM     11  C   UNL     1      19.482   6.917   6.760  1.00  0.00     0.000 C 
BRANCH  11  12
ATOM     12  C   UNL     1      19.465   6.080   5.466  1.00  0.00     0.006 C 
BRANCH  12  13
ATOM     13  C   UNL     1      20.814   5.417   5.126  1.00  0.00     0.053 C 
BRANCH  13  14
ATOM     14  C   UNL     1      21.040   4.143   5.886  1.00  0.00     0.041 C 
ATOM     15  O   UNL     1      22.210   3.771   6.167  1.00  0.00    -0.550 OA
ATOM     16  O   UNL     1      19.961   3.348   6.250  1.00  0.00    -0.550 OA
ENDBRANCH  13  14
ENDBRANCH  12  13
ENDBRANCH  11  12
ENDBRANCH  10  11
ENDBRANCH   9  10
ENDBRANCH   8   9
ENDBRANCH   7   8
ENDBRANCH   6   7
ENDBRANCH   5   6
ENDBRANCH   4   5
ENDBRANCH   3   4
ENDBRANCH   2   3
ENDBRANCH   1   2
BRANCH   1  17
ATOM     17  C   UNL     1      25.541   3.918   9.783  1.00  0.00     0.000 C 
BRANCH  17  18
ATOM     18  C   UNL     1      26.839   4.716  10.028  1.00  0.00     0.000 C 
BRANCH  18  19
ATOM     19  C   UNL     1      27.927   3.962  10.814  1.00  0.00     0.000 C 
BRANCH  19  20
ATOM     20  C   UNL     1      28.648   2.903   9.968  1.00  0.00     0.000 C 
BRANCH  20  21
ATOM     21  C   UNL     1      28.813   3.384   8.518  1.00  0.00     0.000 C 
BRANCH  21  22
ATOM     22  C   UNL     1      28.528   2.269   7.498  1.00  0.00    -0.000 C 
BRANCH  22  23
ATOM     23  C   UNL     1      28.212   0.928   8.180  1.00  0.00    -0.000 C 
BRANCH  23  24
ATOM     24  C   UNL     1      28.984  -0.247   7.551  1.00  0.00    -0.000 C 
BRANCH  24  25
ATOM     25  C   UNL     1      28.085  -1.437   7.146  1.00  0.00    -0.000 C 
BRANCH  25  26
ATOM     26  C   UNL     1      26.694  -1.016   6.636  1.00  0.00    -0.000 C 
BRANCH  26  27
ATOM     27  C   UNL     1      26.607  -0.792   5.117  1.00  0.00    -0.000 C 
BRANCH  27  28
ATOM     28  C   UNL     1      26.740   0.687   4.727  1.00  0.00    -0.000 C 
BRANCH  28  29
ATOM     29  C   UNL     1      25.628   1.525   5.367  1.00  0.00    -0.003 C 
ATOM     30  C   UNL     1      24.265   1.176   4.774  1.00  0.00     0.004 C 
ENDBRANCH  28  29
ENDBRANCH  27  28
ENDBRANCH  26  27
ENDBRANCH  25  26
ENDBRANCH  24  25
ENDBRANCH  23  24
ENDBRANCH  22  23
ENDBRANCH  21  22
ENDBRANCH  20  21
ENDBRANCH  19  20
ENDBRANCH  18  19
ENDBRANCH  17  18
ENDBRANCH   1  17
TORSDOF 26
ENDMDL
MODEL 5
REMARK VINA RESULT:    -3.947      2.962      7.487
REMARK INTER + INTRA:         -14.999
REMARK INTER:                 -10.204
REMARK INTRA:                  -4.795
REMARK UNBOUND:                -5.052
REMARK SMILES CCCCCCCCCCCCCCCCCCCCCCCCCCCC(=O)[O-]
REMARK SMILES IDX 15 1 16 2 17 3 18 4 19 5 20 6 21 7 22 8 23 9 24 10 25 11
REMARK SMILES IDX 26 12 27 13 28 14 29 15 30 16 14 17 13 18 12 19 11 20 10 21
REMARK SMILES IDX 9 22 8 23 7 24 6 25 5 26 4 27 3 28 2 29 1 30
REMARK H PARENT
REMARK Flexibility Score: inf
ROOT
ATOM      1  C   UNL     1      25.949   2.414   8.292  1.00  0.00     0.000 C 
ENDROOT
BRANCH   1   2
ATOM      2  C   UNL     1      26.955   2.811   7.196  1.00  0.00     0.000 C 
BRANCH   2   3
ATOM      3  C   UNL     1      28.384   2.327   7.498  1.00  0.00     0.000 C 
BRANCH   3   4
ATOM      4  C   UNL     1      28.447   1.361   8.692  1.00  0.00     0.000 C 
BRANCH   4   5
ATOM      5  C   UNL     1      28.944  -0.040   8.306  1.00  0.00     0.000 C 
BRANCH   5   6
ATOM      6  C   UNL     1      28.175  -1.163   9.024  1.00  0.00     0.000 C 
BRANCH   6   7
ATOM      7  C   UNL     1      28.560  -2.581   8.551  1.00  0.00     0.000 C 
BRANCH   7   8
ATOM      8  C   UNL     1      27.364  -3.347   7.955  1.00  0.00     0.000 C 
BRANCH   8   9
ATOM      9  C   UNL     1      26.943  -2.805   6.580  1.00  0.00     0.000 C 
BRANCH   9  10
ATOM     10  C   UNL     1      25.602  -2.049   6.626  1.00  0.00     0.000 C 
BRANCH  10  11
ATOM     11  C   UNL     1      25.710  -0.611   6.093  1.00  0.00     0.000 C 
BRANCH  11  12
ATOM     12  C   UNL     1      26.962  -0.320   5.242  1.00  0.00     0.006 C 
BRANCH  12  13
ATOM     13  C   UNL     1      26.733   0.709   4.118  1.00  0.00     0.053 C 
BRANCH  13  14
ATOM     14  C   UNL     1      26.505   0.066   2.782  1.00  0.00     0.041 C 
ATOM     15  O   UNL     1      25.847   0.667   1.892  1.00  0.00    -0.550 OA
ATOM     16  O   UNL     1      26.986  -1.213   2.533  1.00  0.00    -0.550 OA
ENDBRANCH  13  14
ENDBRANCH  12  13
ENDBRANCH  11  12
ENDBRANCH  10  11
ENDBRANCH   9  10
ENDBRANCH   8   9
ENDBRANCH   7   8
ENDBRANCH   6   7
ENDBRANCH   5   6
ENDBRANCH   4   5
ENDBRANCH   3   4
ENDBRANCH   2   3
ENDBRANCH   1   2
BRANCH   1  17
ATOM     17  C   UNL     1      25.394   3.589   9.124  1.00  0.00     0.000 C 
BRANCH  17  18
ATOM     18  C   UNL     1      26.301   4.073  10.275  1.00  0.00     0.000 C 
BRANCH  18  19
ATOM     19  C   UNL     1      26.857   5.499  10.108  1.00  0.00     0.000 C 
BRANCH  19  20
ATOM     20  C   UNL     1      26.690   6.042   8.682  1.00  0.00     0.000 C 
BRANCH  20  21
ATOM     21  C   UNL     1      26.460   7.561   8.700  1.00  0.00     0.000 C 
BRANCH  21  22
ATOM     22  C   UNL     1      24.980   7.925   8.910  1.00  0.00    -0.000 C 
BRANCH  22  23
ATOM     23  C   UNL     1      24.035   6.869   8.314  1.00  0.00    -0.000 C 
BRANCH  23  24
ATOM     24  C   UNL     1      22.878   6.513   9.265  1.00  0.00    -0.000 C 
BRANCH  24  25
ATOM     25  C   UNL     1      22.100   5.244   8.852  1.00  0.00    -0.000 C 
BRANCH  25  26
ATOM     26  C   UNL     1      21.683   5.229   7.368  1.00  0.00    -0.000 C 
BRANCH  26  27
ATOM     27  C   UNL     1      22.146   3.990   6.583  1.00  0.00    -0.000 C 
BRANCH  27  28
ATOM     28  C   UNL     1      22.296   2.747   7.472  1.00  0.00    -0.000 C 
BRANCH  28  29
ATOM     29  C   UNL     1      22.697   1.523   6.641  1.00  0.00    -0.003 C 
ATOM     30  C   UNL     1      23.294   1.941   5.299  1.00  0.00     0.004 C 
ENDBRANCH  28  29
ENDBRANCH  27  28
ENDBRANCH  26  27
ENDBRANCH  25  26
ENDBRANCH  24  25
ENDBRANCH  23  24
ENDBRANCH  22  23
ENDBRANCH  21  22
ENDBRANCH  20  21
ENDBRANCH  19  20
ENDBRANCH  18  19
ENDBRANCH  17  18
ENDBRANCH   1  17
TORSDOF 26
ENDMDL
MODEL 6
REMARK VINA RESULT:    -3.913      1.492      3.157
REMARK INTER + INTRA:         -14.913
REMARK INTER:                  -9.907
REMARK INTRA:                  -5.007
REMARK UNBOUND:                -5.052
REMARK SMILES CCCCCCCCCCCCCCCCCCCCCCCCCCCC(=O)[O-]
REMARK SMILES IDX 15 1 16 2 17 3 18 4 19 5 20 6 21 7 22 8 23 9 24 10 25 11
REMARK SMILES IDX 26 12 27 13 28 14 29 15 30 16 14 17 13 18 12 19 11 20 10 21
REMARK SMILES IDX 9 22 8 23 7 24 6 25 5 26 4 27 3 28 2 29 1 30
REMARK H PARENT
REMARK Flexibility Score: inf
ROOT
ATOM      1  C   UNL     1      25.438   2.600   6.207  1.00  0.00     0.000 C 
ENDROOT
BRANCH   1   2
ATOM      2  C   UNL     1      24.605   2.181   7.432  1.00  0.00     0.000 C 
BRANCH   2   3
ATOM      3  C   UNL     1      25.364   2.364   8.758  1.00  0.00     0.000 C 
BRANCH   3   4
ATOM      4  C   UNL     1      24.651   3.322   9.727  1.00  0.00     0.000 C 
BRANCH   4   5
ATOM      5  C   UNL     1      25.579   4.411  10.285  1.00  0.00     0.000 C 
BRANCH   5   6
ATOM      6  C   UNL     1      27.015   4.306   9.740  1.00  0.00     0.000 C 
BRANCH   6   7
ATOM      7  C   UNL     1      27.282   5.207   8.515  1.00  0.00     0.000 C 
BRANCH   7   8
ATOM      8  C   UNL     1      26.835   6.663   8.748  1.00  0.00     0.000 C 
BRANCH   8   9
ATOM      9  C   UNL     1      25.907   7.179   7.637  1.00  0.00     0.000 C 
BRANCH   9  10
ATOM     10  C   UNL     1      25.037   6.065   7.026  1.00  0.00     0.000 C 
BRANCH  10  11
ATOM     11  C   UNL     1      23.591   6.084   7.548  1.00  0.00     0.000 C 
BRANCH  11  12
ATOM     12  C   UNL     1      22.589   5.247   6.729  1.00  0.00     0.006 C 
BRANCH  12  13
ATOM     13  C   UNL     1      21.635   6.085   5.856  1.00  0.00     0.053 C 
BRANCH  13  14
ATOM     14  C   UNL     1      20.199   5.943   6.268  1.00  0.00     0.041 C 
ATOM     15  O   UNL     1      19.284   6.444   5.562  1.00  0.00    -0.550 OA
ATOM     16  O   UNL     1      19.874   5.290   7.450  1.00  0.00    -0.550 OA
ENDBRANCH  13  14
ENDBRANCH  12  13
ENDBRANCH  11  12
ENDBRANCH  10  11
ENDBRANCH   9  10
ENDBRANCH   8   9
ENDBRANCH   7   8
ENDBRANCH   6   7
ENDBRANCH   5   6
ENDBRANCH   4   5
ENDBRANCH   3   4
ENDBRANCH   2   3
ENDBRANCH   1   2
BRANCH   1  17
ATOM     17  C   UNL     1      26.652   1.699   5.905  1.00  0.00     0.000 C 
BRANCH  17  18
ATOM     18  C   UNL     1      28.033   2.347   6.138  1.00  0.00     0.000 C 
BRANCH  18  19
ATOM     19  C   UNL     1      28.766   1.877   7.408  1.00  0.00     0.000 C 
BRANCH  19  20
ATOM     20  C   UNL     1      28.673   0.360   7.623  1.00  0.00     0.000 C 
BRANCH  20  21
ATOM     21  C   UNL     1      28.819   0.010   9.112  1.00  0.00     0.000 C 
BRANCH  21  22
ATOM     22  C   UNL     1      28.154  -1.331   9.465  1.00  0.00    -0.000 C 
BRANCH  22  23
ATOM     23  C   UNL     1      28.594  -2.460   8.520  1.00  0.00    -0.000 C 
BRANCH  23  24
ATOM     24  C   UNL     1      27.398  -3.182   7.871  1.00  0.00    -0.000 C 
BRANCH  24  25
ATOM     25  C   UNL     1      27.382  -3.099   6.328  1.00  0.00    -0.000 C 
BRANCH  25  26
ATOM     26  C   UNL     1      26.418  -2.032   5.776  1.00  0.00    -0.000 C 
BRANCH  26  27
ATOM     27  C   UNL     1      25.439  -1.453   6.811  1.00  0.00    -0.000 C 
BRANCH  27  28
ATOM     28  C   UNL     1      23.973  -1.563   6.366  1.00  0.00    -0.000 C 
BRANCH  28  29
ATOM     29  C   UNL     1      23.714  -0.713   5.116  1.00  0.00    -0.003 C 
ATOM     30  C   UNL     1      22.448   0.126   5.273  1.00  0.00     0.004 C 
ENDBRANCH  28  29
ENDBRANCH  27  28
ENDBRANCH  26  27
ENDBRANCH  25  26
ENDBRANCH  24  25
ENDBRANCH  23  24
ENDBRANCH  22  23
ENDBRANCH  21  22
ENDBRANCH  20  21
ENDBRANCH  19  20
ENDBRANCH  18  19
ENDBRANCH  17  18
ENDBRANCH   1  17
TORSDOF 26
ENDMDL
MODEL 7
REMARK VINA RESULT:    -3.910      1.923      4.557
REMARK INTER + INTRA:         -14.907
REMARK INTER:                 -10.439
REMARK INTRA:                  -4.468
REMARK UNBOUND:                -5.052
REMARK SMILES CCCCCCCCCCCCCCCCCCCCCCCCCCCC(=O)[O-]
REMARK SMILES IDX 15 1 16 2 17 3 18 4 19 5 20 6 21 7 22 8 23 9 24 10 25 11
REMARK SMILES IDX 26 12 27 13 28 14 29 15 30 16 14 17 13 18 12 19 11 20 10 21
REMARK SMILES IDX 9 22 8 23 7 24 6 25 5 26 4 27 3 28 2 29 1 30
REMARK H PARENT
REMARK Flexibility Score: inf
ROOT
ATOM      1  C   UNL     1      24.934   3.565   6.968  1.00  0.00     0.000 C 
ENDROOT
BRANCH   1   2
ATOM      2  C   UNL     1      24.546   2.375   7.865  1.00  0.00     0.000 C 
BRANCH   2   3
ATOM      3  C   UNL     1      25.130   1.041   7.369  1.00  0.00     0.000 C 
BRANCH   3   4
ATOM      4  C   UNL     1      24.978   0.851   5.851  1.00  0.00     0.000 C 
BRANCH   4   5
ATOM      5  C   UNL     1      23.546   0.485   5.432  1.00  0.00     0.000 C 
BRANCH   5   6
ATOM      6  C   UNL     1      23.057   1.292   4.216  1.00  0.00     0.000 C 
BRANCH   6   7
ATOM      7  C   UNL     1      21.923   2.287   4.544  1.00  0.00     0.000 C 
BRANCH   7   8
ATOM      8  C   UNL     1      21.468   2.195   6.013  1.00  0.00     0.000 C 
BRANCH   8   9
ATOM      9  C   UNL     1      20.173   2.978   6.279  1.00  0.00     0.000 C 
BRANCH   9  10
ATOM     10  C   UNL     1      20.438   4.437   6.696  1.00  0.00     0.000 C 
BRANCH  10  11
ATOM     11  C   UNL     1      19.626   5.450   5.873  1.00  0.00     0.000 C 
BRANCH  11  12
ATOM     12  C   UNL     1      19.475   6.843   6.514  1.00  0.00     0.006 C 
BRANCH  12  13
ATOM     13  C   UNL     1      20.812   7.553   6.801  1.00  0.00     0.053 C 
BRANCH  13  14
ATOM     14  C   UNL     1      21.040   7.787   8.265  1.00  0.00     0.041 C 
ATOM     15  O   UNL     1      21.814   8.704   8.648  1.00  0.00    -0.550 OA
ATOM     16  O   UNL     1      20.427   6.969   9.205  1.00  0.00    -0.550 OA
ENDBRANCH  13  14
ENDBRANCH  12  13
ENDBRANCH  11  12
ENDBRANCH  10  11
ENDBRANCH   9  10
ENDBRANCH   8   9
ENDBRANCH   7   8
ENDBRANCH   6   7
ENDBRANCH   5   6
ENDBRANCH   4   5
ENDBRANCH   3   4
ENDBRANCH   2   3
ENDBRANCH   1   2
BRANCH   1  17
ATOM     17  C   UNL     1      23.984   4.777   7.045  1.00  0.00     0.000 C 
BRANCH  17  18
ATOM     18  C   UNL     1      24.589   6.055   7.663  1.00  0.00     0.000 C 
BRANCH  18  19
ATOM     19  C   UNL     1      26.118   6.029   7.843  1.00  0.00     0.000 C 
BRANCH  19  20
ATOM     20  C   UNL     1      26.557   6.395   9.267  1.00  0.00     0.000 C 
BRANCH  20  21
ATOM     21  C   UNL     1      25.855   5.499  10.300  1.00  0.00     0.000 C 
BRANCH  21  22
ATOM     22  C   UNL     1      26.398   4.060  10.290  1.00  0.00    -0.000 C 
BRANCH  22  23
ATOM     23  C   UNL     1      27.877   3.998  10.703  1.00  0.00    -0.000 C 
BRANCH  23  24
ATOM     24  C   UNL     1      28.716   3.121   9.755  1.00  0.00    -0.000 C 
BRANCH  24  25
ATOM     25  C   UNL     1      28.426   3.369   8.257  1.00  0.00    -0.000 C 
BRANCH  25  26
ATOM     26  C   UNL     1      28.538   2.102   7.387  1.00  0.00    -0.000 C 
BRANCH  26  27
ATOM     27  C   UNL     1      28.717   0.795   8.176  1.00  0.00    -0.000 C 
BRANCH  27  28
ATOM     28  C   UNL     1      28.709  -0.448   7.274  1.00  0.00    -0.000 C 
BRANCH  28  29
ATOM     29  C   UNL     1      28.222  -1.682   8.042  1.00  0.00    -0.003 C 
ATOM     30  C   UNL     1      28.304  -1.458   9.551  1.00  0.00     0.004 C 
ENDBRANCH  28  29
ENDBRANCH  27  28
ENDBRANCH  26  27
ENDBRANCH  25  26
ENDBRANCH  24  25
ENDBRANCH  23  24
ENDBRANCH  22  23
ENDBRANCH  21  22
ENDBRANCH  20  21
ENDBRANCH  19  20
ENDBRANCH  18  19
ENDBRANCH  17  18
ENDBRANCH   1  17
TORSDOF 26
ENDMDL
MODEL 8
REMARK VINA RESULT:    -3.888      1.445      3.790
REMARK INTER + INTRA:         -14.851
REMARK INTER:                 -10.207
REMARK INTRA:                  -4.644
REMARK UNBOUND:                -5.052
REMARK SMILES CCCCCCCCCCCCCCCCCCCCCCCCCCCC(=O)[O-]
REMARK SMILES IDX 15 1 16 2 17 3 18 4 19 5 20 6 21 7 22 8 23 9 24 10 25 11
REMARK SMILES IDX 26 12 27 13 28 14 29 15 30 16 14 17 13 18 12 19 11 20 10 21
REMARK SMILES IDX 9 22 8 23 7 24 6 25 5 26 4 27 3 28 2 29 1 30
REMARK H PARENT
REMARK Flexibility Score: inf
ROOT
ATOM      1  C   UNL     1      28.215   2.334   7.744  1.00  0.00     0.000 C 
ENDROOT
BRANCH   1   2
ATOM      2  C   UNL     1      28.501   3.620   8.539  1.00  0.00     0.000 C 
BRANCH   2   3
ATOM      3  C   UNL     1      27.649   3.731   9.816  1.00  0.00     0.000 C 
BRANCH   3   4
ATOM      4  C   UNL     1      26.838   5.036   9.880  1.00  0.00     0.000 C 
BRANCH   4   5
ATOM      5  C   UNL     1      26.823   5.800   8.548  1.00  0.00     0.000 C 
BRANCH   5   6
ATOM      6  C   UNL     1      26.342   7.254   8.701  1.00  0.00     0.000 C 
BRANCH   6   7
ATOM      7  C   UNL     1      24.806   7.404   8.705  1.00  0.00     0.000 C 
BRANCH   7   8
ATOM      8  C   UNL     1      24.281   8.036  10.007  1.00  0.00     0.000 C 
BRANCH   8   9
ATOM      9  C   UNL     1      23.196   7.182  10.682  1.00  0.00     0.000 C 
BRANCH   9  10
ATOM     10  C   UNL     1      22.923   5.867   9.928  1.00  0.00     0.000 C 
BRANCH  10  11
ATOM     11  C   UNL     1      21.456   5.726   9.489  1.00  0.00     0.000 C 
BRANCH  11  12
ATOM     12  C   UNL     1      20.888   6.925   8.704  1.00  0.00     0.006 C 
BRANCH  12  13
ATOM     13  C   UNL     1      20.535   6.608   7.238  1.00  0.00     0.053 C 
BRANCH  13  14
ATOM     14  C   UNL     1      21.468   5.608   6.621  1.00  0.00     0.041 C 
ATOM     15  O   UNL     1      22.622   5.957   6.256  1.00  0.00    -0.550 OA
ATOM     16  O   UNL     1      21.050   4.299   6.417  1.00  0.00    -0.550 OA
ENDBRANCH  13  14
ENDBRANCH  12  13
ENDBRANCH  11  12
ENDBRANCH  10  11
ENDBRANCH   9  10
ENDBRANCH   8   9
ENDBRANCH   7   8
ENDBRANCH   6   7
ENDBRANCH   5   6
ENDBRANCH   4   5
ENDBRANCH   3   4
ENDBRANCH   2   3
ENDBRANCH   1   2
BRANCH   1  17
ATOM     17  C   UNL     1      27.755   1.131   8.592  1.00  0.00     0.000 C 
BRANCH  17  18
ATOM     18  C   UNL     1      28.793   0.002   8.760  1.00  0.00     0.000 C 
BRANCH  18  19
ATOM     19  C   UNL     1      28.345  -1.166   9.658  1.00  0.00     0.000 C 
BRANCH  19  20
ATOM     20  C   UNL     1      28.359  -2.518   8.931  1.00  0.00     0.000 C 
BRANCH  20  21
ATOM     21  C   UNL     1      28.234  -2.320   7.412  1.00  0.00     0.000 C 
BRANCH  21  22
ATOM     22  C   UNL     1      26.827  -2.661   6.892  1.00  0.00    -0.000 C 
BRANCH  22  23
ATOM     23  C   UNL     1      26.017  -1.400   6.548  1.00  0.00    -0.000 C 
BRANCH  23  24
ATOM     24  C   UNL     1      26.747  -0.490   5.542  1.00  0.00    -0.000 C 
BRANCH  24  25
ATOM     25  C   UNL     1      25.995   0.823   5.230  1.00  0.00    -0.000 C 
BRANCH  25  26
ATOM     26  C   UNL     1      24.619   0.926   5.917  1.00  0.00    -0.000 C 
BRANCH  26  27
ATOM     27  C   UNL     1      24.031   2.346   5.967  1.00  0.00    -0.000 C 
BRANCH  27  28
ATOM     28  C   UNL     1      24.619   3.191   7.107  1.00  0.00    -0.000 C 
BRANCH  28  29
ATOM     29  C   UNL     1      24.410   2.506   8.462  1.00  0.00    -0.003 C 
ATOM     30  C   UNL     1      22.925   2.413   8.808  1.00  0.00     0.004 C 
ENDBRANCH  28  29
ENDBRANCH  27  28
ENDBRANCH  26  27
ENDBRANCH  25  26
ENDBRANCH  24  25
ENDBRANCH  23  24
ENDBRANCH  22  23
ENDBRANCH  21  22
ENDBRANCH  20  21
ENDBRANCH  19  20
ENDBRANCH  18  19
ENDBRANCH  17  18
ENDBRANCH   1  17
TORSDOF 26
ENDMDL
MODEL 9
REMARK VINA RESULT:    -3.869      1.592      2.582
REMARK INTER + INTRA:         -14.803
REMARK INTER:                 -10.004
REMARK INTRA:                  -4.799
REMARK UNBOUND:                -5.052
REMARK SMILES CCCCCCCCCCCCCCCCCCCCCCCCCCCC(=O)[O-]
REMARK SMILES IDX 15 1 16 2 17 3 18 4 19 5 20 6 21 7 22 8 23 9 24 10 25 11
REMARK SMILES IDX 26 12 27 13 28 14 29 15 30 16 14 17 13 18 12 19 11 20 10 21
REMARK SMILES IDX 9 22 8 23 7 24 6 25 5 26 4 27 3 28 2 29 1 30
REMARK H PARENT
REMARK Flexibility Score: inf
ROOT
ATOM      1  C   UNL     1      25.480   4.658  10.524  1.00  0.00     0.000 C 
ENDROOT
BRANCH   1   2
ATOM      2  C   UNL     1      24.916   3.635   9.521  1.00  0.00     0.000 C 
BRANCH   2   3
ATOM      3  C   UNL     1      24.304   4.300   8.276  1.00  0.00     0.000 C 
BRANCH   3   4
ATOM      4  C   UNL     1      25.188   4.153   7.027  1.00  0.00     0.000 C 
BRANCH   4   5
ATOM      5  C   UNL     1      26.067   5.386   6.766  1.00  0.00     0.000 C 
BRANCH   5   6
ATOM      6  C   UNL     1      25.375   6.704   7.160  1.00  0.00     0.000 C 
BRANCH   6   7
ATOM      7  C   UNL     1      26.327   7.741   7.792  1.00  0.00     0.000 C 
BRANCH   7   8
ATOM      8  C   UNL     1      25.624   8.618   8.845  1.00  0.00     0.000 C 
BRANCH   8   9
ATOM      9  C   UNL     1      24.561   7.846   9.642  1.00  0.00     0.000 C 
BRANCH   9  10
ATOM     10  C   UNL     1      23.151   7.985   9.038  1.00  0.00     0.000 C 
BRANCH  10  11
ATOM     11  C   UNL     1      22.143   6.994   9.643  1.00  0.00     0.000 C 
BRANCH  11  12
ATOM     12  C   UNL     1      21.138   6.391   8.642  1.00  0.00     0.006 C 
BRANCH  12  13
ATOM     13  C   UNL     1      21.082   7.122   7.287  1.00  0.00     0.053 C 
BRANCH  13  14
ATOM     14  C   UNL     1      19.693   7.193   6.724  1.00  0.00     0.041 C 
ATOM     15  O   UNL     1      18.873   8.041   7.163  1.00  0.00    -0.550 OA
ATOM     16  O   UNL     1      19.294   6.298   5.740  1.00  0.00    -0.550 OA
ENDBRANCH  13  14
ENDBRANCH  12  13
ENDBRANCH  11  12
ENDBRANCH  10  11
ENDBRANCH   9  10
ENDBRANCH   8   9
ENDBRANCH   7   8
ENDBRANCH   6   7
ENDBRANCH   5   6
ENDBRANCH   4   5
ENDBRANCH   3   4
ENDBRANCH   2   3
ENDBRANCH   1   2
BRANCH   1  17
ATOM     17  C   UNL     1      26.976   4.990  10.347  1.00  0.00     0.000 C 
BRANCH  17  18
ATOM     18  C   UNL     1      27.905   3.775  10.143  1.00  0.00     0.000 C 
BRANCH  18  19
ATOM     19  C   UNL     1      28.692   3.773   8.820  1.00  0.00     0.000 C 
BRANCH  19  20
ATOM     20  C   UNL     1      28.383   2.551   7.944  1.00  0.00     0.000 C 
BRANCH  20  21
ATOM     21  C   UNL     1      27.868   1.384   8.800  1.00  0.00     0.000 C 
BRANCH  21  22
ATOM     22  C   UNL     1      27.657   0.103   7.975  1.00  0.00    -0.000 C 
BRANCH  22  23
ATOM     23  C   UNL     1      28.079   0.285   6.507  1.00  0.00    -0.000 C 
BRANCH  23  24
ATOM     24  C   UNL     1      26.950  -0.074   5.523  1.00  0.00    -0.000 C 
BRANCH  24  25
ATOM     25  C   UNL     1      26.033   1.117   5.165  1.00  0.00    -0.000 C 
BRANCH  25  26
ATOM     26  C   UNL     1      24.539   0.849   5.431  1.00  0.00    -0.000 C 
BRANCH  26  27
ATOM     27  C   UNL     1      24.180   0.620   6.908  1.00  0.00    -0.000 C 
BRANCH  27  28
ATOM     28  C   UNL     1      22.753   1.077   7.250  1.00  0.00    -0.000 C 
BRANCH  28  29
ATOM     29  C   UNL     1      21.991  -0.020   8.002  1.00  0.00    -0.003 C 
ATOM     30  C   UNL     1      22.086  -1.358   7.271  1.00  0.00     0.004 C 
ENDBRANCH  28  29
ENDBRANCH  27  28
ENDBRANCH  26  27
ENDBRANCH  25  26
ENDBRANCH  24  25
ENDBRANCH  23  24
ENDBRANCH  22  23
ENDBRANCH  21  22
ENDBRANCH  20  21
ENDBRANCH  19  20
ENDBRANCH  18  19
ENDBRANCH  17  18
ENDBRANCH   1  17
TORSDOF 26
ENDMDL
