MODEL 1
REMARK VINA RESULT:    -7.844      0.000      0.000
REMARK INTER + INTRA:          -9.498
REMARK INTER:                  -9.449
REMARK INTRA:                  -0.049
REMARK UNBOUND:                -0.049
REMARK SMILES O=c1c(O)c(-c2ccc(O)c(O)c2)oc2cc(O)cc(O)c12
REMARK SMILES IDX 5 1 3 2 2 3 1 4 22 5 20 6 19 7 17 8 16 9 15 10 14 11 6 12
REMARK SMILES IDX 7 13 8 14 9 15 13 16 11 17 10 18 12 20 4 22 21 24 18 26
REMARK H PARENT 10 19 12 21 4 23 21 25 18 27
REMARK Flexibility Score: inf
ROOT
ATOM      1  C   UNL     1      27.398  -3.269  12.965  1.00  0.00     0.180 A 
ATOM      2  C   UNL     1      26.753  -2.710  11.847  1.00  0.00     0.208 A 
ATOM      3  C   UNL     1      26.827  -3.379  10.615  1.00  0.00     0.238 A 
ATOM      4  O   UNL     1      26.202  -2.903   9.631  1.00  0.00    -0.285 OA
ATOM      5  C   UNL     1      27.555  -4.588  10.511  1.00  0.00     0.111 A 
ATOM      6  C   UNL     1      27.729  -5.329   9.304  1.00  0.00     0.134 A 
ATOM      7  C   UNL     1      28.360  -6.578   9.344  1.00  0.00     0.093 A 
ATOM      8  C   UNL     1      28.881  -7.083  10.538  1.00  0.00     0.123 A 
ATOM      9  C   UNL     1      28.768  -6.340  11.711  1.00  0.00     0.094 A 
ATOM     10  C   UNL     1      28.113  -5.107  11.708  1.00  0.00     0.146 A 
ATOM     11  O   UNL     1      28.019  -4.437  12.850  1.00  0.00    -0.452 OA
ENDROOT
BRANCH   1  12
ATOM     12  C   UNL     1      27.387  -2.609  14.291  1.00  0.00     0.025 A 
ATOM     13  C   UNL     1      27.832  -1.283  14.405  1.00  0.00     0.016 A 
ATOM     14  C   UNL     1      27.811  -0.634  15.642  1.00  0.00     0.051 A 
ATOM     15  C   UNL     1      27.333  -1.292  16.779  1.00  0.00     0.157 A 
ATOM     16  C   UNL     1      26.887  -3.264  15.430  1.00  0.00     0.062 A 
ATOM     17  C   UNL     1      26.864  -2.613  16.673  1.00  0.00     0.158 A 
BRANCH  15  18
ATOM     18  O   UNL     1      27.326  -0.620  18.000  1.00  0.00    -0.504 OA
ATOM     19  H   UNL     1      26.873  -1.002  18.823  1.00  0.00     0.293 HD
ENDBRANCH  15  18
BRANCH  17  20
ATOM     20  O   UNL     1      26.372  -3.271  17.799  1.00  0.00    -0.504 OA
ATOM     21  H   UNL     1      26.782  -3.135  18.715  1.00  0.00     0.293 HD
ENDBRANCH  17  20
ENDBRANCH   1  12
BRANCH   2  22
ATOM     22  O   UNL     1      26.020  -1.527  11.977  1.00  0.00    -0.502 OA
ATOM     23  H   UNL     1      25.765  -1.143  12.879  1.00  0.00     0.293 HD
ENDBRANCH   2  22
BRANCH   6  24
ATOM     24  O   UNL     1      27.329  -4.872   8.044  1.00  0.00    -0.507 OA
ATOM     25  H   UNL     1      26.375  -4.676   7.780  1.00  0.00     0.293 HD
ENDBRANCH   6  24
BRANCH   8  26
ATOM     26  O   UNL     1      29.520  -8.321  10.567  1.00  0.00    -0.508 OA
ATOM     27  H   UNL     1      30.394  -8.454  11.063  1.00  0.00     0.293 HD
ENDBRANCH   8  26
TORSDOF 6
ENDMDL
MODEL 2
REMARK VINA RESULT:    -7.203      2.766      8.316
REMARK INTER + INTRA:          -8.726
REMARK INTER:                  -8.622
REMARK INTRA:                  -0.104
REMARK UNBOUND:                -0.049
REMARK SMILES O=c1c(O)c(-c2ccc(O)c(O)c2)oc2cc(O)cc(O)c12
REMARK SMILES IDX 5 1 3 2 2 3 1 4 22 5 20 6 19 7 17 8 16 9 15 10 14 11 6 12
REMARK SMILES IDX 7 13 8 14 9 15 13 16 11 17 10 18 12 20 4 22 21 24 18 26
REMARK H PARENT 10 19 12 21 4 23 21 25 18 27
REMARK Flexibility Score: inf
ROOT
ATOM      1  C   UNL     1      26.881  -2.321  16.900  1.00  0.00     0.180 A 
ATOM      2  C   UNL     1      27.875  -1.797  17.746  1.00  0.00     0.208 A 
ATOM      3  C   UNL     1      27.595  -1.653  19.114  1.00  0.00     0.238 A 
ATOM      4  O   UNL     1      28.507  -1.235  19.875  1.00  0.00    -0.285 OA
ATOM      5  C   UNL     1      26.324  -2.018  19.617  1.00  0.00     0.111 A 
ATOM      6  C   UNL     1      25.919  -1.877  20.978  1.00  0.00     0.134 A 
ATOM      7  C   UNL     1      24.683  -2.391  21.389  1.00  0.00     0.093 A 
ATOM      8  C   UNL     1      23.811  -2.984  20.473  1.00  0.00     0.123 A 
ATOM      9  C   UNL     1      24.172  -3.073  19.131  1.00  0.00     0.094 A 
ATOM     10  C   UNL     1      25.413  -2.601  18.698  1.00  0.00     0.146 A 
ATOM     11  O   UNL     1      25.722  -2.715  17.412  1.00  0.00    -0.452 OA
ENDROOT
BRANCH   1  12
ATOM     12  C   UNL     1      27.092  -2.479  15.442  1.00  0.00     0.025 A 
ATOM     13  C   UNL     1      27.399  -1.352  14.663  1.00  0.00     0.016 A 
ATOM     14  C   UNL     1      27.622  -1.481  13.291  1.00  0.00     0.051 A 
ATOM     15  C   UNL     1      27.558  -2.735  12.677  1.00  0.00     0.157 A 
ATOM     16  C   UNL     1      27.048  -3.744  14.829  1.00  0.00     0.062 A 
ATOM     17  C   UNL     1      27.273  -3.874  13.450  1.00  0.00     0.158 A 
BRANCH  15  18
ATOM     18  O   UNL     1      27.783  -2.833  11.305  1.00  0.00    -0.504 OA
ATOM     19  H   UNL     1      28.675  -2.597  10.887  1.00  0.00     0.293 HD
ENDBRANCH  15  18
BRANCH  17  20
ATOM     20  O   UNL     1      27.221  -5.131  12.848  1.00  0.00    -0.504 OA
ATOM     21  H   UNL     1      27.065  -5.973  13.389  1.00  0.00     0.293 HD
ENDBRANCH  17  20
ENDBRANCH   1  12
BRANCH   2  22
ATOM     22  O   UNL     1      29.131  -1.464  17.232  1.00  0.00    -0.502 OA
ATOM     23  H   UNL     1      29.822  -2.164  16.989  1.00  0.00     0.293 HD
ENDBRANCH   2  22
BRANCH   6  24
ATOM     24  O   UNL     1      26.676  -1.220  21.953  1.00  0.00    -0.507 OA
ATOM     25  H   UNL     1      26.890  -0.234  21.947  1.00  0.00     0.293 HD
ENDBRANCH   6  24
BRANCH   8  26
ATOM     26  O   UNL     1      22.576  -3.480  20.887  1.00  0.00    -0.508 OA
ATOM     27  H   UNL     1      22.314  -3.500  21.866  1.00  0.00     0.293 HD
ENDBRANCH   8  26
TORSDOF 6
ENDMDL
MODEL 3
REMARK VINA RESULT:    -7.136      1.500      6.886
REMARK INTER + INTRA:          -8.645
REMARK INTER:                  -8.534
REMARK INTRA:                  -0.112
REMARK UNBOUND:                -0.049
REMARK SMILES O=c1c(O)c(-c2ccc(O)c(O)c2)oc2cc(O)cc(O)c12
REMARK SMILES IDX 5 1 3 2 2 3 1 4 22 5 20 6 19 7 17 8 16 9 15 10 14 11 6 12
REMARK SMILES IDX 7 13 8 14 9 15 13 16 11 17 10 18 12 20 4 22 21 24 18 26
REMARK H PARENT 10 19 12 21 4 23 21 25 18 27
REMARK Flexibility Score: inf
ROOT
ATOM      1  C   UNL     1      27.674  -2.755  12.562  1.00  0.00     0.180 A 
ATOM      2  C   UNL     1      28.057  -1.402  12.608  1.00  0.00     0.208 A 
ATOM      3  C   UNL     1      28.002  -0.721  13.834  1.00  0.00     0.238 A 
ATOM      4  O   UNL     1      28.398   0.473  13.880  1.00  0.00    -0.285 OA
ATOM      5  C   UNL     1      27.550  -1.394  14.995  1.00  0.00     0.111 A 
ATOM      6  C   UNL     1      27.416  -0.790  16.281  1.00  0.00     0.134 A 
ATOM      7  C   UNL     1      27.084  -1.584  17.386  1.00  0.00     0.093 A 
ATOM      8  C   UNL     1      26.818  -2.948  17.238  1.00  0.00     0.123 A 
ATOM      9  C   UNL     1      26.888  -3.534  15.977  1.00  0.00     0.094 A 
ATOM     10  C   UNL     1      27.252  -2.775  14.862  1.00  0.00     0.146 A 
ATOM     11  O   UNL     1      27.317  -3.375  13.680  1.00  0.00    -0.452 OA
ENDROOT
BRANCH   1  12
ATOM     12  C   UNL     1      27.681  -3.532  11.302  1.00  0.00     0.025 A 
ATOM     13  C   UNL     1      28.397  -4.738  11.238  1.00  0.00     0.016 A 
ATOM     14  C   UNL     1      28.401  -5.498  10.067  1.00  0.00     0.051 A 
ATOM     15  C   UNL     1      27.678  -5.076   8.947  1.00  0.00     0.157 A 
ATOM     16  C   UNL     1      26.937  -3.119  10.182  1.00  0.00     0.062 A 
ATOM     17  C   UNL     1      26.938  -3.883   9.005  1.00  0.00     0.158 A 
BRANCH  15  18
ATOM     18  O   UNL     1      27.701  -5.854   7.791  1.00  0.00    -0.504 OA
ATOM     19  H   UNL     1      28.446  -5.781   7.106  1.00  0.00     0.293 HD
ENDBRANCH  15  18
BRANCH  17  20
ATOM     20  O   UNL     1      26.203  -3.463   7.898  1.00  0.00    -0.504 OA
ATOM     21  H   UNL     1      25.675  -4.116   7.331  1.00  0.00     0.293 HD
ENDBRANCH  17  20
ENDBRANCH   1  12
BRANCH   2  22
ATOM     22  O   UNL     1      28.521  -0.764  11.455  1.00  0.00    -0.502 OA
ATOM     23  H   UNL     1      28.923   0.166  11.472  1.00  0.00     0.293 HD
ENDBRANCH   2  22
BRANCH   6  24
ATOM     24  O   UNL     1      27.570   0.579  16.520  1.00  0.00    -0.507 OA
ATOM     25  H   UNL     1      26.890   1.284  16.280  1.00  0.00     0.293 HD
ENDBRANCH   6  24
BRANCH   8  26
ATOM     26  O   UNL     1      26.473  -3.727  18.340  1.00  0.00    -0.508 OA
ATOM     27  H   UNL     1      27.096  -3.830  19.133  1.00  0.00     0.293 HD
ENDBRANCH   8  26
TORSDOF 6
ENDMDL
MODEL 4
REMARK VINA RESULT:    -7.127      2.222      4.447
REMARK INTER + INTRA:          -8.635
REMARK INTER:                  -8.632
REMARK INTRA:                  -0.003
REMARK UNBOUND:                -0.049
REMARK SMILES O=c1c(O)c(-c2ccc(O)c(O)c2)oc2cc(O)cc(O)c12
REMARK SMILES IDX 5 1 3 2 2 3 1 4 22 5 20 6 19 7 17 8 16 9 15 10 14 11 6 12
REMARK SMILES IDX 7 13 8 14 9 15 13 16 11 17 10 18 12 20 4 22 21 24 18 26
REMARK H PARENT 10 19 12 21 4 23 21 25 18 27
REMARK Flexibility Score: inf
ROOT
ATOM      1  C   UNL     1      28.047  -5.049  10.091  1.00  0.00     0.180 A 
ATOM      2  C   UNL     1      28.464  -6.337  10.472  1.00  0.00     0.208 A 
ATOM      3  C   UNL     1      28.605  -7.325   9.485  1.00  0.00     0.238 A 
ATOM      4  O   UNL     1      29.031  -8.460   9.824  1.00  0.00    -0.285 OA
ATOM      5  C   UNL     1      28.315  -7.019   8.134  1.00  0.00     0.111 A 
ATOM      6  C   UNL     1      28.387  -7.953   7.058  1.00  0.00     0.134 A 
ATOM      7  C   UNL     1      28.203  -7.508   5.743  1.00  0.00     0.093 A 
ATOM      8  C   UNL     1      27.888  -6.175   5.471  1.00  0.00     0.123 A 
ATOM      9  C   UNL     1      27.757  -5.267   6.520  1.00  0.00     0.094 A 
ATOM     10  C   UNL     1      27.969  -5.675   7.839  1.00  0.00     0.146 A 
ATOM     11  O   UNL     1      27.846  -4.775   8.808  1.00  0.00    -0.452 OA
ENDROOT
BRANCH   1  12
ATOM     12  C   UNL     1      27.850  -3.961  11.078  1.00  0.00     0.025 A 
ATOM     13  C   UNL     1      28.369  -2.685  10.811  1.00  0.00     0.016 A 
ATOM     14  C   UNL     1      28.177  -1.640  11.717  1.00  0.00     0.051 A 
ATOM     15  C   UNL     1      27.452  -1.847  12.894  1.00  0.00     0.157 A 
ATOM     16  C   UNL     1      27.103  -4.165  12.252  1.00  0.00     0.062 A 
ATOM     17  C   UNL     1      26.908  -3.115  13.162  1.00  0.00     0.158 A 
BRANCH  15  18
ATOM     18  O   UNL     1      27.279  -0.786  13.781  1.00  0.00    -0.504 OA
ATOM     19  H   UNL     1      26.820  -0.902  14.678  1.00  0.00     0.293 HD
ENDBRANCH  15  18
BRANCH  17  20
ATOM     20  O   UNL     1      26.172  -3.327  14.327  1.00  0.00    -0.504 OA
ATOM     21  H   UNL     1      25.356  -3.927  14.338  1.00  0.00     0.293 HD
ENDBRANCH  17  20
ENDBRANCH   1  12
BRANCH   2  22
ATOM     22  O   UNL     1      28.766  -6.611  11.808  1.00  0.00    -0.502 OA
ATOM     23  H   UNL     1      28.621  -5.935  12.549  1.00  0.00     0.293 HD
ENDBRANCH   2  22
BRANCH   6  24
ATOM     24  O   UNL     1      28.605  -9.324   7.228  1.00  0.00    -0.507 OA
ATOM     25  H   UNL     1      29.312  -9.858   6.745  1.00  0.00     0.293 HD
ENDBRANCH   6  24
BRANCH   8  26
ATOM     26  O   UNL     1      27.692  -5.743   4.161  1.00  0.00    -0.508 OA
ATOM     27  H   UNL     1      26.788  -5.416   3.841  1.00  0.00     0.293 HD
ENDBRANCH   8  26
TORSDOF 6
ENDMDL
MODEL 5
REMARK VINA RESULT:    -7.093      4.373      9.535
REMARK INTER + INTRA:          -8.593
REMARK INTER:                  -8.737
REMARK INTRA:                   0.143
REMARK UNBOUND:                -0.049
REMARK SMILES O=c1c(O)c(-c2ccc(O)c(O)c2)oc2cc(O)cc(O)c12
REMARK SMILES IDX 5 1 3 2 2 3 1 4 22 5 20 6 19 7 17 8 16 9 15 10 14 11 6 12
REMARK SMILES IDX 7 13 8 14 9 15 13 16 11 17 10 18 12 20 4 22 21 24 18 26
REMARK H PARENT 10 19 12 21 4 23 21 25 18 27
REMARK Flexibility Score: inf
ROOT
ATOM      1  C   UNL     1      26.345  -1.836  19.153  1.00  0.00     0.180 A 
ATOM      2  C   UNL     1      26.913  -1.127  20.227  1.00  0.00     0.208 A 
ATOM      3  C   UNL     1      26.381  -1.302  21.514  1.00  0.00     0.238 A 
ATOM      4  O   UNL     1      26.929  -0.708  22.479  1.00  0.00    -0.285 OA
ATOM      5  C   UNL     1      25.280  -2.169  21.710  1.00  0.00     0.111 A 
ATOM      6  C   UNL     1      24.636  -2.390  22.964  1.00  0.00     0.134 A 
ATOM      7  C   UNL     1      23.639  -3.368  23.066  1.00  0.00     0.093 A 
ATOM      8  C   UNL     1      23.218  -4.087  21.944  1.00  0.00     0.123 A 
ATOM      9  C   UNL     1      23.799  -3.835  20.704  1.00  0.00     0.094 A 
ATOM     10  C   UNL     1      24.821  -2.891  20.578  1.00  0.00     0.146 A 
ATOM     11  O   UNL     1      25.355  -2.690  19.380  1.00  0.00    -0.452 OA
ENDROOT
BRANCH   1  12
ATOM     12  C   UNL     1      26.834  -1.684  17.763  1.00  0.00     0.025 A 
ATOM     13  C   UNL     1      27.172  -0.408  17.286  1.00  0.00     0.016 A 
ATOM     14  C   UNL     1      27.655  -0.244  15.986  1.00  0.00     0.051 A 
ATOM     15  C   UNL     1      27.823  -1.350  15.148  1.00  0.00     0.157 A 
ATOM     16  C   UNL     1      27.023  -2.799  16.927  1.00  0.00     0.062 A 
ATOM     17  C   UNL     1      27.510  -2.636  15.622  1.00  0.00     0.158 A 
BRANCH  15  18
ATOM     18  O   UNL     1      28.305  -1.156  13.854  1.00  0.00    -0.504 OA
ATOM     19  H   UNL     1      27.686  -1.011  13.065  1.00  0.00     0.293 HD
ENDBRANCH  15  18
BRANCH  17  20
ATOM     20  O   UNL     1      27.688  -3.746  14.797  1.00  0.00    -0.504 OA
ATOM     21  H   UNL     1      27.645  -3.671  13.788  1.00  0.00     0.293 HD
ENDBRANCH  17  20
ENDBRANCH   1  12
BRANCH   2  22
ATOM     22  O   UNL     1      28.015  -0.294  20.014  1.00  0.00    -0.502 OA
ATOM     23  H   UNL     1      28.960  -0.651  19.937  1.00  0.00     0.293 HD
ENDBRANCH   2  22
BRANCH   6  24
ATOM     24  O   UNL     1      24.917  -1.663  24.125  1.00  0.00    -0.507 OA
ATOM     25  H   UNL     1      24.285  -1.009  24.561  1.00  0.00     0.293 HD
ENDBRANCH   6  24
BRANCH   8  26
ATOM     26  O   UNL     1      22.214  -5.047  22.051  1.00  0.00    -0.508 OA
ATOM     27  H   UNL     1      22.429  -6.037  22.080  1.00  0.00     0.293 HD
ENDBRANCH   8  26
TORSDOF 6
ENDMDL
MODEL 6
REMARK VINA RESULT:    -7.085      2.201      3.496
REMARK INTER + INTRA:          -8.584
REMARK INTER:                  -8.336
REMARK INTRA:                  -0.247
REMARK UNBOUND:                -0.049
REMARK SMILES O=c1c(O)c(-c2ccc(O)c(O)c2)oc2cc(O)cc(O)c12
REMARK SMILES IDX 5 1 3 2 2 3 1 4 22 5 20 6 19 7 17 8 16 9 15 10 14 11 6 12
REMARK SMILES IDX 7 13 8 14 9 15 13 16 11 17 10 18 12 20 4 22 21 24 18 26
REMARK H PARENT 10 19 12 21 4 23 21 25 18 27
REMARK Flexibility Score: inf
ROOT
ATOM      1  C   UNL     1      27.703  -4.231  10.042  1.00  0.00     0.180 A 
ATOM      2  C   UNL     1      27.282  -3.878   8.748  1.00  0.00     0.208 A 
ATOM      3  C   UNL     1      27.439  -4.805   7.705  1.00  0.00     0.238 A 
ATOM      4  O   UNL     1      27.010  -4.504   6.561  1.00  0.00    -0.285 OA
ATOM      5  C   UNL     1      28.028  -6.065   7.965  1.00  0.00     0.111 A 
ATOM      6  C   UNL     1      28.271  -7.065   6.977  1.00  0.00     0.134 A 
ATOM      7  C   UNL     1      28.740  -8.325   7.369  1.00  0.00     0.093 A 
ATOM      8  C   UNL     1      29.035  -8.599   8.707  1.00  0.00     0.123 A 
ATOM      9  C   UNL     1      28.856  -7.609   9.671  1.00  0.00     0.094 A 
ATOM     10  C   UNL     1      28.357  -6.355   9.315  1.00  0.00     0.146 A 
ATOM     11  O   UNL     1      28.191  -5.445  10.266  1.00  0.00    -0.452 OA
ENDROOT
BRANCH   1  12
ATOM     12  C   UNL     1      27.594  -3.298  11.188  1.00  0.00     0.025 A 
ATOM     13  C   UNL     1      26.691  -3.580  12.224  1.00  0.00     0.016 A 
ATOM     14  C   UNL     1      26.587  -2.725  13.324  1.00  0.00     0.051 A 
ATOM     15  C   UNL     1      27.391  -1.586  13.413  1.00  0.00     0.157 A 
ATOM     16  C   UNL     1      28.418  -2.162  11.288  1.00  0.00     0.062 A 
ATOM     17  C   UNL     1      28.315  -1.303  12.392  1.00  0.00     0.158 A 
BRANCH  15  18
ATOM     18  O   UNL     1      27.263  -0.749  14.521  1.00  0.00    -0.504 OA
ATOM     19  H   UNL     1      27.133   0.252  14.429  1.00  0.00     0.293 HD
ENDBRANCH  15  18
BRANCH  17  20
ATOM     20  O   UNL     1      29.130  -0.177  12.481  1.00  0.00    -0.504 OA
ATOM     21  H   UNL     1      29.311   0.280  13.367  1.00  0.00     0.293 HD
ENDBRANCH  17  20
ENDBRANCH   1  12
BRANCH   2  22
ATOM     22  O   UNL     1      26.683  -2.636   8.518  1.00  0.00    -0.502 OA
ATOM     23  H   UNL     1      25.785  -2.543   8.058  1.00  0.00     0.293 HD
ENDBRANCH   2  22
BRANCH   6  24
ATOM     24  O   UNL     1      28.098  -6.864   5.604  1.00  0.00    -0.507 OA
ATOM     25  H   UNL     1      27.249  -7.064   5.096  1.00  0.00     0.293 HD
ENDBRANCH   6  24
BRANCH   8  26
ATOM     26  O   UNL     1      29.515  -9.850   9.087  1.00  0.00    -0.508 OA
ATOM     27  H   UNL     1      29.033 -10.704   8.830  1.00  0.00     0.293 HD
ENDBRANCH   8  26
TORSDOF 6
ENDMDL
MODEL 7
REMARK VINA RESULT:    -6.842      5.089      9.023
REMARK INTER + INTRA:          -8.291
REMARK INTER:                  -8.209
REMARK INTRA:                  -0.082
REMARK UNBOUND:                -0.049
REMARK SMILES O=c1c(O)c(-c2ccc(O)c(O)c2)oc2cc(O)cc(O)c12
REMARK SMILES IDX 5 1 3 2 2 3 1 4 22 5 20 6 19 7 17 8 16 9 15 10 14 11 6 12
REMARK SMILES IDX 7 13 8 14 9 15 13 16 11 17 10 18 12 20 4 22 21 24 18 26
REMARK H PARENT 10 19 12 21 4 23 21 25 18 27
REMARK Flexibility Score: inf
ROOT
ATOM      1  C   UNL     1      24.836  -3.732  19.291  1.00  0.00     0.180 A 
ATOM      2  C   UNL     1      23.620  -3.082  19.568  1.00  0.00     0.208 A 
ATOM      3  C   UNL     1      22.624  -3.777  20.272  1.00  0.00     0.238 A 
ATOM      4  O   UNL     1      21.559  -3.172  20.566  1.00  0.00    -0.285 OA
ATOM      5  C   UNL     1      22.848  -5.114  20.676  1.00  0.00     0.111 A 
ATOM      6  C   UNL     1      21.894  -5.926  21.360  1.00  0.00     0.134 A 
ATOM      7  C   UNL     1      22.270  -7.192  21.826  1.00  0.00     0.093 A 
ATOM      8  C   UNL     1      23.547  -7.701  21.575  1.00  0.00     0.123 A 
ATOM      9  C   UNL     1      24.466  -6.940  20.857  1.00  0.00     0.094 A 
ATOM     10  C   UNL     1      24.131  -5.660  20.411  1.00  0.00     0.146 A 
ATOM     11  O   UNL     1      25.041  -4.964  19.739  1.00  0.00    -0.452 OA
ENDROOT
BRANCH   1  12
ATOM     12  C   UNL     1      25.924  -3.074  18.530  1.00  0.00     0.025 A 
ATOM     13  C   UNL     1      26.501  -1.896  19.031  1.00  0.00     0.016 A 
ATOM     14  C   UNL     1      27.542  -1.270  18.341  1.00  0.00     0.051 A 
ATOM     15  C   UNL     1      28.033  -1.817  17.152  1.00  0.00     0.157 A 
ATOM     16  C   UNL     1      26.432  -3.635  17.345  1.00  0.00     0.062 A 
ATOM     17  C   UNL     1      27.479  -3.008  16.653  1.00  0.00     0.158 A 
BRANCH  15  18
ATOM     18  O   UNL     1      29.072  -1.169  16.485  1.00  0.00    -0.504 OA
ATOM     19  H   UNL     1      29.399  -0.250  16.760  1.00  0.00     0.293 HD
ENDBRANCH  15  18
BRANCH  17  20
ATOM     20  O   UNL     1      27.973  -3.567  15.475  1.00  0.00    -0.504 OA
ATOM     21  H   UNL     1      28.961  -3.749  15.347  1.00  0.00     0.293 HD
ENDBRANCH  17  20
ENDBRANCH   1  12
BRANCH   2  22
ATOM     22  O   UNL     1      23.429  -1.754  19.180  1.00  0.00    -0.502 OA
ATOM     23  H   UNL     1      23.938  -1.333  18.412  1.00  0.00     0.293 HD
ENDBRANCH   2  22
BRANCH   6  24
ATOM     24  O   UNL     1      20.566  -5.549  21.581  1.00  0.00    -0.507 OA
ATOM     25  H   UNL     1      19.770  -5.934  21.094  1.00  0.00     0.293 HD
ENDBRANCH   6  24
BRANCH   8  26
ATOM     26  O   UNL     1      23.908  -8.967  22.029  1.00  0.00    -0.508 OA
ATOM     27  H   UNL     1      24.319  -9.105  22.945  1.00  0.00     0.293 HD
ENDBRANCH   8  26
TORSDOF 6
ENDMDL
MODEL 8
REMARK VINA RESULT:    -6.778      7.682     10.895
REMARK INTER + INTRA:          -8.215
REMARK INTER:                  -7.939
REMARK INTRA:                  -0.276
REMARK UNBOUND:                -0.049
REMARK SMILES O=c1c(O)c(-c2ccc(O)c(O)c2)oc2cc(O)cc(O)c12
REMARK SMILES IDX 5 1 3 2 2 3 1 4 22 5 20 6 19 7 17 8 16 9 15 10 14 11 6 12
REMARK SMILES IDX 7 13 8 14 9 15 13 16 11 17 10 18 12 20 4 22 21 24 18 26
REMARK H PARENT 10 19 12 21 4 23 21 25 18 27
REMARK Flexibility Score: inf
ROOT
ATOM      1  C   UNL     1      23.852  -3.767  21.516  1.00  0.00     0.180 A 
ATOM      2  C   UNL     1      24.076  -3.192  22.779  1.00  0.00     0.208 A 
ATOM      3  C   UNL     1      25.050  -2.189  22.906  1.00  0.00     0.238 A 
ATOM      4  O   UNL     1      25.208  -1.640  24.028  1.00  0.00    -0.285 OA
ATOM      5  C   UNL     1      25.797  -1.784  21.775  1.00  0.00     0.111 A 
ATOM      6  C   UNL     1      26.836  -0.805  21.797  1.00  0.00     0.134 A 
ATOM      7  C   UNL     1      27.419  -0.390  20.593  1.00  0.00     0.093 A 
ATOM      8  C   UNL     1      27.046  -0.965  19.376  1.00  0.00     0.123 A 
ATOM      9  C   UNL     1      26.075  -1.963  19.351  1.00  0.00     0.094 A 
ATOM     10  C   UNL     1      25.451  -2.373  20.531  1.00  0.00     0.146 A 
ATOM     11  O   UNL     1      24.523  -3.320  20.461  1.00  0.00    -0.452 OA
ENDROOT
BRANCH   1  12
ATOM     12  C   UNL     1      22.860  -4.848  21.307  1.00  0.00     0.025 A 
ATOM     13  C   UNL     1      23.164  -6.153  21.725  1.00  0.00     0.016 A 
ATOM     14  C   UNL     1      22.236  -7.183  21.558  1.00  0.00     0.051 A 
ATOM     15  C   UNL     1      20.987  -6.925  20.987  1.00  0.00     0.157 A 
ATOM     16  C   UNL     1      21.595  -4.584  20.752  1.00  0.00     0.062 A 
ATOM     17  C   UNL     1      20.662  -5.618  20.585  1.00  0.00     0.158 A 
BRANCH  15  18
ATOM     18  O   UNL     1      20.082  -7.974  20.831  1.00  0.00    -0.504 OA
ATOM     19  H   UNL     1      19.177  -7.844  20.393  1.00  0.00     0.293 HD
ENDBRANCH  15  18
BRANCH  17  20
ATOM     20  O   UNL     1      19.413  -5.350  20.027  1.00  0.00    -0.504 OA
ATOM     21  H   UNL     1      19.193  -4.446  19.627  1.00  0.00     0.293 HD
ENDBRANCH  17  20
ENDBRANCH   1  12
BRANCH   2  22
ATOM     22  O   UNL     1      23.311  -3.591  23.878  1.00  0.00    -0.502 OA
ATOM     23  H   UNL     1      23.130  -2.979  24.665  1.00  0.00     0.293 HD
ENDBRANCH   2  22
BRANCH   6  24
ATOM     24  O   UNL     1      27.346  -0.236  22.967  1.00  0.00    -0.507 OA
ATOM     25  H   UNL     1      27.562   0.743  23.083  1.00  0.00     0.293 HD
ENDBRANCH   6  24
BRANCH   8  26
ATOM     26  O   UNL     1      27.642  -0.556  18.185  1.00  0.00    -0.508 OA
ATOM     27  H   UNL     1      27.098  -0.154  17.430  1.00  0.00     0.293 HD
ENDBRANCH   8  26
TORSDOF 6
ENDMDL
MODEL 9
REMARK VINA RESULT:    -6.640      6.099      9.838
REMARK INTER + INTRA:          -8.048
REMARK INTER:                  -7.725
REMARK INTRA:                  -0.323
REMARK UNBOUND:                -0.049
REMARK SMILES O=c1c(O)c(-c2ccc(O)c(O)c2)oc2cc(O)cc(O)c12
REMARK SMILES IDX 5 1 3 2 2 3 1 4 22 5 20 6 19 7 17 8 16 9 15 10 14 11 6 12
REMARK SMILES IDX 7 13 8 14 9 15 13 16 11 17 10 18 12 20 4 22 21 24 18 26
REMARK H PARENT 10 19 12 21 4 23 21 25 18 27
REMARK Flexibility Score: inf
ROOT
ATOM      1  C   UNL     1      24.508  -3.861  20.109  1.00  0.00     0.180 A 
ATOM      2  C   UNL     1      23.118  -3.660  20.033  1.00  0.00     0.208 A 
ATOM      3  C   UNL     1      22.270  -4.491  20.783  1.00  0.00     0.238 A 
ATOM      4  O   UNL     1      21.031  -4.271  20.754  1.00  0.00    -0.285 OA
ATOM      5  C   UNL     1      22.819  -5.519  21.585  1.00  0.00     0.111 A 
ATOM      6  C   UNL     1      22.051  -6.444  22.354  1.00  0.00     0.134 A 
ATOM      7  C   UNL     1      22.703  -7.339  23.212  1.00  0.00     0.093 A 
ATOM      8  C   UNL     1      24.097  -7.384  23.280  1.00  0.00     0.123 A 
ATOM      9  C   UNL     1      24.857  -6.525  22.489  1.00  0.00     0.094 A 
ATOM     10  C   UNL     1      24.234  -5.599  21.649  1.00  0.00     0.146 A 
ATOM     11  O   UNL     1      24.995  -4.792  20.920  1.00  0.00    -0.452 OA
ENDROOT
BRANCH   1  12
ATOM     12  C   UNL     1      25.465  -3.042  19.329  1.00  0.00     0.025 A 
ATOM     13  C   UNL     1      25.819  -3.445  18.031  1.00  0.00     0.016 A 
ATOM     14  C   UNL     1      26.703  -2.678  17.269  1.00  0.00     0.051 A 
ATOM     15  C   UNL     1      27.235  -1.492  17.783  1.00  0.00     0.157 A 
ATOM     16  C   UNL     1      25.984  -1.838  19.837  1.00  0.00     0.062 A 
ATOM     17  C   UNL     1      26.871  -1.066  19.072  1.00  0.00     0.158 A 
BRANCH  15  18
ATOM     18  O   UNL     1      28.117  -0.748  17.001  1.00  0.00    -0.504 OA
ATOM     19  H   UNL     1      27.804   0.018  16.415  1.00  0.00     0.293 HD
ENDBRANCH  15  18
BRANCH  17  20
ATOM     20  O   UNL     1      27.386   0.123  19.586  1.00  0.00    -0.504 OA
ATOM     21  H   UNL     1      28.377   0.240  19.764  1.00  0.00     0.293 HD
ENDBRANCH  17  20
ENDBRANCH   1  12
BRANCH   2  22
ATOM     22  O   UNL     1      22.600  -2.624  19.253  1.00  0.00    -0.502 OA
ATOM     23  H   UNL     1      22.653  -1.652  19.534  1.00  0.00     0.293 HD
ENDBRANCH   2  22
BRANCH   6  24
ATOM     24  O   UNL     1      20.658  -6.544  22.290  1.00  0.00    -0.507 OA
ATOM     25  H   UNL     1      20.155  -7.296  21.844  1.00  0.00     0.293 HD
ENDBRANCH   6  24
BRANCH   8  26
ATOM     26  O   UNL     1      24.739  -8.287  24.125  1.00  0.00    -0.508 OA
ATOM     27  H   UNL     1      25.647  -8.673  23.896  1.00  0.00     0.293 HD
ENDBRANCH   8  26
TORSDOF 6
ENDMDL
