MODEL 1
REMARK VINA RESULT:    -6.308      0.000      0.000
REMARK INTER + INTRA:          -7.693
REMARK INTER:                  -7.415
REMARK INTRA:                  -0.279
REMARK UNBOUND:                -0.279
REMARK SMILES O=c1cc(-c2ccc(O)c(O)c2)oc2cc(O)cc(O)c12
REMARK SMILES IDX 4 1 3 2 2 3 1 4 21 5 19 6 18 7 16 8 15 9 14 10 13 11 5 12
REMARK SMILES IDX 6 13 7 14 8 15 12 16 10 17 9 18 11 20 20 22 17 24
REMARK H PARENT 9 19 11 21 20 23 17 25
REMARK Flexibility Score: inf
ROOT
ATOM      1  C   UNL     1      33.645   5.985  42.061  1.00  0.00     0.138 A 
ATOM      2  C   UNL     1      33.965   7.278  41.628  1.00  0.00     0.100 A 
ATOM      3  C   UNL     1      34.840   7.452  40.555  1.00  0.00     0.197 A 
ATOM      4  O   UNL     1      35.150   8.627  40.227  1.00  0.00    -0.289 OA
ATOM      5  C   UNL     1      35.369   6.321  39.888  1.00  0.00     0.107 A 
ATOM      6  C   UNL     1      36.244   6.376  38.761  1.00  0.00     0.134 A 
ATOM      7  C   UNL     1      36.782   5.189  38.247  1.00  0.00     0.093 A 
ATOM      8  C   UNL     1      36.431   3.947  38.782  1.00  0.00     0.123 A 
ATOM      9  C   UNL     1      35.540   3.880  39.850  1.00  0.00     0.094 A 
ATOM     10  C   UNL     1      35.012   5.048  40.407  1.00  0.00     0.146 A 
ATOM     11  O   UNL     1      34.180   4.940  41.437  1.00  0.00    -0.456 OA
ENDROOT
BRANCH   1  12
ATOM     12  C   UNL     1      32.718   5.742  43.194  1.00  0.00     0.021 A 
ATOM     13  C   UNL     1      33.010   6.294  44.455  1.00  0.00     0.016 A 
ATOM     14  C   UNL     1      32.151   6.086  45.536  1.00  0.00     0.051 A 
ATOM     15  C   UNL     1      30.980   5.336  45.375  1.00  0.00     0.157 A 
ATOM     16  C   UNL     1      31.532   5.000  43.036  1.00  0.00     0.062 A 
ATOM     17  C   UNL     1      30.669   4.795  44.122  1.00  0.00     0.158 A 
BRANCH  15  18
ATOM     18  O   UNL     1      30.121   5.128  46.453  1.00  0.00    -0.504 OA
ATOM     19  H   UNL     1      30.147   4.271  46.993  1.00  0.00     0.293 HD
ENDBRANCH  15  18
BRANCH  17  20
ATOM     20  O   UNL     1      29.496   4.057  43.963  1.00  0.00    -0.504 OA
ATOM     21  H   UNL     1      29.517   3.057  43.797  1.00  0.00     0.293 HD
ENDBRANCH  17  20
ENDBRANCH   1  12
BRANCH   6  22
ATOM     22  O   UNL     1      36.595   7.556  38.098  1.00  0.00    -0.507 OA
ATOM     23  H   UNL     1      36.091   8.426  38.157  1.00  0.00     0.293 HD
ENDBRANCH   6  22
BRANCH   8  24
ATOM     24  O   UNL     1      36.958   2.772  38.254  1.00  0.00    -0.508 OA
ATOM     25  H   UNL     1      37.812   2.363  38.616  1.00  0.00     0.293 HD
ENDBRANCH   8  24
TORSDOF 5
ENDMDL
MODEL 2
REMARK VINA RESULT:    -6.043      4.070      8.274
REMARK INTER + INTRA:          -7.382
REMARK INTER:                  -7.085
REMARK INTRA:                  -0.297
REMARK UNBOUND:                -0.279
REMARK SMILES O=c1cc(-c2ccc(O)c(O)c2)oc2cc(O)cc(O)c12
REMARK SMILES IDX 4 1 3 2 2 3 1 4 21 5 19 6 18 7 16 8 15 9 14 10 13 11 5 12
REMARK SMILES IDX 6 13 7 14 8 15 12 16 10 17 9 18 11 20 20 22 17 24
REMARK H PARENT 9 19 11 21 20 23 17 25
REMARK Flexibility Score: inf
ROOT
ATOM      1  C   UNL     1      29.230   4.655  42.284  1.00  0.00     0.138 A 
ATOM      2  C   UNL     1      28.633   4.439  43.533  1.00  0.00     0.100 A 
ATOM      3  C   UNL     1      27.290   4.065  43.602  1.00  0.00     0.197 A 
ATOM      4  O   UNL     1      26.770   3.933  44.740  1.00  0.00    -0.289 OA
ATOM      5  C   UNL     1      26.552   3.870  42.410  1.00  0.00     0.107 A 
ATOM      6  C   UNL     1      25.187   3.455  42.357  1.00  0.00     0.134 A 
ATOM      7  C   UNL     1      24.533   3.392  41.119  1.00  0.00     0.093 A 
ATOM      8  C   UNL     1      25.211   3.673  39.930  1.00  0.00     0.123 A 
ATOM      9  C   UNL     1      26.556   4.030  39.968  1.00  0.00     0.094 A 
ATOM     10  C   UNL     1      27.228   4.135  41.189  1.00  0.00     0.146 A 
ATOM     11  O   UNL     1      28.507   4.496  41.181  1.00  0.00    -0.456 OA
ENDROOT
BRANCH   1  12
ATOM     12  C   UNL     1      30.655   5.052  42.153  1.00  0.00     0.021 A 
ATOM     13  C   UNL     1      31.213   5.207  40.871  1.00  0.00     0.016 A 
ATOM     14  C   UNL     1      32.548   5.586  40.719  1.00  0.00     0.051 A 
ATOM     15  C   UNL     1      33.346   5.828  41.844  1.00  0.00     0.157 A 
ATOM     16  C   UNL     1      31.460   5.309  43.279  1.00  0.00     0.062 A 
ATOM     17  C   UNL     1      32.800   5.692  43.125  1.00  0.00     0.158 A 
BRANCH  15  18
ATOM     18  O   UNL     1      34.680   6.205  41.696  1.00  0.00    -0.504 OA
ATOM     19  H   UNL     1      35.053   7.026  42.158  1.00  0.00     0.293 HD
ENDBRANCH  15  18
BRANCH  17  20
ATOM     20  O   UNL     1      33.595   5.944  44.243  1.00  0.00    -0.504 OA
ATOM     21  H   UNL     1      34.523   6.342  44.155  1.00  0.00     0.293 HD
ENDBRANCH  17  20
ENDBRANCH   1  12
BRANCH   6  22
ATOM     22  O   UNL     1      24.439   3.074  43.475  1.00  0.00    -0.507 OA
ATOM     23  H   UNL     1      23.807   2.289  43.509  1.00  0.00     0.293 HD
ENDBRANCH   6  22
BRANCH   8  24
ATOM     24  O   UNL     1      24.557   3.591  38.704  1.00  0.00    -0.508 OA
ATOM     25  H   UNL     1      24.392   2.701  38.247  1.00  0.00     0.293 HD
ENDBRANCH   8  24
TORSDOF 5
ENDMDL
MODEL 3
REMARK VINA RESULT:    -5.868      5.637      9.611
REMARK INTER + INTRA:          -7.176
REMARK INTER:                  -6.879
REMARK INTRA:                  -0.296
REMARK UNBOUND:                -0.279
REMARK SMILES O=c1cc(-c2ccc(O)c(O)c2)oc2cc(O)cc(O)c12
REMARK SMILES IDX 4 1 3 2 2 3 1 4 21 5 19 6 18 7 16 8 15 9 14 10 13 11 5 12
REMARK SMILES IDX 6 13 7 14 8 15 12 16 10 17 9 18 11 20 20 22 17 24
REMARK H PARENT 9 19 11 21 20 23 17 25
REMARK Flexibility Score: inf
ROOT
ATOM      1  C   UNL     1      27.496   4.162  41.208  1.00  0.00     0.138 A 
ATOM      2  C   UNL     1      26.986   4.242  42.510  1.00  0.00     0.100 A 
ATOM      3  C   UNL     1      25.680   3.822  42.769  1.00  0.00     0.197 A 
ATOM      4  O   UNL     1      25.234   3.959  43.937  1.00  0.00    -0.289 OA
ATOM      5  C   UNL     1      24.894   3.284  41.722  1.00  0.00     0.107 A 
ATOM      6  C   UNL     1      23.562   2.793  41.874  1.00  0.00     0.134 A 
ATOM      7  C   UNL     1      22.847   2.376  40.743  1.00  0.00     0.093 A 
ATOM      8  C   UNL     1      23.436   2.378  39.477  1.00  0.00     0.123 A 
ATOM      9  C   UNL     1      24.751   2.808  39.325  1.00  0.00     0.094 A 
ATOM     10  C   UNL     1      25.480   3.263  40.428  1.00  0.00     0.146 A 
ATOM     11  O   UNL     1      26.726   3.683  40.236  1.00  0.00    -0.456 OA
ENDROOT
BRANCH   1  12
ATOM     12  C   UNL     1      28.878   4.591  40.878  1.00  0.00     0.021 A 
ATOM     13  C   UNL     1      29.298   4.594  39.535  1.00  0.00     0.016 A 
ATOM     14  C   UNL     1      30.591   5.000  39.197  1.00  0.00     0.051 A 
ATOM     15  C   UNL     1      31.482   5.421  40.191  1.00  0.00     0.157 A 
ATOM     16  C   UNL     1      29.775   5.029  41.871  1.00  0.00     0.062 A 
ATOM     17  C   UNL     1      31.072   5.439  41.529  1.00  0.00     0.158 A 
BRANCH  15  18
ATOM     18  O   UNL     1      32.773   5.827  39.856  1.00  0.00    -0.504 OA
ATOM     19  H   UNL     1      32.939   6.633  39.268  1.00  0.00     0.293 HD
ENDBRANCH  15  18
BRANCH  17  20
ATOM     20  O   UNL     1      31.960   5.869  42.516  1.00  0.00    -0.504 OA
ATOM     21  H   UNL     1      31.645   6.084  43.455  1.00  0.00     0.293 HD
ENDBRANCH  17  20
ENDBRANCH   1  12
BRANCH   6  22
ATOM     22  O   UNL     1      22.906   2.672  43.103  1.00  0.00    -0.507 OA
ATOM     23  H   UNL     1      23.303   2.261  43.933  1.00  0.00     0.293 HD
ENDBRANCH   6  22
BRANCH   8  24
ATOM     24  O   UNL     1      22.723   1.946  38.361  1.00  0.00    -0.508 OA
ATOM     25  H   UNL     1      22.852   2.372  37.451  1.00  0.00     0.293 HD
ENDBRANCH   8  24
TORSDOF 5
ENDMDL
MODEL 4
REMARK VINA RESULT:    -5.807      4.381      6.465
REMARK INTER + INTRA:          -7.105
REMARK INTER:                  -6.808
REMARK INTRA:                  -0.297
REMARK UNBOUND:                -0.279
REMARK SMILES O=c1cc(-c2ccc(O)c(O)c2)oc2cc(O)cc(O)c12
REMARK SMILES IDX 4 1 3 2 2 3 1 4 21 5 19 6 18 7 16 8 15 9 14 10 13 11 5 12
REMARK SMILES IDX 6 13 7 14 8 15 12 16 10 17 9 18 11 20 20 22 17 24
REMARK H PARENT 9 19 11 21 20 23 17 25
REMARK Flexibility Score: inf
ROOT
ATOM      1  C   UNL     1      28.496   4.470  41.126  1.00  0.00     0.138 A 
ATOM      2  C   UNL     1      29.223   4.698  39.950  1.00  0.00     0.100 A 
ATOM      3  C   UNL     1      30.562   5.085  40.028  1.00  0.00     0.197 A 
ATOM      4  O   UNL     1      31.170   5.336  38.955  1.00  0.00    -0.289 OA
ATOM      5  C   UNL     1      31.186   5.208  41.292  1.00  0.00     0.107 A 
ATOM      6  C   UNL     1      32.554   5.563  41.494  1.00  0.00     0.134 A 
ATOM      7  C   UNL     1      33.034   5.750  42.797  1.00  0.00     0.093 A 
ATOM      8  C   UNL     1      32.210   5.539  43.905  1.00  0.00     0.123 A 
ATOM      9  C   UNL     1      30.888   5.145  43.720  1.00  0.00     0.094 A 
ATOM     10  C   UNL     1      30.370   4.983  42.433  1.00  0.00     0.146 A 
ATOM     11  O   UNL     1      29.097   4.623  42.301  1.00  0.00    -0.456 OA
ENDROOT
BRANCH   1  12
ATOM     12  C   UNL     1      27.072   4.054  41.100  1.00  0.00     0.021 A 
ATOM     13  C   UNL     1      26.388   3.860  42.314  1.00  0.00     0.016 A 
ATOM     14  C   UNL     1      25.045   3.476  42.318  1.00  0.00     0.051 A 
ATOM     15  C   UNL     1      24.360   3.290  41.112  1.00  0.00     0.157 A 
ATOM     16  C   UNL     1      26.372   3.878  39.891  1.00  0.00     0.062 A 
ATOM     17  C   UNL     1      25.023   3.494  39.897  1.00  0.00     0.158 A 
BRANCH  15  18
ATOM     18  O   UNL     1      23.019   2.905  41.113  1.00  0.00    -0.504 OA
ATOM     19  H   UNL     1      22.742   1.952  41.314  1.00  0.00     0.293 HD
ENDBRANCH  15  18
BRANCH  17  20
ATOM     20  O   UNL     1      24.334   3.318  38.697  1.00  0.00    -0.504 OA
ATOM     21  H   UNL     1      24.711   2.748  37.948  1.00  0.00     0.293 HD
ENDBRANCH  17  20
ENDBRANCH   1  12
BRANCH   6  22
ATOM     22  O   UNL     1      33.484   5.719  40.461  1.00  0.00    -0.507 OA
ATOM     23  H   UNL     1      33.313   6.210  39.598  1.00  0.00     0.293 HD
ENDBRANCH   6  22
BRANCH   8  24
ATOM     24  O   UNL     1      32.700   5.712  45.197  1.00  0.00    -0.508 OA
ATOM     25  H   UNL     1      32.103   5.610  46.010  1.00  0.00     0.293 HD
ENDBRANCH   8  24
TORSDOF 5
ENDMDL
MODEL 5
REMARK VINA RESULT:    -5.735      4.200      6.243
REMARK INTER + INTRA:          -7.019
REMARK INTER:                  -6.703
REMARK INTRA:                  -0.316
REMARK UNBOUND:                -0.279
REMARK SMILES O=c1cc(-c2ccc(O)c(O)c2)oc2cc(O)cc(O)c12
REMARK SMILES IDX 4 1 3 2 2 3 1 4 21 5 19 6 18 7 16 8 15 9 14 10 13 11 5 12
REMARK SMILES IDX 6 13 7 14 8 15 12 16 10 17 9 18 11 20 20 22 17 24
REMARK H PARENT 9 19 11 21 20 23 17 25
REMARK Flexibility Score: inf
ROOT
ATOM      1  C   UNL     1      28.574   4.548  41.852  1.00  0.00     0.138 A 
ATOM      2  C   UNL     1      29.158   4.350  43.110  1.00  0.00     0.100 A 
ATOM      3  C   UNL     1      30.491   4.707  43.317  1.00  0.00     0.197 A 
ATOM      4  O   UNL     1      31.002   4.464  44.441  1.00  0.00    -0.289 OA
ATOM      5  C   UNL     1      31.231   5.301  42.268  1.00  0.00     0.107 A 
ATOM      6  C   UNL     1      32.587   5.737  42.373  1.00  0.00     0.134 A 
ATOM      7  C   UNL     1      33.247   6.220  41.235  1.00  0.00     0.093 A 
ATOM      8  C   UNL     1      32.583   6.337  40.012  1.00  0.00     0.123 A 
ATOM      9  C   UNL     1      31.246   5.961  39.911  1.00  0.00     0.094 A 
ATOM     10  C   UNL     1      30.570   5.443  41.018  1.00  0.00     0.146 A 
ATOM     11  O   UNL     1      29.300   5.079  40.874  1.00  0.00    -0.456 OA
ENDROOT
BRANCH   1  12
ATOM     12  C   UNL     1      27.159   4.190  41.578  1.00  0.00     0.021 A 
ATOM     13  C   UNL     1      26.303   3.886  42.652  1.00  0.00     0.016 A 
ATOM     14  C   UNL     1      24.967   3.553  42.421  1.00  0.00     0.051 A 
ATOM     15  C   UNL     1      24.459   3.528  41.117  1.00  0.00     0.157 A 
ATOM     16  C   UNL     1      26.639   4.175  40.269  1.00  0.00     0.062 A 
ATOM     17  C   UNL     1      25.296   3.843  40.040  1.00  0.00     0.158 A 
BRANCH  15  18
ATOM     18  O   UNL     1      23.126   3.194  40.884  1.00  0.00    -0.504 OA
ATOM     19  H   UNL     1      22.860   2.279  40.544  1.00  0.00     0.293 HD
ENDBRANCH  15  18
BRANCH  17  20
ATOM     20  O   UNL     1      24.784   3.827  38.742  1.00  0.00    -0.504 OA
ATOM     21  H   UNL     1      24.761   4.664  38.171  1.00  0.00     0.293 HD
ENDBRANCH  17  20
ENDBRANCH   1  12
BRANCH   6  22
ATOM     22  O   UNL     1      33.320   5.740  43.564  1.00  0.00    -0.507 OA
ATOM     23  H   UNL     1      34.230   6.156  43.683  1.00  0.00     0.293 HD
ENDBRANCH   6  22
BRANCH   8  24
ATOM     24  O   UNL     1      33.243   6.833  38.890  1.00  0.00    -0.508 OA
ATOM     25  H   UNL     1      32.993   6.538  37.953  1.00  0.00     0.293 HD
ENDBRANCH   8  24
TORSDOF 5
ENDMDL
MODEL 6
REMARK VINA RESULT:    -5.679      4.481      6.604
REMARK INTER + INTRA:          -6.954
REMARK INTER:                  -6.638
REMARK INTRA:                  -0.316
REMARK UNBOUND:                -0.279
REMARK SMILES O=c1cc(-c2ccc(O)c(O)c2)oc2cc(O)cc(O)c12
REMARK SMILES IDX 4 1 3 2 2 3 1 4 21 5 19 6 18 7 16 8 15 9 14 10 13 11 5 12
REMARK SMILES IDX 6 13 7 14 8 15 12 16 10 17 9 18 11 20 20 22 17 24
REMARK H PARENT 9 19 11 21 20 23 17 25
REMARK Flexibility Score: inf
ROOT
ATOM      1  C   UNL     1      28.247   4.396  40.946  1.00  0.00     0.138 A 
ATOM      2  C   UNL     1      28.927   4.660  39.750  1.00  0.00     0.100 A 
ATOM      3  C   UNL     1      30.253   5.093  39.790  1.00  0.00     0.197 A 
ATOM      4  O   UNL     1      30.818   5.375  38.702  1.00  0.00    -0.289 OA
ATOM      5  C   UNL     1      30.912   5.227  41.036  1.00  0.00     0.107 A 
ATOM      6  C   UNL     1      32.273   5.628  41.198  1.00  0.00     0.134 A 
ATOM      7  C   UNL     1      32.786   5.821  42.488  1.00  0.00     0.093 A 
ATOM      8  C   UNL     1      32.006   5.571  43.619  1.00  0.00     0.123 A 
ATOM      9  C   UNL     1      30.693   5.132  43.471  1.00  0.00     0.094 A 
ATOM     10  C   UNL     1      30.141   4.963  42.199  1.00  0.00     0.146 A 
ATOM     11  O   UNL     1      28.878   4.560  42.103  1.00  0.00    -0.456 OA
ENDROOT
BRANCH   1  12
ATOM     12  C   UNL     1      26.837   3.930  40.960  1.00  0.00     0.021 A 
ATOM     13  C   UNL     1      26.240   3.500  39.762  1.00  0.00     0.016 A 
ATOM     14  C   UNL     1      24.918   3.050  39.750  1.00  0.00     0.051 A 
ATOM     15  C   UNL     1      24.174   3.011  40.935  1.00  0.00     0.157 A 
ATOM     16  C   UNL     1      26.087   3.875  42.151  1.00  0.00     0.062 A 
ATOM     17  C   UNL     1      24.760   3.421  42.137  1.00  0.00     0.158 A 
BRANCH  15  18
ATOM     18  O   UNL     1      22.853   2.563  40.925  1.00  0.00    -0.504 OA
ATOM     19  H   UNL     1      22.281   2.619  40.092  1.00  0.00     0.293 HD
ENDBRANCH  15  18
BRANCH  17  20
ATOM     20  O   UNL     1      24.019   3.370  43.318  1.00  0.00    -0.504 OA
ATOM     21  H   UNL     1      24.176   2.648  44.012  1.00  0.00     0.293 HD
ENDBRANCH  17  20
ENDBRANCH   1  12
BRANCH   6  22
ATOM     22  O   UNL     1      33.164   5.826  40.139  1.00  0.00    -0.507 OA
ATOM     23  H   UNL     1      33.468   6.725  39.798  1.00  0.00     0.293 HD
ENDBRANCH   6  22
BRANCH   8  24
ATOM     24  O   UNL     1      32.530   5.750  44.897  1.00  0.00    -0.508 OA
ATOM     25  H   UNL     1      32.061   6.325  45.587  1.00  0.00     0.293 HD
ENDBRANCH   8  24
TORSDOF 5
ENDMDL
MODEL 7
REMARK VINA RESULT:    -5.646      5.700      9.931
REMARK INTER + INTRA:          -6.915
REMARK INTER:                  -6.601
REMARK INTRA:                  -0.313
REMARK UNBOUND:                -0.279
REMARK SMILES O=c1cc(-c2ccc(O)c(O)c2)oc2cc(O)cc(O)c12
REMARK SMILES IDX 4 1 3 2 2 3 1 4 21 5 19 6 18 7 16 8 15 9 14 10 13 11 5 12
REMARK SMILES IDX 6 13 7 14 8 15 12 16 10 17 9 18 11 20 20 22 17 24
REMARK H PARENT 9 19 11 21 20 23 17 25
REMARK Flexibility Score: inf
ROOT
ATOM      1  C   UNL     1      26.984   3.964  41.635  1.00  0.00     0.138 A 
ATOM      2  C   UNL     1      26.499   3.822  40.329  1.00  0.00     0.100 A 
ATOM      3  C   UNL     1      25.168   3.455  40.121  1.00  0.00     0.197 A 
ATOM      4  O   UNL     1      24.779   3.282  38.937  1.00  0.00    -0.289 OA
ATOM      5  C   UNL     1      24.310   3.266  41.230  1.00  0.00     0.107 A 
ATOM      6  C   UNL     1      22.926   2.924  41.139  1.00  0.00     0.134 A 
ATOM      7  C   UNL     1      22.201   2.665  42.310  1.00  0.00     0.093 A 
ATOM      8  C   UNL     1      22.794   2.793  43.568  1.00  0.00     0.123 A 
ATOM      9  C   UNL     1      24.129   3.174  43.669  1.00  0.00     0.094 A 
ATOM     10  C   UNL     1      24.889   3.406  42.519  1.00  0.00     0.146 A 
ATOM     11  O   UNL     1      26.165   3.750  42.660  1.00  0.00    -0.456 OA
ENDROOT
BRANCH   1  12
ATOM     12  C   UNL     1      28.389   4.356  41.914  1.00  0.00     0.021 A 
ATOM     13  C   UNL     1      29.144   4.978  40.904  1.00  0.00     0.016 A 
ATOM     14  C   UNL     1      30.466   5.363  41.142  1.00  0.00     0.051 A 
ATOM     15  C   UNL     1      31.051   5.143  42.394  1.00  0.00     0.157 A 
ATOM     16  C   UNL     1      28.979   4.150  43.175  1.00  0.00     0.062 A 
ATOM     17  C   UNL     1      30.306   4.539  43.413  1.00  0.00     0.158 A 
BRANCH  15  18
ATOM     18  O   UNL     1      32.370   5.526  42.634  1.00  0.00    -0.504 OA
ATOM     19  H   UNL     1      33.097   4.841  42.803  1.00  0.00     0.293 HD
ENDBRANCH  15  18
BRANCH  17  20
ATOM     20  O   UNL     1      30.889   4.332  44.663  1.00  0.00    -0.504 OA
ATOM     21  H   UNL     1      31.736   3.786  44.769  1.00  0.00     0.293 HD
ENDBRANCH  17  20
ENDBRANCH   1  12
BRANCH   6  22
ATOM     22  O   UNL     1      22.214   2.848  39.938  1.00  0.00    -0.507 OA
ATOM     23  H   UNL     1      21.270   2.506  39.845  1.00  0.00     0.293 HD
ENDBRANCH   6  22
BRANCH   8  24
ATOM     24  O   UNL     1      22.061   2.549  44.727  1.00  0.00    -0.508 OA
ATOM     25  H   UNL     1      22.499   2.541  45.641  1.00  0.00     0.293 HD
ENDBRANCH   8  24
TORSDOF 5
ENDMDL
MODEL 8
REMARK VINA RESULT:    -5.449      1.512      7.231
REMARK INTER + INTRA:          -6.684
REMARK INTER:                  -6.420
REMARK INTRA:                  -0.264
REMARK UNBOUND:                -0.279
REMARK SMILES O=c1cc(-c2ccc(O)c(O)c2)oc2cc(O)cc(O)c12
REMARK SMILES IDX 4 1 3 2 2 3 1 4 21 5 19 6 18 7 16 8 15 9 14 10 13 11 5 12
REMARK SMILES IDX 6 13 7 14 8 15 12 16 10 17 9 18 11 20 20 22 17 24
REMARK H PARENT 9 19 11 21 20 23 17 25
REMARK Flexibility Score: inf
ROOT
ATOM      1  C   UNL     1      32.901   5.440  41.862  1.00  0.00     0.138 A 
ATOM      2  C   UNL     1      31.592   5.082  41.512  1.00  0.00     0.100 A 
ATOM      3  C   UNL     1      30.598   5.053  42.491  1.00  0.00     0.197 A 
ATOM      4  O   UNL     1      29.446   4.674  42.156  1.00  0.00    -0.289 OA
ATOM      5  C   UNL     1      30.910   5.422  43.822  1.00  0.00     0.107 A 
ATOM      6  C   UNL     1      29.971   5.464  44.897  1.00  0.00     0.134 A 
ATOM      7  C   UNL     1      30.418   5.748  46.194  1.00  0.00     0.093 A 
ATOM      8  C   UNL     1      31.759   6.050  46.443  1.00  0.00     0.123 A 
ATOM      9  C   UNL     1      32.674   6.061  45.394  1.00  0.00     0.094 A 
ATOM     10  C   UNL     1      32.266   5.747  44.095  1.00  0.00     0.146 A 
ATOM     11  O   UNL     1      33.174   5.752  43.125  1.00  0.00    -0.456 OA
ENDROOT
BRANCH   1  12
ATOM     12  C   UNL     1      33.996   5.490  40.861  1.00  0.00     0.021 A 
ATOM     13  C   UNL     1      34.514   6.737  40.466  1.00  0.00     0.016 A 
ATOM     14  C   UNL     1      35.549   6.811  39.531  1.00  0.00     0.051 A 
ATOM     15  C   UNL     1      36.091   5.643  38.984  1.00  0.00     0.157 A 
ATOM     16  C   UNL     1      34.556   4.319  40.316  1.00  0.00     0.062 A 
ATOM     17  C   UNL     1      35.596   4.395  39.379  1.00  0.00     0.158 A 
BRANCH  15  18
ATOM     18  O   UNL     1      37.124   5.715  38.050  1.00  0.00    -0.504 OA
ATOM     19  H   UNL     1      38.082   5.885  38.331  1.00  0.00     0.293 HD
ENDBRANCH  15  18
BRANCH  17  20
ATOM     20  O   UNL     1      36.147   3.233  38.839  1.00  0.00    -0.504 OA
ATOM     21  H   UNL     1      36.540   2.509  39.429  1.00  0.00     0.293 HD
ENDBRANCH  17  20
ENDBRANCH   1  12
BRANCH   6  22
ATOM     22  O   UNL     1      28.596   5.258  44.745  1.00  0.00    -0.507 OA
ATOM     23  H   UNL     1      28.134   5.046  43.875  1.00  0.00     0.293 HD
ENDBRANCH   6  22
BRANCH   8  24
ATOM     24  O   UNL     1      32.192   6.348  47.733  1.00  0.00    -0.508 OA
ATOM     25  H   UNL     1      32.741   5.690  48.274  1.00  0.00     0.293 HD
ENDBRANCH   8  24
TORSDOF 5
ENDMDL
MODEL 9
REMARK VINA RESULT:    -5.392     14.196     16.878
REMARK INTER + INTRA:          -6.617
REMARK INTER:                  -6.330
REMARK INTRA:                  -0.287
REMARK UNBOUND:                -0.279
REMARK SMILES O=c1cc(-c2ccc(O)c(O)c2)oc2cc(O)cc(O)c12
REMARK SMILES IDX 4 1 3 2 2 3 1 4 21 5 19 6 18 7 16 8 15 9 14 10 13 11 5 12
REMARK SMILES IDX 6 13 7 14 8 15 12 16 10 17 9 18 11 20 20 22 17 24
REMARK H PARENT 9 19 11 21 20 23 17 25
REMARK Flexibility Score: inf
ROOT
ATOM      1  C   UNL     1      20.504  -2.645  45.360  1.00  0.00     0.138 A 
ATOM      2  C   UNL     1      21.685  -1.927  45.587  1.00  0.00     0.100 A 
ATOM      3  C   UNL     1      21.765  -0.588  45.203  1.00  0.00     0.197 A 
ATOM      4  O   UNL     1      22.858   0.013  45.370  1.00  0.00    -0.289 OA
ATOM      5  C   UNL     1      20.640   0.045  44.622  1.00  0.00     0.107 A 
ATOM      6  C   UNL     1      20.593   1.415  44.222  1.00  0.00     0.134 A 
ATOM      7  C   UNL     1      19.455   1.904  43.566  1.00  0.00     0.093 A 
ATOM      8  C   UNL     1      18.342   1.088  43.348  1.00  0.00     0.123 A 
ATOM      9  C   UNL     1      18.359  -0.236  43.779  1.00  0.00     0.094 A 
ATOM     10  C   UNL     1      19.492  -0.763  44.406  1.00  0.00     0.146 A 
ATOM     11  O   UNL     1      19.473  -2.036  44.785  1.00  0.00    -0.456 OA
ENDROOT
BRANCH   1  12
ATOM     12  C   UNL     1      20.364  -4.070  45.752  1.00  0.00     0.021 A 
ATOM     13  C   UNL     1      21.364  -4.989  45.383  1.00  0.00     0.016 A 
ATOM     14  C   UNL     1      21.260  -6.334  45.745  1.00  0.00     0.051 A 
ATOM     15  C   UNL     1      20.164  -6.782  46.490  1.00  0.00     0.157 A 
ATOM     16  C   UNL     1      19.271  -4.526  46.513  1.00  0.00     0.062 A 
ATOM     17  C   UNL     1      19.170  -5.877  46.877  1.00  0.00     0.158 A 
BRANCH  15  18
ATOM     18  O   UNL     1      20.057  -8.125  46.852  1.00  0.00    -0.504 OA
ATOM     19  H   UNL     1      20.082  -8.415  47.821  1.00  0.00     0.293 HD
ENDBRANCH  15  18
BRANCH  17  20
ATOM     20  O   UNL     1      18.084  -6.326  47.629  1.00  0.00    -0.504 OA
ATOM     21  H   UNL     1      17.357  -6.900  47.219  1.00  0.00     0.293 HD
ENDBRANCH  17  20
ENDBRANCH   1  12
BRANCH   6  22
ATOM     22  O   UNL     1      21.615   2.338  44.462  1.00  0.00    -0.507 OA
ATOM     23  H   UNL     1      22.600   2.122  44.473  1.00  0.00     0.293 HD
ENDBRANCH   6  22
BRANCH   8  24
ATOM     24  O   UNL     1      17.210   1.588  42.710  1.00  0.00    -0.508 OA
ATOM     25  H   UNL     1      16.283   1.232  42.918  1.00  0.00     0.293 HD
ENDBRANCH   8  24
TORSDOF 5
ENDMDL
