MODEL 1
REMARK VINA RESULT:    -4.889      0.000      0.000
REMARK INTER + INTRA:          -5.355
REMARK INTER:                  -5.175
REMARK INTRA:                  -0.179
REMARK UNBOUND:                -0.179
REMARK SMILES C=C1CC=C(C(C)C)CC1
REMARK SMILES IDX 5 1 4 2 3 3 2 4 1 5 10 6 9 7 6 8 7 9 8 10
REMARK H PARENT
REMARK Flexibility Score: inf
ROOT
ATOM      1  C   UNL     1     110.499 105.428 126.214  1.00  0.00    -0.071 C 
ATOM      2  C   UNL     1     110.357 105.024 127.495  1.00  0.00    -0.023 C 
ATOM      3  C   UNL     1     111.273 105.532 128.580  1.00  0.00     0.057 C 
ATOM      4  C   UNL     1     111.656 106.976 128.334  1.00  0.00    -0.073 C 
ATOM      5  C   UNL     1     111.993 107.767 129.362  1.00  0.00     0.008 C 
ATOM      6  C   UNL     1     111.694 107.522 126.921  1.00  0.00     0.035 C 
ATOM      7  C   UNL     1     111.614 106.396 125.880  1.00  0.00     0.035 C 
ENDROOT
BRANCH   1   8
ATOM      8  C   UNL     1     109.554 104.949 125.123  1.00  0.00     0.008 C 
ATOM      9  C   UNL     1     110.022 105.416 123.739  1.00  0.00     0.012 C 
ATOM     10  C   UNL     1     108.112 105.394 125.398  1.00  0.00     0.012 C 
ENDBRANCH   1   8
TORSDOF 1
ENDMDL
MODEL 2
REMARK VINA RESULT:    -4.873      5.976      6.634
REMARK INTER + INTRA:          -5.337
REMARK INTER:                  -5.158
REMARK INTRA:                  -0.179
REMARK UNBOUND:                -0.179
REMARK SMILES C=C1CC=C(C(C)C)CC1
REMARK SMILES IDX 5 1 4 2 3 3 2 4 1 5 10 6 9 7 6 8 7 9 8 10
REMARK H PARENT
REMARK Flexibility Score: inf
ROOT
ATOM      1  C   UNL     1     105.406 102.045 126.254  1.00  0.00    -0.071 C 
ATOM      2  C   UNL     1     105.009 102.169 127.539  1.00  0.00    -0.023 C 
ATOM      3  C   UNL     1     105.514 101.232 128.606  1.00  0.00     0.057 C 
ATOM      4  C   UNL     1     106.955 100.844 128.349  1.00  0.00    -0.073 C 
ATOM      5  C   UNL     1     107.747 100.484 129.368  1.00  0.00     0.008 C 
ATOM      6  C   UNL     1     107.495 100.825 126.933  1.00  0.00     0.035 C 
ATOM      7  C   UNL     1     106.366 100.930 125.897  1.00  0.00     0.035 C 
ENDROOT
BRANCH   1   8
ATOM      8  C   UNL     1     104.930 103.012 125.180  1.00  0.00     0.008 C 
ATOM      9  C   UNL     1     105.320 102.522 123.780  1.00  0.00     0.012 C 
ATOM     10  C   UNL     1     105.453 104.431 125.435  1.00  0.00     0.012 C 
ENDBRANCH   1   8
TORSDOF 1
ENDMDL
MODEL 3
REMARK VINA RESULT:    -4.867      8.111      9.257
REMARK INTER + INTRA:          -5.331
REMARK INTER:                  -5.186
REMARK INTRA:                  -0.144
REMARK UNBOUND:                -0.179
REMARK SMILES C=C1CC=C(C(C)C)CC1
REMARK SMILES IDX 5 1 4 2 3 3 2 4 1 5 10 6 9 7 6 8 7 9 8 10
REMARK H PARENT
REMARK Flexibility Score: inf
ROOT
ATOM      1  C   UNL     1     102.257 106.990 125.748  1.00  0.00    -0.071 C 
ATOM      2  C   UNL     1     102.643 107.333 126.996  1.00  0.00    -0.023 C 
ATOM      3  C   UNL     1     101.782 107.022 128.194  1.00  0.00     0.057 C 
ATOM      4  C   UNL     1     101.064 105.700 128.017  1.00  0.00    -0.073 C 
ATOM      5  C   UNL     1     100.693 104.987 129.089  1.00  0.00     0.008 C 
ATOM      6  C   UNL     1     100.730 105.197 126.626  1.00  0.00     0.035 C 
ATOM      7  C   UNL     1     100.924 106.294 125.569  1.00  0.00     0.035 C 
ENDROOT
BRANCH   1   8
ATOM      8  C   UNL     1     103.140 107.266 124.541  1.00  0.00     0.008 C 
ATOM      9  C   UNL     1     103.491 108.756 124.440  1.00  0.00     0.012 C 
ATOM     10  C   UNL     1     102.490 106.762 123.246  1.00  0.00     0.012 C 
ENDBRANCH   1   8
TORSDOF 1
ENDMDL
MODEL 4
REMARK VINA RESULT:    -4.866      5.985      6.603
REMARK INTER + INTRA:          -5.329
REMARK INTER:                  -5.148
REMARK INTRA:                  -0.182
REMARK UNBOUND:                -0.179
REMARK SMILES C=C1CC=C(C(C)C)CC1
REMARK SMILES IDX 5 1 4 2 3 3 2 4 1 5 10 6 9 7 6 8 7 9 8 10
REMARK H PARENT
REMARK Flexibility Score: inf
ROOT
ATOM      1  C   UNL     1     107.070 110.489 126.070  1.00  0.00    -0.071 C 
ATOM      2  C   UNL     1     107.479 110.309 127.345  1.00  0.00    -0.023 C 
ATOM      3  C   UNL     1     106.986 111.201 128.456  1.00  0.00     0.057 C 
ATOM      4  C   UNL     1     105.544 111.604 128.229  1.00  0.00    -0.073 C 
ATOM      5  C   UNL     1     104.763 111.922 129.270  1.00  0.00     0.008 C 
ATOM      6  C   UNL     1     104.991 111.685 126.820  1.00  0.00     0.035 C 
ATOM      7  C   UNL     1     106.111 111.621 125.771  1.00  0.00     0.035 C 
ENDROOT
BRANCH   1   8
ATOM      8  C   UNL     1     107.534 109.567 124.952  1.00  0.00     0.008 C 
ATOM      9  C   UNL     1     106.843 109.913 123.627  1.00  0.00     0.012 C 
ATOM     10  C   UNL     1     107.321 108.093 125.319  1.00  0.00     0.012 C 
ENDBRANCH   1   8
TORSDOF 1
ENDMDL
MODEL 5
REMARK VINA RESULT:    -4.832      0.946      4.184
REMARK INTER + INTRA:          -5.294
REMARK INTER:                  -5.116
REMARK INTRA:                  -0.177
REMARK UNBOUND:                -0.179
REMARK SMILES C=C1CC=C(C(C)C)CC1
REMARK SMILES IDX 5 1 4 2 3 3 2 4 1 5 10 6 9 7 6 8 7 9 8 10
REMARK H PARENT
REMARK Flexibility Score: inf
ROOT
ATOM      1  C   UNL     1     110.662 106.064 127.843  1.00  0.00    -0.071 C 
ATOM      2  C   UNL     1     109.630 105.216 127.647  1.00  0.00    -0.023 C 
ATOM      3  C   UNL     1     109.016 105.033 126.282  1.00  0.00     0.057 C 
ATOM      4  C   UNL     1     110.070 105.122 125.198  1.00  0.00    -0.073 C 
ATOM      5  C   UNL     1     109.885 104.496 124.028  1.00  0.00     0.008 C 
ATOM      6  C   UNL     1     111.321 105.950 125.420  1.00  0.00     0.035 C 
ATOM      7  C   UNL     1     111.189 106.848 126.659  1.00  0.00     0.035 C 
ENDROOT
BRANCH   1   8
ATOM      8  C   UNL     1     111.310 106.223 129.210  1.00  0.00     0.008 C 
ATOM      9  C   UNL     1     112.045 107.564 129.322  1.00  0.00     0.012 C 
ATOM     10  C   UNL     1     112.248 105.051 129.523  1.00  0.00     0.012 C 
ENDBRANCH   1   8
TORSDOF 1
ENDMDL
MODEL 6
REMARK VINA RESULT:    -4.820      7.652      9.654
REMARK INTER + INTRA:          -5.282
REMARK INTER:                  -5.105
REMARK INTRA:                  -0.177
REMARK UNBOUND:                -0.179
REMARK SMILES C=C1CC=C(C(C)C)CC1
REMARK SMILES IDX 5 1 4 2 3 3 2 4 1 5 10 6 9 7 6 8 7 9 8 10
REMARK H PARENT
REMARK Flexibility Score: inf
ROOT
ATOM      1  C   UNL     1     101.861 106.424 127.813  1.00  0.00    -0.071 C 
ATOM      2  C   UNL     1     102.912 107.250 127.617  1.00  0.00    -0.023 C 
ATOM      3  C   UNL     1     103.515 107.435 126.248  1.00  0.00     0.057 C 
ATOM      4  C   UNL     1     102.449 107.384 125.174  1.00  0.00    -0.073 C 
ATOM      5  C   UNL     1     102.637 108.019 124.009  1.00  0.00     0.008 C 
ATOM      6  C   UNL     1     101.182 106.583 125.399  1.00  0.00     0.035 C 
ATOM      7  C   UNL     1     101.304 105.667 126.626  1.00  0.00     0.035 C 
ENDROOT
BRANCH   1   8
ATOM      8  C   UNL     1     101.224 106.264 129.185  1.00  0.00     0.008 C 
ATOM      9  C   UNL     1     100.482 104.926 129.299  1.00  0.00     0.012 C 
ATOM     10  C   UNL     1     100.295 107.440 129.510  1.00  0.00     0.012 C 
ENDBRANCH   1   8
TORSDOF 1
ENDMDL
MODEL 7
REMARK VINA RESULT:    -4.740      8.136      9.239
REMARK INTER + INTRA:          -5.196
REMARK INTER:                  -5.055
REMARK INTRA:                  -0.142
REMARK UNBOUND:                -0.179
REMARK SMILES C=C1CC=C(C(C)C)CC1
REMARK SMILES IDX 5 1 4 2 3 3 2 4 1 5 10 6 9 7 6 8 7 9 8 10
REMARK H PARENT
REMARK Flexibility Score: inf
ROOT
ATOM      1  C   UNL     1     102.081 106.806 125.683  1.00  0.00    -0.071 C 
ATOM      2  C   UNL     1     101.343 105.674 125.684  1.00  0.00    -0.023 C 
ATOM      3  C   UNL     1     101.157 104.863 126.941  1.00  0.00     0.057 C 
ATOM      4  C   UNL     1     101.069 105.762 128.157  1.00  0.00    -0.073 C 
ATOM      5  C   UNL     1     100.406 105.354 129.248  1.00  0.00     0.008 C 
ATOM      6  C   UNL     1     101.763 107.110 128.157  1.00  0.00     0.035 C 
ATOM      7  C   UNL     1     102.735 107.243 126.976  1.00  0.00     0.035 C 
ENDROOT
BRANCH   1   8
ATOM      8  C   UNL     1     102.240 107.648 124.427  1.00  0.00     0.008 C 
ATOM      9  C   UNL     1     102.319 106.765 123.175  1.00  0.00     0.012 C 
ATOM     10  C   UNL     1     103.457 108.576 124.527  1.00  0.00     0.012 C 
ENDBRANCH   1   8
TORSDOF 1
ENDMDL
MODEL 8
REMARK VINA RESULT:    -4.705      6.084      7.189
REMARK INTER + INTRA:          -5.159
REMARK INTER:                  -5.016
REMARK INTRA:                  -0.143
REMARK UNBOUND:                -0.179
REMARK SMILES C=C1CC=C(C(C)C)CC1
REMARK SMILES IDX 5 1 4 2 3 3 2 4 1 5 10 6 9 7 6 8 7 9 8 10
REMARK H PARENT
REMARK Flexibility Score: inf
ROOT
ATOM      1  C   UNL     1     105.915 102.108 127.991  1.00  0.00    -0.071 C 
ATOM      2  C   UNL     1     105.237 102.452 129.108  1.00  0.00    -0.023 C 
ATOM      3  C   UNL     1     104.454 103.738 129.180  1.00  0.00     0.057 C 
ATOM      4  C   UNL     1     103.820 104.063 127.843  1.00  0.00    -0.073 C 
ATOM      5  C   UNL     1     102.707 104.807 127.790  1.00  0.00     0.008 C 
ATOM      6  C   UNL     1     104.465 103.578 126.560  1.00  0.00     0.035 C 
ATOM      7  C   UNL     1     105.886 103.050 126.807  1.00  0.00     0.035 C 
ENDROOT
BRANCH   1   8
ATOM      8  C   UNL     1     106.675 100.793 127.899  1.00  0.00     0.008 C 
ATOM      9  C   UNL     1     107.554 100.574 129.137  1.00  0.00     0.012 C 
ATOM     10  C   UNL     1     107.504 100.717 126.611  1.00  0.00     0.012 C 
ENDBRANCH   1   8
TORSDOF 1
ENDMDL
MODEL 9
REMARK VINA RESULT:    -4.702      2.515      3.483
REMARK INTER + INTRA:          -5.156
REMARK INTER:                  -5.016
REMARK INTRA:                  -0.140
REMARK UNBOUND:                -0.179
REMARK SMILES C=C1CC=C(C(C)C)CC1
REMARK SMILES IDX 5 1 4 2 3 3 2 4 1 5 10 6 9 7 6 8 7 9 8 10
REMARK H PARENT
REMARK Flexibility Score: inf
ROOT
ATOM      1  C   UNL     1     109.466 107.531 128.172  1.00  0.00    -0.071 C 
ATOM      2  C   UNL     1     109.088 106.308 128.605  1.00  0.00    -0.023 C 
ATOM      3  C   UNL     1     110.068 105.163 128.664  1.00  0.00     0.057 C 
ATOM      4  C   UNL     1     111.449 105.651 129.048  1.00  0.00    -0.073 C 
ATOM      5  C   UNL     1     112.309 104.823 129.658  1.00  0.00     0.008 C 
ATOM      6  C   UNL     1     111.876 107.066 128.711  1.00  0.00     0.035 C 
ATOM      7  C   UNL     1     110.900 107.730 127.729  1.00  0.00     0.035 C 
ENDROOT
BRANCH   1   8
ATOM      8  C   UNL     1     108.492 108.699 128.148  1.00  0.00     0.008 C 
ATOM      9  C   UNL     1     107.488 108.608 129.304  1.00  0.00     0.012 C 
ATOM     10  C   UNL     1     107.772 108.797 126.797  1.00  0.00     0.012 C 
ENDBRANCH   1   8
TORSDOF 1
ENDMDL
