MODEL 1
REMARK VINA RESULT:    -5.330      0.000      0.000
REMARK INTER + INTRA:          -6.052
REMARK INTER:                  -5.953
REMARK INTRA:                  -0.099
REMARK UNBOUND:                -0.099
REMARK SMILES COc1cc2ccc(=O)oc2cc1OC
REMARK SMILES IDX 3 1 13 2 12 3 11 4 5 5 4 6 6 7 7 8 8 9 9 10 10 11 2 12 1 13
REMARK SMILES IDX 14 14 15 15
REMARK H PARENT
REMARK Flexibility Score: inf
ROOT
ATOM      1  C   UNL     1      19.436  -1.742 -25.756  1.00  0.00     0.161 A 
ATOM      2  C   UNL     1      19.016  -1.455 -27.065  1.00  0.00     0.164 A 
ATOM      3  C   UNL     1      18.027  -0.476 -27.285  1.00  0.00     0.098 A 
ATOM      4  C   UNL     1      17.461   0.211 -26.208  1.00  0.00     0.142 A 
ATOM      5  C   UNL     1      17.882  -0.076 -24.894  1.00  0.00     0.022 A 
ATOM      6  C   UNL     1      18.864  -1.048 -24.670  1.00  0.00     0.062 A 
ATOM      7  C   UNL     1      17.295   0.630 -23.837  1.00  0.00     0.019 A 
ATOM      8  C   UNL     1      16.322   1.588 -24.111  1.00  0.00     0.094 A 
ATOM      9  C   UNL     1      15.954   1.820 -25.441  1.00  0.00     0.336 A 
ATOM     10  O   UNL     1      15.076   2.681 -25.709  1.00  0.00    -0.246 OA
ATOM     11  O   UNL     1      16.527   1.135 -26.427  1.00  0.00    -0.423 OA
ENDROOT
BRANCH   1  12
ATOM     12  O   UNL     1      20.424  -2.722 -25.575  1.00  0.00    -0.493 OA
ATOM     13  C   UNL     1      20.160  -4.111 -25.395  1.00  0.00     0.278 C 
ENDBRANCH   1  12
BRANCH   2  14
ATOM     14  O   UNL     1      19.607  -2.165 -28.124  1.00  0.00    -0.493 OA
ATOM     15  C   UNL     1      20.434  -1.581 -29.124  1.00  0.00     0.278 C 
ENDBRANCH   2  14
TORSDOF 2
ENDMDL
MODEL 2
REMARK VINA RESULT:    -5.210      3.506      4.802
REMARK INTER + INTRA:          -5.918
REMARK INTER:                  -5.821
REMARK INTRA:                  -0.097
REMARK UNBOUND:                -0.099
REMARK SMILES COc1cc2ccc(=O)oc2cc1OC
REMARK SMILES IDX 3 1 13 2 12 3 11 4 5 5 4 6 6 7 7 8 8 9 9 10 10 11 2 12 1 13
REMARK SMILES IDX 14 14 15 15
REMARK H PARENT
REMARK Flexibility Score: inf
ROOT
ATOM      1  C   UNL     1      19.529   0.595 -21.756  1.00  0.00     0.161 A 
ATOM      2  C   UNL     1      19.488   1.977 -22.008  1.00  0.00     0.164 A 
ATOM      3  C   UNL     1      18.573   2.490 -22.949  1.00  0.00     0.098 A 
ATOM      4  C   UNL     1      17.706   1.633 -23.631  1.00  0.00     0.142 A 
ATOM      5  C   UNL     1      17.746   0.247 -23.378  1.00  0.00     0.022 A 
ATOM      6  C   UNL     1      18.653  -0.269 -22.445  1.00  0.00     0.062 A 
ATOM      7  C   UNL     1      16.865  -0.584 -24.079  1.00  0.00     0.019 A 
ATOM      8  C   UNL     1      15.979  -0.024 -24.998  1.00  0.00     0.094 A 
ATOM      9  C   UNL     1      15.996   1.361 -25.197  1.00  0.00     0.336 A 
ATOM     10  O   UNL     1      15.204   1.886 -26.023  1.00  0.00    -0.246 OA
ATOM     11  O   UNL     1      16.844   2.128 -24.517  1.00  0.00    -0.423 OA
ENDROOT
BRANCH   1  12
ATOM     12  O   UNL     1      20.453   0.119 -20.812  1.00  0.00    -0.493 OA
ATOM     13  C   UNL     1      20.130  -0.228 -19.469  1.00  0.00     0.278 C 
ENDBRANCH   1  12
BRANCH   2  14
ATOM     14  O   UNL     1      20.374   2.808 -21.303  1.00  0.00    -0.493 OA
ATOM     15  C   UNL     1      21.695   3.125 -21.729  1.00  0.00     0.278 C 
ENDBRANCH   2  14
TORSDOF 2
ENDMDL
MODEL 3
REMARK VINA RESULT:    -5.187      2.295      5.165
REMARK INTER + INTRA:          -5.893
REMARK INTER:                  -5.777
REMARK INTRA:                  -0.116
REMARK UNBOUND:                -0.099
REMARK SMILES COc1cc2ccc(=O)oc2cc1OC
REMARK SMILES IDX 3 1 13 2 12 3 11 4 5 5 4 6 6 7 7 8 8 9 9 10 10 11 2 12 1 13
REMARK SMILES IDX 14 14 15 15
REMARK H PARENT
REMARK Flexibility Score: inf
ROOT
ATOM      1  C   UNL     1      19.087   0.490 -25.076  1.00  0.00     0.161 A 
ATOM      2  C   UNL     1      17.798   0.383 -24.527  1.00  0.00     0.164 A 
ATOM      3  C   UNL     1      17.267  -0.888 -24.229  1.00  0.00     0.098 A 
ATOM      4  C   UNL     1      18.015  -2.042 -24.476  1.00  0.00     0.142 A 
ATOM      5  C   UNL     1      19.308  -1.936 -25.026  1.00  0.00     0.022 A 
ATOM      6  C   UNL     1      19.841  -0.675 -25.324  1.00  0.00     0.062 A 
ATOM      7  C   UNL     1      20.031  -3.110 -25.262  1.00  0.00     0.019 A 
ATOM      8  C   UNL     1      19.459  -4.341 -24.949  1.00  0.00     0.094 A 
ATOM      9  C   UNL     1      18.170  -4.370 -24.405  1.00  0.00     0.336 A 
ATOM     10  O   UNL     1      17.635  -5.472 -24.115  1.00  0.00    -0.246 OA
ATOM     11  O   UNL     1      17.504  -3.238 -24.191  1.00  0.00    -0.423 OA
ENDROOT
BRANCH   1  12
ATOM     12  O   UNL     1      19.583   1.771 -25.359  1.00  0.00    -0.493 OA
ATOM     13  C   UNL     1      20.966   2.115 -25.386  1.00  0.00     0.278 C 
ENDBRANCH   1  12
BRANCH   2  14
ATOM     14  O   UNL     1      17.075   1.563 -24.292  1.00  0.00    -0.493 OA
ATOM     15  C   UNL     1      16.063   2.075 -25.153  1.00  0.00     0.278 C 
ENDBRANCH   2  14
TORSDOF 2
ENDMDL
MODEL 4
REMARK VINA RESULT:    -5.166      2.994      5.036
REMARK INTER + INTRA:          -5.869
REMARK INTER:                  -5.764
REMARK INTRA:                  -0.105
REMARK UNBOUND:                -0.099
REMARK SMILES COc1cc2ccc(=O)oc2cc1OC
REMARK SMILES IDX 3 1 13 2 12 3 11 4 5 5 4 6 6 7 7 8 8 9 9 10 10 11 2 12 1 13
REMARK SMILES IDX 14 14 15 15
REMARK H PARENT
REMARK Flexibility Score: inf
ROOT
ATOM      1  C   UNL     1      18.838  -1.272 -24.655  1.00  0.00     0.161 A 
ATOM      2  C   UNL     1      19.662  -2.187 -25.331  1.00  0.00     0.164 A 
ATOM      3  C   UNL     1      21.054  -1.975 -25.376  1.00  0.00     0.098 A 
ATOM      4  C   UNL     1      21.620  -0.860 -24.752  1.00  0.00     0.142 A 
ATOM      5  C   UNL     1      20.794   0.059 -24.074  1.00  0.00     0.022 A 
ATOM      6  C   UNL     1      19.410  -0.147 -24.026  1.00  0.00     0.062 A 
ATOM      7  C   UNL     1      21.391   1.166 -23.460  1.00  0.00     0.019 A 
ATOM      8  C   UNL     1      22.773   1.327 -23.534  1.00  0.00     0.094 A 
ATOM      9  C   UNL     1      23.530   0.374 -24.226  1.00  0.00     0.336 A 
ATOM     10  O   UNL     1      24.780   0.502 -24.305  1.00  0.00    -0.246 OA
ATOM     11  O   UNL     1      22.937  -0.669 -24.800  1.00  0.00    -0.423 OA
ENDROOT
BRANCH   1  12
ATOM     12  O   UNL     1      17.456  -1.515 -24.630  1.00  0.00    -0.493 OA
ATOM     13  C   UNL     1      16.456  -0.501 -24.667  1.00  0.00     0.278 C 
ENDBRANCH   1  12
BRANCH   2  14
ATOM     14  O   UNL     1      19.060  -3.296 -25.946  1.00  0.00    -0.493 OA
ATOM     15  C   UNL     1      19.770  -4.418 -26.461  1.00  0.00     0.278 C 
ENDBRANCH   2  14
TORSDOF 2
ENDMDL
MODEL 5
REMARK VINA RESULT:    -5.160      1.798      2.229
REMARK INTER + INTRA:          -5.863
REMARK INTER:                  -5.745
REMARK INTRA:                  -0.118
REMARK UNBOUND:                -0.099
REMARK SMILES COc1cc2ccc(=O)oc2cc1OC
REMARK SMILES IDX 3 1 13 2 12 3 11 4 5 5 4 6 6 7 7 8 8 9 9 10 10 11 2 12 1 13
REMARK SMILES IDX 14 14 15 15
REMARK H PARENT
REMARK Flexibility Score: inf
ROOT
ATOM      1  C   UNL     1      18.453  -2.928 -24.366  1.00  0.00     0.161 A 
ATOM      2  C   UNL     1      19.412  -2.507 -25.302  1.00  0.00     0.164 A 
ATOM      3  C   UNL     1      19.432  -1.164 -25.727  1.00  0.00     0.098 A 
ATOM      4  C   UNL     1      18.505  -0.249 -25.224  1.00  0.00     0.142 A 
ATOM      5  C   UNL     1      17.543  -0.670 -24.284  1.00  0.00     0.022 A 
ATOM      6  C   UNL     1      17.517  -2.004 -23.858  1.00  0.00     0.062 A 
ATOM      7  C   UNL     1      16.627   0.271 -23.800  1.00  0.00     0.019 A 
ATOM      8  C   UNL     1      16.692   1.586 -24.254  1.00  0.00     0.094 A 
ATOM      9  C   UNL     1      17.675   1.933 -25.188  1.00  0.00     0.336 A 
ATOM     10  O   UNL     1      17.750   3.116 -25.610  1.00  0.00    -0.246 OA
ATOM     11  O   UNL     1      18.533   1.019 -25.632  1.00  0.00    -0.423 OA
ENDROOT
BRANCH   1  12
ATOM     12  O   UNL     1      18.462  -4.273 -23.964  1.00  0.00    -0.493 OA
ATOM     13  C   UNL     1      17.445  -5.218 -24.281  1.00  0.00     0.278 C 
ENDBRANCH   1  12
BRANCH   2  14
ATOM     14  O   UNL     1      20.329  -3.454 -25.786  1.00  0.00    -0.493 OA
ATOM     15  C   UNL     1      20.101  -4.296 -26.911  1.00  0.00     0.278 C 
ENDBRANCH   2  14
TORSDOF 2
ENDMDL
MODEL 6
REMARK VINA RESULT:    -5.126      2.272      3.438
REMARK INTER + INTRA:          -5.825
REMARK INTER:                  -5.708
REMARK INTRA:                  -0.117
REMARK UNBOUND:                -0.099
REMARK SMILES COc1cc2ccc(=O)oc2cc1OC
REMARK SMILES IDX 3 1 13 2 12 3 11 4 5 5 4 6 6 7 7 8 8 9 9 10 10 11 2 12 1 13
REMARK SMILES IDX 14 14 15 15
REMARK H PARENT
REMARK Flexibility Score: inf
ROOT
ATOM      1  C   UNL     1      18.337  -0.720 -26.673  1.00  0.00     0.161 A 
ATOM      2  C   UNL     1      18.998  -1.671 -25.876  1.00  0.00     0.164 A 
ATOM      3  C   UNL     1      19.186  -1.423 -24.502  1.00  0.00     0.098 A 
ATOM      4  C   UNL     1      18.719  -0.239 -23.927  1.00  0.00     0.142 A 
ATOM      5  C   UNL     1      18.056   0.715 -24.724  1.00  0.00     0.022 A 
ATOM      6  C   UNL     1      17.867   0.475 -26.091  1.00  0.00     0.062 A 
ATOM      7  C   UNL     1      17.601   1.892 -24.118  1.00  0.00     0.019 A 
ATOM      8  C   UNL     1      17.813   2.085 -22.755  1.00  0.00     0.094 A 
ATOM      9  C   UNL     1      18.480   1.094 -22.025  1.00  0.00     0.336 A 
ATOM     10  O   UNL     1      18.681   1.250 -20.792  1.00  0.00    -0.246 OA
ATOM     11  O   UNL     1      18.902  -0.015 -22.626  1.00  0.00    -0.423 OA
ENDROOT
BRANCH   1  12
ATOM     12  O   UNL     1      18.167  -1.000 -28.037  1.00  0.00    -0.493 OA
ATOM     13  C   UNL     1      18.755  -0.249 -29.096  1.00  0.00     0.278 C 
ENDBRANCH   1  12
BRANCH   2  14
ATOM     14  O   UNL     1      19.453  -2.850 -26.488  1.00  0.00    -0.493 OA
ATOM     15  C   UNL     1      20.106  -3.914 -25.803  1.00  0.00     0.278 C 
ENDBRANCH   2  14
TORSDOF 2
ENDMDL
MODEL 7
REMARK VINA RESULT:    -5.112     10.179     11.923
REMARK INTER + INTRA:          -5.809
REMARK INTER:                  -5.683
REMARK INTRA:                  -0.126
REMARK UNBOUND:                -0.099
REMARK SMILES COc1cc2ccc(=O)oc2cc1OC
REMARK SMILES IDX 3 1 13 2 12 3 11 4 5 5 4 6 6 7 7 8 8 9 9 10 10 11 2 12 1 13
REMARK SMILES IDX 14 14 15 15
REMARK H PARENT
REMARK Flexibility Score: inf
ROOT
ATOM      1  C   UNL     1      20.732  -0.661 -16.379  1.00  0.00     0.161 A 
ATOM      2  C   UNL     1      20.843   0.727 -16.565  1.00  0.00     0.164 A 
ATOM      3  C   UNL     1      21.942   1.421 -16.021  1.00  0.00     0.098 A 
ATOM      4  C   UNL     1      22.922   0.737 -15.298  1.00  0.00     0.142 A 
ATOM      5  C   UNL     1      22.812  -0.656 -15.112  1.00  0.00     0.022 A 
ATOM      6  C   UNL     1      21.722  -1.350 -15.650  1.00  0.00     0.062 A 
ATOM      7  C   UNL     1      23.810  -1.312 -14.382  1.00  0.00     0.019 A 
ATOM      8  C   UNL     1      24.876  -0.578 -13.867  1.00  0.00     0.094 A 
ATOM      9  C   UNL     1      24.920   0.803 -14.092  1.00  0.00     0.336 A 
ATOM     10  O   UNL     1      25.874   1.484 -13.634  1.00  0.00    -0.246 OA
ATOM     11  O   UNL     1      23.957   1.402 -14.789  1.00  0.00    -0.423 OA
ENDROOT
BRANCH   1  12
ATOM     12  O   UNL     1      19.624  -1.319 -16.936  1.00  0.00    -0.493 OA
ATOM     13  C   UNL     1      19.692  -2.237 -18.023  1.00  0.00     0.278 C 
ENDBRANCH   1  12
BRANCH   2  14
ATOM     14  O   UNL     1      19.839   1.383 -17.297  1.00  0.00    -0.493 OA
ATOM     15  C   UNL     1      18.720   2.045 -16.719  1.00  0.00     0.278 C 
ENDBRANCH   2  14
TORSDOF 2
ENDMDL
MODEL 8
REMARK VINA RESULT:    -5.094      1.927      2.631
REMARK INTER + INTRA:          -5.789
REMARK INTER:                  -5.688
REMARK INTRA:                  -0.101
REMARK UNBOUND:                -0.099
REMARK SMILES COc1cc2ccc(=O)oc2cc1OC
REMARK SMILES IDX 3 1 13 2 12 3 11 4 5 5 4 6 6 7 7 8 8 9 9 10 10 11 2 12 1 13
REMARK SMILES IDX 14 14 15 15
REMARK H PARENT
REMARK Flexibility Score: inf
ROOT
ATOM      1  C   UNL     1      21.014  -0.619 -25.076  1.00  0.00     0.161 A 
ATOM      2  C   UNL     1      20.137  -1.679 -25.360  1.00  0.00     0.164 A 
ATOM      3  C   UNL     1      18.782  -1.411 -25.641  1.00  0.00     0.098 A 
ATOM      4  C   UNL     1      18.306  -0.097 -25.639  1.00  0.00     0.142 A 
ATOM      5  C   UNL     1      19.186   0.967 -25.354  1.00  0.00     0.022 A 
ATOM      6  C   UNL     1      20.533   0.706 -25.074  1.00  0.00     0.062 A 
ATOM      7  C   UNL     1      18.678   2.271 -25.359  1.00  0.00     0.019 A 
ATOM      8  C   UNL     1      17.330   2.480 -25.644  1.00  0.00     0.094 A 
ATOM      9  C   UNL     1      16.516   1.375 -25.917  1.00  0.00     0.336 A 
ATOM     10  O   UNL     1      15.296   1.542 -26.177  1.00  0.00    -0.246 OA
ATOM     11  O   UNL     1      17.025   0.145 -25.906  1.00  0.00    -0.423 OA
ENDROOT
BRANCH   1  12
ATOM     12  O   UNL     1      22.356  -0.923 -24.801  1.00  0.00    -0.493 OA
ATOM     13  C   UNL     1      23.353   0.041 -24.473  1.00  0.00     0.278 C 
ENDBRANCH   1  12
BRANCH   2  14
ATOM     14  O   UNL     1      20.649  -2.986 -25.354  1.00  0.00    -0.493 OA
ATOM     15  C   UNL     1      19.853  -4.166 -25.393  1.00  0.00     0.278 C 
ENDBRANCH   2  14
TORSDOF 2
ENDMDL
MODEL 9
REMARK VINA RESULT:    -5.051      3.275      4.847
REMARK INTER + INTRA:          -5.741
REMARK INTER:                  -5.627
REMARK INTRA:                  -0.114
REMARK UNBOUND:                -0.099
REMARK SMILES COc1cc2ccc(=O)oc2cc1OC
REMARK SMILES IDX 3 1 13 2 12 3 11 4 5 5 4 6 6 7 7 8 8 9 9 10 10 11 2 12 1 13
REMARK SMILES IDX 14 14 15 15
REMARK H PARENT
REMARK Flexibility Score: inf
ROOT
ATOM      1  C   UNL     1      19.693  -2.000 -25.341  1.00  0.00     0.161 A 
ATOM      2  C   UNL     1      18.840  -1.217 -24.545  1.00  0.00     0.164 A 
ATOM      3  C   UNL     1      19.367  -0.141 -23.804  1.00  0.00     0.098 A 
ATOM      4  C   UNL     1      20.732   0.151 -23.855  1.00  0.00     0.142 A 
ATOM      5  C   UNL     1      21.588  -0.633 -24.653  1.00  0.00     0.022 A 
ATOM      6  C   UNL     1      21.071  -1.704 -25.392  1.00  0.00     0.062 A 
ATOM      7  C   UNL     1      22.951  -0.315 -24.682  1.00  0.00     0.019 A 
ATOM      8  C   UNL     1      23.419   0.760 -23.930  1.00  0.00     0.094 A 
ATOM      9  C   UNL     1      22.510   1.495 -23.161  1.00  0.00     0.336 A 
ATOM     10  O   UNL     1      22.913   2.470 -22.474  1.00  0.00    -0.246 OA
ATOM     11  O   UNL     1      21.220   1.171 -23.151  1.00  0.00    -0.423 OA
ENDROOT
BRANCH   1  12
ATOM     12  O   UNL     1      19.134  -3.064 -26.066  1.00  0.00    -0.493 OA
ATOM     13  C   UNL     1      19.775  -4.317 -26.288  1.00  0.00     0.278 C 
ENDBRANCH   1  12
BRANCH   2  14
ATOM     14  O   UNL     1      17.474  -1.539 -24.518  1.00  0.00    -0.493 OA
ATOM     15  C   UNL     1      16.419  -0.596 -24.672  1.00  0.00     0.278 C 
ENDBRANCH   2  14
TORSDOF 2
ENDMDL
