MODEL 1
REMARK VINA RESULT:    -3.411      0.000      0.000
REMARK INTER + INTRA:          -3.764
REMARK INTER:                  -3.909
REMARK INTRA:                   0.145
REMARK UNBOUND:                 0.145
REMARK SMILES CC(C)[C@@H]([NH3+])C(=O)[O-]
REMARK SMILES IDX 4 1 5 2 6 6 7 7 8 8 2 9 1 10 3 11
REMARK H PARENT 5 3 5 4 5 5
REMARK Flexibility Score: inf
ROOT
ATOM      1  C   UNL     1       1.067   1.827 -38.409  1.00  0.00     0.230 C 
ENDROOT
BRANCH   1   2
ATOM      2  N   UNL     1       0.526   2.851 -37.503  1.00  0.00    -0.350 N 
ATOM      3  H   UNL     1       1.284   3.321 -36.959  1.00  0.00     0.345 HD
ATOM      4  H   UNL     1       0.017   3.575 -38.060  1.00  0.00     0.345 HD
ATOM      5  H   UNL     1      -0.155   2.417 -36.839  1.00  0.00     0.345 HD
ENDBRANCH   1   2
BRANCH   1   6
ATOM      6  C   UNL     1       1.836   2.464 -39.542  1.00  0.00     0.099 C 
ATOM      7  O   UNL     1       2.609   3.438 -39.331  1.00  0.00    -0.544 OA
ATOM      8  O   UNL     1       1.716   1.956 -40.830  1.00  0.00    -0.544 OA
ENDBRANCH   1   6
BRANCH   1   9
ATOM      9  C   UNL     1       1.902   0.758 -37.640  1.00  0.00     0.047 C 
ATOM     10  C   UNL     1       3.344   1.201 -37.338  1.00  0.00     0.014 C 
ATOM     11  C   UNL     1       1.911  -0.585 -38.386  1.00  0.00     0.014 C 
ENDBRANCH   1   9
TORSDOF 3
ENDMDL
MODEL 2
REMARK VINA RESULT:    -3.384      2.050      2.824
REMARK INTER + INTRA:          -3.733
REMARK INTER:                  -3.733
REMARK INTRA:                   0.000
REMARK UNBOUND:                 0.145
REMARK SMILES CC(C)[C@@H]([NH3+])C(=O)[O-]
REMARK SMILES IDX 4 1 5 2 6 6 7 7 8 8 2 9 1 10 3 11
REMARK H PARENT 5 3 5 4 5 5
REMARK Flexibility Score: inf
ROOT
ATOM      1  C   UNL     1       2.229   1.866 -37.697  1.00  0.00     0.230 C 
ENDROOT
BRANCH   1   2
ATOM      2  N   UNL     1       2.857   0.558 -37.452  1.00  0.00    -0.350 N 
ATOM      3  H   UNL     1       2.338  -0.211 -37.932  1.00  0.00     0.345 HD
ATOM      4  H   UNL     1       3.839   0.571 -37.809  1.00  0.00     0.345 HD
ATOM      5  H   UNL     1       2.888   0.363 -36.425  1.00  0.00     0.345 HD
ENDBRANCH   1   2
BRANCH   1   6
ATOM      6  C   UNL     1       3.220   2.832 -38.301  1.00  0.00     0.099 C 
ATOM      7  O   UNL     1       4.267   2.416 -38.866  1.00  0.00    -0.544 OA
ATOM      8  O   UNL     1       2.965   4.198 -38.262  1.00  0.00    -0.544 OA
ENDBRANCH   1   6
BRANCH   1   9
ATOM      9  C   UNL     1       0.926   1.732 -38.542  1.00  0.00     0.047 C 
ATOM     10  C   UNL     1       1.126   2.032 -40.038  1.00  0.00     0.014 C 
ATOM     11  C   UNL     1      -0.198   2.613 -37.976  1.00  0.00     0.014 C 
ENDBRANCH   1   9
TORSDOF 3
ENDMDL
MODEL 3
REMARK VINA RESULT:    -3.382      2.347      3.151
REMARK INTER + INTRA:          -3.730
REMARK INTER:                  -3.873
REMARK INTRA:                   0.142
REMARK UNBOUND:                 0.145
REMARK SMILES CC(C)[C@@H]([NH3+])C(=O)[O-]
REMARK SMILES IDX 4 1 5 2 6 6 7 7 8 8 2 9 1 10 3 11
REMARK H PARENT 5 3 5 4 5 5
REMARK Flexibility Score: inf
ROOT
ATOM      1  C   UNL     1       1.769   2.415 -39.494  1.00  0.00     0.230 C 
ENDROOT
BRANCH   1   2
ATOM      2  N   UNL     1       1.881   1.478 -40.622  1.00  0.00    -0.350 N 
ATOM      3  H   UNL     1       2.256   1.949 -41.475  1.00  0.00     0.345 HD
ATOM      4  H   UNL     1       2.525   0.696 -40.362  1.00  0.00     0.345 HD
ATOM      5  H   UNL     1       0.945   1.067 -40.840  1.00  0.00     0.345 HD
ENDBRANCH   1   2
BRANCH   1   6
ATOM      6  C   UNL     1       1.050   1.772 -38.331  1.00  0.00     0.099 C 
ATOM      7  O   UNL     1       1.296   0.582 -37.998  1.00  0.00    -0.544 OA
ATOM      8  O   UNL     1       0.127   2.508 -37.598  1.00  0.00    -0.544 OA
ENDBRANCH   1   6
BRANCH   1   9
ATOM      9  C   UNL     1       3.154   3.007 -39.094  1.00  0.00     0.047 C 
ATOM     10  C   UNL     1       3.994   2.070 -38.209  1.00  0.00     0.014 C 
ATOM     11  C   UNL     1       3.000   4.375 -38.412  1.00  0.00     0.014 C 
ENDBRANCH   1   9
TORSDOF 3
ENDMDL
MODEL 4
REMARK VINA RESULT:    -3.343      2.491      3.466
REMARK INTER + INTRA:          -3.686
REMARK INTER:                  -3.636
REMARK INTRA:                  -0.050
REMARK UNBOUND:                 0.145
REMARK SMILES CC(C)[C@@H]([NH3+])C(=O)[O-]
REMARK SMILES IDX 4 1 5 2 6 6 7 7 8 8 2 9 1 10 3 11
REMARK H PARENT 5 3 5 4 5 5
REMARK Flexibility Score: inf
ROOT
ATOM      1  C   UNL     1       1.635   1.246 -38.919  1.00  0.00     0.230 C 
ENDROOT
BRANCH   1   2
ATOM      2  N   UNL     1       2.371   1.564 -40.151  1.00  0.00    -0.350 N 
ATOM      3  H   UNL     1       1.886   1.188 -40.996  1.00  0.00     0.345 HD
ATOM      4  H   UNL     1       2.454   2.602 -40.249  1.00  0.00     0.345 HD
ATOM      5  H   UNL     1       3.337   1.166 -40.104  1.00  0.00     0.345 HD
ENDBRANCH   1   2
BRANCH   1   6
ATOM      6  C   UNL     1       2.227   0.036 -38.236  1.00  0.00     0.099 C 
ATOM      7  O   UNL     1       1.921  -1.130 -38.606  1.00  0.00    -0.544 OA
ATOM      8  O   UNL     1       3.145   0.204 -37.207  1.00  0.00    -0.544 OA
ENDBRANCH   1   6
BRANCH   1   9
ATOM      9  C   UNL     1       1.528   2.480 -37.973  1.00  0.00     0.047 C 
ATOM     10  C   UNL     1       0.086   2.967 -37.754  1.00  0.00     0.014 C 
ATOM     11  C   UNL     1       2.405   3.640 -38.469  1.00  0.00     0.014 C 
ENDBRANCH   1   9
TORSDOF 3
ENDMDL
MODEL 5
REMARK VINA RESULT:    -3.341      2.309      3.118
REMARK INTER + INTRA:          -3.684
REMARK INTER:                  -3.689
REMARK INTRA:                   0.005
REMARK UNBOUND:                 0.145
REMARK SMILES CC(C)[C@@H]([NH3+])C(=O)[O-]
REMARK SMILES IDX 4 1 5 2 6 6 7 7 8 8 2 9 1 10 3 11
REMARK H PARENT 5 3 5 4 5 5
REMARK Flexibility Score: inf
ROOT
ATOM      1  C   UNL     1       2.921   1.851 -39.004  1.00  0.00     0.230 C 
ENDROOT
BRANCH   1   2
ATOM      2  N   UNL     1       3.849   2.857 -38.466  1.00  0.00    -0.350 N 
ATOM      3  H   UNL     1       4.839   2.636 -38.712  1.00  0.00     0.345 HD
ATOM      4  H   UNL     1       3.609   3.796 -38.858  1.00  0.00     0.345 HD
ATOM      5  H   UNL     1       3.757   2.908 -37.426  1.00  0.00     0.345 HD
ENDBRANCH   1   2
BRANCH   1   6
ATOM      6  C   UNL     1       2.665   0.760 -37.991  1.00  0.00     0.099 C 
ATOM      7  O   UNL     1       2.826   0.971 -36.759  1.00  0.00    -0.544 OA
ATOM      8  O   UNL     1       2.219  -0.486 -38.416  1.00  0.00    -0.544 OA
ENDBRANCH   1   6
BRANCH   1   9
ATOM      9  C   UNL     1       1.607   2.500 -39.535  1.00  0.00     0.047 C 
ATOM     10  C   UNL     1       0.427   2.396 -38.555  1.00  0.00     0.014 C 
ATOM     11  C   UNL     1       1.210   1.919 -40.900  1.00  0.00     0.014 C 
ENDBRANCH   1   9
TORSDOF 3
ENDMDL
MODEL 6
REMARK VINA RESULT:    -3.321      1.873      2.403
REMARK INTER + INTRA:          -3.660
REMARK INTER:                  -3.610
REMARK INTRA:                  -0.050
REMARK UNBOUND:                 0.145
REMARK SMILES CC(C)[C@@H]([NH3+])C(=O)[O-]
REMARK SMILES IDX 4 1 5 2 6 6 7 7 8 8 2 9 1 10 3 11
REMARK H PARENT 5 3 5 4 5 5
REMARK Flexibility Score: inf
ROOT
ATOM      1  C   UNL     1       1.804   2.895 -38.730  1.00  0.00     0.230 C 
ENDROOT
BRANCH   1   2
ATOM      2  N   UNL     1       0.996   2.638 -37.528  1.00  0.00    -0.350 N 
ATOM      3  H   UNL     1       1.492   2.005 -36.861  1.00  0.00     0.345 HD
ATOM      4  H   UNL     1       0.795   3.543 -37.043  1.00  0.00     0.345 HD
ATOM      5  H   UNL     1       0.083   2.205 -37.797  1.00  0.00     0.345 HD
ENDBRANCH   1   2
BRANCH   1   6
ATOM      6  C   UNL     1       3.073   3.633 -38.376  1.00  0.00     0.099 C 
ATOM      7  O   UNL     1       3.068   4.882 -38.204  1.00  0.00    -0.544 OA
ATOM      8  O   UNL     1       4.258   2.927 -38.209  1.00  0.00    -0.544 OA
ENDBRANCH   1   6
BRANCH   1   9
ATOM      9  C   UNL     1       2.071   1.589 -39.538  1.00  0.00     0.047 C 
ATOM     10  C   UNL     1       1.310   1.522 -40.873  1.00  0.00     0.014 C 
ATOM     11  C   UNL     1       1.766   0.340 -38.696  1.00  0.00     0.014 C 
ENDBRANCH   1   9
TORSDOF 3
ENDMDL
MODEL 7
REMARK VINA RESULT:    -3.174      2.038      2.959
REMARK INTER + INTRA:          -3.493
REMARK INTER:                  -3.559
REMARK INTRA:                   0.066
REMARK UNBOUND:                 0.145
REMARK SMILES CC(C)[C@@H]([NH3+])C(=O)[O-]
REMARK SMILES IDX 4 1 5 2 6 6 7 7 8 8 2 9 1 10 3 11
REMARK H PARENT 5 3 5 4 5 5
REMARK Flexibility Score: inf
ROOT
ATOM      1  C   UNL     1       1.508   1.966 -37.874  1.00  0.00     0.230 C 
ENDROOT
BRANCH   1   2
ATOM      2  N   UNL     1       0.047   1.857 -37.989  1.00  0.00    -0.350 N 
ATOM      3  H   UNL     1      -0.350   1.231 -37.253  1.00  0.00     0.345 HD
ATOM      4  H   UNL     1      -0.382   2.805 -37.887  1.00  0.00     0.345 HD
ATOM      5  H   UNL     1      -0.211   1.485 -38.932  1.00  0.00     0.345 HD
ENDBRANCH   1   2
BRANCH   1   6
ATOM      6  C   UNL     1       2.149   0.598 -37.846  1.00  0.00     0.099 C 
ATOM      7  O   UNL     1       3.150   0.368 -37.116  1.00  0.00    -0.544 OA
ATOM      8  O   UNL     1       1.613  -0.431 -38.611  1.00  0.00    -0.544 OA
ENDBRANCH   1   6
BRANCH   1   9
ATOM      9  C   UNL     1       2.109   2.890 -38.977  1.00  0.00     0.047 C 
ATOM     10  C   UNL     1       2.092   2.265 -40.382  1.00  0.00     0.014 C 
ATOM     11  C   UNL     1       3.534   3.335 -38.617  1.00  0.00     0.014 C 
ENDBRANCH   1   9
TORSDOF 3
ENDMDL
MODEL 8
REMARK VINA RESULT:    -3.087      1.890      2.258
REMARK INTER + INTRA:          -3.393
REMARK INTER:                  -3.443
REMARK INTRA:                   0.050
REMARK UNBOUND:                 0.145
REMARK SMILES CC(C)[C@@H]([NH3+])C(=O)[O-]
REMARK SMILES IDX 4 1 5 2 6 6 7 7 8 8 2 9 1 10 3 11
REMARK H PARENT 5 3 5 4 5 5
REMARK Flexibility Score: inf
ROOT
ATOM      1  C   UNL     1       2.357   1.947 -39.517  1.00  0.00     0.230 C 
ENDROOT
BRANCH   1   2
ATOM      2  N   UNL     1       1.529   2.555 -40.569  1.00  0.00    -0.350 N 
ATOM      3  H   UNL     1       0.528   2.623 -40.277  1.00  0.00     0.345 HD
ATOM      4  H   UNL     1       1.881   3.518 -40.777  1.00  0.00     0.345 HD
ATOM      5  H   UNL     1       1.593   1.990 -41.446  1.00  0.00     0.345 HD
ENDBRANCH   1   2
BRANCH   1   6
ATOM      6  C   UNL     1       3.155   3.000 -38.785  1.00  0.00     0.099 C 
ATOM      7  O   UNL     1       4.323   2.758 -38.377  1.00  0.00    -0.544 OA
ATOM      8  O   UNL     1       2.611   4.263 -38.583  1.00  0.00    -0.544 OA
ENDBRANCH   1   6
BRANCH   1   9
ATOM      9  C   UNL     1       1.510   1.058 -38.556  1.00  0.00     0.047 C 
ATOM     10  C   UNL     1       0.714   1.860 -37.512  1.00  0.00     0.014 C 
ATOM     11  C   UNL     1       2.383   0.005 -37.856  1.00  0.00     0.014 C 
ENDBRANCH   1   9
TORSDOF 3
ENDMDL
MODEL 9
REMARK VINA RESULT:    -2.891      2.030      2.398
REMARK INTER + INTRA:          -3.169
REMARK INTER:                  -3.628
REMARK INTRA:                   0.459
REMARK UNBOUND:                 0.145
REMARK SMILES CC(C)[C@@H]([NH3+])C(=O)[O-]
REMARK SMILES IDX 4 1 5 2 6 6 7 7 8 8 2 9 1 10 3 11
REMARK H PARENT 5 3 5 4 5 5
REMARK Flexibility Score: inf
ROOT
ATOM      1  C   UNL     1       1.667   2.561 -37.995  1.00  0.00     0.230 C 
ENDROOT
BRANCH   1   2
ATOM      2  N   UNL     1       2.240   3.892 -38.249  1.00  0.00    -0.350 N 
ATOM      3  H   UNL     1       3.135   4.029 -37.728  1.00  0.00     0.345 HD
ATOM      4  H   UNL     1       2.429   3.999 -39.272  1.00  0.00     0.345 HD
ATOM      5  H   UNL     1       1.560   4.634 -37.966  1.00  0.00     0.345 HD
ENDBRANCH   1   2
BRANCH   1   6
ATOM      6  C   UNL     1       0.167   2.580 -38.169  1.00  0.00     0.099 C 
ATOM      7  O   UNL     1      -0.599   2.656 -37.170  1.00  0.00    -0.544 OA
ATOM      8  O   UNL     1      -0.381   2.541 -39.445  1.00  0.00    -0.544 OA
ENDBRANCH   1   6
BRANCH   1   9
ATOM      9  C   UNL     1       2.360   1.459 -38.853  1.00  0.00     0.047 C 
ATOM     10  C   UNL     1       2.098   1.596 -40.362  1.00  0.00     0.014 C 
ATOM     11  C   UNL     1       1.968   0.053 -38.376  1.00  0.00     0.014 C 
ENDBRANCH   1   9
TORSDOF 3
ENDMDL
