MODEL 1
REMARK VINA RESULT:    -2.851      0.000      0.000
REMARK INTER + INTRA:          -3.748
REMARK INTER:                  -3.351
REMARK INTRA:                  -0.397
REMARK UNBOUND:                -0.397
REMARK SMILES [NH3+][C@@H](CO)C(=O)[O-]
REMARK SMILES IDX 3 1 2 2 1 3 5 7 6 8 7 9 4 10
REMARK H PARENT 1 4 1 5 1 6 4 11
REMARK Flexibility Score: inf
ROOT
ATOM      1  C   UNL     1     146.686 128.539 134.198  1.00  0.00     0.227 C 
ENDROOT
BRANCH   1   2
ATOM      2  C   UNL     1     146.038 129.847 134.685  1.00  0.00     0.253 C 
BRANCH   2   3
ATOM      3  N   UNL     1     145.206 129.602 135.869  1.00  0.00    -0.348 N 
ATOM      4  H   UNL     1     145.760 129.131 136.621  1.00  0.00     0.345 HD
ATOM      5  H   UNL     1     144.392 128.997 135.612  1.00  0.00     0.345 HD
ATOM      6  H   UNL     1     144.837 130.510 136.235  1.00  0.00     0.345 HD
ENDBRANCH   2   3
BRANCH   2   7
ATOM      7  C   UNL     1     145.213 130.468 133.588  1.00  0.00     0.102 C 
ATOM      8  O   UNL     1     145.734 131.301 132.800  1.00  0.00    -0.544 OA
ATOM      9  O   UNL     1     143.877 130.119 133.431  1.00  0.00    -0.544 OA
ENDBRANCH   2   7
ENDBRANCH   1   2
BRANCH   1  10
ATOM     10  O   UNL     1     146.226 128.202 132.916  1.00  0.00    -0.390 OA
ATOM     11  H   UNL     1     146.900 127.586 132.526  1.00  0.00     0.210 HD
ENDBRANCH   1  10
TORSDOF 4
ENDMDL
MODEL 2
REMARK VINA RESULT:    -2.817      1.947      2.371
REMARK INTER + INTRA:          -3.708
REMARK INTER:                  -3.311
REMARK INTRA:                  -0.397
REMARK UNBOUND:                -0.397
REMARK SMILES [NH3+][C@@H](CO)C(=O)[O-]
REMARK SMILES IDX 3 1 2 2 1 3 5 7 6 8 7 9 4 10
REMARK H PARENT 1 4 1 5 1 6 4 11
REMARK Flexibility Score: inf
ROOT
ATOM      1  C   UNL     1     146.758 129.985 135.666  1.00  0.00     0.227 C 
ENDROOT
BRANCH   1   2
ATOM      2  C   UNL     1     146.977 130.195 134.158  1.00  0.00     0.253 C 
BRANCH   2   3
ATOM      3  N   UNL     1     146.874 131.618 133.814  1.00  0.00    -0.348 N 
ATOM      4  H   UNL     1     146.140 132.087 134.393  1.00  0.00     0.345 HD
ATOM      5  H   UNL     1     146.632 131.723 132.802  1.00  0.00     0.345 HD
ATOM      6  H   UNL     1     147.793 132.089 133.981  1.00  0.00     0.345 HD
ENDBRANCH   2   3
BRANCH   2   7
ATOM      7  C   UNL     1     145.980 129.394 133.362  1.00  0.00     0.102 C 
ATOM      8  O   UNL     1     146.262 128.225 132.989  1.00  0.00    -0.544 OA
ATOM      9  O   UNL     1     144.740 129.935 133.043  1.00  0.00    -0.544 OA
ENDBRANCH   2   7
ENDBRANCH   1   2
BRANCH   1  10
ATOM     10  O   UNL     1     145.619 129.198 135.898  1.00  0.00    -0.390 OA
ATOM     11  H   UNL     1     145.553 129.079 136.882  1.00  0.00     0.210 HD
ENDBRANCH   1  10
TORSDOF 4
ENDMDL
MODEL 3
REMARK VINA RESULT:    -2.763      2.063      3.080
REMARK INTER + INTRA:          -3.644
REMARK INTER:                  -3.261
REMARK INTRA:                  -0.383
REMARK UNBOUND:                -0.397
REMARK SMILES [NH3+][C@@H](CO)C(=O)[O-]
REMARK SMILES IDX 3 1 2 2 1 3 5 7 6 8 7 9 4 10
REMARK H PARENT 1 4 1 5 1 6 4 11
REMARK Flexibility Score: inf
ROOT
ATOM      1  C   UNL     1     144.601 131.172 132.935  1.00  0.00     0.227 C 
ENDROOT
BRANCH   1   2
ATOM      2  C   UNL     1     146.055 130.687 133.073  1.00  0.00     0.253 C 
BRANCH   2   3
ATOM      3  N   UNL     1     146.738 130.727 131.775  1.00  0.00    -0.348 N 
ATOM      4  H   UNL     1     147.449 131.494 131.753  1.00  0.00     0.345 HD
ATOM      5  H   UNL     1     146.041 130.883 131.011  1.00  0.00     0.345 HD
ATOM      6  H   UNL     1     147.217 129.813 131.599  1.00  0.00     0.345 HD
ENDBRANCH   2   3
BRANCH   2   7
ATOM      7  C   UNL     1     146.095 129.292 133.640  1.00  0.00     0.102 C 
ATOM      8  O   UNL     1     146.169 128.298 132.870  1.00  0.00    -0.544 OA
ATOM      9  O   UNL     1     146.061 129.091 135.015  1.00  0.00    -0.544 OA
ENDBRANCH   2   7
ENDBRANCH   1   2
BRANCH   1  10
ATOM     10  O   UNL     1     143.701 130.122 133.171  1.00  0.00    -0.390 OA
ATOM     11  H   UNL     1     142.832 130.401 132.780  1.00  0.00     0.210 HD
ENDBRANCH   1  10
TORSDOF 4
ENDMDL
MODEL 4
REMARK VINA RESULT:    -2.753      1.832      2.383
REMARK INTER + INTRA:          -3.633
REMARK INTER:                  -3.328
REMARK INTRA:                  -0.305
REMARK UNBOUND:                -0.397
REMARK SMILES [NH3+][C@@H](CO)C(=O)[O-]
REMARK SMILES IDX 3 1 2 2 1 3 5 7 6 8 7 9 4 10
REMARK H PARENT 1 4 1 5 1 6 4 11
REMARK Flexibility Score: inf
ROOT
ATOM      1  C   UNL     1     146.547 129.869 135.662  1.00  0.00     0.227 C 
ENDROOT
BRANCH   1   2
ATOM      2  C   UNL     1     146.767 130.280 134.196  1.00  0.00     0.253 C 
BRANCH   2   3
ATOM      3  N   UNL     1     146.407 131.689 133.995  1.00  0.00    -0.348 N 
ATOM      4  H   UNL     1     147.070 132.317 134.506  1.00  0.00     0.345 HD
ATOM      5  H   UNL     1     145.436 131.861 134.342  1.00  0.00     0.345 HD
ATOM      6  H   UNL     1     146.436 131.919 132.975  1.00  0.00     0.345 HD
ENDBRANCH   2   3
BRANCH   2   7
ATOM      7  C   UNL     1     145.961 129.401 133.275  1.00  0.00     0.102 C 
ATOM      8  O   UNL     1     144.963 129.869 132.667  1.00  0.00    -0.544 OA
ATOM      9  O   UNL     1     146.321 128.072 133.081  1.00  0.00    -0.544 OA
ENDBRANCH   2   7
ENDBRANCH   1   2
BRANCH   1  10
ATOM     10  O   UNL     1     145.261 129.340 135.844  1.00  0.00    -0.390 OA
ATOM     11  H   UNL     1     145.306 128.754 136.645  1.00  0.00     0.210 HD
ENDBRANCH   1  10
TORSDOF 4
ENDMDL
MODEL 5
REMARK VINA RESULT:    -2.725     17.160     17.536
REMARK INTER + INTRA:          -3.599
REMARK INTER:                  -3.249
REMARK INTRA:                  -0.350
REMARK UNBOUND:                -0.397
REMARK SMILES [NH3+][C@@H](CO)C(=O)[O-]
REMARK SMILES IDX 3 1 2 2 1 3 5 7 6 8 7 9 4 10
REMARK H PARENT 1 4 1 5 1 6 4 11
REMARK Flexibility Score: inf
ROOT
ATOM      1  C   UNL     1     145.682 145.573 128.014  1.00  0.00     0.227 C 
ENDROOT
BRANCH   1   2
ATOM      2  C   UNL     1     145.279 144.872 126.706  1.00  0.00     0.253 C 
BRANCH   2   3
ATOM      3  N   UNL     1     145.725 143.473 126.711  1.00  0.00    -0.348 N 
ATOM      4  H   UNL     1     146.470 143.319 125.992  1.00  0.00     0.345 HD
ATOM      5  H   UNL     1     144.916 142.842 126.508  1.00  0.00     0.345 HD
ATOM      6  H   UNL     1     146.104 143.227 127.654  1.00  0.00     0.345 HD
ENDBRANCH   2   3
BRANCH   2   7
ATOM      7  C   UNL     1     145.855 145.597 125.518  1.00  0.00     0.102 C 
ATOM      8  O   UNL     1     145.195 146.507 124.951  1.00  0.00    -0.544 OA
ATOM      9  O   UNL     1     147.123 145.276 125.046  1.00  0.00    -0.544 OA
ENDBRANCH   2   7
ENDBRANCH   1   2
BRANCH   1  10
ATOM     10  O   UNL     1     146.779 146.424 127.806  1.00  0.00    -0.390 OA
ATOM     11  H   UNL     1     147.494 146.119 128.423  1.00  0.00     0.210 HD
ENDBRANCH   1  10
TORSDOF 4
ENDMDL
MODEL 6
REMARK VINA RESULT:    -2.641     18.117     18.504
REMARK INTER + INTRA:          -3.500
REMARK INTER:                  -3.149
REMARK INTRA:                  -0.352
REMARK UNBOUND:                -0.397
REMARK SMILES [NH3+][C@@H](CO)C(=O)[O-]
REMARK SMILES IDX 3 1 2 2 1 3 5 7 6 8 7 9 4 10
REMARK H PARENT 1 4 1 5 1 6 4 11
REMARK Flexibility Score: inf
ROOT
ATOM      1  C   UNL     1     146.663 145.233 125.720  1.00  0.00     0.227 C 
ENDROOT
BRANCH   1   2
ATOM      2  C   UNL     1     145.338 144.874 125.026  1.00  0.00     0.253 C 
BRANCH   2   3
ATOM      3  N   UNL     1     145.584 144.383 123.664  1.00  0.00    -0.348 N 
ATOM      4  H   UNL     1     145.201 145.051 122.955  1.00  0.00     0.345 HD
ATOM      5  H   UNL     1     145.132 143.449 123.536  1.00  0.00     0.345 HD
ATOM      6  H   UNL     1     146.613 144.273 123.509  1.00  0.00     0.345 HD
ENDBRANCH   2   3
BRANCH   2   7
ATOM      7  C   UNL     1     144.419 146.067 124.992  1.00  0.00     0.102 C 
ATOM      8  O   UNL     1     143.752 146.380 126.012  1.00  0.00    -0.544 OA
ATOM      9  O   UNL     1     144.311 146.836 123.839  1.00  0.00    -0.544 OA
ENDBRANCH   2   7
ENDBRANCH   1   2
BRANCH   1  10
ATOM     10  O   UNL     1     146.903 146.613 125.653  1.00  0.00    -0.390 OA
ATOM     11  H   UNL     1     147.234 146.799 124.735  1.00  0.00     0.210 HD
ENDBRANCH   1  10
TORSDOF 4
ENDMDL
MODEL 7
REMARK VINA RESULT:    -2.633      1.236      2.206
REMARK INTER + INTRA:          -3.491
REMARK INTER:                  -3.134
REMARK INTRA:                  -0.357
REMARK UNBOUND:                -0.397
REMARK SMILES [NH3+][C@@H](CO)C(=O)[O-]
REMARK SMILES IDX 3 1 2 2 1 3 5 7 6 8 7 9 4 10
REMARK H PARENT 1 4 1 5 1 6 4 11
REMARK Flexibility Score: inf
ROOT
ATOM      1  C   UNL     1     146.371 131.260 134.765  1.00  0.00     0.227 C 
ENDROOT
BRANCH   1   2
ATOM      2  C   UNL     1     145.586 129.939 134.685  1.00  0.00     0.253 C 
BRANCH   2   3
ATOM      3  N   UNL     1     146.132 128.956 135.628  1.00  0.00    -0.348 N 
ATOM      4  H   UNL     1     145.674 129.046 136.565  1.00  0.00     0.345 HD
ATOM      5  H   UNL     1     147.162 129.100 135.735  1.00  0.00     0.345 HD
ATOM      6  H   UNL     1     145.972 127.989 135.262  1.00  0.00     0.345 HD
ENDBRANCH   2   3
BRANCH   2   7
ATOM      7  C   UNL     1     145.619 129.390 133.283  1.00  0.00     0.102 C 
ATOM      8  O   UNL     1     146.302 128.365 133.021  1.00  0.00    -0.544 OA
ATOM      9  O   UNL     1     144.887 130.002 132.272  1.00  0.00    -0.544 OA
ENDBRANCH   2   7
ENDBRANCH   1   2
BRANCH   1  10
ATOM     10  O   UNL     1     147.124 131.463 133.599  1.00  0.00    -0.390 OA
ATOM     11  H   UNL     1     147.408 130.565 133.285  1.00  0.00     0.210 HD
ENDBRANCH   1  10
TORSDOF 4
ENDMDL
MODEL 8
REMARK VINA RESULT:    -2.621      1.991      2.365
REMARK INTER + INTRA:          -3.478
REMARK INTER:                  -3.266
REMARK INTRA:                  -0.211
REMARK UNBOUND:                -0.397
REMARK SMILES [NH3+][C@@H](CO)C(=O)[O-]
REMARK SMILES IDX 3 1 2 2 1 3 5 7 6 8 7 9 4 10
REMARK H PARENT 1 4 1 5 1 6 4 11
REMARK Flexibility Score: inf
ROOT
ATOM      1  C   UNL     1     147.125 129.072 133.521  1.00  0.00     0.227 C 
ENDROOT
BRANCH   1   2
ATOM      2  C   UNL     1     147.057 128.998 135.056  1.00  0.00     0.253 C 
BRANCH   2   3
ATOM      3  N   UNL     1     146.752 127.631 135.494  1.00  0.00    -0.348 N 
ATOM      4  H   UNL     1     145.856 127.605 136.035  1.00  0.00     0.345 HD
ATOM      5  H   UNL     1     147.527 127.269 136.096  1.00  0.00     0.345 HD
ATOM      6  H   UNL     1     146.665 127.004 134.661  1.00  0.00     0.345 HD
ENDBRANCH   2   3
BRANCH   2   7
ATOM      7  C   UNL     1     146.023 129.957 135.586  1.00  0.00     0.102 C 
ATOM      8  O   UNL     1     144.830 129.882 135.192  1.00  0.00    -0.544 OA
ATOM      9  O   UNL     1     146.376 130.923 136.522  1.00  0.00    -0.544 OA
ENDBRANCH   2   7
ENDBRANCH   1   2
BRANCH   1  10
ATOM     10  O   UNL     1     146.140 128.261 132.939  1.00  0.00    -0.390 OA
ATOM     11  H   UNL     1     145.370 128.255 133.566  1.00  0.00     0.210 HD
ENDBRANCH   1  10
TORSDOF 4
ENDMDL
MODEL 9
REMARK VINA RESULT:    -2.564     12.540     12.999
REMARK INTER + INTRA:          -3.410
REMARK INTER:                  -3.197
REMARK INTRA:                  -0.213
REMARK UNBOUND:                -0.397
REMARK SMILES [NH3+][C@@H](CO)C(=O)[O-]
REMARK SMILES IDX 3 1 2 2 1 3 5 7 6 8 7 9 4 10
REMARK H PARENT 1 4 1 5 1 6 4 11
REMARK Flexibility Score: inf
ROOT
ATOM      1  C   UNL     1     145.970 131.407 122.647  1.00  0.00     0.227 C 
ENDROOT
BRANCH   1   2
ATOM      2  C   UNL     1     144.894 131.178 121.571  1.00  0.00     0.253 C 
BRANCH   2   3
ATOM      3  N   UNL     1     144.284 129.852 121.725  1.00  0.00    -0.348 N 
ATOM      4  H   UNL     1     144.986 129.098 121.543  1.00  0.00     0.345 HD
ATOM      5  H   UNL     1     143.487 129.749 121.056  1.00  0.00     0.345 HD
ATOM      6  H   UNL     1     143.912 129.745 122.697  1.00  0.00     0.345 HD
ENDBRANCH   2   3
BRANCH   2   7
ATOM      7  C   UNL     1     145.486 131.323 120.193  1.00  0.00     0.102 C 
ATOM      8  O   UNL     1     144.763 131.160 119.175  1.00  0.00    -0.544 OA
ATOM      9  O   UNL     1     146.828 131.648 120.036  1.00  0.00    -0.544 OA
ENDBRANCH   2   7
ENDBRANCH   1   2
BRANCH   1  10
ATOM     10  O   UNL     1     146.789 130.276 122.781  1.00  0.00    -0.390 OA
ATOM     11  H   UNL     1     146.730 129.994 123.731  1.00  0.00     0.210 HD
ENDBRANCH   1  10
TORSDOF 4
ENDMDL
