MODEL 1
REMARK VINA RESULT:    -3.900      0.000      0.000
REMARK INTER + INTRA:          -3.900
REMARK INTER:                  -3.900
REMARK INTRA:                   0.000
REMARK UNBOUND:                 0.000
REMARK SMILES CC1(C)C(=O)[C@]2(C)CC[C@H]1C2
REMARK SMILES IDX 1 1 2 2 10 3 9 4 8 5 6 6 11 7 4 8 5 9 7 10 3 11
REMARK H PARENT
REMARK Flexibility Score: inf
ROOT
ATOM      1  C   UNL     1     137.756 139.525 131.810  1.00  0.00     0.020 C 
ATOM      2  C   UNL     1     137.518 139.732 130.298  1.00  0.00     0.027 C 
ATOM      3  C   UNL     1     136.351 140.748 130.029  1.00  0.00     0.003 C 
ATOM      4  C   UNL     1     136.242 141.087 128.521  1.00  0.00     0.005 C 
ATOM      5  C   UNL     1     135.754 139.759 127.899  1.00  0.00     0.015 C 
ATOM      6  C   UNL     1     135.549 138.863 129.136  1.00  0.00     0.027 C 
ATOM      7  C   UNL     1     135.107 139.874 130.174  1.00  0.00     0.019 C 
ATOM      8  C   UNL     1     136.909 138.510 129.672  1.00  0.00     0.144 C 
ATOM      9  O   UNL     1     137.462 137.427 129.550  1.00  0.00    -0.298 OA
ATOM     10  C   UNL     1     134.595 137.683 128.942  1.00  0.00     0.020 C 
ATOM     11  C   UNL     1     138.856 140.106 129.623  1.00  0.00     0.020 C 
ENDROOT
TORSDOF 0
ENDMDL
MODEL 2
REMARK VINA RESULT:    -3.864      2.296      3.788
REMARK INTER + INTRA:          -3.864
REMARK INTER:                  -3.864
REMARK INTRA:                   0.000
REMARK UNBOUND:                 0.000
REMARK SMILES CC1(C)C(=O)[C@]2(C)CC[C@H]1C2
REMARK SMILES IDX 1 1 2 2 10 3 9 4 8 5 6 6 11 7 4 8 5 9 7 10 3 11
REMARK H PARENT
REMARK Flexibility Score: inf
ROOT
ATOM      1  C   UNL     1     135.717 137.652 131.844  1.00  0.00     0.020 C 
ATOM      2  C   UNL     1     135.502 137.445 130.329  1.00  0.00     0.027 C 
ATOM      3  C   UNL     1     134.517 136.257 130.039  1.00  0.00     0.003 C 
ATOM      4  C   UNL     1     134.166 136.176 128.532  1.00  0.00     0.005 C 
ATOM      5  C   UNL     1     135.502 135.742 127.886  1.00  0.00     0.015 C 
ATOM      6  C   UNL     1     136.415 135.532 129.109  1.00  0.00     0.027 C 
ATOM      7  C   UNL     1     135.428 135.035 130.145  1.00  0.00     0.019 C 
ATOM      8  C   UNL     1     136.734 136.888 129.676  1.00  0.00     0.144 C 
ATOM      9  O   UNL     1     137.800 137.475 129.558  1.00  0.00    -0.298 OA
ATOM     10  C   UNL     1     137.620 134.618 128.880  1.00  0.00     0.020 C 
ATOM     11  C   UNL     1     135.083 138.789 129.691  1.00  0.00     0.020 C 
ENDROOT
TORSDOF 0
ENDMDL
MODEL 3
REMARK VINA RESULT:    -3.863      2.206      3.696
REMARK INTER + INTRA:          -3.863
REMARK INTER:                  -3.863
REMARK INTRA:                   0.000
REMARK UNBOUND:                 0.000
REMARK SMILES CC1(C)C(=O)[C@]2(C)CC[C@H]1C2
REMARK SMILES IDX 1 1 2 2 10 3 9 4 8 5 6 6 11 7 4 8 5 9 7 10 3 11
REMARK H PARENT
REMARK Flexibility Score: inf
ROOT
ATOM      1  C   UNL     1     139.499 137.385 131.743  1.00  0.00     0.020 C 
ATOM      2  C   UNL     1     139.679 137.667 130.236  1.00  0.00     0.027 C 
ATOM      3  C   UNL     1     140.687 138.845 129.983  1.00  0.00     0.003 C 
ATOM      4  C   UNL     1     141.000 138.999 128.473  1.00  0.00     0.005 C 
ATOM      5  C   UNL     1     139.660 139.500 127.889  1.00  0.00     0.015 C 
ATOM      6  C   UNL     1     138.785 139.665 129.146  1.00  0.00     0.027 C 
ATOM      7  C   UNL     1     139.812 140.082 130.180  1.00  0.00     0.019 C 
ATOM      8  C   UNL     1     138.445 138.290 129.649  1.00  0.00     0.144 C 
ATOM      9  O   UNL     1     137.362 137.737 129.530  1.00  0.00    -0.298 OA
ATOM     10  C   UNL     1     137.599 140.621 129.000  1.00  0.00     0.020 C 
ATOM     11  C   UNL     1     140.046 136.351 129.516  1.00  0.00     0.020 C 
ENDROOT
TORSDOF 0
ENDMDL
MODEL 4
REMARK VINA RESULT:    -3.828      3.591      5.242
REMARK INTER + INTRA:          -3.828
REMARK INTER:                  -3.828
REMARK INTRA:                   0.000
REMARK UNBOUND:                 0.000
REMARK SMILES CC1(C)C(=O)[C@]2(C)CC[C@H]1C2
REMARK SMILES IDX 1 1 2 2 10 3 9 4 8 5 6 6 11 7 4 8 5 9 7 10 3 11
REMARK H PARENT
REMARK Flexibility Score: inf
ROOT
ATOM      1  C   UNL     1     137.541 135.749 131.812  1.00  0.00     0.020 C 
ATOM      2  C   UNL     1     137.767 135.556 130.297  1.00  0.00     0.027 C 
ATOM      3  C   UNL     1     138.963 134.579 130.008  1.00  0.00     0.003 C 
ATOM      4  C   UNL     1     139.064 134.250 128.497  1.00  0.00     0.005 C 
ATOM      5  C   UNL     1     139.500 135.596 127.875  1.00  0.00     0.015 C 
ATOM      6  C   UNL     1     139.691 136.493 129.113  1.00  0.00     0.027 C 
ATOM      7  C   UNL     1     140.180 135.493 130.141  1.00  0.00     0.019 C 
ATOM      8  C   UNL     1     138.327 136.799 129.668  1.00  0.00     0.144 C 
ATOM      9  O   UNL     1     137.738 137.865 129.558  1.00  0.00    -0.298 OA
ATOM     10  C   UNL     1     140.604 137.704 128.912  1.00  0.00     0.020 C 
ATOM     11  C   UNL     1     136.433 135.140 129.637  1.00  0.00     0.020 C 
ENDROOT
TORSDOF 0
ENDMDL
MODEL 5
REMARK VINA RESULT:    -3.814      1.812      3.753
REMARK INTER + INTRA:          -3.814
REMARK INTER:                  -3.814
REMARK INTRA:                   0.000
REMARK UNBOUND:                 0.000
REMARK SMILES CC1(C)C(=O)[C@]2(C)CC[C@H]1C2
REMARK SMILES IDX 1 1 2 2 10 3 9 4 8 5 6 6 11 7 4 8 5 9 7 10 3 11
REMARK H PARENT
REMARK Flexibility Score: inf
ROOT
ATOM      1  C   UNL     1     137.154 140.767 128.931  1.00  0.00     0.020 C 
ATOM      2  C   UNL     1     137.966 139.813 129.834  1.00  0.00     0.027 C 
ATOM      3  C   UNL     1     139.482 140.220 129.892  1.00  0.00     0.003 C 
ATOM      4  C   UNL     1     140.248 139.372 130.939  1.00  0.00     0.005 C 
ATOM      5  C   UNL     1     140.247 137.959 130.313  1.00  0.00     0.015 C 
ATOM      6  C   UNL     1     139.573 138.196 128.948  1.00  0.00     0.027 C 
ATOM      7  C   UNL     1     140.044 139.598 128.615  1.00  0.00     0.019 C 
ATOM      8  C   UNL     1     138.114 138.460 129.200  1.00  0.00     0.144 C 
ATOM      9  O   UNL     1     137.203 137.671 128.995  1.00  0.00    -0.298 OA
ATOM     10  C   UNL     1     139.874 137.147 127.876  1.00  0.00     0.020 C 
ATOM     11  C   UNL     1     137.279 139.719 131.214  1.00  0.00     0.020 C 
ENDROOT
TORSDOF 0
ENDMDL
MODEL 6
REMARK VINA RESULT:    -3.803      3.417      4.748
REMARK INTER + INTRA:          -3.803
REMARK INTER:                  -3.803
REMARK INTRA:                   0.000
REMARK UNBOUND:                 0.000
REMARK SMILES CC1(C)C(=O)[C@]2(C)CC[C@H]1C2
REMARK SMILES IDX 1 1 2 2 10 3 9 4 8 5 6 6 11 7 4 8 5 9 7 10 3 11
REMARK H PARENT
REMARK Flexibility Score: inf
ROOT
ATOM      1  C   UNL     1     140.702 138.168 128.548  1.00  0.00     0.020 C 
ATOM      2  C   UNL     1     139.874 137.386 129.591  1.00  0.00     0.027 C 
ATOM      3  C   UNL     1     140.373 135.904 129.735  1.00  0.00     0.003 C 
ATOM      4  C   UNL     1     139.659 135.186 130.908  1.00  0.00     0.005 C 
ATOM      5  C   UNL     1     138.203 135.060 130.407  1.00  0.00     0.015 C 
ATOM      6  C   UNL     1     138.289 135.628 128.977  1.00  0.00     0.027 C 
ATOM      7  C   UNL     1     139.685 135.204 128.565  1.00  0.00     0.019 C 
ATOM      8  C   UNL     1     138.485 137.114 129.088  1.00  0.00     0.144 C 
ATOM      9  O   UNL     1     137.629 137.962 128.879  1.00  0.00    -0.298 OA
ATOM     10  C   UNL     1     137.177 135.183 128.025  1.00  0.00     0.020 C 
ATOM     11  C   UNL     1     139.850 138.181 130.915  1.00  0.00     0.020 C 
ENDROOT
TORSDOF 0
ENDMDL
MODEL 7
REMARK VINA RESULT:    -3.802      3.794      4.865
REMARK INTER + INTRA:          -3.802
REMARK INTER:                  -3.802
REMARK INTRA:                   0.000
REMARK UNBOUND:                 0.000
REMARK SMILES CC1(C)C(=O)[C@]2(C)CC[C@H]1C2
REMARK SMILES IDX 1 1 2 2 10 3 9 4 8 5 6 6 11 7 4 8 5 9 7 10 3 11
REMARK H PARENT
REMARK Flexibility Score: inf
ROOT
ATOM      1  C   UNL     1     139.554 137.381 131.193  1.00  0.00     0.020 C 
ATOM      2  C   UNL     1     139.389 135.953 130.632  1.00  0.00     0.027 C 
ATOM      3  C   UNL     1     139.780 135.878 129.113  1.00  0.00     0.003 C 
ATOM      4  C   UNL     1     139.786 134.412 128.609  1.00  0.00     0.005 C 
ATOM      5  C   UNL     1     138.291 134.023 128.647  1.00  0.00     0.015 C 
ATOM      6  C   UNL     1     137.611 135.339 129.069  1.00  0.00     0.027 C 
ATOM      7  C   UNL     1     138.512 136.370 128.417  1.00  0.00     0.019 C 
ATOM      8  C   UNL     1     137.939 135.578 130.516  1.00  0.00     0.144 C 
ATOM      9  O   UNL     1     137.172 135.418 131.455  1.00  0.00    -0.298 OA
ATOM     10  C   UNL     1     136.130 135.460 128.704  1.00  0.00     0.020 C 
ATOM     11  C   UNL     1     140.158 134.963 131.536  1.00  0.00     0.020 C 
ENDROOT
TORSDOF 0
ENDMDL
MODEL 8
REMARK VINA RESULT:    -3.792      1.156      3.183
REMARK INTER + INTRA:          -3.792
REMARK INTER:                  -3.792
REMARK INTRA:                   0.000
REMARK UNBOUND:                 0.000
REMARK SMILES CC1(C)C(=O)[C@]2(C)CC[C@H]1C2
REMARK SMILES IDX 1 1 2 2 10 3 9 4 8 5 6 6 11 7 4 8 5 9 7 10 3 11
REMARK H PARENT
REMARK Flexibility Score: inf
ROOT
ATOM      1  C   UNL     1     136.653 136.867 127.892  1.00  0.00     0.020 C 
ATOM      2  C   UNL     1     136.192 138.077 128.733  1.00  0.00     0.027 C 
ATOM      3  C   UNL     1     136.136 139.392 127.876  1.00  0.00     0.003 C 
ATOM      4  C   UNL     1     135.501 140.556 128.678  1.00  0.00     0.005 C 
ATOM      5  C   UNL     1     136.557 140.846 129.768  1.00  0.00     0.015 C 
ATOM      6  C   UNL     1     137.702 139.885 129.392  1.00  0.00     0.027 C 
ATOM      7  C   UNL     1     137.591 139.856 127.881  1.00  0.00     0.019 C 
ATOM      8  C   UNL     1     137.249 138.488 129.717  1.00  0.00     0.144 C 
ATOM      9  O   UNL     1     137.623 137.824 130.673  1.00  0.00    -0.298 OA
ATOM     10  C   UNL     1     139.083 140.267 129.927  1.00  0.00     0.020 C 
ATOM     11  C   UNL     1     134.866 137.723 129.442  1.00  0.00     0.020 C 
ENDROOT
TORSDOF 0
ENDMDL
MODEL 9
REMARK VINA RESULT:    -3.765      2.683      4.162
REMARK INTER + INTRA:          -3.765
REMARK INTER:                  -3.765
REMARK INTRA:                   0.000
REMARK UNBOUND:                 0.000
REMARK SMILES CC1(C)C(=O)[C@]2(C)CC[C@H]1C2
REMARK SMILES IDX 1 1 2 2 10 3 9 4 8 5 6 6 11 7 4 8 5 9 7 10 3 11
REMARK H PARENT
REMARK Flexibility Score: inf
ROOT
ATOM      1  C   UNL     1     137.897 134.373 128.758  1.00  0.00     0.020 C 
ATOM      2  C   UNL     1     137.165 135.345 129.708  1.00  0.00     0.027 C 
ATOM      3  C   UNL     1     135.629 135.025 129.794  1.00  0.00     0.003 C 
ATOM      4  C   UNL     1     134.939 135.883 130.884  1.00  0.00     0.005 C 
ATOM      5  C   UNL     1     135.008 137.312 130.298  1.00  0.00     0.015 C 
ATOM      6  C   UNL     1     135.634 137.077 128.910  1.00  0.00     0.027 C 
ATOM      7  C   UNL     1     135.074 135.716 128.550  1.00  0.00     0.019 C 
ATOM      8  C   UNL     1     137.080 136.723 129.117  1.00  0.00     0.144 C 
ATOM      9  O   UNL     1     138.031 137.464 128.911  1.00  0.00    -0.298 OA
ATOM     10  C   UNL     1     135.369 138.173 127.876  1.00  0.00     0.020 C 
ATOM     11  C   UNL     1     137.889 135.358 131.073  1.00  0.00     0.020 C 
ENDROOT
TORSDOF 0
ENDMDL
