MODEL 1
REMARK VINA RESULT:    -5.537      0.000      0.000
REMARK INTER + INTRA:          -5.957
REMARK INTER:                  -5.861
REMARK INTRA:                  -0.096
REMARK UNBOUND:                -0.096
REMARK SMILES C=C(C)[C@@H]1CC=C(C)C(=O)C1
REMARK SMILES IDX 8 1 7 2 6 3 5 4 4 5 11 6 9 7 10 8 2 9 1 10 3 11
REMARK H PARENT
REMARK Flexibility Score: inf
ROOT
ATOM      1  C   UNL     1     -16.363 -37.079  -3.852  1.00  0.00     0.048 C 
ATOM      2  C   UNL     1     -17.814 -37.249  -4.207  1.00  0.00    -0.012 C 
ATOM      3  C   UNL     1     -18.279 -38.459  -4.564  1.00  0.00    -0.019 C 
ATOM      4  C   UNL     1     -19.725 -38.689  -4.911  1.00  0.00     0.036 C 
ATOM      5  C   UNL     1     -20.343 -37.442  -5.572  1.00  0.00     0.025 C 
ATOM      6  C   UNL     1     -20.148 -36.208  -4.671  1.00  0.00     0.089 C 
ATOM      7  C   UNL     1     -18.702 -36.062  -4.281  1.00  0.00     0.158 C 
ATOM      8  O   UNL     1     -18.259 -34.920  -3.981  1.00  0.00    -0.295 OA
ENDROOT
BRANCH   5   9
ATOM      9  C   UNL     1     -21.810 -37.657  -5.919  1.00  0.00    -0.077 C 
ATOM     10  C   UNL     1     -22.415 -38.837  -5.701  1.00  0.00     0.008 C 
ATOM     11  C   UNL     1     -22.616 -36.535  -6.521  1.00  0.00     0.039 C 
ENDBRANCH   5   9
TORSDOF 1
ENDMDL
MODEL 2
REMARK VINA RESULT:    -5.535      1.537      4.308
REMARK INTER + INTRA:          -5.955
REMARK INTER:                  -5.861
REMARK INTRA:                  -0.094
REMARK UNBOUND:                -0.096
REMARK SMILES C=C(C)[C@@H]1CC=C(C)C(=O)C1
REMARK SMILES IDX 8 1 7 2 6 3 5 4 4 5 11 6 9 7 10 8 2 9 1 10 3 11
REMARK H PARENT
REMARK Flexibility Score: inf
ROOT
ATOM      1  C   UNL     1     -22.592 -38.494  -5.786  1.00  0.00     0.048 C 
ATOM      2  C   UNL     1     -21.147 -38.157  -5.545  1.00  0.00    -0.012 C 
ATOM      3  C   UNL     1     -20.182 -38.899  -6.117  1.00  0.00    -0.019 C 
ATOM      4  C   UNL     1     -18.721 -38.595  -5.924  1.00  0.00     0.036 C 
ATOM      5  C   UNL     1     -18.457 -38.001  -4.528  1.00  0.00     0.025 C 
ATOM      6  C   UNL     1     -19.346 -36.763  -4.298  1.00  0.00     0.089 C 
ATOM      7  C   UNL     1     -20.787 -37.088  -4.580  1.00  0.00     0.158 C 
ATOM      8  O   UNL     1     -21.691 -36.415  -4.015  1.00  0.00    -0.295 OA
ENDROOT
BRANCH   5   9
ATOM      9  C   UNL     1     -16.983 -37.678  -4.323  1.00  0.00    -0.077 C 
ATOM     10  C   UNL     1     -16.023 -38.574  -4.614  1.00  0.00     0.008 C 
ATOM     11  C   UNL     1     -16.572 -36.333  -3.781  1.00  0.00     0.039 C 
ENDBRANCH   5   9
TORSDOF 1
ENDMDL
MODEL 3
REMARK VINA RESULT:    -5.485      0.087      1.048
REMARK INTER + INTRA:          -5.902
REMARK INTER:                  -5.806
REMARK INTRA:                  -0.096
REMARK UNBOUND:                -0.096
REMARK SMILES C=C(C)[C@@H]1CC=C(C)C(=O)C1
REMARK SMILES IDX 8 1 7 2 6 3 5 4 4 5 11 6 9 7 10 8 2 9 1 10 3 11
REMARK H PARENT
REMARK Flexibility Score: inf
ROOT
ATOM      1  C   UNL     1     -16.368 -37.118  -3.847  1.00  0.00     0.048 C 
ATOM      2  C   UNL     1     -17.825 -37.245  -4.198  1.00  0.00    -0.012 C 
ATOM      3  C   UNL     1     -18.321 -38.436  -4.576  1.00  0.00    -0.019 C 
ATOM      4  C   UNL     1     -19.775 -38.623  -4.920  1.00  0.00     0.036 C 
ATOM      5  C   UNL     1     -20.363 -37.349  -5.554  1.00  0.00     0.025 C 
ATOM      6  C   UNL     1     -20.134 -36.137  -4.631  1.00  0.00     0.089 C 
ATOM      7  C   UNL     1     -18.684 -36.035  -4.245  1.00  0.00     0.158 C 
ATOM      8  O   UNL     1     -18.211 -34.910  -3.925  1.00  0.00    -0.295 OA
ENDROOT
BRANCH   5   9
ATOM      9  C   UNL     1     -21.837 -37.521  -5.898  1.00  0.00    -0.077 C 
ATOM     10  C   UNL     1     -22.559 -36.508  -6.408  1.00  0.00     0.008 C 
ATOM     11  C   UNL     1     -22.518 -38.845  -5.668  1.00  0.00     0.039 C 
ENDBRANCH   5   9
TORSDOF 1
ENDMDL
MODEL 4
REMARK VINA RESULT:    -5.384      3.896      6.437
REMARK INTER + INTRA:          -5.795
REMARK INTER:                  -5.704
REMARK INTRA:                  -0.091
REMARK UNBOUND:                -0.096
REMARK SMILES C=C(C)[C@@H]1CC=C(C)C(=O)C1
REMARK SMILES IDX 8 1 7 2 6 3 5 4 4 5 11 6 9 7 10 8 2 9 1 10 3 11
REMARK H PARENT
REMARK Flexibility Score: inf
ROOT
ATOM      1  C   UNL     1     -19.337 -38.704  -6.037  1.00  0.00     0.048 C 
ATOM      2  C   UNL     1     -17.870 -39.023  -6.124  1.00  0.00    -0.012 C 
ATOM      3  C   UNL     1     -17.073 -38.802  -5.064  1.00  0.00    -0.019 C 
ATOM      4  C   UNL     1     -15.602 -39.120  -5.091  1.00  0.00     0.036 C 
ATOM      5  C   UNL     1     -15.017 -38.923  -6.502  1.00  0.00     0.025 C 
ATOM      6  C   UNL     1     -15.812 -39.751  -7.530  1.00  0.00     0.089 C 
ATOM      7  C   UNL     1     -17.284 -39.464  -7.415  1.00  0.00     0.158 C 
ATOM      8  O   UNL     1     -18.024 -39.638  -8.420  1.00  0.00    -0.295 OA
ENDROOT
BRANCH   5   9
ATOM      9  C   UNL     1     -13.531 -39.251  -6.546  1.00  0.00    -0.077 C 
ATOM     10  C   UNL     1     -12.680 -38.546  -7.312  1.00  0.00     0.008 C 
ATOM     11  C   UNL     1     -12.983 -40.388  -5.722  1.00  0.00     0.039 C 
ENDBRANCH   5   9
TORSDOF 1
ENDMDL
MODEL 5
REMARK VINA RESULT:    -5.301      3.073      4.280
REMARK INTER + INTRA:          -5.707
REMARK INTER:                  -5.614
REMARK INTRA:                  -0.093
REMARK UNBOUND:                -0.096
REMARK SMILES C=C(C)[C@@H]1CC=C(C)C(=O)C1
REMARK SMILES IDX 8 1 7 2 6 3 5 4 4 5 11 6 9 7 10 8 2 9 1 10 3 11
REMARK H PARENT
REMARK Flexibility Score: inf
ROOT
ATOM      1  C   UNL     1     -16.354 -36.811  -3.539  1.00  0.00     0.048 C 
ATOM      2  C   UNL     1     -16.560 -37.899  -4.557  1.00  0.00    -0.012 C 
ATOM      3  C   UNL     1     -15.502 -38.429  -5.194  1.00  0.00    -0.019 C 
ATOM      4  C   UNL     1     -15.650 -39.532  -6.208  1.00  0.00     0.036 C 
ATOM      5  C   UNL     1     -16.979 -39.407  -6.974  1.00  0.00     0.025 C 
ATOM      6  C   UNL     1     -18.162 -39.358  -5.988  1.00  0.00     0.089 C 
ATOM      7  C   UNL     1     -17.936 -38.299  -4.945  1.00  0.00     0.158 C 
ATOM      8  O   UNL     1     -18.932 -37.777  -4.374  1.00  0.00    -0.295 OA
ENDROOT
BRANCH   5   9
ATOM      9  C   UNL     1     -17.147 -40.524  -7.997  1.00  0.00    -0.077 C 
ATOM     10  C   UNL     1     -17.093 -41.817  -7.635  1.00  0.00     0.008 C 
ATOM     11  C   UNL     1     -17.379 -40.191  -9.448  1.00  0.00     0.039 C 
ENDBRANCH   5   9
TORSDOF 1
ENDMDL
MODEL 6
REMARK VINA RESULT:    -5.293      3.066      3.757
REMARK INTER + INTRA:          -5.699
REMARK INTER:                  -5.603
REMARK INTRA:                  -0.096
REMARK UNBOUND:                -0.096
REMARK SMILES C=C(C)[C@@H]1CC=C(C)C(=O)C1
REMARK SMILES IDX 8 1 7 2 6 3 5 4 4 5 11 6 9 7 10 8 2 9 1 10 3 11
REMARK H PARENT
REMARK Flexibility Score: inf
ROOT
ATOM      1  C   UNL     1     -18.925 -37.130  -3.602  1.00  0.00     0.048 C 
ATOM      2  C   UNL     1     -18.940 -38.046  -4.795  1.00  0.00    -0.012 C 
ATOM      3  C   UNL     1     -17.808 -38.657  -5.184  1.00  0.00    -0.019 C 
ATOM      4  C   UNL     1     -17.771 -39.597  -6.359  1.00  0.00     0.036 C 
ATOM      5  C   UNL     1     -18.785 -39.176  -7.439  1.00  0.00     0.025 C 
ATOM      6  C   UNL     1     -20.196 -39.058  -6.830  1.00  0.00     0.089 C 
ATOM      7  C   UNL     1     -20.173 -38.176  -5.612  1.00  0.00     0.158 C 
ATOM      8  O   UNL     1     -21.227 -37.575  -5.269  1.00  0.00    -0.295 OA
ENDROOT
BRANCH   5   9
ATOM      9  C   UNL     1     -18.766 -40.125  -8.630  1.00  0.00    -0.077 C 
ATOM     10  C   UNL     1     -19.754 -41.014  -8.832  1.00  0.00     0.008 C 
ATOM     11  C   UNL     1     -17.624 -40.082  -9.613  1.00  0.00     0.039 C 
ENDBRANCH   5   9
TORSDOF 1
ENDMDL
MODEL 7
REMARK VINA RESULT:    -5.257      2.965      3.924
REMARK INTER + INTRA:          -5.661
REMARK INTER:                  -5.565
REMARK INTRA:                  -0.096
REMARK UNBOUND:                -0.096
REMARK SMILES C=C(C)[C@@H]1CC=C(C)C(=O)C1
REMARK SMILES IDX 8 1 7 2 6 3 5 4 4 5 11 6 9 7 10 8 2 9 1 10 3 11
REMARK H PARENT
REMARK Flexibility Score: inf
ROOT
ATOM      1  C   UNL     1     -13.893 -39.462  -6.121  1.00  0.00     0.048 C 
ATOM      2  C   UNL     1     -15.316 -39.020  -5.920  1.00  0.00    -0.012 C 
ATOM      3  C   UNL     1     -15.644 -38.289  -4.841  1.00  0.00    -0.019 C 
ATOM      4  C   UNL     1     -17.049 -37.805  -4.601  1.00  0.00     0.036 C 
ATOM      5  C   UNL     1     -18.083 -38.808  -5.147  1.00  0.00     0.025 C 
ATOM      6  C   UNL     1     -17.811 -39.095  -6.637  1.00  0.00     0.089 C 
ATOM      7  C   UNL     1     -16.377 -39.496  -6.844  1.00  0.00     0.158 C 
ATOM      8  O   UNL     1     -16.076 -40.213  -7.837  1.00  0.00    -0.295 OA
ENDROOT
BRANCH   5   9
ATOM      9  C   UNL     1     -19.509 -38.326  -4.920  1.00  0.00    -0.077 C 
ATOM     10  C   UNL     1     -19.792 -37.382  -4.006  1.00  0.00     0.008 C 
ATOM     11  C   UNL     1     -20.641 -38.909  -5.727  1.00  0.00     0.039 C 
ENDBRANCH   5   9
TORSDOF 1
ENDMDL
MODEL 8
REMARK VINA RESULT:    -5.244      3.446      3.986
REMARK INTER + INTRA:          -5.647
REMARK INTER:                  -5.550
REMARK INTRA:                  -0.096
REMARK UNBOUND:                -0.096
REMARK SMILES C=C(C)[C@@H]1CC=C(C)C(=O)C1
REMARK SMILES IDX 8 1 7 2 6 3 5 4 4 5 11 6 9 7 10 8 2 9 1 10 3 11
REMARK H PARENT
REMARK Flexibility Score: inf
ROOT
ATOM      1  C   UNL     1     -13.805 -38.978  -6.819  1.00  0.00     0.048 C 
ATOM      2  C   UNL     1     -15.271 -39.306  -6.880  1.00  0.00    -0.012 C 
ATOM      3  C   UNL     1     -15.807 -39.765  -8.024  1.00  0.00    -0.019 C 
ATOM      4  C   UNL     1     -17.264 -40.127  -8.135  1.00  0.00     0.036 C 
ATOM      5  C   UNL     1     -18.129 -39.231  -7.228  1.00  0.00     0.025 C 
ATOM      6  C   UNL     1     -17.621 -39.294  -5.774  1.00  0.00     0.089 C 
ATOM      7  C   UNL     1     -16.146 -39.007  -5.718  1.00  0.00     0.158 C 
ATOM      8  O   UNL     1     -15.650 -38.543  -4.655  1.00  0.00    -0.295 OA
ENDROOT
BRANCH   5   9
ATOM      9  C   UNL     1     -19.605 -39.593  -7.322  1.00  0.00    -0.077 C 
ATOM     10  C   UNL     1     -20.025 -40.636  -8.059  1.00  0.00     0.008 C 
ATOM     11  C   UNL     1     -20.632 -38.775  -6.581  1.00  0.00     0.039 C 
ENDBRANCH   5   9
TORSDOF 1
ENDMDL
MODEL 9
REMARK VINA RESULT:    -5.169      1.533      2.096
REMARK INTER + INTRA:          -5.567
REMARK INTER:                  -5.471
REMARK INTRA:                  -0.096
REMARK UNBOUND:                -0.096
REMARK SMILES C=C(C)[C@@H]1CC=C(C)C(=O)C1
REMARK SMILES IDX 8 1 7 2 6 3 5 4 4 5 11 6 9 7 10 8 2 9 1 10 3 11
REMARK H PARENT
REMARK Flexibility Score: inf
ROOT
ATOM      1  C   UNL     1     -16.384 -37.056  -3.494  1.00  0.00     0.048 C 
ATOM      2  C   UNL     1     -17.690 -37.239  -4.217  1.00  0.00    -0.012 C 
ATOM      3  C   UNL     1     -18.720 -36.416  -3.955  1.00  0.00    -0.019 C 
ATOM      4  C   UNL     1     -20.043 -36.543  -4.663  1.00  0.00     0.036 C 
ATOM      5  C   UNL     1     -20.348 -38.012  -5.010  1.00  0.00     0.025 C 
ATOM      6  C   UNL     1     -19.190 -38.620  -5.824  1.00  0.00     0.089 C 
ATOM      7  C   UNL     1     -17.878 -38.400  -5.122  1.00  0.00     0.158 C 
ATOM      8  O   UNL     1     -16.924 -39.194  -5.341  1.00  0.00    -0.295 OA
ENDROOT
BRANCH   5   9
ATOM      9  C   UNL     1     -21.680 -38.155  -5.735  1.00  0.00    -0.077 C 
ATOM     10  C   UNL     1     -22.147 -39.358  -6.109  1.00  0.00     0.008 C 
ATOM     11  C   UNL     1     -22.503 -36.933  -6.050  1.00  0.00     0.039 C 
ENDBRANCH   5   9
TORSDOF 1
ENDMDL
