MODEL 1
REMARK VINA RESULT:    -4.213      0.000      0.000
REMARK INTER + INTRA:          -4.970
REMARK INTER:                  -4.952
REMARK INTRA:                  -0.019
REMARK UNBOUND:                -0.019
REMARK SMILES CCCCC(=O)[O-]
REMARK SMILES IDX 4 1 5 2 6 3 7 4 3 5 2 6 1 7
REMARK H PARENT
REMARK Flexibility Score: inf
ROOT
ATOM      1  C   UNL     1       2.282   5.603  19.324  1.00  0.00     0.053 C 
ENDROOT
BRANCH   1   2
ATOM      2  C   UNL     1       2.795   4.457  18.507  1.00  0.00     0.041 C 
ATOM      3  O   UNL     1       3.192   3.404  19.072  1.00  0.00    -0.550 OA
ATOM      4  O   UNL     1       2.864   4.564  17.124  1.00  0.00    -0.550 OA
ENDBRANCH   1   2
BRANCH   1   5
ATOM      5  C   UNL     1       2.284   6.914  18.527  1.00  0.00     0.006 C 
BRANCH   5   6
ATOM      6  C   UNL     1       2.068   8.141  19.426  1.00  0.00    -0.003 C 
ATOM      7  C   UNL     1       2.243   9.436  18.639  1.00  0.00     0.004 C 
ENDBRANCH   5   6
ENDBRANCH   1   5
TORSDOF 3
ENDMDL
MODEL 2
REMARK VINA RESULT:    -4.122      2.734      4.272
REMARK INTER + INTRA:          -4.863
REMARK INTER:                  -4.839
REMARK INTRA:                  -0.024
REMARK UNBOUND:                -0.019
REMARK SMILES CCCCC(=O)[O-]
REMARK SMILES IDX 4 1 5 2 6 3 7 4 3 5 2 6 1 7
REMARK H PARENT
REMARK Flexibility Score: inf
ROOT
ATOM      1  C   UNL     1       2.020   7.676  19.220  1.00  0.00     0.053 C 
ENDROOT
BRANCH   1   2
ATOM      2  C   UNL     1       2.684   8.799  18.484  1.00  0.00     0.041 C 
ATOM      3  O   UNL     1       3.100   8.629  17.308  1.00  0.00    -0.550 OA
ATOM      4  O   UNL     1       2.873  10.025  19.110  1.00  0.00    -0.550 OA
ENDBRANCH   1   2
BRANCH   1   5
ATOM      5  C   UNL     1       2.281   6.322  18.545  1.00  0.00     0.006 C 
BRANCH   5   6
ATOM      6  C   UNL     1       2.472   5.192  19.567  1.00  0.00    -0.003 C 
ATOM      7  C   UNL     1       2.932   3.907  18.886  1.00  0.00     0.004 C 
ENDBRANCH   5   6
ENDBRANCH   1   5
TORSDOF 3
ENDMDL
MODEL 3
REMARK VINA RESULT:    -4.000      2.561      3.927
REMARK INTER + INTRA:          -4.720
REMARK INTER:                  -4.680
REMARK INTRA:                  -0.040
REMARK UNBOUND:                -0.019
REMARK SMILES CCCCC(=O)[O-]
REMARK SMILES IDX 4 1 5 2 6 3 7 4 3 5 2 6 1 7
REMARK H PARENT
REMARK Flexibility Score: inf
ROOT
ATOM      1  C   UNL     1       2.200   6.195  18.487  1.00  0.00     0.053 C 
ENDROOT
BRANCH   1   2
ATOM      2  C   UNL     1       2.384   7.662  18.729  1.00  0.00     0.041 C 
ATOM      3  O   UNL     1       2.067   8.165  19.839  1.00  0.00    -0.550 OA
ATOM      4  O   UNL     1       2.876   8.477  17.718  1.00  0.00    -0.550 OA
ENDBRANCH   1   2
BRANCH   1   5
ATOM      5  C   UNL     1       2.443   5.374  19.760  1.00  0.00     0.006 C 
BRANCH   5   6
ATOM      6  C   UNL     1       2.818   3.917  19.449  1.00  0.00    -0.003 C 
ATOM      7  C   UNL     1       2.984   3.701  17.948  1.00  0.00     0.004 C 
ENDBRANCH   5   6
ENDBRANCH   1   5
TORSDOF 3
ENDMDL
MODEL 4
REMARK VINA RESULT:    -3.933      3.069      3.854
REMARK INTER + INTRA:          -4.641
REMARK INTER:                  -4.623
REMARK INTRA:                  -0.019
REMARK UNBOUND:                -0.019
REMARK SMILES CCCCC(=O)[O-]
REMARK SMILES IDX 4 1 5 2 6 3 7 4 3 5 2 6 1 7
REMARK H PARENT
REMARK Flexibility Score: inf
ROOT
ATOM      1  C   UNL     1       4.180   8.690  16.257  1.00  0.00     0.053 C 
ENDROOT
BRANCH   1   2
ATOM      2  C   UNL     1       4.955   7.601  15.582  1.00  0.00     0.041 C 
ATOM      3  O   UNL     1       4.464   6.447  15.473  1.00  0.00    -0.550 OA
ATOM      4  O   UNL     1       6.234   7.853  15.101  1.00  0.00    -0.550 OA
ENDBRANCH   1   2
BRANCH   1   5
ATOM      5  C   UNL     1       3.335   8.151  17.418  1.00  0.00     0.006 C 
BRANCH   5   6
ATOM      6  C   UNL     1       2.670   9.276  18.225  1.00  0.00    -0.003 C 
ATOM      7  C   UNL     1       2.021   8.733  19.494  1.00  0.00     0.004 C 
ENDBRANCH   5   6
ENDBRANCH   1   5
TORSDOF 3
ENDMDL
MODEL 5
REMARK VINA RESULT:    -3.858      2.338      3.165
REMARK INTER + INTRA:          -4.554
REMARK INTER:                  -4.518
REMARK INTRA:                  -0.036
REMARK UNBOUND:                -0.019
REMARK SMILES CCCCC(=O)[O-]
REMARK SMILES IDX 4 1 5 2 6 3 7 4 3 5 2 6 1 7
REMARK H PARENT
REMARK Flexibility Score: inf
ROOT
ATOM      1  C   UNL     1       3.017   3.639  17.596  1.00  0.00     0.053 C 
ENDROOT
BRANCH   1   2
ATOM      2  C   UNL     1       3.351   2.399  16.825  1.00  0.00     0.041 C 
ATOM      3  O   UNL     1       4.234   1.609  17.249  1.00  0.00    -0.550 OA
ATOM      4  O   UNL     1       2.710   2.134  15.622  1.00  0.00    -0.550 OA
ENDBRANCH   1   2
BRANCH   1   5
ATOM      5  C   UNL     1       3.072   3.400  19.110  1.00  0.00     0.006 C 
BRANCH   5   6
ATOM      6  C   UNL     1       2.692   4.654  19.911  1.00  0.00    -0.003 C 
ATOM      7  C   UNL     1       2.245   5.782  18.986  1.00  0.00     0.004 C 
ENDBRANCH   5   6
ENDBRANCH   1   5
TORSDOF 3
ENDMDL
MODEL 6
REMARK VINA RESULT:    -3.831      2.362      3.370
REMARK INTER + INTRA:          -4.522
REMARK INTER:                  -4.488
REMARK INTRA:                  -0.034
REMARK UNBOUND:                -0.019
REMARK SMILES CCCCC(=O)[O-]
REMARK SMILES IDX 4 1 5 2 6 3 7 4 3 5 2 6 1 7
REMARK H PARENT
REMARK Flexibility Score: inf
ROOT
ATOM      1  C   UNL     1       2.999   3.661  17.436  1.00  0.00     0.053 C 
ENDROOT
BRANCH   1   2
ATOM      2  C   UNL     1       3.284   2.417  16.650  1.00  0.00     0.041 C 
ATOM      3  O   UNL     1       2.572   2.119  15.656  1.00  0.00    -0.550 OA
ATOM      4  O   UNL     1       4.317   1.573  17.036  1.00  0.00    -0.550 OA
ENDBRANCH   1   2
BRANCH   1   5
ATOM      5  C   UNL     1       3.028   3.397  18.947  1.00  0.00     0.006 C 
BRANCH   5   6
ATOM      6  C   UNL     1       2.680   4.651  19.762  1.00  0.00    -0.003 C 
ATOM      7  C   UNL     1       2.268   5.802  18.850  1.00  0.00     0.004 C 
ENDBRANCH   5   6
ENDBRANCH   1   5
TORSDOF 3
ENDMDL
MODEL 7
REMARK VINA RESULT:    -3.678      3.794      4.721
REMARK INTER + INTRA:          -4.342
REMARK INTER:                  -4.324
REMARK INTRA:                  -0.018
REMARK UNBOUND:                -0.019
REMARK SMILES CCCCC(=O)[O-]
REMARK SMILES IDX 4 1 5 2 6 3 7 4 3 5 2 6 1 7
REMARK H PARENT
REMARK Flexibility Score: inf
ROOT
ATOM      1  C   UNL     1       3.386   9.096  17.032  1.00  0.00     0.053 C 
ENDROOT
BRANCH   1   2
ATOM      2  C   UNL     1       2.674   8.778  18.311  1.00  0.00     0.041 C 
ATOM      3  O   UNL     1       2.489   9.675  19.173  1.00  0.00    -0.550 OA
ATOM      4  O   UNL     1       2.243   7.481  18.563  1.00  0.00    -0.550 OA
ENDBRANCH   1   2
BRANCH   1   5
ATOM      5  C   UNL     1       4.126   7.874  16.474  1.00  0.00     0.006 C 
BRANCH   5   6
ATOM      6  C   UNL     1       4.972   8.220  15.239  1.00  0.00    -0.003 C 
ATOM      7  C   UNL     1       5.789   7.018  14.778  1.00  0.00     0.004 C 
ENDBRANCH   5   6
ENDBRANCH   1   5
TORSDOF 3
ENDMDL
MODEL 8
REMARK VINA RESULT:    -3.535      3.099      3.868
REMARK INTER + INTRA:          -4.173
REMARK INTER:                  -4.156
REMARK INTRA:                  -0.017
REMARK UNBOUND:                -0.019
REMARK SMILES CCCCC(=O)[O-]
REMARK SMILES IDX 4 1 5 2 6 3 7 4 3 5 2 6 1 7
REMARK H PARENT
REMARK Flexibility Score: inf
ROOT
ATOM      1  C   UNL     1       2.948   3.534  18.261  1.00  0.00     0.053 C 
ENDROOT
BRANCH   1   2
ATOM      2  C   UNL     1       2.379   4.094  19.528  1.00  0.00     0.041 C 
ATOM      3  O   UNL     1       2.737   5.229  19.937  1.00  0.00    -0.550 OA
ATOM      4  O   UNL     1       1.476   3.347  20.274  1.00  0.00    -0.550 OA
ENDBRANCH   1   2
BRANCH   1   5
ATOM      5  C   UNL     1       2.838   4.530  17.100  1.00  0.00     0.006 C 
BRANCH   5   6
ATOM      6  C   UNL     1       3.199   3.892  15.750  1.00  0.00    -0.003 C 
ATOM      7  C   UNL     1       4.184   4.762  14.976  1.00  0.00     0.004 C 
ENDBRANCH   5   6
ENDBRANCH   1   5
TORSDOF 3
ENDMDL
MODEL 9
REMARK VINA RESULT:    -3.331      5.969      6.924
REMARK INTER + INTRA:          -3.934
REMARK INTER:                  -3.902
REMARK INTRA:                  -0.032
REMARK UNBOUND:                -0.019
REMARK SMILES CCCCC(=O)[O-]
REMARK SMILES IDX 4 1 5 2 6 3 7 4 3 5 2 6 1 7
REMARK H PARENT
REMARK Flexibility Score: inf
ROOT
ATOM      1  C   UNL     1       5.266   6.846  14.093  1.00  0.00     0.053 C 
ENDROOT
BRANCH   1   2
ATOM      2  C   UNL     1       5.880   8.152  13.692  1.00  0.00     0.041 C 
ATOM      3  O   UNL     1       5.147   9.129  13.384  1.00  0.00    -0.550 OA
ATOM      4  O   UNL     1       7.262   8.281  13.627  1.00  0.00    -0.550 OA
ENDBRANCH   1   2
BRANCH   1   5
ATOM      5  C   UNL     1       4.951   5.968  12.875  1.00  0.00     0.006 C 
BRANCH   5   6
ATOM      6  C   UNL     1       4.165   4.705  13.257  1.00  0.00    -0.003 C 
ATOM      7  C   UNL     1       4.150   4.504  14.769  1.00  0.00     0.004 C 
ENDBRANCH   5   6
ENDBRANCH   1   5
TORSDOF 3
ENDMDL
