MODEL 1
REMARK VINA RESULT:    -5.385      0.000      0.000
REMARK INTER + INTRA:         -10.027
REMARK INTER:                  -8.218
REMARK INTRA:                  -1.809
REMARK UNBOUND:                -1.809
REMARK SMILES CC(=O)CCC=C(C)CCC=C(C)CCC=C(C)C
REMARK SMILES IDX 10 1 11 2 12 3 13 4 14 5 15 6 16 7 18 8 17 9 19 10 9 11 7 12
REMARK SMILES IDX 6 13 8 14 5 15 4 16 2 17 3 18 1 19
REMARK H PARENT
REMARK Flexibility Score: inf
ROOT
ATOM      1  C   UNL     1     -24.797   2.815  -3.352  1.00  0.00     0.032 C 
ENDROOT
BRANCH   1   2
ATOM      2  C   UNL     1     -25.199   3.662  -2.168  1.00  0.00    -0.028 C 
ATOM      3  C   UNL     1     -24.365   4.029  -1.168  1.00  0.00    -0.077 C 
ATOM      4  C   UNL     1     -22.942   3.530  -1.093  1.00  0.00     0.039 C 
BRANCH   3   5
ATOM      5  C   UNL     1     -24.882   4.951  -0.086  1.00  0.00     0.034 C 
BRANCH   5   6
ATOM      6  C   UNL     1     -24.880   6.405  -0.568  1.00  0.00     0.032 C 
BRANCH   6   7
ATOM      7  C   UNL     1     -26.268   6.852  -0.948  1.00  0.00    -0.028 C 
ATOM      8  C   UNL     1     -27.976   8.211  -2.075  1.00  0.00     0.039 C 
ATOM      9  C   UNL     1     -26.537   7.901  -1.756  1.00  0.00    -0.080 C 
ATOM     10  C   UNL     1     -25.443   8.773  -2.328  1.00  0.00     0.039 C 
ENDBRANCH   6   7
ENDBRANCH   5   6
ENDBRANCH   3   5
ENDBRANCH   1   2
BRANCH   1  11
ATOM     11  C   UNL     1     -25.602   1.510  -3.419  1.00  0.00     0.034 C 
BRANCH  11  12
ATOM     12  C   UNL     1     -25.139   0.512  -2.377  1.00  0.00    -0.077 C 
ATOM     13  C   UNL     1     -23.817   0.275  -2.222  1.00  0.00    -0.028 C 
ATOM     14  C   UNL     1     -26.173  -0.229  -1.564  1.00  0.00     0.039 C 
BRANCH  13  15
ATOM     15  C   UNL     1     -23.268  -0.720  -1.227  1.00  0.00     0.035 C 
BRANCH  15  16
ATOM     16  C   UNL     1     -22.645  -0.036  -0.003  1.00  0.00     0.079 C 
BRANCH  16  17
ATOM     17  C   UNL     1     -23.590  -0.010   1.171  1.00  0.00     0.130 C 
ATOM     18  O   UNL     1     -23.599  -0.945   1.958  1.00  0.00    -0.300 OA
ATOM     19  C   UNL     1     -24.513   1.149   1.404  1.00  0.00     0.087 C 
ENDBRANCH  16  17
ENDBRANCH  15  16
ENDBRANCH  13  15
ENDBRANCH  11  12
ENDBRANCH   1  11
TORSDOF 9
ENDMDL
MODEL 2
REMARK VINA RESULT:    -5.293      2.583      6.146
REMARK INTER + INTRA:          -9.886
REMARK INTER:                  -8.169
REMARK INTRA:                  -1.717
REMARK UNBOUND:                -1.809
REMARK SMILES CC(=O)CCC=C(C)CCC=C(C)CCC=C(C)C
REMARK SMILES IDX 10 1 11 2 12 3 13 4 14 5 15 6 16 7 18 8 17 9 19 10 9 11 7 12
REMARK SMILES IDX 6 13 8 14 5 15 4 16 2 17 3 18 1 19
REMARK H PARENT
REMARK Flexibility Score: inf
ROOT
ATOM      1  C   UNL     1     -24.830   2.174  -3.557  1.00  0.00     0.032 C 
ENDROOT
BRANCH   1   2
ATOM      2  C   UNL     1     -25.726   0.958  -3.547  1.00  0.00    -0.028 C 
ATOM      3  C   UNL     1     -25.358  -0.263  -3.098  1.00  0.00    -0.077 C 
ATOM      4  C   UNL     1     -23.947  -0.555  -2.647  1.00  0.00     0.039 C 
BRANCH   3   5
ATOM      5  C   UNL     1     -26.387  -1.372  -3.070  1.00  0.00     0.034 C 
BRANCH   5   6
ATOM      6  C   UNL     1     -26.278  -2.242  -4.327  1.00  0.00     0.032 C 
BRANCH   6   7
ATOM      7  C   UNL     1     -27.588  -2.283  -5.071  1.00  0.00    -0.028 C 
ATOM      8  C   UNL     1     -29.200  -1.737  -6.842  1.00  0.00     0.039 C 
ATOM      9  C   UNL     1     -27.854  -1.570  -6.187  1.00  0.00    -0.080 C 
ATOM     10  C   UNL     1     -26.852  -0.606  -6.779  1.00  0.00     0.039 C 
ENDBRANCH   6   7
ENDBRANCH   5   6
ENDBRANCH   3   5
ENDBRANCH   1   2
BRANCH   1  11
ATOM     11  C   UNL     1     -25.300   3.238  -2.555  1.00  0.00     0.034 C 
BRANCH  11  12
ATOM     12  C   UNL     1     -24.612   3.087  -1.214  1.00  0.00    -0.077 C 
ATOM     13  C   UNL     1     -25.060   2.162  -0.336  1.00  0.00    -0.028 C 
ATOM     14  C   UNL     1     -23.466   4.009  -0.873  1.00  0.00     0.039 C 
BRANCH  13  15
ATOM     15  C   UNL     1     -24.451   1.961   1.032  1.00  0.00     0.035 C 
BRANCH  15  16
ATOM     16  C   UNL     1     -24.182   0.482   1.338  1.00  0.00     0.079 C 
BRANCH  16  17
ATOM     17  C   UNL     1     -22.805   0.056   0.896  1.00  0.00     0.130 C 
ATOM     18  O   UNL     1     -22.561  -1.132   0.748  1.00  0.00    -0.300 OA
ATOM     19  C   UNL     1     -21.728   1.063   0.621  1.00  0.00     0.087 C 
ENDBRANCH  16  17
ENDBRANCH  15  16
ENDBRANCH  13  15
ENDBRANCH  11  12
ENDBRANCH   1  11
TORSDOF 9
ENDMDL
MODEL 3
REMARK VINA RESULT:    -5.243      2.638      4.566
REMARK INTER + INTRA:          -9.810
REMARK INTER:                  -7.946
REMARK INTRA:                  -1.864
REMARK UNBOUND:                -1.809
REMARK SMILES CC(=O)CCC=C(C)CCC=C(C)CCC=C(C)C
REMARK SMILES IDX 10 1 11 2 12 3 13 4 14 5 15 6 16 7 18 8 17 9 19 10 9 11 7 12
REMARK SMILES IDX 6 13 8 14 5 15 4 16 2 17 3 18 1 19
REMARK H PARENT
REMARK Flexibility Score: inf
ROOT
ATOM      1  C   UNL     1     -22.993   0.091  -0.481  1.00  0.00     0.032 C 
ENDROOT
BRANCH   1   2
ATOM      2  C   UNL     1     -23.112   1.451   0.166  1.00  0.00    -0.028 C 
ATOM      3  C   UNL     1     -24.137   1.838   0.958  1.00  0.00    -0.077 C 
ATOM      4  C   UNL     1     -25.339   0.954   1.194  1.00  0.00     0.039 C 
BRANCH   3   5
ATOM      5  C   UNL     1     -24.084   3.203   1.607  1.00  0.00     0.034 C 
BRANCH   5   6
ATOM      6  C   UNL     1     -23.559   4.250   0.619  1.00  0.00     0.032 C 
BRANCH   6   7
ATOM      7  C   UNL     1     -24.671   5.149   0.142  1.00  0.00    -0.028 C 
ATOM      8  C   UNL     1     -26.483   5.918  -1.328  1.00  0.00     0.039 C 
ATOM      9  C   UNL     1     -25.375   4.952  -0.994  1.00  0.00    -0.080 C 
ATOM     10  C   UNL     1     -25.072   3.810  -1.937  1.00  0.00     0.039 C 
ENDBRANCH   6   7
ENDBRANCH   5   6
ENDBRANCH   3   5
ENDBRANCH   1   2
BRANCH   1  11
ATOM     11  C   UNL     1     -23.221   0.159  -1.998  1.00  0.00     0.034 C 
BRANCH  11  12
ATOM     12  C   UNL     1     -24.505  -0.536  -2.404  1.00  0.00    -0.077 C 
ATOM     13  C   UNL     1     -25.693   0.046  -2.127  1.00  0.00    -0.028 C 
ATOM     14  C   UNL     1     -24.425  -1.888  -3.070  1.00  0.00     0.039 C 
BRANCH  13  15
ATOM     15  C   UNL     1     -27.021  -0.587  -2.472  1.00  0.00     0.035 C 
BRANCH  15  16
ATOM     16  C   UNL     1     -27.743   0.157  -3.603  1.00  0.00     0.079 C 
BRANCH  16  17
ATOM     17  C   UNL     1     -27.866  -0.687  -4.846  1.00  0.00     0.130 C 
ATOM     18  O   UNL     1     -28.912  -1.277  -5.073  1.00  0.00    -0.300 OA
ATOM     19  C   UNL     1     -26.732  -0.808  -5.821  1.00  0.00     0.087 C 
ENDBRANCH  16  17
ENDBRANCH  15  16
ENDBRANCH  13  15
ENDBRANCH  11  12
ENDBRANCH   1  11
TORSDOF 9
ENDMDL
MODEL 4
REMARK VINA RESULT:    -5.194      2.147      3.489
REMARK INTER + INTRA:          -9.735
REMARK INTER:                  -8.004
REMARK INTRA:                  -1.731
REMARK UNBOUND:                -1.809
REMARK SMILES CC(=O)CCC=C(C)CCC=C(C)CCC=C(C)C
REMARK SMILES IDX 10 1 11 2 12 3 13 4 14 5 15 6 16 7 18 8 17 9 19 10 9 11 7 12
REMARK SMILES IDX 6 13 8 14 5 15 4 16 2 17 3 18 1 19
REMARK H PARENT
REMARK Flexibility Score: inf
ROOT
ATOM      1  C   UNL     1     -23.853   4.032  -0.281  1.00  0.00     0.032 C 
ENDROOT
BRANCH   1   2
ATOM      2  C   UNL     1     -24.898   5.106  -0.469  1.00  0.00    -0.028 C 
ATOM      3  C   UNL     1     -25.818   5.117  -1.461  1.00  0.00    -0.077 C 
ATOM      4  C   UNL     1     -25.820   4.079  -2.558  1.00  0.00     0.039 C 
BRANCH   3   5
ATOM      5  C   UNL     1     -26.860   6.213  -1.480  1.00  0.00     0.034 C 
BRANCH   5   6
ATOM      6  C   UNL     1     -26.292   7.507  -0.887  1.00  0.00     0.032 C 
BRANCH   6   7
ATOM      7  C   UNL     1     -25.882   8.466  -1.975  1.00  0.00    -0.028 C 
ATOM      8  C   UNL     1     -24.343   9.789  -3.360  1.00  0.00     0.039 C 
ATOM      9  C   UNL     1     -24.607   8.846  -2.214  1.00  0.00    -0.080 C 
ATOM     10  C   UNL     1     -23.455   8.369  -1.361  1.00  0.00     0.039 C 
ENDBRANCH   6   7
ENDBRANCH   5   6
ENDBRANCH   3   5
ENDBRANCH   1   2
BRANCH   1  11
ATOM     11  C   UNL     1     -24.318   2.949   0.703  1.00  0.00     0.034 C 
BRANCH  11  12
ATOM     12  C   UNL     1     -24.514   1.613   0.014  1.00  0.00    -0.077 C 
ATOM     13  C   UNL     1     -23.815   1.335  -1.108  1.00  0.00    -0.028 C 
ATOM     14  C   UNL     1     -25.522   0.642   0.578  1.00  0.00     0.039 C 
BRANCH  13  15
ATOM     15  C   UNL     1     -23.965   0.040  -1.873  1.00  0.00     0.035 C 
BRANCH  15  16
ATOM     16  C   UNL     1     -24.207   0.273  -3.370  1.00  0.00     0.079 C 
BRANCH  16  17
ATOM     17  C   UNL     1     -25.607  -0.106  -3.781  1.00  0.00     0.130 C 
ATOM     18  O   UNL     1     -25.898  -0.141  -4.967  1.00  0.00    -0.300 OA
ATOM     19  C   UNL     1     -26.651  -0.455  -2.761  1.00  0.00     0.087 C 
ENDBRANCH  16  17
ENDBRANCH  15  16
ENDBRANCH  13  15
ENDBRANCH  11  12
ENDBRANCH   1  11
TORSDOF 9
ENDMDL
MODEL 5
REMARK VINA RESULT:    -5.150      7.061      9.338
REMARK INTER + INTRA:          -9.668
REMARK INTER:                  -8.617
REMARK INTRA:                  -1.051
REMARK UNBOUND:                -1.809
REMARK SMILES CC(=O)CCC=C(C)CCC=C(C)CCC=C(C)C
REMARK SMILES IDX 10 1 11 2 12 3 13 4 14 5 15 6 16 7 18 8 17 9 19 10 9 11 7 12
REMARK SMILES IDX 6 13 8 14 5 15 4 16 2 17 3 18 1 19
REMARK H PARENT
REMARK Flexibility Score: inf
ROOT
ATOM      1  C   UNL     1     -26.643  -3.546  -5.453  1.00  0.00     0.032 C 
ENDROOT
BRANCH   1   2
ATOM      2  C   UNL     1     -26.452  -2.772  -4.170  1.00  0.00    -0.028 C 
ATOM      3  C   UNL     1     -26.454  -1.423  -4.080  1.00  0.00    -0.077 C 
ATOM      4  C   UNL     1     -26.551  -0.542  -5.303  1.00  0.00     0.039 C 
BRANCH   3   5
ATOM      5  C   UNL     1     -26.334  -0.781  -2.714  1.00  0.00     0.034 C 
BRANCH   5   6
ATOM      6  C   UNL     1     -24.946  -0.158  -2.532  1.00  0.00     0.032 C 
BRANCH   6   7
ATOM      7  C   UNL     1     -25.045   1.205  -1.896  1.00  0.00    -0.028 C 
ATOM      8  C   UNL     1     -25.118   3.659  -1.809  1.00  0.00     0.039 C 
ATOM      9  C   UNL     1     -24.970   2.370  -2.576  1.00  0.00    -0.080 C 
ATOM     10  C   UNL     1     -24.727   2.414  -4.066  1.00  0.00     0.039 C 
ENDBRANCH   6   7
ENDBRANCH   5   6
ENDBRANCH   3   5
ENDBRANCH   1   2
BRANCH   1  11
ATOM     11  C   UNL     1     -27.970  -4.318  -5.461  1.00  0.00     0.034 C 
BRANCH  11  12
ATOM     12  C   UNL     1     -28.883  -3.853  -6.577  1.00  0.00    -0.077 C 
ATOM     13  C   UNL     1     -29.328  -4.745  -7.489  1.00  0.00    -0.028 C 
ATOM     14  C   UNL     1     -29.237  -2.388  -6.669  1.00  0.00     0.039 C 
BRANCH  13  15
ATOM     15  C   UNL     1     -30.220  -4.365  -8.648  1.00  0.00     0.035 C 
BRANCH  15  16
ATOM     16  C   UNL     1     -29.731  -4.955  -9.977  1.00  0.00     0.079 C 
BRANCH  16  17
ATOM     17  C   UNL     1     -30.777  -4.852 -11.059  1.00  0.00     0.130 C 
ATOM     18  O   UNL     1     -31.959  -4.941 -10.764  1.00  0.00    -0.300 OA
ATOM     19  C   UNL     1     -30.395  -4.629 -12.492  1.00  0.00     0.087 C 
ENDBRANCH  16  17
ENDBRANCH  15  16
ENDBRANCH  13  15
ENDBRANCH  11  12
ENDBRANCH   1  11
TORSDOF 9
ENDMDL
MODEL 6
REMARK VINA RESULT:    -5.148      3.126      6.340
REMARK INTER + INTRA:          -9.666
REMARK INTER:                  -8.205
REMARK INTRA:                  -1.461
REMARK UNBOUND:                -1.809
REMARK SMILES CC(=O)CCC=C(C)CCC=C(C)CCC=C(C)C
REMARK SMILES IDX 10 1 11 2 12 3 13 4 14 5 15 6 16 7 18 8 17 9 19 10 9 11 7 12
REMARK SMILES IDX 6 13 8 14 5 15 4 16 2 17 3 18 1 19
REMARK H PARENT
REMARK Flexibility Score: inf
ROOT
ATOM      1  C   UNL     1     -23.632   0.166  -2.311  1.00  0.00     0.032 C 
ENDROOT
BRANCH   1   2
ATOM      2  C   UNL     1     -25.028  -0.298  -2.656  1.00  0.00    -0.028 C 
ATOM      3  C   UNL     1     -26.023   0.513  -3.083  1.00  0.00    -0.077 C 
ATOM      4  C   UNL     1     -25.852   2.011  -3.160  1.00  0.00     0.039 C 
BRANCH   3   5
ATOM      5  C   UNL     1     -27.349  -0.101  -3.473  1.00  0.00     0.034 C 
BRANCH   5   6
ATOM      6  C   UNL     1     -27.138  -1.275  -4.434  1.00  0.00     0.032 C 
BRANCH   6   7
ATOM      7  C   UNL     1     -26.825  -0.786  -5.825  1.00  0.00    -0.028 C 
ATOM      8  C   UNL     1     -27.235  -0.314  -8.201  1.00  0.00     0.039 C 
ATOM      9  C   UNL     1     -27.673  -0.877  -6.873  1.00  0.00    -0.080 C 
ATOM     10  C   UNL     1     -29.027  -1.536  -6.754  1.00  0.00     0.039 C 
ENDBRANCH   6   7
ENDBRANCH   5   6
ENDBRANCH   3   5
ENDBRANCH   1   2
BRANCH   1  11
ATOM     11  C   UNL     1     -23.349   0.053  -0.807  1.00  0.00     0.034 C 
BRANCH  11  12
ATOM     12  C   UNL     1     -24.085   1.115  -0.016  1.00  0.00    -0.077 C 
ATOM     13  C   UNL     1     -23.681   2.402  -0.094  1.00  0.00    -0.028 C 
ATOM     14  C   UNL     1     -25.229   0.700   0.877  1.00  0.00     0.039 C 
BRANCH  13  15
ATOM     15  C   UNL     1     -24.340   3.522   0.679  1.00  0.00     0.035 C 
BRANCH  15  16
ATOM     16  C   UNL     1     -23.319   4.514   1.250  1.00  0.00     0.079 C 
BRANCH  16  17
ATOM     17  C   UNL     1     -22.666   3.991   2.505  1.00  0.00     0.130 C 
ATOM     18  O   UNL     1     -23.326   3.881   3.527  1.00  0.00    -0.300 OA
ATOM     19  C   UNL     1     -21.221   3.588   2.521  1.00  0.00     0.087 C 
ENDBRANCH  16  17
ENDBRANCH  15  16
ENDBRANCH  13  15
ENDBRANCH  11  12
ENDBRANCH   1  11
TORSDOF 9
ENDMDL
MODEL 7
REMARK VINA RESULT:    -5.135      3.223      7.288
REMARK INTER + INTRA:          -9.646
REMARK INTER:                  -8.031
REMARK INTRA:                  -1.615
REMARK UNBOUND:                -1.809
REMARK SMILES CC(=O)CCC=C(C)CCC=C(C)CCC=C(C)C
REMARK SMILES IDX 10 1 11 2 12 3 13 4 14 5 15 6 16 7 18 8 17 9 19 10 9 11 7 12
REMARK SMILES IDX 6 13 8 14 5 15 4 16 2 17 3 18 1 19
REMARK H PARENT
REMARK Flexibility Score: inf
ROOT
ATOM      1  C   UNL     1     -22.873   5.081  -0.062  1.00  0.00     0.032 C 
ENDROOT
BRANCH   1   2
ATOM      2  C   UNL     1     -22.183   3.749  -0.237  1.00  0.00    -0.028 C 
ATOM      3  C   UNL     1     -21.675   3.008   0.774  1.00  0.00    -0.077 C 
ATOM      4  C   UNL     1     -21.662   3.508   2.199  1.00  0.00     0.039 C 
BRANCH   3   5
ATOM      5  C   UNL     1     -21.084   1.651   0.461  1.00  0.00     0.034 C 
BRANCH   5   6
ATOM      6  C   UNL     1     -22.096   0.540   0.763  1.00  0.00     0.032 C 
BRANCH   6   7
ATOM      7  C   UNL     1     -23.019   0.318  -0.407  1.00  0.00    -0.028 C 
ATOM      8  C   UNL     1     -25.120   0.409  -1.678  1.00  0.00     0.039 C 
ATOM      9  C   UNL     1     -24.326   0.663  -0.423  1.00  0.00    -0.080 C 
ATOM     10  C   UNL     1     -25.007   1.275   0.779  1.00  0.00     0.039 C 
ENDBRANCH   6   7
ENDBRANCH   5   6
ENDBRANCH   3   5
ENDBRANCH   1   2
BRANCH   1  11
ATOM     11  C   UNL     1     -24.347   4.913   0.332  1.00  0.00     0.034 C 
BRANCH  11  12
ATOM     12  C   UNL     1     -25.278   5.328  -0.788  1.00  0.00    -0.077 C 
ATOM     13  C   UNL     1     -25.818   6.566  -0.781  1.00  0.00    -0.028 C 
ATOM     14  C   UNL     1     -25.615   4.327  -1.867  1.00  0.00     0.039 C 
BRANCH  13  15
ATOM     15  C   UNL     1     -26.776   7.055  -1.844  1.00  0.00     0.035 C 
BRANCH  15  16
ATOM     16  C   UNL     1     -28.142   7.442  -1.262  1.00  0.00     0.079 C 
BRANCH  16  17
ATOM     17  C   UNL     1     -28.401   8.924  -1.369  1.00  0.00     0.130 C 
ATOM     18  O   UNL     1     -28.391   9.460  -2.467  1.00  0.00    -0.300 OA
ATOM     19  C   UNL     1     -28.686   9.754  -0.152  1.00  0.00     0.087 C 
ENDBRANCH  16  17
ENDBRANCH  15  16
ENDBRANCH  13  15
ENDBRANCH  11  12
ENDBRANCH   1  11
TORSDOF 9
ENDMDL
MODEL 8
REMARK VINA RESULT:    -5.110      3.079      6.694
REMARK INTER + INTRA:          -9.608
REMARK INTER:                  -8.210
REMARK INTRA:                  -1.397
REMARK UNBOUND:                -1.809
REMARK SMILES CC(=O)CCC=C(C)CCC=C(C)CCC=C(C)C
REMARK SMILES IDX 10 1 11 2 12 3 13 4 14 5 15 6 16 7 18 8 17 9 19 10 9 11 7 12
REMARK SMILES IDX 6 13 8 14 5 15 4 16 2 17 3 18 1 19
REMARK H PARENT
REMARK Flexibility Score: inf
ROOT
ATOM      1  C   UNL     1     -23.628  -0.036  -2.270  1.00  0.00     0.032 C 
ENDROOT
BRANCH   1   2
ATOM      2  C   UNL     1     -25.045  -0.449  -2.585  1.00  0.00    -0.028 C 
ATOM      3  C   UNL     1     -25.989   0.371  -3.099  1.00  0.00    -0.077 C 
ATOM      4  C   UNL     1     -25.731   1.843  -3.319  1.00  0.00     0.039 C 
BRANCH   3   5
ATOM      5  C   UNL     1     -27.347  -0.200  -3.444  1.00  0.00     0.034 C 
BRANCH   5   6
ATOM      6  C   UNL     1     -27.207  -1.365  -4.430  1.00  0.00     0.032 C 
BRANCH   6   7
ATOM      7  C   UNL     1     -26.867  -0.866  -5.811  1.00  0.00    -0.028 C 
ATOM      8  C   UNL     1     -27.231  -0.374  -8.190  1.00  0.00     0.039 C 
ATOM      9  C   UNL     1     -27.696  -0.945  -6.875  1.00  0.00    -0.080 C 
ATOM     10  C   UNL     1     -29.055  -1.599  -6.785  1.00  0.00     0.039 C 
ENDBRANCH   6   7
ENDBRANCH   5   6
ENDBRANCH   3   5
ENDBRANCH   1   2
BRANCH   1  11
ATOM     11  C   UNL     1     -23.367   0.003  -0.757  1.00  0.00     0.034 C 
BRANCH  11  12
ATOM     12  C   UNL     1     -24.120   1.135  -0.088  1.00  0.00    -0.077 C 
ATOM     13  C   UNL     1     -23.781   2.414  -0.363  1.00  0.00    -0.028 C 
ATOM     14  C   UNL     1     -25.205   0.803   0.908  1.00  0.00     0.039 C 
BRANCH  13  15
ATOM     15  C   UNL     1     -24.460   3.603   0.277  1.00  0.00     0.035 C 
BRANCH  15  16
ATOM     16  C   UNL     1     -23.980   4.935  -0.313  1.00  0.00     0.079 C 
BRANCH  16  17
ATOM     17  C   UNL     1     -25.094   5.681  -1.003  1.00  0.00     0.130 C 
ATOM     18  O   UNL     1     -26.031   5.059  -1.480  1.00  0.00    -0.300 OA
ATOM     19  C   UNL     1     -25.085   7.178  -1.102  1.00  0.00     0.087 C 
ENDBRANCH  16  17
ENDBRANCH  15  16
ENDBRANCH  13  15
ENDBRANCH  11  12
ENDBRANCH   1  11
TORSDOF 9
ENDMDL
MODEL 9
REMARK VINA RESULT:    -5.054      2.352      3.745
REMARK INTER + INTRA:          -9.522
REMARK INTER:                  -8.045
REMARK INTRA:                  -1.477
REMARK UNBOUND:                -1.809
REMARK SMILES CC(=O)CCC=C(C)CCC=C(C)CCC=C(C)C
REMARK SMILES IDX 10 1 11 2 12 3 13 4 14 5 15 6 16 7 18 8 17 9 19 10 9 11 7 12
REMARK SMILES IDX 6 13 8 14 5 15 4 16 2 17 3 18 1 19
REMARK H PARENT
REMARK Flexibility Score: inf
ROOT
ATOM      1  C   UNL     1     -23.777   1.393   1.198  1.00  0.00     0.032 C 
ENDROOT
BRANCH   1   2
ATOM      2  C   UNL     1     -24.408   2.751   1.008  1.00  0.00    -0.028 C 
ATOM      3  C   UNL     1     -23.965   3.690   0.140  1.00  0.00    -0.077 C 
ATOM      4  C   UNL     1     -22.705   3.495  -0.669  1.00  0.00     0.039 C 
BRANCH   3   5
ATOM      5  C   UNL     1     -24.746   4.977  -0.006  1.00  0.00     0.034 C 
BRANCH   5   6
ATOM      6  C   UNL     1     -25.288   5.121  -1.432  1.00  0.00     0.032 C 
BRANCH   6   7
ATOM      7  C   UNL     1     -26.587   5.885  -1.443  1.00  0.00    -0.028 C 
ATOM      8  C   UNL     1     -28.054   7.846  -1.640  1.00  0.00     0.039 C 
ATOM      9  C   UNL     1     -26.683   7.221  -1.621  1.00  0.00    -0.080 C 
ATOM     10  C   UNL     1     -25.462   8.098  -1.783  1.00  0.00     0.039 C 
ENDBRANCH   6   7
ENDBRANCH   5   6
ENDBRANCH   3   5
ENDBRANCH   1   2
BRANCH   1  11
ATOM     11  C   UNL     1     -24.657   0.270   0.629  1.00  0.00     0.034 C 
BRANCH  11  12
ATOM     12  C   UNL     1     -24.693   0.299  -0.886  1.00  0.00    -0.077 C 
ATOM     13  C   UNL     1     -25.839   0.636  -1.518  1.00  0.00    -0.028 C 
ATOM     14  C   UNL     1     -23.455  -0.095  -1.654  1.00  0.00     0.039 C 
BRANCH  13  15
ATOM     15  C   UNL     1     -25.972   0.667  -3.023  1.00  0.00     0.035 C 
BRANCH  15  16
ATOM     16  C   UNL     1     -27.088  -0.257  -3.527  1.00  0.00     0.079 C 
BRANCH  16  17
ATOM     17  C   UNL     1     -26.542  -1.450  -4.270  1.00  0.00     0.130 C 
ATOM     18  O   UNL     1     -26.688  -1.524  -5.480  1.00  0.00    -0.300 OA
ATOM     19  C   UNL     1     -25.808  -2.545  -3.553  1.00  0.00     0.087 C 
ENDBRANCH  16  17
ENDBRANCH  15  16
ENDBRANCH  13  15
ENDBRANCH  11  12
ENDBRANCH   1  11
TORSDOF 9
ENDMDL
