MODEL 1
REMARK VINA RESULT:    13.331      0.000      0.000
REMARK INTER + INTRA:          24.317
REMARK INTER:                  25.021
REMARK INTRA:                  -0.705
REMARK UNBOUND:                -0.705
REMARK SMILES O=C([O-])CCCCCCCCCCCCCCC(=O)[O-]
REMARK SMILES IDX 10 1 9 2 8 3 7 4 6 5 5 6 4 7 2 8 1 9 3 10 11 11 12 12 13 13
REMARK SMILES IDX 14 14 15 15 16 16 17 17 18 18 19 19 20 20
REMARK H PARENT
REMARK Flexibility Score: inf
ROOT
ATOM      1  C   UNL     1      15.743  50.731  10.232  1.00  0.00     0.000 C 
ENDROOT
BRANCH   1   2
ATOM      2  C   UNL     1      14.746  50.288   9.149  1.00  0.00     0.000 C 
BRANCH   2   3
ATOM      3  C   UNL     1      14.719  48.764   8.956  1.00  0.00     0.000 C 
BRANCH   3   4
ATOM      4  C   UNL     1      14.596  48.043  10.304  1.00  0.00     0.000 C 
BRANCH   4   5
ATOM      5  C   UNL     1      15.169  46.621  10.223  1.00  0.00     0.000 C 
BRANCH   5   6
ATOM      6  C   UNL     1      14.878  45.929   8.878  1.00  0.00     0.006 C 
BRANCH   6   7
ATOM      7  C   UNL     1      13.596  45.077   8.877  1.00  0.00     0.053 C 
BRANCH   7   8
ATOM      8  C   UNL     1      13.854  43.640   9.212  1.00  0.00     0.041 C 
ATOM      9  O   UNL     1      12.896  42.864   9.467  1.00  0.00    -0.550 OA
ATOM     10  O   UNL     1      15.154  43.148   9.208  1.00  0.00    -0.550 OA
ENDBRANCH   7   8
ENDBRANCH   6   7
ENDBRANCH   5   6
ENDBRANCH   4   5
ENDBRANCH   3   4
ENDBRANCH   2   3
ENDBRANCH   1   2
BRANCH   1  11
ATOM     11  C   UNL     1      15.273  51.981  10.991  1.00  0.00     0.000 C 
BRANCH  11  12
ATOM     12  C   UNL     1      16.324  52.426  12.019  1.00  0.00     0.000 C 
BRANCH  12  13
ATOM     13  C   UNL     1      15.766  53.416  13.056  1.00  0.00     0.000 C 
BRANCH  13  14
ATOM     14  C   UNL     1      16.150  53.118  14.520  1.00  0.00     0.000 C 
BRANCH  14  15
ATOM     15  C   UNL     1      16.633  51.682  14.789  1.00  0.00     0.000 C 
BRANCH  15  16
ATOM     16  C   UNL     1      16.736  51.358  16.286  1.00  0.00     0.006 C 
BRANCH  16  17
ATOM     17  C   UNL     1      18.200  51.286  16.731  1.00  0.00     0.053 C 
BRANCH  17  18
ATOM     18  C   UNL     1      18.329  50.467  17.977  1.00  0.00     0.041 C 
ATOM     19  O   UNL     1      17.481  49.575  18.241  1.00  0.00    -0.550 OA
ATOM     20  O   UNL     1      19.416  50.656  18.823  1.00  0.00    -0.550 OA
ENDBRANCH  17  18
ENDBRANCH  16  17
ENDBRANCH  15  16
ENDBRANCH  14  15
ENDBRANCH  13  14
ENDBRANCH  12  13
ENDBRANCH  11  12
ENDBRANCH   1  11
TORSDOF 15
ENDMDL
MODEL 2
REMARK VINA RESULT:    14.469     11.205     13.572
REMARK INTER + INTRA:          26.453
REMARK INTER:                  26.772
REMARK INTRA:                  -0.319
REMARK UNBOUND:                -0.705
REMARK SMILES O=C([O-])CCCCCCCCCCCCCCC(=O)[O-]
REMARK SMILES IDX 10 1 9 2 8 3 7 4 6 5 5 6 4 7 2 8 1 9 3 10 11 11 12 12 13 13
REMARK SMILES IDX 14 14 15 15 16 16 17 17 18 18 19 19 20 20
REMARK H PARENT
REMARK Flexibility Score: inf
ROOT
ATOM      1  C   UNL     1       4.534  48.434  12.737  1.00  0.00     0.000 C 
ENDROOT
BRANCH   1   2
ATOM      2  C   UNL     1       4.194  47.501  13.910  1.00  0.00     0.000 C 
BRANCH   2   3
ATOM      3  C   UNL     1       3.198  48.128  14.897  1.00  0.00     0.000 C 
BRANCH   3   4
ATOM      4  C   UNL     1       2.375  47.046  15.608  1.00  0.00     0.000 C 
BRANCH   4   5
ATOM      5  C   UNL     1       3.203  46.351  16.697  1.00  0.00     0.000 C 
BRANCH   5   6
ATOM      6  C   UNL     1       2.878  44.852  16.839  1.00  0.00     0.006 C 
BRANCH   6   7
ATOM      7  C   UNL     1       2.716  44.382  18.295  1.00  0.00     0.053 C 
BRANCH   7   8
ATOM      8  C   UNL     1       2.168  45.450  19.192  1.00  0.00     0.041 C 
ATOM      9  O   UNL     1       2.885  45.947  20.101  1.00  0.00    -0.550 OA
ATOM     10  O   UNL     1       0.875  45.923  19.001  1.00  0.00    -0.550 OA
ENDBRANCH   7   8
ENDBRANCH   6   7
ENDBRANCH   5   6
ENDBRANCH   4   5
ENDBRANCH   3   4
ENDBRANCH   2   3
ENDBRANCH   1   2
BRANCH   1  11
ATOM     11  C   UNL     1       4.275  47.784  11.370  1.00  0.00     0.000 C 
BRANCH  11  12
ATOM     12  C   UNL     1       3.600  48.774  10.409  1.00  0.00     0.000 C 
BRANCH  12  13
ATOM     13  C   UNL     1       4.274  48.823   9.027  1.00  0.00     0.000 C 
BRANCH  13  14
ATOM     14  C   UNL     1       5.381  49.887   8.875  1.00  0.00     0.000 C 
BRANCH  14  15
ATOM     15  C   UNL     1       6.609  49.685   9.780  1.00  0.00     0.000 C 
BRANCH  15  16
ATOM     16  C   UNL     1       7.920  49.567   8.989  1.00  0.00     0.006 C 
BRANCH  16  17
ATOM     17  C   UNL     1       8.361  48.104   8.875  1.00  0.00     0.053 C 
BRANCH  17  18
ATOM     18  C   UNL     1       7.616  47.254   9.855  1.00  0.00     0.041 C 
ATOM     19  O   UNL     1       7.905  47.295  11.080  1.00  0.00    -0.550 OA
ATOM     20  O   UNL     1       6.566  46.453   9.421  1.00  0.00    -0.550 OA
ENDBRANCH  17  18
ENDBRANCH  16  17
ENDBRANCH  15  16
ENDBRANCH  14  15
ENDBRANCH  13  14
ENDBRANCH  12  13
ENDBRANCH  11  12
ENDBRANCH   1  11
TORSDOF 15
ENDMDL
MODEL 3
REMARK VINA RESULT:    14.792     10.939     12.336
REMARK INTER + INTRA:          27.059
REMARK INTER:                  26.597
REMARK INTRA:                   0.462
REMARK UNBOUND:                -0.705
REMARK SMILES O=C([O-])CCCCCCCCCCCCCCC(=O)[O-]
REMARK SMILES IDX 10 1 9 2 8 3 7 4 6 5 5 6 4 7 2 8 1 9 3 10 11 11 12 12 13 13
REMARK SMILES IDX 14 14 15 15 16 16 17 17 18 18 19 19 20 20
REMARK H PARENT
REMARK Flexibility Score: inf
ROOT
ATOM      1  C   UNL     1       3.861  48.641  10.780  1.00  0.00     0.000 C 
ENDROOT
BRANCH   1   2
ATOM      2  C   UNL     1       4.689  48.436   9.501  1.00  0.00     0.000 C 
BRANCH   2   3
ATOM      3  C   UNL     1       5.365  49.728   9.019  1.00  0.00     0.000 C 
BRANCH   3   4
ATOM      4  C   UNL     1       6.742  49.904   9.672  1.00  0.00     0.000 C 
BRANCH   4   5
ATOM      5  C   UNL     1       7.828  49.169   8.875  1.00  0.00     0.000 C 
BRANCH   5   6
ATOM      6  C   UNL     1       8.197  47.800   9.476  1.00  0.00     0.006 C 
BRANCH   6   7
ATOM      7  C   UNL     1       7.276  47.353  10.626  1.00  0.00     0.053 C 
BRANCH   7   8
ATOM      8  C   UNL     1       7.867  47.616  11.977  1.00  0.00     0.041 C 
ATOM      9  O   UNL     1       7.138  47.600  13.004  1.00  0.00    -0.550 OA
ATOM     10  O   UNL     1       9.231  47.846  12.107  1.00  0.00    -0.550 OA
ENDBRANCH   7   8
ENDBRANCH   6   7
ENDBRANCH   5   6
ENDBRANCH   4   5
ENDBRANCH   3   4
ENDBRANCH   2   3
ENDBRANCH   1   2
BRANCH   1  11
ATOM     11  C   UNL     1       4.225  47.640  11.886  1.00  0.00     0.000 C 
BRANCH  11  12
ATOM     12  C   UNL     1       3.968  48.241  13.276  1.00  0.00     0.000 C 
BRANCH  12  13
ATOM     13  C   UNL     1       3.612  47.179  14.331  1.00  0.00     0.000 C 
BRANCH  13  14
ATOM     14  C   UNL     1       2.501  47.585  15.321  1.00  0.00     0.000 C 
BRANCH  14  15
ATOM     15  C   UNL     1       2.507  46.823  16.658  1.00  0.00     0.000 C 
BRANCH  15  16
ATOM     16  C   UNL     1       3.264  45.488  16.580  1.00  0.00     0.006 C 
BRANCH  16  17
ATOM     17  C   UNL     1       2.916  44.591  17.772  1.00  0.00     0.053 C 
BRANCH  17  18
ATOM     18  C   UNL     1       2.531  45.419  18.957  1.00  0.00     0.041 C 
ATOM     19  O   UNL     1       3.410  45.812  19.768  1.00  0.00    -0.550 OA
ATOM     20  O   UNL     1       1.207  45.799  19.138  1.00  0.00    -0.550 OA
ENDBRANCH  17  18
ENDBRANCH  16  17
ENDBRANCH  15  16
ENDBRANCH  14  15
ENDBRANCH  13  14
ENDBRANCH  12  13
ENDBRANCH  11  12
ENDBRANCH   1  11
TORSDOF 15
ENDMDL
MODEL 4
REMARK VINA RESULT:    15.193     11.811     12.931
REMARK INTER + INTRA:          27.810
REMARK INTER:                  27.026
REMARK INTRA:                   0.784
REMARK UNBOUND:                -0.705
REMARK SMILES O=C([O-])CCCCCCCCCCCCCCC(=O)[O-]
REMARK SMILES IDX 10 1 9 2 8 3 7 4 6 5 5 6 4 7 2 8 1 9 3 10 11 11 12 12 13 13
REMARK SMILES IDX 14 14 15 15 16 16 17 17 18 18 19 19 20 20
REMARK H PARENT
REMARK Flexibility Score: inf
ROOT
ATOM      1  C   UNL     1       4.686  47.877  13.835  1.00  0.00     0.000 C 
ENDROOT
BRANCH   1   2
ATOM      2  C   UNL     1       4.107  47.816  12.412  1.00  0.00     0.000 C 
BRANCH   2   3
ATOM      3  C   UNL     1       4.974  48.563  11.387  1.00  0.00     0.000 C 
BRANCH   3   4
ATOM      4  C   UNL     1       4.267  48.651  10.029  1.00  0.00     0.000 C 
BRANCH   4   5
ATOM      5  C   UNL     1       5.276  48.563   8.876  1.00  0.00     0.000 C 
BRANCH   5   6
ATOM      6  C   UNL     1       6.297  49.715   8.878  1.00  0.00     0.006 C 
BRANCH   6   7
ATOM      7  C   UNL     1       7.753  49.260   9.083  1.00  0.00     0.053 C 
BRANCH   7   8
ATOM      8  C   UNL     1       7.854  47.906   9.715  1.00  0.00     0.041 C 
ATOM      9  O   UNL     1       8.413  47.767  10.836  1.00  0.00    -0.550 OA
ATOM     10  O   UNL     1       7.300  46.799   9.083  1.00  0.00    -0.550 OA
ENDBRANCH   7   8
ENDBRANCH   6   7
ENDBRANCH   5   6
ENDBRANCH   4   5
ENDBRANCH   3   4
ENDBRANCH   2   3
ENDBRANCH   1   2
BRANCH   1  11
ATOM     11  C   UNL     1       3.619  48.191  14.894  1.00  0.00     0.000 C 
BRANCH  11  12
ATOM     12  C   UNL     1       2.748  46.958  15.179  1.00  0.00     0.000 C 
BRANCH  12  13
ATOM     13  C   UNL     1       2.692  46.596  16.673  1.00  0.00     0.000 C 
BRANCH  13  14
ATOM     14  C   UNL     1       3.257  45.207  17.033  1.00  0.00     0.000 C 
BRANCH  14  15
ATOM     15  C   UNL     1       2.518  44.476  18.168  1.00  0.00     0.000 C 
BRANCH  15  16
ATOM     16  C   UNL     1       2.556  45.245  19.497  1.00  0.00     0.006 C 
BRANCH  16  17
ATOM     17  C   UNL     1       1.820  46.583  19.378  1.00  0.00     0.053 C 
BRANCH  17  18
ATOM     18  C   UNL     1       2.422  47.596  20.301  1.00  0.00     0.041 C 
ATOM     19  O   UNL     1       1.690  48.247  21.091  1.00  0.00    -0.550 OA
ATOM     20  O   UNL     1       3.799  47.784  20.323  1.00  0.00    -0.550 OA
ENDBRANCH  17  18
ENDBRANCH  16  17
ENDBRANCH  15  16
ENDBRANCH  14  15
ENDBRANCH  13  14
ENDBRANCH  12  13
ENDBRANCH  11  12
ENDBRANCH   1  11
TORSDOF 15
ENDMDL
MODEL 5
REMARK VINA RESULT:    15.222     11.491     13.768
REMARK INTER + INTRA:          27.865
REMARK INTER:                  28.513
REMARK INTRA:                  -0.647
REMARK UNBOUND:                -0.705
REMARK SMILES O=C([O-])CCCCCCCCCCCCCCC(=O)[O-]
REMARK SMILES IDX 10 1 9 2 8 3 7 4 6 5 5 6 4 7 2 8 1 9 3 10 11 11 12 12 13 13
REMARK SMILES IDX 14 14 15 15 16 16 17 17 18 18 19 19 20 20
REMARK H PARENT
REMARK Flexibility Score: inf
ROOT
ATOM      1  C   UNL     1       4.585  47.661  13.703  1.00  0.00     0.000 C 
ENDROOT
BRANCH   1   2
ATOM      2  C   UNL     1       3.762  48.364  14.794  1.00  0.00     0.000 C 
BRANCH   2   3
ATOM      3  C   UNL     1       2.644  47.474  15.359  1.00  0.00     0.000 C 
BRANCH   3   4
ATOM      4  C   UNL     1       3.193  46.509  16.417  1.00  0.00     0.000 C 
BRANCH   4   5
ATOM      5  C   UNL     1       2.301  46.497  17.667  1.00  0.00     0.000 C 
BRANCH   5   6
ATOM      6  C   UNL     1       2.584  45.304  18.598  1.00  0.00     0.006 C 
BRANCH   6   7
ATOM      7  C   UNL     1       2.614  45.670  20.093  1.00  0.00     0.053 C 
BRANCH   7   8
ATOM      8  C   UNL     1       2.829  47.134  20.327  1.00  0.00     0.041 C 
ATOM      9  O   UNL     1       1.856  47.885  20.600  1.00  0.00    -0.550 OA
ATOM     10  O   UNL     1       4.113  47.665  20.278  1.00  0.00    -0.550 OA
ENDBRANCH   7   8
ENDBRANCH   6   7
ENDBRANCH   5   6
ENDBRANCH   4   5
ENDBRANCH   3   4
ENDBRANCH   2   3
ENDBRANCH   1   2
BRANCH   1  11
ATOM     11  C   UNL     1       3.872  47.643  12.343  1.00  0.00     0.000 C 
BRANCH  11  12
ATOM     12  C   UNL     1       4.483  48.679  11.389  1.00  0.00     0.000 C 
BRANCH  12  13
ATOM     13  C   UNL     1       4.507  48.206   9.925  1.00  0.00     0.000 C 
BRANCH  13  14
ATOM     14  C   UNL     1       4.662  49.326   8.876  1.00  0.00     0.000 C 
BRANCH  14  15
ATOM     15  C   UNL     1       5.928  50.188   9.024  1.00  0.00     0.000 C 
BRANCH  15  16
ATOM     16  C   UNL     1       7.223  49.376   8.877  1.00  0.00     0.006 C 
BRANCH  16  17
ATOM     17  C   UNL     1       7.981  49.307  10.207  1.00  0.00     0.053 C 
BRANCH  17  18
ATOM     18  C   UNL     1       8.013  47.902  10.720  1.00  0.00     0.041 C 
ATOM     19  O   UNL     1       8.479  47.655  11.863  1.00  0.00    -0.550 OA
ATOM     20  O   UNL     1       7.481  46.871   9.955  1.00  0.00    -0.550 OA
ENDBRANCH  17  18
ENDBRANCH  16  17
ENDBRANCH  15  16
ENDBRANCH  14  15
ENDBRANCH  13  14
ENDBRANCH  12  13
ENDBRANCH  11  12
ENDBRANCH   1  11
TORSDOF 15
ENDMDL
MODEL 6
REMARK VINA RESULT:    15.416     11.366     12.690
REMARK INTER + INTRA:          28.229
REMARK INTER:                  28.870
REMARK INTRA:                  -0.641
REMARK UNBOUND:                -0.705
REMARK SMILES O=C([O-])CCCCCCCCCCCCCCC(=O)[O-]
REMARK SMILES IDX 10 1 9 2 8 3 7 4 6 5 5 6 4 7 2 8 1 9 3 10 11 11 12 12 13 13
REMARK SMILES IDX 14 14 15 15 16 16 17 17 18 18 19 19 20 20
REMARK H PARENT
REMARK Flexibility Score: inf
ROOT
ATOM      1  C   UNL     1       5.174  47.940  12.164  1.00  0.00     0.000 C 
ENDROOT
BRANCH   1   2
ATOM      2  C   UNL     1       3.880  47.869  11.336  1.00  0.00     0.000 C 
BRANCH   2   3
ATOM      3  C   UNL     1       3.782  48.993  10.295  1.00  0.00     0.000 C 
BRANCH   3   4
ATOM      4  C   UNL     1       4.721  48.730   9.111  1.00  0.00     0.000 C 
BRANCH   4   5
ATOM      5  C   UNL     1       5.711  49.888   8.926  1.00  0.00     0.000 C 
BRANCH   5   6
ATOM      6  C   UNL     1       7.179  49.426   8.875  1.00  0.00     0.006 C 
BRANCH   6   7
ATOM      7  C   UNL     1       7.853  49.328  10.255  1.00  0.00     0.053 C 
BRANCH   7   8
ATOM      8  C   UNL     1       8.011  47.913  10.724  1.00  0.00     0.041 C 
ATOM      9  O   UNL     1       7.655  46.956   9.987  1.00  0.00    -0.550 OA
ATOM     10  O   UNL     1       8.584  47.651  11.962  1.00  0.00    -0.550 OA
ENDBRANCH   7   8
ENDBRANCH   6   7
ENDBRANCH   5   6
ENDBRANCH   4   5
ENDBRANCH   3   4
ENDBRANCH   2   3
ENDBRANCH   1   2
BRANCH   1  11
ATOM     11  C   UNL     1       4.961  47.535  13.630  1.00  0.00     0.000 C 
BRANCH  11  12
ATOM     12  C   UNL     1       3.617  48.062  14.155  1.00  0.00     0.000 C 
BRANCH  12  13
ATOM     13  C   UNL     1       3.128  47.314  15.408  1.00  0.00     0.000 C 
BRANCH  13  14
ATOM     14  C   UNL     1       3.076  45.778  15.276  1.00  0.00     0.000 C 
BRANCH  14  15
ATOM     15  C   UNL     1       3.721  45.001  16.437  1.00  0.00     0.000 C 
BRANCH  15  16
ATOM     16  C   UNL     1       2.816  44.918  17.675  1.00  0.00     0.006 C 
BRANCH  16  17
ATOM     17  C   UNL     1       2.946  46.179  18.535  1.00  0.00     0.053 C 
BRANCH  17  18
ATOM     18  C   UNL     1       2.034  46.102  19.719  1.00  0.00     0.041 C 
ATOM     19  O   UNL     1       1.623  44.986  20.131  1.00  0.00    -0.550 OA
ATOM     20  O   UNL     1       1.678  47.261  20.398  1.00  0.00    -0.550 OA
ENDBRANCH  17  18
ENDBRANCH  16  17
ENDBRANCH  15  16
ENDBRANCH  14  15
ENDBRANCH  13  14
ENDBRANCH  12  13
ENDBRANCH  11  12
ENDBRANCH   1  11
TORSDOF 15
ENDMDL
