MODEL 1
REMARK VINA RESULT:    -4.018      0.000      0.000
REMARK INTER + INTRA:          -4.815
REMARK INTER:                  -4.722
REMARK INTRA:                  -0.093
REMARK UNBOUND:                -0.093
REMARK SMILES O=C([O-])CCC(=O)[O-]
REMARK SMILES IDX 4 1 2 2 1 3 3 4 5 5 6 6 7 7 8 8
REMARK H PARENT
REMARK Flexibility Score: inf
ROOT
ATOM      1  C   UNL     1       9.136  26.915  17.596  1.00  0.00     0.059 C 
ENDROOT
BRANCH   1   2
ATOM      2  C   UNL     1       9.126  27.642  18.906  1.00  0.00     0.042 C 
ATOM      3  O   UNL     1      10.192  28.125  19.370  1.00  0.00    -0.550 OA
ATOM      4  O   UNL     1       7.947  27.750  19.633  1.00  0.00    -0.550 OA
ENDBRANCH   1   2
BRANCH   1   5
ATOM      5  C   UNL     1       8.459  27.732  16.490  1.00  0.00     0.059 C 
BRANCH   5   6
ATOM      6  C   UNL     1       7.013  27.372  16.343  1.00  0.00     0.042 C 
ATOM      7  O   UNL     1       6.247  28.095  15.652  1.00  0.00    -0.550 OA
ATOM      8  O   UNL     1       6.502  26.261  17.002  1.00  0.00    -0.550 OA
ENDBRANCH   5   6
ENDBRANCH   1   5
TORSDOF 3
ENDMDL
MODEL 2
REMARK VINA RESULT:    -3.492      1.394      3.679
REMARK INTER + INTRA:          -4.198
REMARK INTER:                  -4.099
REMARK INTRA:                  -0.099
REMARK UNBOUND:                -0.093
REMARK SMILES O=C([O-])CCC(=O)[O-]
REMARK SMILES IDX 4 1 2 2 1 3 3 4 5 5 6 6 7 7 8 8
REMARK H PARENT
REMARK Flexibility Score: inf
ROOT
ATOM      1  C   UNL     1       8.797  26.922  18.075  1.00  0.00     0.059 C 
ENDROOT
BRANCH   1   2
ATOM      2  C   UNL     1       7.986  27.241  16.855  1.00  0.00     0.042 C 
ATOM      3  O   UNL     1       8.461  27.983  15.956  1.00  0.00    -0.550 OA
ATOM      4  O   UNL     1       6.693  26.751  16.732  1.00  0.00    -0.550 OA
ENDBRANCH   1   2
BRANCH   1   5
ATOM      5  C   UNL     1       8.877  28.119  19.029  1.00  0.00     0.059 C 
BRANCH   5   6
ATOM      6  C   UNL     1       8.184  27.838  20.327  1.00  0.00     0.042 C 
ATOM      7  O   UNL     1       7.013  27.376  20.333  1.00  0.00    -0.550 OA
ATOM      8  O   UNL     1       8.818  28.125  21.530  1.00  0.00    -0.550 OA
ENDBRANCH   5   6
ENDBRANCH   1   5
TORSDOF 3
ENDMDL
MODEL 3
REMARK VINA RESULT:    -3.420      1.770      2.300
REMARK INTER + INTRA:          -4.112
REMARK INTER:                  -4.075
REMARK INTRA:                  -0.037
REMARK UNBOUND:                -0.093
REMARK SMILES O=C([O-])CCC(=O)[O-]
REMARK SMILES IDX 4 1 2 2 1 3 3 4 5 5 6 6 7 7 8 8
REMARK H PARENT
REMARK Flexibility Score: inf
ROOT
ATOM      1  C   UNL     1       8.418  27.716  19.124  1.00  0.00     0.059 C 
ENDROOT
BRANCH   1   2
ATOM      2  C   UNL     1       7.945  27.722  20.546  1.00  0.00     0.042 C 
ATOM      3  O   UNL     1       6.751  27.429  20.817  1.00  0.00    -0.550 OA
ATOM      4  O   UNL     1       8.812  28.092  21.566  1.00  0.00    -0.550 OA
ENDBRANCH   1   2
BRANCH   1   5
ATOM      5  C   UNL     1       7.575  26.779  18.252  1.00  0.00     0.059 C 
BRANCH   5   6
ATOM      6  C   UNL     1       7.791  27.038  16.793  1.00  0.00     0.042 C 
ATOM      7  O   UNL     1       8.933  27.358  16.369  1.00  0.00    -0.550 OA
ATOM      8  O   UNL     1       6.723  26.967  15.908  1.00  0.00    -0.550 OA
ENDBRANCH   5   6
ENDBRANCH   1   5
TORSDOF 3
ENDMDL
MODEL 4
REMARK VINA RESULT:    -3.113     19.282     19.996
REMARK INTER + INTRA:          -3.752
REMARK INTER:                  -3.707
REMARK INTRA:                  -0.044
REMARK UNBOUND:                -0.093
REMARK SMILES O=C([O-])CCC(=O)[O-]
REMARK SMILES IDX 4 1 2 2 1 3 3 4 5 5 6 6 7 7 8 8
REMARK H PARENT
REMARK Flexibility Score: inf
ROOT
ATOM      1  C   UNL     1      -4.721  11.338  17.310  1.00  0.00     0.059 C 
ENDROOT
BRANCH   1   2
ATOM      2  C   UNL     1      -3.276  11.343  17.711  1.00  0.00     0.042 C 
ATOM      3  O   UNL     1      -2.529  10.379  17.397  1.00  0.00    -0.550 OA
ATOM      4  O   UNL     1      -2.767  12.391  18.465  1.00  0.00    -0.550 OA
ENDBRANCH   1   2
BRANCH   1   5
ATOM      5  C   UNL     1      -5.250  12.759  17.086  1.00  0.00     0.059 C 
BRANCH   5   6
ATOM      6  C   UNL     1      -5.853  12.915  15.724  1.00  0.00     0.042 C 
ATOM      7  O   UNL     1      -6.426  11.940  15.169  1.00  0.00    -0.550 OA
ATOM      8  O   UNL     1      -5.748  14.126  15.051  1.00  0.00    -0.550 OA
ENDBRANCH   5   6
ENDBRANCH   1   5
TORSDOF 3
ENDMDL
MODEL 5
REMARK VINA RESULT:    -3.099     19.240     20.261
REMARK INTER + INTRA:          -3.735
REMARK INTER:                  -3.696
REMARK INTRA:                  -0.040
REMARK UNBOUND:                -0.093
REMARK SMILES O=C([O-])CCC(=O)[O-]
REMARK SMILES IDX 4 1 2 2 1 3 3 4 5 5 6 6 7 7 8 8
REMARK H PARENT
REMARK Flexibility Score: inf
ROOT
ATOM      1  C   UNL     1      -5.165  12.750  17.042  1.00  0.00     0.059 C 
ENDROOT
BRANCH   1   2
ATOM      2  C   UNL     1      -5.846  12.904  15.716  1.00  0.00     0.042 C 
ATOM      3  O   UNL     1      -6.456  11.930  15.201  1.00  0.00    -0.550 OA
ATOM      4  O   UNL     1      -5.772  14.110  15.031  1.00  0.00    -0.550 OA
ENDBRANCH   1   2
BRANCH   1   5
ATOM      5  C   UNL     1      -4.616  11.333  17.234  1.00  0.00     0.059 C 
BRANCH   5   6
ATOM      6  C   UNL     1      -3.199  11.350  17.721  1.00  0.00     0.042 C 
ATOM      7  O   UNL     1      -2.430  10.386  17.466  1.00  0.00    -0.550 OA
ATOM      8  O   UNL     1      -2.741  12.412  18.491  1.00  0.00    -0.550 OA
ENDBRANCH   5   6
ENDBRANCH   1   5
TORSDOF 3
ENDMDL
MODEL 6
REMARK VINA RESULT:    -3.040     19.390     20.390
REMARK INTER + INTRA:          -3.666
REMARK INTER:                  -3.622
REMARK INTRA:                  -0.045
REMARK UNBOUND:                -0.093
REMARK SMILES O=C([O-])CCC(=O)[O-]
REMARK SMILES IDX 4 1 2 2 1 3 3 4 5 5 6 6 7 7 8 8
REMARK H PARENT
REMARK Flexibility Score: inf
ROOT
ATOM      1  C   UNL     1      -5.041  12.583  17.142  1.00  0.00     0.059 C 
ENDROOT
BRANCH   1   2
ATOM      2  C   UNL     1      -5.804  12.742  15.862  1.00  0.00     0.042 C 
ATOM      3  O   UNL     1      -5.769  13.834  15.236  1.00  0.00    -0.550 OA
ATOM      4  O   UNL     1      -6.585  11.699  15.383  1.00  0.00    -0.550 OA
ENDBRANCH   1   2
BRANCH   1   5
ATOM      5  C   UNL     1      -4.576  11.137  17.347  1.00  0.00     0.059 C 
BRANCH   5   6
ATOM      6  C   UNL     1      -3.107  11.064  17.629  1.00  0.00     0.042 C 
ATOM      7  O   UNL     1      -2.509  12.052  18.134  1.00  0.00    -0.550 OA
ATOM      8  O   UNL     1      -2.390   9.922  17.296  1.00  0.00    -0.550 OA
ENDBRANCH   5   6
ENDBRANCH   1   5
TORSDOF 3
ENDMDL
MODEL 7
REMARK VINA RESULT:    -2.952     20.195     21.605
REMARK INTER + INTRA:          -3.563
REMARK INTER:                  -3.452
REMARK INTRA:                  -0.111
REMARK UNBOUND:                -0.093
REMARK SMILES O=C([O-])CCC(=O)[O-]
REMARK SMILES IDX 4 1 2 2 1 3 3 4 5 5 6 6 7 7 8 8
REMARK H PARENT
REMARK Flexibility Score: inf
ROOT
ATOM      1  C   UNL     1      -6.842  12.779  17.401  1.00  0.00     0.059 C 
ENDROOT
BRANCH   1   2
ATOM      2  C   UNL     1      -5.455  12.693  16.841  1.00  0.00     0.042 C 
ATOM      3  O   UNL     1      -4.478  12.470  17.604  1.00  0.00    -0.550 OA
ATOM      4  O   UNL     1      -5.238  12.898  15.486  1.00  0.00    -0.550 OA
ENDBRANCH   1   2
BRANCH   1   5
ATOM      5  C   UNL     1      -7.356  11.408  17.854  1.00  0.00     0.059 C 
BRANCH   5   6
ATOM      6  C   UNL     1      -7.083  10.350  16.828  1.00  0.00     0.042 C 
ATOM      7  O   UNL     1      -7.678  10.375  15.719  1.00  0.00    -0.550 OA
ATOM      8  O   UNL     1      -6.202   9.314  17.114  1.00  0.00    -0.550 OA
ENDBRANCH   5   6
ENDBRANCH   1   5
TORSDOF 3
ENDMDL
MODEL 8
REMARK VINA RESULT:    -2.948      0.894      3.740
REMARK INTER + INTRA:          -3.558
REMARK INTER:                  -3.442
REMARK INTRA:                  -0.116
REMARK UNBOUND:                -0.093
REMARK SMILES O=C([O-])CCC(=O)[O-]
REMARK SMILES IDX 4 1 2 2 1 3 3 4 5 5 6 6 7 7 8 8
REMARK H PARENT
REMARK Flexibility Score: inf
ROOT
ATOM      1  C   UNL     1       8.606  26.738  17.155  1.00  0.00     0.059 C 
ENDROOT
BRANCH   1   2
ATOM      2  C   UNL     1       7.138  26.561  16.908  1.00  0.00     0.042 C 
ATOM      3  O   UNL     1       6.375  26.219  17.849  1.00  0.00    -0.550 OA
ATOM      4  O   UNL     1       6.621  26.734  15.630  1.00  0.00    -0.550 OA
ENDBRANCH   1   2
BRANCH   1   5
ATOM      5  C   UNL     1       8.919  28.125  17.727  1.00  0.00     0.059 C 
BRANCH   5   6
ATOM      6  C   UNL     1       9.181  28.068  19.201  1.00  0.00     0.042 C 
ATOM      7  O   UNL     1      10.361  28.122  19.637  1.00  0.00    -0.550 OA
ATOM      8  O   UNL     1       8.124  27.914  20.090  1.00  0.00    -0.550 OA
ENDBRANCH   5   6
ENDBRANCH   1   5
TORSDOF 3
ENDMDL
MODEL 9
REMARK VINA RESULT:    -2.928     20.039     21.558
REMARK INTER + INTRA:          -3.534
REMARK INTER:                  -3.453
REMARK INTRA:                  -0.081
REMARK UNBOUND:                -0.093
REMARK SMILES O=C([O-])CCC(=O)[O-]
REMARK SMILES IDX 4 1 2 2 1 3 3 4 5 5 6 6 7 7 8 8
REMARK H PARENT
REMARK Flexibility Score: inf
ROOT
ATOM      1  C   UNL     1      -6.095  13.092  17.104  1.00  0.00     0.059 C 
ENDROOT
BRANCH   1   2
ATOM      2  C   UNL     1      -6.144  13.252  15.615  1.00  0.00     0.042 C 
ATOM      3  O   UNL     1      -6.170  12.238  14.870  1.00  0.00    -0.550 OA
ATOM      4  O   UNL     1      -6.120  14.521  15.050  1.00  0.00    -0.550 OA
ENDBRANCH   1   2
BRANCH   1   5
ATOM      5  C   UNL     1      -6.169  11.618  17.517  1.00  0.00     0.059 C 
BRANCH   5   6
ATOM      6  C   UNL     1      -7.580  11.188  17.780  1.00  0.00     0.042 C 
ATOM      7  O   UNL     1      -8.055  10.180  17.192  1.00  0.00    -0.550 OA
ATOM      8  O   UNL     1      -8.383  11.924  18.642  1.00  0.00    -0.550 OA
ENDBRANCH   5   6
ENDBRANCH   1   5
TORSDOF 3
ENDMDL
