MODEL 1
REMARK VINA RESULT:    -4.704      0.000      0.000
REMARK INTER + INTRA:          -5.318
REMARK INTER:                  -5.117
REMARK INTRA:                  -0.201
REMARK UNBOUND:                -0.201
REMARK SMILES C=C1C[C@@]2(O)O[C@@]3(C[C@@H]2C(C)C)[C@H](C)CC[C@@H]13
REMARK SMILES IDX 14 1 13 2 15 3 16 4 17 5 7 6 8 7 9 8 4 9 6 10 3 11 2 12 1 13
REMARK SMILES IDX 10 14 11 15 12 16 5 17
REMARK H PARENT 5 18
REMARK Flexibility Score: inf
ROOT
ATOM      1  C   UNL     1      -7.758  23.105  -9.541  1.00  0.00     0.011 C 
ATOM      2  C   UNL     1      -8.326  22.609 -10.886  1.00  0.00     0.019 C 
ATOM      3  C   UNL     1      -9.114  23.731 -11.577  1.00  0.00     0.007 C 
ATOM      4  C   UNL     1     -10.593  23.516 -11.233  1.00  0.00     0.011 C 
ATOM      5  C   UNL     1     -10.681  22.199 -10.451  1.00  0.00     0.047 C 
ATOM      6  C   UNL     1      -9.356  21.472 -10.750  1.00  0.00     0.081 C 
ATOM      7  C   UNL     1      -9.033  20.388  -9.713  1.00  0.00     0.046 C 
ATOM      8  C   UNL     1      -9.657  19.131 -10.317  1.00  0.00     0.054 C 
ATOM      9  C   UNL     1     -10.217  19.642 -11.676  1.00  0.00     0.173 C 
ATOM     10  O   UNL     1      -9.478  20.799 -11.986  1.00  0.00    -0.342 OA
ATOM     11  C   UNL     1     -11.713  20.052 -11.578  1.00  0.00     0.096 C 
ATOM     12  C   UNL     1     -11.891  21.364 -10.840  1.00  0.00    -0.066 C 
ATOM     13  C   UNL     1     -13.125  21.793 -10.540  1.00  0.00     0.008 C 
ENDROOT
BRANCH   8  14
ATOM     14  C   UNL     1      -8.668  17.920 -10.411  1.00  0.00    -0.009 C 
ATOM     15  C   UNL     1      -7.373  18.081  -9.588  1.00  0.00     0.008 C 
ATOM     16  C   UNL     1      -9.369  16.605 -10.040  1.00  0.00     0.008 C 
ENDBRANCH   8  14
BRANCH   9  17
ATOM     17  O   UNL     1     -10.057  18.703 -12.713  1.00  0.00    -0.365 OA
ATOM     18  H   UNL     1     -10.265  19.165 -13.566  1.00  0.00     0.214 HD
ENDBRANCH   9  17
TORSDOF 2
ENDMDL
MODEL 2
REMARK VINA RESULT:    -4.496      1.880      3.737
REMARK INTER + INTRA:          -5.091
REMARK INTER:                  -4.870
REMARK INTRA:                  -0.222
REMARK UNBOUND:                -0.201
REMARK SMILES C=C1C[C@@]2(O)O[C@@]3(C[C@@H]2C(C)C)[C@H](C)CC[C@@H]13
REMARK SMILES IDX 14 1 13 2 15 3 16 4 17 5 7 6 8 7 9 8 4 9 6 10 3 11 2 12 1 13
REMARK SMILES IDX 10 14 11 15 12 16 5 17
REMARK H PARENT 5 18
REMARK Flexibility Score: inf
ROOT
ATOM      1  C   UNL     1     -11.707  18.600 -11.699  1.00  0.00     0.011 C 
ATOM      2  C   UNL     1     -11.759  19.452 -10.413  1.00  0.00     0.019 C 
ATOM      3  C   UNL     1     -13.008  20.344 -10.417  1.00  0.00     0.007 C 
ATOM      4  C   UNL     1     -12.574  21.720 -10.935  1.00  0.00     0.011 C 
ATOM      5  C   UNL     1     -11.051  21.669 -11.111  1.00  0.00     0.047 C 
ATOM      6  C   UNL     1     -10.597  20.453 -10.280  1.00  0.00     0.081 C 
ATOM      7  C   UNL     1      -9.211  19.941 -10.695  1.00  0.00     0.046 C 
ATOM      8  C   UNL     1      -8.265  20.707  -9.770  1.00  0.00     0.054 C 
ATOM      9  C   UNL     1      -9.243  21.532  -8.883  1.00  0.00     0.173 C 
ATOM     10  O   UNL     1     -10.473  20.850  -8.930  1.00  0.00    -0.342 OA
ATOM     11  C   UNL     1      -9.476  22.964  -9.441  1.00  0.00     0.096 C 
ATOM     12  C   UNL     1     -10.364  22.952 -10.670  1.00  0.00    -0.066 C 
ATOM     13  C   UNL     1     -10.550  24.084 -11.362  1.00  0.00     0.008 C 
ENDROOT
BRANCH   8  14
ATOM     14  C   UNL     1      -7.265  19.787  -8.991  1.00  0.00    -0.009 C 
ATOM     15  C   UNL     1      -7.240  18.318  -9.463  1.00  0.00     0.008 C 
ATOM     16  C   UNL     1      -5.846  20.372  -9.013  1.00  0.00     0.008 C 
ENDBRANCH   8  14
BRANCH   9  17
ATOM     17  O   UNL     1      -8.815  21.616  -7.544  1.00  0.00    -0.365 OA
ATOM     18  H   UNL     1      -8.234  22.417  -7.468  1.00  0.00     0.214 HD
ENDBRANCH   9  17
TORSDOF 2
ENDMDL
MODEL 3
REMARK VINA RESULT:    -4.274      1.919      4.954
REMARK INTER + INTRA:          -4.850
REMARK INTER:                  -4.583
REMARK INTRA:                  -0.266
REMARK UNBOUND:                -0.201
REMARK SMILES C=C1C[C@@]2(O)O[C@@]3(C[C@@H]2C(C)C)[C@H](C)CC[C@@H]13
REMARK SMILES IDX 14 1 13 2 15 3 16 4 17 5 7 6 8 7 9 8 4 9 6 10 3 11 2 12 1 13
REMARK SMILES IDX 10 14 11 15 12 16 5 17
REMARK H PARENT 5 18
REMARK Flexibility Score: inf
ROOT
ATOM      1  C   UNL     1     -12.459  18.468 -11.173  1.00  0.00     0.011 C 
ATOM      2  C   UNL     1     -11.496  19.589 -11.612  1.00  0.00     0.019 C 
ATOM      3  C   UNL     1     -10.438  19.034 -12.576  1.00  0.00     0.007 C 
ATOM      4  C   UNL     1      -9.191  18.721 -11.740  1.00  0.00     0.011 C 
ATOM      5  C   UNL     1      -9.476  19.213 -10.315  1.00  0.00     0.047 C 
ATOM      6  C   UNL     1     -10.663  20.185 -10.462  1.00  0.00     0.081 C 
ATOM      7  C   UNL     1     -11.404  20.411  -9.138  1.00  0.00     0.046 C 
ATOM      8  C   UNL     1     -10.701  21.635  -8.550  1.00  0.00     0.054 C 
ATOM      9  C   UNL     1      -9.667  22.002  -9.654  1.00  0.00     0.173 C 
ATOM     10  O   UNL     1     -10.167  21.450 -10.848  1.00  0.00    -0.342 OA
ATOM     11  C   UNL     1      -8.273  21.367  -9.389  1.00  0.00     0.096 C 
ATOM     12  C   UNL     1      -8.270  19.878  -9.671  1.00  0.00    -0.066 C 
ATOM     13  C   UNL     1      -7.190  19.147  -9.357  1.00  0.00     0.008 C 
ENDROOT
BRANCH   8  14
ATOM     14  C   UNL     1     -11.680  22.786  -8.137  1.00  0.00    -0.009 C 
ATOM     15  C   UNL     1     -13.067  22.723  -8.809  1.00  0.00     0.008 C 
ATOM     16  C   UNL     1     -11.836  22.856  -6.611  1.00  0.00     0.008 C 
ENDBRANCH   8  14
BRANCH   9  17
ATOM     17  O   UNL     1      -9.523  23.393  -9.817  1.00  0.00    -0.365 OA
ATOM     18  H   UNL     1      -8.773  23.684  -9.236  1.00  0.00     0.214 HD
ENDBRANCH   9  17
TORSDOF 2
ENDMDL
MODEL 4
REMARK VINA RESULT:    -4.208      2.014      3.864
REMARK INTER + INTRA:          -4.778
REMARK INTER:                  -4.511
REMARK INTRA:                  -0.268
REMARK UNBOUND:                -0.201
REMARK SMILES C=C1C[C@@]2(O)O[C@@]3(C[C@@H]2C(C)C)[C@H](C)CC[C@@H]13
REMARK SMILES IDX 14 1 13 2 15 3 16 4 17 5 7 6 8 7 9 8 4 9 6 10 3 11 2 12 1 13
REMARK SMILES IDX 10 14 11 15 12 16 5 17
REMARK H PARENT 5 18
REMARK Flexibility Score: inf
ROOT
ATOM      1  C   UNL     1     -11.871  21.688  -7.111  1.00  0.00     0.011 C 
ATOM      2  C   UNL     1     -11.830  22.076  -8.604  1.00  0.00     0.019 C 
ATOM      3  C   UNL     1     -13.107  21.599  -9.311  1.00  0.00     0.007 C 
ATOM      4  C   UNL     1     -12.777  20.257  -9.974  1.00  0.00     0.011 C 
ATOM      5  C   UNL     1     -11.277  20.013  -9.763  1.00  0.00     0.047 C 
ATOM      6  C   UNL     1     -10.699  21.393  -9.396  1.00  0.00     0.081 C 
ATOM      7  C   UNL     1      -9.343  21.294  -8.687  1.00  0.00     0.046 C 
ATOM      8  C   UNL     1      -8.341  21.374  -9.839  1.00  0.00     0.054 C 
ATOM      9  C   UNL     1      -9.258  21.575 -11.080  1.00  0.00     0.173 C 
ATOM     10  O   UNL     1     -10.461  22.114 -10.587  1.00  0.00    -0.342 OA
ATOM     11  C   UNL     1      -9.599  20.230 -11.783  1.00  0.00     0.096 C 
ATOM     12  C   UNL     1     -10.600  19.417 -10.987  1.00  0.00    -0.066 C 
ATOM     13  C   UNL     1     -10.895  18.168 -11.375  1.00  0.00     0.008 C 
ENDROOT
BRANCH   8  14
ATOM     14  C   UNL     1      -7.236  22.466  -9.637  1.00  0.00    -0.009 C 
ATOM     15  C   UNL     1      -7.669  23.667  -8.770  1.00  0.00     0.008 C 
ATOM     16  C   UNL     1      -5.947  21.849  -9.076  1.00  0.00     0.008 C 
ENDBRANCH   8  14
BRANCH   9  17
ATOM     17  O   UNL     1      -8.706  22.466 -12.020  1.00  0.00    -0.365 OA
ATOM     18  H   UNL     1      -7.821  22.752 -11.674  1.00  0.00     0.214 HD
ENDBRANCH   9  17
TORSDOF 2
ENDMDL
MODEL 5
REMARK VINA RESULT:    -4.186      2.356      3.114
REMARK INTER + INTRA:          -4.755
REMARK INTER:                  -4.497
REMARK INTRA:                  -0.258
REMARK UNBOUND:                -0.201
REMARK SMILES C=C1C[C@@]2(O)O[C@@]3(C[C@@H]2C(C)C)[C@H](C)CC[C@@H]13
REMARK SMILES IDX 14 1 13 2 15 3 16 4 17 5 7 6 8 7 9 8 4 9 6 10 3 11 2 12 1 13
REMARK SMILES IDX 10 14 11 15 12 16 5 17
REMARK H PARENT 5 18
REMARK Flexibility Score: inf
ROOT
ATOM      1  C   UNL     1      -7.406  21.351  -9.421  1.00  0.00     0.011 C 
ATOM      2  C   UNL     1      -8.700  22.148  -9.689  1.00  0.00     0.019 C 
ATOM      3  C   UNL     1      -8.773  23.369  -8.762  1.00  0.00     0.007 C 
ATOM      4  C   UNL     1      -9.641  22.970  -7.563  1.00  0.00     0.011 C 
ATOM      5  C   UNL     1     -10.179  21.562  -7.852  1.00  0.00     0.047 C 
ATOM      6  C   UNL     1      -9.990  21.371  -9.370  1.00  0.00     0.081 C 
ATOM      7  C   UNL     1     -10.010  19.893  -9.783  1.00  0.00     0.046 C 
ATOM      8  C   UNL     1     -11.482  19.642 -10.110  1.00  0.00     0.054 C 
ATOM      9  C   UNL     1     -12.126  21.044  -9.900  1.00  0.00     0.173 C 
ATOM     10  O   UNL     1     -11.079  21.973 -10.039  1.00  0.00    -0.342 OA
ATOM     11  C   UNL     1     -12.716  21.211  -8.471  1.00  0.00     0.096 C 
ATOM     12  C   UNL     1     -11.629  21.388  -7.430  1.00  0.00    -0.066 C 
ATOM     13  C   UNL     1     -11.954  21.401  -6.130  1.00  0.00     0.008 C 
ENDROOT
BRANCH   8  14
ATOM     14  C   UNL     1     -11.713  19.002 -11.521  1.00  0.00    -0.009 C 
ATOM     15  C   UNL     1     -10.463  18.970 -12.425  1.00  0.00     0.008 C 
ATOM     16  C   UNL     1     -12.309  17.593 -11.396  1.00  0.00     0.008 C 
ENDBRANCH   8  14
BRANCH   9  17
ATOM     17  O   UNL     1     -13.122  21.327 -10.853  1.00  0.00    -0.365 OA
ATOM     18  H   UNL     1     -12.665  21.516 -11.714  1.00  0.00     0.214 HD
ENDBRANCH   9  17
TORSDOF 2
ENDMDL
MODEL 6
REMARK VINA RESULT:    -4.158      1.887      3.103
REMARK INTER + INTRA:          -4.724
REMARK INTER:                  -4.503
REMARK INTRA:                  -0.222
REMARK UNBOUND:                -0.201
REMARK SMILES C=C1C[C@@]2(O)O[C@@]3(C[C@@H]2C(C)C)[C@H](C)CC[C@@H]13
REMARK SMILES IDX 14 1 13 2 15 3 16 4 17 5 7 6 8 7 9 8 4 9 6 10 3 11 2 12 1 13
REMARK SMILES IDX 10 14 11 15 12 16 5 17
REMARK H PARENT 5 18
REMARK Flexibility Score: inf
ROOT
ATOM      1  C   UNL     1      -5.130  21.350  -8.233  1.00  0.00     0.011 C 
ATOM      2  C   UNL     1      -6.019  22.166  -9.196  1.00  0.00     0.019 C 
ATOM      3  C   UNL     1      -6.017  23.647  -8.793  1.00  0.00     0.007 C 
ATOM      4  C   UNL     1      -7.270  23.881  -7.941  1.00  0.00     0.011 C 
ATOM      5  C   UNL     1      -8.067  22.570  -7.953  1.00  0.00     0.047 C 
ATOM      6  C   UNL     1      -7.508  21.778  -9.151  1.00  0.00     0.081 C 
ATOM      7  C   UNL     1      -7.814  20.278  -9.058  1.00  0.00     0.046 C 
ATOM      8  C   UNL     1      -9.138  20.145  -9.811  1.00  0.00     0.054 C 
ATOM      9  C   UNL     1      -9.402  21.598 -10.304  1.00  0.00     0.173 C 
ATOM     10  O   UNL     1      -8.146  22.230 -10.328  1.00  0.00    -0.342 OA
ATOM     11  C   UNL     1     -10.311  22.393  -9.324  1.00  0.00     0.096 C 
ATOM     12  C   UNL     1      -9.567  22.795  -8.067  1.00  0.00    -0.066 C 
ATOM     13  C   UNL     1     -10.238  23.362  -7.054  1.00  0.00     0.008 C 
ENDROOT
BRANCH   8  14
ATOM     14  C   UNL     1      -9.118  19.050 -10.931  1.00  0.00    -0.009 C 
ATOM     15  C   UNL     1      -7.870  18.142 -10.921  1.00  0.00     0.008 C 
ATOM     16  C   UNL     1     -10.393  18.195 -10.889  1.00  0.00     0.008 C 
ENDBRANCH   8  14
BRANCH   9  17
ATOM     17  O   UNL     1      -9.961  21.636 -11.595  1.00  0.00    -0.365 OA
ATOM     18  H   UNL     1     -10.285  22.561 -11.752  1.00  0.00     0.214 HD
ENDBRANCH   9  17
TORSDOF 2
ENDMDL
MODEL 7
REMARK VINA RESULT:    -4.018      2.619      5.094
REMARK INTER + INTRA:          -4.571
REMARK INTER:                  -4.430
REMARK INTRA:                  -0.141
REMARK UNBOUND:                -0.201
REMARK SMILES C=C1C[C@@]2(O)O[C@@]3(C[C@@H]2C(C)C)[C@H](C)CC[C@@H]13
REMARK SMILES IDX 14 1 13 2 15 3 16 4 17 5 7 6 8 7 9 8 4 9 6 10 3 11 2 12 1 13
REMARK SMILES IDX 10 14 11 15 12 16 5 17
REMARK H PARENT 5 18
REMARK Flexibility Score: inf
ROOT
ATOM      1  C   UNL     1     -10.871  22.571  -9.661  1.00  0.00     0.011 C 
ATOM      2  C   UNL     1      -9.465  22.473 -10.289  1.00  0.00     0.019 C 
ATOM      3  C   UNL     1      -9.509  21.609 -11.557  1.00  0.00     0.007 C 
ATOM      4  C   UNL     1      -9.082  20.194 -11.151  1.00  0.00     0.011 C 
ATOM      5  C   UNL     1      -8.666  20.262  -9.676  1.00  0.00     0.047 C 
ATOM      6  C   UNL     1      -8.431  21.760  -9.399  1.00  0.00     0.081 C 
ATOM      7  C   UNL     1      -8.480  22.096  -7.903  1.00  0.00     0.046 C 
ATOM      8  C   UNL     1      -7.021  21.965  -7.468  1.00  0.00     0.054 C 
ATOM      9  C   UNL     1      -6.293  21.625  -8.801  1.00  0.00     0.173 C 
ATOM     10  O   UNL     1      -7.129  22.100  -9.828  1.00  0.00    -0.342 OA
ATOM     11  C   UNL     1      -6.124  20.092  -9.003  1.00  0.00     0.096 C 
ATOM     12  C   UNL     1      -7.433  19.425  -9.373  1.00  0.00    -0.066 C 
ATOM     13  C   UNL     1      -7.498  18.088  -9.442  1.00  0.00     0.008 C 
ENDROOT
BRANCH   8  14
ATOM     14  C   UNL     1      -6.475  23.222  -6.708  1.00  0.00    -0.009 C 
ATOM     15  C   UNL     1      -7.564  24.118  -6.083  1.00  0.00     0.008 C 
ATOM     16  C   UNL     1      -5.447  22.818  -5.641  1.00  0.00     0.008 C 
ENDBRANCH   8  14
BRANCH   9  17
ATOM     17  O   UNL     1      -5.036  22.251  -8.905  1.00  0.00    -0.365 OA
ATOM     18  H   UNL     1      -4.971  22.639  -9.816  1.00  0.00     0.214 HD
ENDBRANCH   9  17
TORSDOF 2
ENDMDL
MODEL 8
REMARK VINA RESULT:    -3.723      2.430      4.125
REMARK INTER + INTRA:          -4.251
REMARK INTER:                  -4.032
REMARK INTRA:                  -0.219
REMARK UNBOUND:                -0.201
REMARK SMILES C=C1C[C@@]2(O)O[C@@]3(C[C@@H]2C(C)C)[C@H](C)CC[C@@H]13
REMARK SMILES IDX 14 1 13 2 15 3 16 4 17 5 7 6 8 7 9 8 4 9 6 10 3 11 2 12 1 13
REMARK SMILES IDX 10 14 11 15 12 16 5 17
REMARK H PARENT 5 18
REMARK Flexibility Score: inf
ROOT
ATOM      1  C   UNL     1      -6.946  23.447  -6.554  1.00  0.00     0.011 C 
ATOM      2  C   UNL     1      -7.001  22.254  -7.531  1.00  0.00     0.019 C 
ATOM      3  C   UNL     1      -5.765  22.257  -8.442  1.00  0.00     0.007 C 
ATOM      4  C   UNL     1      -6.174  22.943  -9.751  1.00  0.00     0.011 C 
ATOM      5  C   UNL     1      -7.678  23.224  -9.654  1.00  0.00     0.047 C 
ATOM      6  C   UNL     1      -8.180  22.309  -8.520  1.00  0.00     0.081 C 
ATOM      7  C   UNL     1      -9.525  22.771  -7.943  1.00  0.00     0.046 C 
ATOM      8  C   UNL     1     -10.546  22.001  -8.780  1.00  0.00     0.054 C 
ATOM      9  C   UNL     1      -9.647  21.133  -9.708  1.00  0.00     0.173 C 
ATOM     10  O   UNL     1      -8.410  21.019  -9.048  1.00  0.00    -0.342 OA
ATOM     11  C   UNL     1      -9.388  21.815 -11.081  1.00  0.00     0.096 C 
ATOM     12  C   UNL     1      -8.410  22.967 -10.961  1.00  0.00    -0.066 C 
ATOM     13  C   UNL     1      -8.185  23.756 -12.021  1.00  0.00     0.008 C 
ENDROOT
BRANCH   8  14
ATOM     14  C   UNL     1     -11.592  21.208  -7.925  1.00  0.00    -0.009 C 
ATOM     15  C   UNL     1     -11.573  21.538  -6.418  1.00  0.00     0.008 C 
ATOM     16  C   UNL     1     -13.010  21.385  -8.486  1.00  0.00     0.008 C 
ENDBRANCH   8  14
BRANCH   9  17
ATOM     17  O   UNL     1     -10.175  19.845  -9.919  1.00  0.00    -0.365 OA
ATOM     18  H   UNL     1     -11.152  19.893  -9.748  1.00  0.00     0.214 HD
ENDBRANCH   9  17
TORSDOF 2
ENDMDL
MODEL 9
REMARK VINA RESULT:    -3.670      1.446      4.964
REMARK INTER + INTRA:          -4.194
REMARK INTER:                  -3.933
REMARK INTRA:                  -0.261
REMARK UNBOUND:                -0.201
REMARK SMILES C=C1C[C@@]2(O)O[C@@]3(C[C@@H]2C(C)C)[C@H](C)CC[C@@H]13
REMARK SMILES IDX 14 1 13 2 15 3 16 4 17 5 7 6 8 7 9 8 4 9 6 10 3 11 2 12 1 13
REMARK SMILES IDX 10 14 11 15 12 16 5 17
REMARK H PARENT 5 18
REMARK Flexibility Score: inf
ROOT
ATOM      1  C   UNL     1     -10.607  17.914 -10.487  1.00  0.00     0.011 C 
ATOM      2  C   UNL     1      -9.665  18.849 -11.274  1.00  0.00     0.019 C 
ATOM      3  C   UNL     1      -8.257  18.243 -11.350  1.00  0.00     0.007 C 
ATOM      4  C   UNL     1      -7.434  18.880 -10.224  1.00  0.00     0.011 C 
ATOM      5  C   UNL     1      -8.322  19.948  -9.574  1.00  0.00     0.047 C 
ATOM      6  C   UNL     1      -9.437  20.216 -10.603  1.00  0.00     0.081 C 
ATOM      7  C   UNL     1     -10.672  20.875  -9.974  1.00  0.00     0.046 C 
ATOM      8  C   UNL     1     -10.395  22.368 -10.145  1.00  0.00     0.054 C 
ATOM      9  C   UNL     1      -9.044  22.383 -10.918  1.00  0.00     0.173 C 
ATOM     10  O   UNL     1      -8.956  21.135 -11.562  1.00  0.00    -0.342 OA
ATOM     11  C   UNL     1      -7.823  22.506  -9.963  1.00  0.00     0.096 C 
ATOM     12  C   UNL     1      -7.556  21.213  -9.219  1.00  0.00    -0.066 C 
ATOM     13  C   UNL     1      -6.630  21.187  -8.250  1.00  0.00     0.008 C 
ENDROOT
BRANCH   8  14
ATOM     14  C   UNL     1     -11.567  23.151 -10.828  1.00  0.00    -0.009 C 
ATOM     15  C   UNL     1     -12.636  22.259 -11.493  1.00  0.00     0.008 C 
ATOM     16  C   UNL     1     -12.230  24.123  -9.841  1.00  0.00     0.008 C 
ENDBRANCH   8  14
BRANCH   9  17
ATOM     17  O   UNL     1      -8.986  23.404 -11.884  1.00  0.00    -0.365 OA
ATOM     18  H   UNL     1      -8.222  23.992 -11.651  1.00  0.00     0.214 HD
ENDBRANCH   9  17
TORSDOF 2
ENDMDL
