MODEL 1
REMARK VINA RESULT:    -5.299      0.000      0.000
REMARK INTER + INTRA:          -5.208
REMARK INTER:                  -5.609
REMARK INTRA:                   0.401
REMARK UNBOUND:                 0.401
REMARK SMILES CC(C)[C@@H]1CC[C@@H](C)CC1=O
REMARK SMILES IDX 8 1 7 2 6 3 5 4 4 5 10 6 11 7 9 8 2 9 1 10 3 11
REMARK H PARENT
REMARK Flexibility Score: inf
ROOT
ATOM      1  C   UNL     1     -38.822  74.605 -19.828  1.00  0.00     0.008 C 
ATOM      2  C   UNL     1     -37.849  73.422 -19.766  1.00  0.00    -0.007 C 
ATOM      3  C   UNL     1     -38.614  72.102 -19.552  1.00  0.00     0.004 C 
ATOM      4  C   UNL     1     -37.647  70.909 -19.536  1.00  0.00     0.012 C 
ATOM      5  C   UNL     1     -36.592  71.051 -18.413  1.00  0.00     0.058 C 
ATOM      6  C   UNL     1     -35.939  72.421 -18.494  1.00  0.00     0.136 C 
ATOM      7  O   UNL     1     -34.736  72.561 -18.321  1.00  0.00    -0.299 OA
ATOM      8  C   UNL     1     -36.810  73.637 -18.651  1.00  0.00     0.079 C 
ENDROOT
BRANCH   5   9
ATOM      9  C   UNL     1     -35.561  69.878 -18.380  1.00  0.00    -0.007 C 
ATOM     10  C   UNL     1     -36.246  68.511 -18.530  1.00  0.00     0.008 C 
ATOM     11  C   UNL     1     -34.434  70.020 -19.419  1.00  0.00     0.008 C 
ENDBRANCH   5   9
TORSDOF 1
ENDMDL
MODEL 2
REMARK VINA RESULT:    -5.092      8.958     10.177
REMARK INTER + INTRA:          -4.989
REMARK INTER:                  -4.812
REMARK INTRA:                  -0.177
REMARK UNBOUND:                 0.401
REMARK SMILES CC(C)[C@@H]1CC[C@@H](C)CC1=O
REMARK SMILES IDX 8 1 7 2 6 3 5 4 4 5 10 6 11 7 9 8 2 9 1 10 3 11
REMARK H PARENT
REMARK Flexibility Score: inf
ROOT
ATOM      1  C   UNL     1     -39.946  70.323 -10.027  1.00  0.00     0.008 C 
ATOM      2  C   UNL     1     -39.338  71.703 -10.302  1.00  0.00    -0.007 C 
ATOM      3  C   UNL     1     -38.874  72.363  -8.989  1.00  0.00     0.004 C 
ATOM      4  C   UNL     1     -38.222  73.725  -9.265  1.00  0.00     0.012 C 
ATOM      5  C   UNL     1     -39.202  74.688  -9.978  1.00  0.00     0.058 C 
ATOM      6  C   UNL     1     -39.810  73.998 -11.187  1.00  0.00     0.136 C 
ATOM      7  O   UNL     1     -39.971  74.593 -12.244  1.00  0.00    -0.299 OA
ATOM      8  C   UNL     1     -40.349  72.602 -11.036  1.00  0.00     0.079 C 
ENDROOT
BRANCH   5   9
ATOM      9  C   UNL     1     -38.571  76.077 -10.314  1.00  0.00    -0.007 C 
ATOM     10  C   UNL     1     -38.889  77.125  -9.237  1.00  0.00     0.008 C 
ATOM     11  C   UNL     1     -37.053  76.019 -10.563  1.00  0.00     0.008 C 
ENDBRANCH   5   9
TORSDOF 1
ENDMDL
MODEL 3
REMARK VINA RESULT:    -5.074      8.469      9.085
REMARK INTER + INTRA:          -4.969
REMARK INTER:                  -4.890
REMARK INTRA:                  -0.079
REMARK UNBOUND:                 0.401
REMARK SMILES CC(C)[C@@H]1CC[C@@H](C)CC1=O
REMARK SMILES IDX 8 1 7 2 6 3 5 4 4 5 10 6 11 7 9 8 2 9 1 10 3 11
REMARK H PARENT
REMARK Flexibility Score: inf
ROOT
ATOM      1  C   UNL     1     -37.833  76.753 -12.251  1.00  0.00     0.008 C 
ATOM      2  C   UNL     1     -38.207  75.323 -11.847  1.00  0.00    -0.007 C 
ATOM      3  C   UNL     1     -39.709  75.068 -12.079  1.00  0.00     0.004 C 
ATOM      4  C   UNL     1     -40.078  73.622 -11.719  1.00  0.00     0.012 C 
ATOM      5  C   UNL     1     -39.750  73.305 -10.240  1.00  0.00     0.058 C 
ATOM      6  C   UNL     1     -38.317  73.708  -9.936  1.00  0.00     0.136 C 
ATOM      7  O   UNL     1     -37.593  73.005  -9.244  1.00  0.00    -0.299 OA
ATOM      8  C   UNL     1     -37.830  75.061 -10.377  1.00  0.00     0.079 C 
ENDROOT
BRANCH   5   9
ATOM      9  C   UNL     1     -40.074  71.831  -9.837  1.00  0.00    -0.007 C 
ATOM     10  C   UNL     1     -41.586  71.594  -9.705  1.00  0.00     0.008 C 
ATOM     11  C   UNL     1     -39.457  70.784 -10.782  1.00  0.00     0.008 C 
ENDBRANCH   5   9
TORSDOF 1
ENDMDL
MODEL 4
REMARK VINA RESULT:    -4.971      1.608      4.630
REMARK INTER + INTRA:          -4.861
REMARK INTER:                  -6.056
REMARK INTRA:                   1.195
REMARK UNBOUND:                 0.401
REMARK SMILES CC(C)[C@@H]1CC[C@@H](C)CC1=O
REMARK SMILES IDX 8 1 7 2 6 3 5 4 4 5 10 6 11 7 9 8 2 9 1 10 3 11
REMARK H PARENT
REMARK Flexibility Score: inf
ROOT
ATOM      1  C   UNL     1     -34.180  67.598 -18.655  1.00  0.00     0.008 C 
ATOM      2  C   UNL     1     -34.921  68.872 -19.073  1.00  0.00    -0.007 C 
ATOM      3  C   UNL     1     -34.007  70.105 -18.925  1.00  0.00     0.004 C 
ATOM      4  C   UNL     1     -34.731  71.378 -19.387  1.00  0.00     0.012 C 
ATOM      5  C   UNL     1     -36.021  71.624 -18.568  1.00  0.00     0.058 C 
ATOM      6  C   UNL     1     -36.867  70.361 -18.552  1.00  0.00     0.136 C 
ATOM      7  O   UNL     1     -38.083  70.411 -18.671  1.00  0.00    -0.299 OA
ATOM      8  C   UNL     1     -36.207  69.045 -18.244  1.00  0.00     0.079 C 
ENDROOT
BRANCH   5   9
ATOM      9  C   UNL     1     -36.813  72.889 -19.027  1.00  0.00    -0.007 C 
ATOM     10  C   UNL     1     -38.167  72.519 -19.652  1.00  0.00     0.008 C 
ATOM     11  C   UNL     1     -37.015  73.929 -17.910  1.00  0.00     0.008 C 
ENDBRANCH   5   9
TORSDOF 1
ENDMDL
MODEL 5
REMARK VINA RESULT:    -4.891      8.246      9.189
REMARK INTER + INTRA:          -4.776
REMARK INTER:                  -4.620
REMARK INTRA:                  -0.156
REMARK UNBOUND:                 0.401
REMARK SMILES CC(C)[C@@H]1CC[C@@H](C)CC1=O
REMARK SMILES IDX 8 1 7 2 6 3 5 4 4 5 10 6 11 7 9 8 2 9 1 10 3 11
REMARK H PARENT
REMARK Flexibility Score: inf
ROOT
ATOM      1  C   UNL     1     -39.612  75.749 -25.393  1.00  0.00     0.008 C 
ATOM      2  C   UNL     1     -38.207  75.293 -25.805  1.00  0.00    -0.007 C 
ATOM      3  C   UNL     1     -37.211  76.466 -25.723  1.00  0.00     0.004 C 
ATOM      4  C   UNL     1     -35.794  76.003 -26.089  1.00  0.00     0.012 C 
ATOM      5  C   UNL     1     -35.742  75.416 -27.520  1.00  0.00     0.058 C 
ATOM      6  C   UNL     1     -36.834  74.372 -27.685  1.00  0.00     0.136 C 
ATOM      7  O   UNL     1     -36.627  73.326 -28.286  1.00  0.00    -0.299 OA
ATOM      8  C   UNL     1     -38.228  74.694 -27.223  1.00  0.00     0.079 C 
ENDROOT
BRANCH   5   9
ATOM      9  C   UNL     1     -34.326  74.895 -27.925  1.00  0.00    -0.007 C 
ATOM     10  C   UNL     1     -33.428  76.028 -28.443  1.00  0.00     0.008 C 
ATOM     11  C   UNL     1     -33.609  74.124 -26.803  1.00  0.00     0.008 C 
ENDBRANCH   5   9
TORSDOF 1
ENDMDL
MODEL 6
REMARK VINA RESULT:    -4.842      9.121     10.153
REMARK INTER + INTRA:          -4.724
REMARK INTER:                  -4.547
REMARK INTRA:                  -0.176
REMARK UNBOUND:                 0.401
REMARK SMILES CC(C)[C@@H]1CC[C@@H](C)CC1=O
REMARK SMILES IDX 8 1 7 2 6 3 5 4 4 5 10 6 11 7 9 8 2 9 1 10 3 11
REMARK H PARENT
REMARK Flexibility Score: inf
ROOT
ATOM      1  C   UNL     1     -41.318  70.759  -9.968  1.00  0.00     0.008 C 
ATOM      2  C   UNL     1     -40.604  72.099  -9.757  1.00  0.00    -0.007 C 
ATOM      3  C   UNL     1     -41.027  73.114 -10.837  1.00  0.00     0.004 C 
ATOM      4  C   UNL     1     -40.350  74.472 -10.602  1.00  0.00     0.012 C 
ATOM      5  C   UNL     1     -38.808  74.347 -10.624  1.00  0.00     0.058 C 
ATOM      6  C   UNL     1     -38.371  73.230  -9.692  1.00  0.00     0.136 C 
ATOM      7  O   UNL     1     -37.389  73.351  -8.972  1.00  0.00    -0.299 OA
ATOM      8  C   UNL     1     -39.077  71.904  -9.760  1.00  0.00     0.079 C 
ENDROOT
BRANCH   5   9
ATOM      9  C   UNL     1     -38.073  75.698 -10.352  1.00  0.00    -0.007 C 
ATOM     10  C   UNL     1     -37.753  76.447 -11.655  1.00  0.00     0.008 C 
ATOM     11  C   UNL     1     -38.829  76.626  -9.384  1.00  0.00     0.008 C 
ENDBRANCH   5   9
TORSDOF 1
ENDMDL
MODEL 7
REMARK VINA RESULT:    -4.746      8.912      9.632
REMARK INTER + INTRA:          -4.623
REMARK INTER:                  -4.452
REMARK INTRA:                  -0.171
REMARK UNBOUND:                 0.401
REMARK SMILES CC(C)[C@@H]1CC[C@@H](C)CC1=O
REMARK SMILES IDX 8 1 7 2 6 3 5 4 4 5 10 6 11 7 9 8 2 9 1 10 3 11
REMARK H PARENT
REMARK Flexibility Score: inf
ROOT
ATOM      1  C   UNL     1     -38.149  77.113 -10.116  1.00  0.00     0.008 C 
ATOM      2  C   UNL     1     -39.023  75.855 -10.139  1.00  0.00    -0.007 C 
ATOM      3  C   UNL     1     -38.452  74.780  -9.193  1.00  0.00     0.004 C 
ATOM      4  C   UNL     1     -39.351  73.536  -9.177  1.00  0.00     0.012 C 
ATOM      5  C   UNL     1     -39.491  72.920 -10.590  1.00  0.00     0.058 C 
ATOM      6  C   UNL     1     -39.889  74.000 -11.582  1.00  0.00     0.136 C 
ATOM      7  O   UNL     1     -40.717  73.786 -12.457  1.00  0.00    -0.299 OA
ATOM      8  C   UNL     1     -39.147  75.309 -11.573  1.00  0.00     0.079 C 
ENDROOT
BRANCH   5   9
ATOM      9  C   UNL     1     -40.428  71.672 -10.632  1.00  0.00    -0.007 C 
ATOM     10  C   UNL     1     -39.663  70.373 -10.334  1.00  0.00     0.008 C 
ATOM     11  C   UNL     1     -41.651  71.788  -9.704  1.00  0.00     0.008 C 
ENDBRANCH   5   9
TORSDOF 1
ENDMDL
MODEL 8
REMARK VINA RESULT:    -4.743      8.406     10.069
REMARK INTER + INTRA:          -4.619
REMARK INTER:                  -4.452
REMARK INTRA:                  -0.168
REMARK UNBOUND:                 0.401
REMARK SMILES CC(C)[C@@H]1CC[C@@H](C)CC1=O
REMARK SMILES IDX 8 1 7 2 6 3 5 4 4 5 10 6 11 7 9 8 2 9 1 10 3 11
REMARK H PARENT
REMARK Flexibility Score: inf
ROOT
ATOM      1  C   UNL     1     -35.037  74.081 -28.836  1.00  0.00     0.008 C 
ATOM      2  C   UNL     1     -36.138  74.829 -28.076  1.00  0.00    -0.007 C 
ATOM      3  C   UNL     1     -36.747  73.931 -26.982  1.00  0.00     0.004 C 
ATOM      4  C   UNL     1     -37.819  74.692 -26.187  1.00  0.00     0.012 C 
ATOM      5  C   UNL     1     -38.961  75.188 -27.107  1.00  0.00     0.058 C 
ATOM      6  C   UNL     1     -38.375  75.933 -28.295  1.00  0.00     0.136 C 
ATOM      7  O   UNL     1     -38.889  76.960 -28.716  1.00  0.00    -0.299 OA
ATOM      8  C   UNL     1     -37.226  75.320 -29.048  1.00  0.00     0.079 C 
ENDROOT
BRANCH   5   9
ATOM      9  C   UNL     1     -40.057  76.002 -26.349  1.00  0.00    -0.007 C 
ATOM     10  C   UNL     1     -41.460  75.419 -26.577  1.00  0.00     0.008 C 
ATOM     11  C   UNL     1     -39.785  76.146 -24.841  1.00  0.00     0.008 C 
ENDBRANCH   5   9
TORSDOF 1
ENDMDL
MODEL 9
REMARK VINA RESULT:    -4.496      8.370      9.839
REMARK INTER + INTRA:          -4.357
REMARK INTER:                  -4.252
REMARK INTRA:                  -0.105
REMARK UNBOUND:                 0.401
REMARK SMILES CC(C)[C@@H]1CC[C@@H](C)CC1=O
REMARK SMILES IDX 8 1 7 2 6 3 5 4 4 5 10 6 11 7 9 8 2 9 1 10 3 11
REMARK H PARENT
REMARK Flexibility Score: inf
ROOT
ATOM      1  C   UNL     1     -32.539  75.956 -27.632  1.00  0.00     0.008 C 
ATOM      2  C   UNL     1     -34.068  75.900 -27.719  1.00  0.00    -0.007 C 
ATOM      3  C   UNL     1     -34.707  76.695 -26.563  1.00  0.00     0.004 C 
ATOM      4  C   UNL     1     -36.238  76.680 -26.673  1.00  0.00     0.012 C 
ATOM      5  C   UNL     1     -36.795  75.236 -26.640  1.00  0.00     0.058 C 
ATOM      6  C   UNL     1     -36.058  74.380 -27.657  1.00  0.00     0.136 C 
ATOM      7  O   UNL     1     -36.652  73.566 -28.350  1.00  0.00    -0.299 OA
ATOM      8  C   UNL     1     -34.556  74.440 -27.711  1.00  0.00     0.079 C 
ENDROOT
BRANCH   5   9
ATOM      9  C   UNL     1     -38.348  75.167 -26.787  1.00  0.00    -0.007 C 
ATOM     10  C   UNL     1     -39.063  75.568 -25.487  1.00  0.00     0.008 C 
ATOM     11  C   UNL     1     -38.892  75.995 -27.965  1.00  0.00     0.008 C 
ENDBRANCH   5   9
TORSDOF 1
ENDMDL
