MODEL 1
REMARK VINA RESULT:    -3.488      0.000      0.000
REMARK INTER + INTRA:          -4.197
REMARK INTER:                  -4.100
REMARK INTRA:                  -0.097
REMARK UNBOUND:                -0.097
REMARK SMILES CCCCC(=O)[O-]
REMARK SMILES IDX 4 1 5 2 6 3 7 4 3 5 2 6 1 7
REMARK H PARENT
REMARK Flexibility Score: inf
ROOT
ATOM      1  C   UNL     1      -2.347  56.582  47.355  1.00  0.00     0.053 C 
ENDROOT
BRANCH   1   2
ATOM      2  C   UNL     1      -2.497  57.149  48.732  1.00  0.00     0.041 C 
ATOM      3  O   UNL     1      -2.668  56.384  49.717  1.00  0.00    -0.550 OA
ATOM      4  O   UNL     1      -2.498  58.525  48.920  1.00  0.00    -0.550 OA
ENDBRANCH   1   2
BRANCH   1   5
ATOM      5  C   UNL     1      -3.697  56.563  46.632  1.00  0.00     0.006 C 
BRANCH   5   6
ATOM      6  C   UNL     1      -3.717  57.572  45.478  1.00  0.00    -0.003 C 
ATOM      7  C   UNL     1      -2.301  57.927  45.033  1.00  0.00     0.004 C 
ENDBRANCH   5   6
ENDBRANCH   1   5
TORSDOF 3
ENDMDL
MODEL 2
REMARK VINA RESULT:    -3.469      0.075      1.225
REMARK INTER + INTRA:          -4.175
REMARK INTER:                  -4.076
REMARK INTRA:                  -0.099
REMARK UNBOUND:                -0.097
REMARK SMILES CCCCC(=O)[O-]
REMARK SMILES IDX 4 1 5 2 6 3 7 4 3 5 2 6 1 7
REMARK H PARENT
REMARK Flexibility Score: inf
ROOT
ATOM      1  C   UNL     1      -2.379  56.610  47.325  1.00  0.00     0.053 C 
ENDROOT
BRANCH   1   2
ATOM      2  C   UNL     1      -2.512  57.202  48.693  1.00  0.00     0.041 C 
ATOM      3  O   UNL     1      -2.463  58.449  48.851  1.00  0.00    -0.550 OA
ATOM      4  O   UNL     1      -2.640  56.372  49.799  1.00  0.00    -0.550 OA
ENDBRANCH   1   2
BRANCH   1   5
ATOM      5  C   UNL     1      -3.730  56.621  46.602  1.00  0.00     0.006 C 
BRANCH   5   6
ATOM      6  C   UNL     1      -3.706  57.584  45.410  1.00  0.00    -0.003 C 
ATOM      7  C   UNL     1      -2.276  57.966  45.038  1.00  0.00     0.004 C 
ENDBRANCH   5   6
ENDBRANCH   1   5
TORSDOF 3
ENDMDL
MODEL 3
REMARK VINA RESULT:    -3.333      2.384      3.023
REMARK INTER + INTRA:          -4.014
REMARK INTER:                  -3.906
REMARK INTRA:                  -0.109
REMARK UNBOUND:                -0.097
REMARK SMILES CCCCC(=O)[O-]
REMARK SMILES IDX 4 1 5 2 6 3 7 4 3 5 2 6 1 7
REMARK H PARENT
REMARK Flexibility Score: inf
ROOT
ATOM      1  C   UNL     1      -2.502  57.316  48.943  1.00  0.00     0.053 C 
ENDROOT
BRANCH   1   2
ATOM      2  C   UNL     1      -2.454  56.694  47.583  1.00  0.00     0.041 C 
ATOM      3  O   UNL     1      -1.352  56.342  47.085  1.00  0.00    -0.550 OA
ATOM      4  O   UNL     1      -3.621  56.549  46.844  1.00  0.00    -0.550 OA
ENDBRANCH   1   2
BRANCH   1   5
ATOM      5  C   UNL     1      -2.192  58.813  48.860  1.00  0.00     0.006 C 
BRANCH   5   6
ATOM      6  C   UNL     1      -3.482  59.639  48.802  1.00  0.00    -0.003 C 
ATOM      7  C   UNL     1      -3.614  60.361  47.464  1.00  0.00     0.004 C 
ENDBRANCH   5   6
ENDBRANCH   1   5
TORSDOF 3
ENDMDL
MODEL 4
REMARK VINA RESULT:    -3.270      2.624      3.641
REMARK INTER + INTRA:          -3.940
REMARK INTER:                  -3.865
REMARK INTRA:                  -0.075
REMARK UNBOUND:                -0.097
REMARK SMILES CCCCC(=O)[O-]
REMARK SMILES IDX 4 1 5 2 6 3 7 4 3 5 2 6 1 7
REMARK H PARENT
REMARK Flexibility Score: inf
ROOT
ATOM      1  C   UNL     1      -4.030  56.925  45.730  1.00  0.00     0.053 C 
ENDROOT
BRANCH   1   2
ATOM      2  C   UNL     1      -3.269  58.030  45.068  1.00  0.00     0.041 C 
ATOM      3  O   UNL     1      -2.234  57.774  44.399  1.00  0.00    -0.550 OA
ATOM      4  O   UNL     1      -3.675  59.348  45.232  1.00  0.00    -0.550 OA
ENDBRANCH   1   2
BRANCH   1   5
ATOM      5  C   UNL     1      -3.917  57.033  47.254  1.00  0.00     0.006 C 
BRANCH   5   6
ATOM      6  C   UNL     1      -2.520  56.621  47.731  1.00  0.00    -0.003 C 
ATOM      7  C   UNL     1      -2.312  56.981  49.199  1.00  0.00     0.004 C 
ENDBRANCH   5   6
ENDBRANCH   1   5
TORSDOF 3
ENDMDL
MODEL 5
REMARK VINA RESULT:    -3.231      2.605      3.685
REMARK INTER + INTRA:          -3.895
REMARK INTER:                  -3.852
REMARK INTRA:                  -0.043
REMARK UNBOUND:                -0.097
REMARK SMILES CCCCC(=O)[O-]
REMARK SMILES IDX 4 1 5 2 6 3 7 4 3 5 2 6 1 7
REMARK H PARENT
REMARK Flexibility Score: inf
ROOT
ATOM      1  C   UNL     1      -3.406  57.017  46.344  1.00  0.00     0.053 C 
ENDROOT
BRANCH   1   2
ATOM      2  C   UNL     1      -3.040  58.031  45.306  1.00  0.00     0.041 C 
ATOM      3  O   UNL     1      -3.742  59.065  45.155  1.00  0.00    -0.550 OA
ATOM      4  O   UNL     1      -1.951  57.810  44.473  1.00  0.00    -0.550 OA
ENDBRANCH   1   2
BRANCH   1   5
ATOM      5  C   UNL     1      -2.147  56.439  46.997  1.00  0.00     0.006 C 
BRANCH   5   6
ATOM      6  C   UNL     1      -2.194  56.601  48.521  1.00  0.00    -0.003 C 
ATOM      7  C   UNL     1      -2.488  58.046  48.912  1.00  0.00     0.004 C 
ENDBRANCH   5   6
ENDBRANCH   1   5
TORSDOF 3
ENDMDL
MODEL 6
REMARK VINA RESULT:    -3.158      1.933      3.409
REMARK INTER + INTRA:          -3.809
REMARK INTER:                  -3.711
REMARK INTRA:                  -0.098
REMARK UNBOUND:                -0.097
REMARK SMILES CCCCC(=O)[O-]
REMARK SMILES IDX 4 1 5 2 6 3 7 4 3 5 2 6 1 7
REMARK H PARENT
REMARK Flexibility Score: inf
ROOT
ATOM      1  C   UNL     1      -3.483  57.665  45.655  1.00  0.00     0.053 C 
ENDROOT
BRANCH   1   2
ATOM      2  C   UNL     1      -3.857  59.049  46.084  1.00  0.00     0.041 C 
ATOM      3  O   UNL     1      -3.886  59.986  45.244  1.00  0.00    -0.550 OA
ATOM      4  O   UNL     1      -4.125  59.314  47.421  1.00  0.00    -0.550 OA
ENDBRANCH   1   2
BRANCH   1   5
ATOM      5  C   UNL     1      -3.698  56.672  46.801  1.00  0.00     0.006 C 
BRANCH   5   6
ATOM      6  C   UNL     1      -2.361  56.251  47.423  1.00  0.00    -0.003 C 
ATOM      7  C   UNL     1      -2.252  56.729  48.868  1.00  0.00     0.004 C 
ENDBRANCH   5   6
ENDBRANCH   1   5
TORSDOF 3
ENDMDL
MODEL 7
REMARK VINA RESULT:    -3.157     13.099     13.672
REMARK INTER + INTRA:          -3.807
REMARK INTER:                  -3.788
REMARK INTRA:                  -0.020
REMARK UNBOUND:                -0.097
REMARK SMILES CCCCC(=O)[O-]
REMARK SMILES IDX 4 1 5 2 6 3 7 4 3 5 2 6 1 7
REMARK H PARENT
REMARK Flexibility Score: inf
ROOT
ATOM      1  C   UNL     1       5.288  60.767  56.978  1.00  0.00     0.053 C 
ENDROOT
BRANCH   1   2
ATOM      2  C   UNL     1       4.484  61.621  57.908  1.00  0.00     0.041 C 
ATOM      3  O   UNL     1       3.242  61.448  58.014  1.00  0.00    -0.550 OA
ATOM      4  O   UNL     1       5.101  62.641  58.622  1.00  0.00    -0.550 OA
ENDBRANCH   1   2
BRANCH   1   5
ATOM      5  C   UNL     1       6.008  59.660  57.754  1.00  0.00     0.006 C 
BRANCH   5   6
ATOM      6  C   UNL     1       6.692  58.675  56.798  1.00  0.00    -0.003 C 
ATOM      7  C   UNL     1       7.784  59.365  55.986  1.00  0.00     0.004 C 
ENDBRANCH   5   6
ENDBRANCH   1   5
TORSDOF 3
ENDMDL
MODEL 8
REMARK VINA RESULT:    -3.146     13.292     13.765
REMARK INTER + INTRA:          -3.795
REMARK INTER:                  -3.696
REMARK INTRA:                  -0.099
REMARK UNBOUND:                -0.097
REMARK SMILES CCCCC(=O)[O-]
REMARK SMILES IDX 4 1 5 2 6 3 7 4 3 5 2 6 1 7
REMARK H PARENT
REMARK Flexibility Score: inf
ROOT
ATOM      1  C   UNL     1       6.542  58.662  56.815  1.00  0.00     0.053 C 
ENDROOT
BRANCH   1   2
ATOM      2  C   UNL     1       5.830  59.736  57.577  1.00  0.00     0.041 C 
ATOM      3  O   UNL     1       5.196  60.634  56.964  1.00  0.00    -0.550 OA
ATOM      4  O   UNL     1       5.908  59.772  58.963  1.00  0.00    -0.550 OA
ENDBRANCH   1   2
BRANCH   1   5
ATOM      5  C   UNL     1       7.959  59.115  56.448  1.00  0.00     0.006 C 
BRANCH   5   6
ATOM      6  C   UNL     1       8.029  59.568  54.985  1.00  0.00    -0.003 C 
ATOM      7  C   UNL     1       8.475  61.024  54.881  1.00  0.00     0.004 C 
ENDBRANCH   5   6
ENDBRANCH   1   5
TORSDOF 3
ENDMDL
MODEL 9
REMARK VINA RESULT:    -2.931      2.746      3.578
REMARK INTER + INTRA:          -3.543
REMARK INTER:                  -3.451
REMARK INTRA:                  -0.092
REMARK UNBOUND:                -0.097
REMARK SMILES CCCCC(=O)[O-]
REMARK SMILES IDX 4 1 5 2 6 3 7 4 3 5 2 6 1 7
REMARK H PARENT
REMARK Flexibility Score: inf
ROOT
ATOM      1  C   UNL     1      -3.750  59.263  48.012  1.00  0.00     0.053 C 
ENDROOT
BRANCH   1   2
ATOM      2  C   UNL     1      -3.491  59.567  46.570  1.00  0.00     0.041 C 
ATOM      3  O   UNL     1      -4.057  58.895  45.668  1.00  0.00    -0.550 OA
ATOM      4  O   UNL     1      -2.586  60.561  46.221  1.00  0.00    -0.550 OA
ENDBRANCH   1   2
BRANCH   1   5
ATOM      5  C   UNL     1      -2.493  58.690  48.673  1.00  0.00     0.006 C 
BRANCH   5   6
ATOM      6  C   UNL     1      -2.601  57.170  48.835  1.00  0.00    -0.003 C 
ATOM      7  C   UNL     1      -1.853  56.442  47.722  1.00  0.00     0.004 C 
ENDBRANCH   5   6
ENDBRANCH   1   5
TORSDOF 3
ENDMDL
