MODEL 1
REMARK VINA RESULT:    -5.122      0.000      0.000
REMARK INTER + INTRA:          -7.562
REMARK INTER:                  -7.817
REMARK INTRA:                   0.255
REMARK UNBOUND:                 0.255
REMARK SMILES CC1=CCC[C@H](C)C(=O)C[C@@H](C(C)C)C(=O)C1
REMARK SMILES IDX 8 1 9 2 6 3 7 4 5 5 4 6 3 7 2 8 1 9 10 11 11 12 15 13 16 14
REMARK SMILES IDX 17 15 12 17 13 18 14 19
REMARK H PARENT
REMARK Flexibility Score: 70.00
ROOT
ATOM      1  C   UNL     1      -4.367 -12.809  28.947  1.00  0.00     0.136 C 
ATOM      2  O   UNL     1      -5.063 -11.807  28.872  1.00  0.00    -0.299 OA
ENDROOT
BRANCH   1   3
ATOM      3  C   UNL     1      -3.322 -13.029  27.861  1.00  0.00     0.053 C 
ATOM      4  C   UNL     1      -3.767 -12.556  26.468  1.00  0.00     0.016 C 
BRANCH   3   5
ATOM      5  C   UNL     1      -1.930 -12.494  28.265  1.00  0.00     0.015 C 
BRANCH   5   6
ATOM      6  C   UNL     1      -0.948 -13.584  28.740  1.00  0.00     0.028 C 
BRANCH   6   7
ATOM      7  C   UNL     1      -0.001 -13.087  29.802  1.00  0.00    -0.028 C 
ATOM      8  C   UNL     1      -0.292 -13.012  31.124  1.00  0.00    -0.070 CG0
ATOM      9  C   UNL     1       0.750 -12.418  32.039  1.00  0.00     0.039 C 
ATOM     10  G   UNL     1      -1.598 -13.518  31.722  1.00  0.00     0.000 G0
ENDBRANCH   6   7
ENDBRANCH   5   6
ENDBRANCH   3   5
ENDBRANCH   1   3
BRANCH   1  11
ATOM     11  C   UNL     1      -4.543 -13.733  30.139  1.00  0.00     0.087 C 
BRANCH  11  12
ATOM     12  C   UNL     1      -4.210 -13.116  31.529  1.00  0.00     0.066 C 
BRANCH  12  13
ATOM     13  C   UNL     1      -2.777 -12.600  31.583  1.00  0.00     0.140 C 
ATOM     14  O   UNL     1      -2.584 -11.393  31.559  1.00  0.00    -0.299 OA
BRANCH  13  15
ATOM     15  C   UNL     1      -1.595 -13.531  31.741  1.00  0.00     0.106 CG0
ATOM     16  G   UNL     1      -0.317 -12.999  31.106  1.00  0.00     0.000 G0
ENDBRANCH  13  15
ENDBRANCH  12  13
BRANCH  12  17
ATOM     17  C   UNL     1      -4.569 -14.004  32.766  1.00  0.00    -0.006 C 
ATOM     18  C   UNL     1      -5.451 -15.208  32.387  1.00  0.00     0.008 C 
ATOM     19  C   UNL     1      -5.304 -13.177  33.839  1.00  0.00     0.008 C 
ENDBRANCH  12  17
ENDBRANCH  11  12
ENDBRANCH   1  11
TORSDOF 1
ENDMDL
MODEL 2
REMARK VINA RESULT:    -4.712      1.546      3.838
REMARK INTER + INTRA:          -6.937
REMARK INTER:                  -7.536
REMARK INTRA:                   0.599
REMARK UNBOUND:                 0.255
REMARK SMILES CC1=CCC[C@H](C)C(=O)C[C@@H](C(C)C)C(=O)C1
REMARK SMILES IDX 8 1 9 2 6 3 7 4 5 5 4 6 3 7 2 8 1 9 10 11 11 12 15 13 16 14
REMARK SMILES IDX 17 15 12 17 13 18 14 19
REMARK H PARENT
REMARK Flexibility Score: 70.00
ROOT
ATOM      1  C   UNL     1      -4.125 -12.057  31.191  1.00  0.00     0.136 C 
ATOM      2  O   UNL     1      -3.766 -11.060  31.799  1.00  0.00    -0.299 OA
ENDROOT
BRANCH   1   3
ATOM      3  C   UNL     1      -4.171 -13.375  31.953  1.00  0.00     0.053 C 
ATOM      4  C   UNL     1      -5.237 -14.353  31.433  1.00  0.00     0.016 C 
BRANCH   3   5
ATOM      5  C   UNL     1      -2.776 -14.021  32.098  1.00  0.00     0.015 C 
BRANCH   5   6
ATOM      6  C   UNL     1      -1.604 -13.082  31.747  1.00  0.00     0.028 C 
BRANCH   6   7
ATOM      7  C   UNL     1      -0.718 -13.641  30.664  1.00  0.00    -0.028 C 
ATOM      8  C   UNL     1      -0.625 -13.143  29.408  1.00  0.00    -0.070 CG0
ATOM      9  C   UNL     1       0.258 -13.874  28.426  1.00  0.00     0.039 C 
ATOM     10  G   UNL     1      -1.343 -11.879  28.955  1.00  0.00     0.000 G0
ENDBRANCH   6   7
ENDBRANCH   5   6
ENDBRANCH   3   5
ENDBRANCH   1   3
BRANCH   1  11
ATOM     11  C   UNL     1      -4.556 -11.912  29.742  1.00  0.00     0.087 C 
BRANCH  11  12
ATOM     12  C   UNL     1      -3.815 -12.823  28.721  1.00  0.00     0.066 C 
BRANCH  12  13
ATOM     13  C   UNL     1      -2.591 -12.130  28.136  1.00  0.00     0.140 C 
ATOM     14  O   UNL     1      -2.640 -11.717  26.986  1.00  0.00    -0.299 OA
BRANCH  13  15
ATOM     15  C   UNL     1      -1.346 -11.873  28.958  1.00  0.00     0.106 CG0
ATOM     16  G   UNL     1      -0.649 -13.147  29.414  1.00  0.00     0.000 G0
ENDBRANCH  13  15
ENDBRANCH  12  13
BRANCH  12  17
ATOM     17  C   UNL     1      -4.714 -13.472  27.616  1.00  0.00    -0.006 C 
ATOM     18  C   UNL     1      -5.897 -14.257  28.211  1.00  0.00     0.008 C 
ATOM     19  C   UNL     1      -3.891 -14.425  26.728  1.00  0.00     0.008 C 
ENDBRANCH  12  17
ENDBRANCH  11  12
ENDBRANCH   1  11
TORSDOF 1
ENDMDL
MODEL 3
REMARK VINA RESULT:    -4.626      1.983      4.103
REMARK INTER + INTRA:          -6.806
REMARK INTER:                  -6.682
REMARK INTRA:                  -0.124
REMARK UNBOUND:                 0.255
REMARK SMILES CC1=CCC[C@H](C)C(=O)C[C@@H](C(C)C)C(=O)C1
REMARK SMILES IDX 8 1 9 2 6 3 7 4 5 5 4 6 3 7 2 8 1 9 10 11 11 12 15 13 16 14
REMARK SMILES IDX 17 15 12 17 13 18 14 19
REMARK H PARENT
REMARK Flexibility Score: 70.00
ROOT
ATOM      1  C   UNL     1      -2.020 -13.062  31.556  1.00  0.00     0.136 C 
ATOM      2  O   UNL     1      -1.610 -14.060  32.130  1.00  0.00    -0.299 OA
ENDROOT
BRANCH   1   3
ATOM      3  C   UNL     1      -0.993 -12.159  30.886  1.00  0.00     0.053 C 
ATOM      4  C   UNL     1       0.390 -12.188  31.557  1.00  0.00     0.016 C 
BRANCH   3   5
ATOM      5  C   UNL     1      -0.928 -12.373  29.357  1.00  0.00     0.015 C 
BRANCH   5   6
ATOM      6  C   UNL     1      -2.084 -11.714  28.577  1.00  0.00     0.028 C 
BRANCH   6   7
ATOM      7  C   UNL     1      -2.748 -12.664  27.614  1.00  0.00    -0.028 C 
ATOM      8  C   UNL     1      -3.980 -13.202  27.785  1.00  0.00    -0.070 CG0
ATOM      9  C   UNL     1      -4.461 -14.195  26.756  1.00  0.00     0.039 C 
ATOM     10  G   UNL     1      -4.900 -12.833  28.941  1.00  0.00     0.000 G0
ENDBRANCH   6   7
ENDBRANCH   5   6
ENDBRANCH   3   5
ENDBRANCH   1   3
BRANCH   1  11
ATOM     11  C   UNL     1      -3.517 -12.818  31.494  1.00  0.00     0.087 C 
BRANCH  11  12
ATOM     12  C   UNL     1      -4.397 -14.073  31.222  1.00  0.00     0.066 C 
BRANCH  12  13
ATOM     13  C   UNL     1      -5.180 -13.936  29.922  1.00  0.00     0.140 C 
ATOM     14  O   UNL     1      -6.088 -14.724  29.696  1.00  0.00    -0.299 OA
BRANCH  13  15
ATOM     15  C   UNL     1      -4.918 -12.814  28.941  1.00  0.00     0.106 CG0
ATOM     16  G   UNL     1      -3.988 -13.212  27.803  1.00  0.00     0.000 G0
ENDBRANCH  13  15
ENDBRANCH  12  13
BRANCH  12  17
ATOM     17  C   UNL     1      -5.299 -14.538  32.413  1.00  0.00    -0.006 C 
ATOM     18  C   UNL     1      -5.266 -13.550  33.593  1.00  0.00     0.008 C 
ATOM     19  C   UNL     1      -4.862 -15.925  32.923  1.00  0.00     0.008 C 
ENDBRANCH  12  17
ENDBRANCH  11  12
ENDBRANCH   1  11
TORSDOF 1
ENDMDL
MODEL 4
REMARK VINA RESULT:    -4.445      2.475      4.763
REMARK INTER + INTRA:          -6.528
REMARK INTER:                  -6.552
REMARK INTRA:                   0.024
REMARK UNBOUND:                 0.255
REMARK SMILES CC1=CCC[C@H](C)C(=O)C[C@@H](C(C)C)C(=O)C1
REMARK SMILES IDX 8 1 9 2 6 3 7 4 5 5 4 6 3 7 2 8 1 9 10 11 11 12 15 13 16 14
REMARK SMILES IDX 17 15 12 17 13 18 14 19
REMARK H PARENT
REMARK Flexibility Score: 70.00
ROOT
ATOM      1  C   UNL     1      -1.941 -13.622  30.272  1.00  0.00     0.136 C 
ATOM      2  O   UNL     1      -2.656 -13.845  31.237  1.00  0.00    -0.299 OA
ENDROOT
BRANCH   1   3
ATOM      3  C   UNL     1      -0.494 -13.229  30.537  1.00  0.00     0.053 C 
ATOM      4  C   UNL     1       0.387 -13.220  29.277  1.00  0.00     0.016 C 
BRANCH   3   5
ATOM      5  C   UNL     1      -0.378 -11.931  31.366  1.00  0.00     0.015 C 
BRANCH   5   6
ATOM      6  C   UNL     1      -1.112 -10.721  30.752  1.00  0.00     0.028 C 
BRANCH   6   7
ATOM      7  C   UNL     1      -2.433 -10.443  31.423  1.00  0.00    -0.028 C 
ATOM      8  C   UNL     1      -3.597 -10.211  30.770  1.00  0.00    -0.070 CG0
ATOM      9  C   UNL     1      -4.812  -9.875  31.599  1.00  0.00     0.039 C 
ATOM     10  G   UNL     1      -3.738 -10.299  29.257  1.00  0.00     0.000 G0
ENDBRANCH   6   7
ENDBRANCH   5   6
ENDBRANCH   3   5
ENDBRANCH   1   3
BRANCH   1  11
ATOM     11  C   UNL     1      -2.516 -13.807  28.878  1.00  0.00     0.087 C 
BRANCH  11  12
ATOM     12  C   UNL     1      -2.811 -12.498  28.088  1.00  0.00     0.066 C 
BRANCH  12  13
ATOM     13  C   UNL     1      -3.948 -11.706  28.721  1.00  0.00     0.140 C 
ATOM     14  O   UNL     1      -5.034 -12.249  28.867  1.00  0.00    -0.299 OA
BRANCH  13  15
ATOM     15  C   UNL     1      -3.753 -10.297  29.239  1.00  0.00     0.106 CG0
ATOM     16  G   UNL     1      -3.603 -10.225  30.752  1.00  0.00     0.000 G0
ENDBRANCH  13  15
ENDBRANCH  12  13
BRANCH  12  17
ATOM     17  C   UNL     1      -2.992 -12.668  26.543  1.00  0.00    -0.006 C 
ATOM     18  C   UNL     1      -3.403 -11.354  25.854  1.00  0.00     0.008 C 
ATOM     19  C   UNL     1      -4.054 -13.738  26.229  1.00  0.00     0.008 C 
ENDBRANCH  12  17
ENDBRANCH  11  12
ENDBRANCH   1  11
TORSDOF 1
ENDMDL
MODEL 5
REMARK VINA RESULT:    -4.267      1.699      4.009
REMARK INTER + INTRA:          -6.258
REMARK INTER:                  -5.997
REMARK INTRA:                  -0.261
REMARK UNBOUND:                 0.255
REMARK SMILES CC1=CCC[C@H](C)C(=O)C[C@@H](C(C)C)C(=O)C1
REMARK SMILES IDX 8 1 9 2 6 3 7 4 5 5 4 6 3 7 2 8 1 9 10 11 11 12 15 13 16 14
REMARK SMILES IDX 17 15 12 17 13 18 14 19
REMARK H PARENT
REMARK Flexibility Score: 70.00
ROOT
ATOM      1  C   UNL     1      -3.886 -10.839  29.783  1.00  0.00     0.136 C 
ATOM      2  O   UNL     1      -4.883 -10.312  29.313  1.00  0.00    -0.299 OA
ENDROOT
BRANCH   1   3
ATOM      3  C   UNL     1      -3.903 -11.194  31.264  1.00  0.00     0.053 C 
ATOM      4  C   UNL     1      -4.587 -10.136  32.146  1.00  0.00     0.016 C 
BRANCH   3   5
ATOM      5  C   UNL     1      -4.423 -12.625  31.522  1.00  0.00     0.015 C 
BRANCH   5   6
ATOM      6  C   UNL     1      -3.322 -13.644  31.878  1.00  0.00     0.028 C 
BRANCH   6   7
ATOM      7  C   UNL     1      -1.982 -12.992  32.106  1.00  0.00    -0.028 C 
ATOM      8  C   UNL     1      -0.889 -13.181  31.328  1.00  0.00    -0.070 CG0
ATOM      9  C   UNL     1       0.395 -12.508  31.745  1.00  0.00     0.039 C 
ATOM     10  G   UNL     1      -0.905 -14.012  30.051  1.00  0.00     0.000 G0
ENDBRANCH   6   7
ENDBRANCH   5   6
ENDBRANCH   3   5
ENDBRANCH   1   3
BRANCH   1  11
ATOM     11  C   UNL     1      -2.725 -11.162  28.858  1.00  0.00     0.087 C 
BRANCH  11  12
ATOM     12  C   UNL     1      -2.570 -12.660  28.464  1.00  0.00     0.066 C 
BRANCH  12  13
ATOM     13  C   UNL     1      -1.180 -13.186  28.800  1.00  0.00     0.140 C 
ATOM     14  O   UNL     1      -0.244 -12.884  28.073  1.00  0.00    -0.299 OA
BRANCH  13  15
ATOM     15  C   UNL     1      -0.912 -14.007  30.042  1.00  0.00     0.106 CG0
ATOM     16  G   UNL     1      -0.912 -13.183  31.323  1.00  0.00     0.000 G0
ENDBRANCH  13  15
ENDBRANCH  12  13
BRANCH  12  17
ATOM     17  C   UNL     1      -3.008 -13.025  27.007  1.00  0.00    -0.006 C 
ATOM     18  C   UNL     1      -3.290 -11.777  26.150  1.00  0.00     0.008 C 
ATOM     19  C   UNL     1      -4.271 -13.907  27.018  1.00  0.00     0.008 C 
ENDBRANCH  12  17
ENDBRANCH  11  12
ENDBRANCH   1  11
TORSDOF 1
ENDMDL
MODEL 6
REMARK VINA RESULT:    -4.240      1.990      4.758
REMARK INTER + INTRA:          -6.216
REMARK INTER:                  -7.852
REMARK INTRA:                   1.636
REMARK UNBOUND:                 0.255
REMARK SMILES CC1=CCC[C@H](C)C(=O)C[C@@H](C(C)C)C(=O)C1
REMARK SMILES IDX 8 1 9 2 6 3 7 4 5 5 4 6 3 7 2 8 1 9 10 11 11 12 15 13 16 14
REMARK SMILES IDX 17 15 12 17 13 18 14 19
REMARK H PARENT
REMARK Flexibility Score: 70.00
ROOT
ATOM      1  C   UNL     1      -1.113 -13.224  29.519  1.00  0.00     0.136 C 
ATOM      2  O   UNL     1      -0.152 -13.101  28.775  1.00  0.00    -0.299 OA
ENDROOT
BRANCH   1   3
ATOM      3  C   UNL     1      -0.846 -13.276  31.018  1.00  0.00     0.053 C 
ATOM      4  C   UNL     1      -0.413 -11.928  31.617  1.00  0.00     0.016 C 
BRANCH   3   5
ATOM      5  C   UNL     1      -1.999 -13.942  31.800  1.00  0.00     0.015 C 
BRANCH   5   6
ATOM      6  C   UNL     1      -3.406 -13.578  31.284  1.00  0.00     0.028 C 
BRANCH   6   7
ATOM      7  C   UNL     1      -4.059 -12.491  32.098  1.00  0.00    -0.028 C 
ATOM      8  C   UNL     1      -3.995 -11.168  31.814  1.00  0.00    -0.070 CG0
ATOM      9  C   UNL     1      -4.645 -10.209  32.780  1.00  0.00     0.039 C 
ATOM     10  G   UNL     1      -3.326 -10.614  30.562  1.00  0.00     0.000 G0
ENDBRANCH   6   7
ENDBRANCH   5   6
ENDBRANCH   3   5
ENDBRANCH   1   3
BRANCH   1  11
ATOM     11  C   UNL     1      -2.505 -13.259  28.915  1.00  0.00     0.087 C 
BRANCH  11  12
ATOM     12  C   UNL     1      -3.006 -11.922  28.293  1.00  0.00     0.066 C 
BRANCH  12  13
ATOM     13  C   UNL     1      -3.872 -11.139  29.271  1.00  0.00     0.140 C 
ATOM     14  O   UNL     1      -5.062 -10.999  29.023  1.00  0.00    -0.299 OA
BRANCH  13  15
ATOM     15  C   UNL     1      -3.323 -10.594  30.571  1.00  0.00     0.106 CG0
ATOM     16  G   UNL     1      -4.009 -11.166  31.804  1.00  0.00     0.000 G0
ENDBRANCH  13  15
ENDBRANCH  12  13
BRANCH  12  17
ATOM     17  C   UNL     1      -3.664 -12.040  26.878  1.00  0.00    -0.006 C 
ATOM     18  C   UNL     1      -3.914 -13.503  26.468  1.00  0.00     0.008 C 
ATOM     19  C   UNL     1      -2.781 -11.375  25.805  1.00  0.00     0.008 C 
ENDBRANCH  12  17
ENDBRANCH  11  12
ENDBRANCH   1  11
TORSDOF 1
ENDMDL
MODEL 7
REMARK VINA RESULT:    -4.223      1.853      3.944
REMARK INTER + INTRA:          -6.190
REMARK INTER:                  -6.213
REMARK INTRA:                   0.023
REMARK UNBOUND:                 0.255
REMARK SMILES CC1=CCC[C@H](C)C(=O)C[C@@H](C(C)C)C(=O)C1
REMARK SMILES IDX 8 1 9 2 6 3 7 4 5 5 4 6 3 7 2 8 1 9 10 11 11 12 15 13 16 14
REMARK SMILES IDX 17 15 12 17 13 18 14 19
REMARK H PARENT
REMARK Flexibility Score: 70.00
ROOT
ATOM      1  C   UNL     1      -1.887 -13.309  31.708  1.00  0.00     0.136 C 
ATOM      2  O   UNL     1      -1.655 -14.257  32.444  1.00  0.00    -0.299 OA
ENDROOT
BRANCH   1   3
ATOM      3  C   UNL     1      -0.728 -12.738  30.901  1.00  0.00     0.053 C 
ATOM      4  C   UNL     1       0.439 -12.232  31.765  1.00  0.00     0.016 C 
BRANCH   3   5
ATOM      5  C   UNL     1      -0.276 -13.685  29.767  1.00  0.00     0.015 C 
BRANCH   5   6
ATOM      6  C   UNL     1      -1.379 -14.015  28.741  1.00  0.00     0.028 C 
BRANCH   6   7
ATOM      7  C   UNL     1      -1.680 -12.858  27.822  1.00  0.00    -0.028 C 
ATOM      8  C   UNL     1      -2.922 -12.481  27.436  1.00  0.00    -0.070 CG0
ATOM      9  C   UNL     1      -3.037 -11.345  26.450  1.00  0.00     0.039 C 
ATOM     10  G   UNL     1      -4.194 -13.128  27.968  1.00  0.00     0.000 G0
ENDBRANCH   6   7
ENDBRANCH   5   6
ENDBRANCH   3   5
ENDBRANCH   1   3
BRANCH   1  11
ATOM     11  C   UNL     1      -3.314 -12.802  31.598  1.00  0.00     0.087 C 
BRANCH  11  12
ATOM     12  C   UNL     1      -4.225 -13.559  30.588  1.00  0.00     0.066 C 
BRANCH  12  13
ATOM     13  C   UNL     1      -4.550 -12.699  29.373  1.00  0.00     0.140 C 
ATOM     14  O   UNL     1      -5.056 -11.599  29.549  1.00  0.00    -0.299 OA
BRANCH  13  15
ATOM     15  C   UNL     1      -4.199 -13.132  27.967  1.00  0.00     0.106 CG0
ATOM     16  G   UNL     1      -2.928 -12.484  27.435  1.00  0.00     0.000 G0
ENDBRANCH  13  15
ENDBRANCH  12  13
BRANCH  12  17
ATOM     17  C   UNL     1      -5.500 -14.231  31.199  1.00  0.00    -0.006 C 
ATOM     18  C   UNL     1      -5.175 -15.086  32.437  1.00  0.00     0.008 C 
ATOM     19  C   UNL     1      -6.202 -15.124  30.158  1.00  0.00     0.008 C 
ENDBRANCH  12  17
ENDBRANCH  11  12
ENDBRANCH   1  11
TORSDOF 1
ENDMDL
MODEL 8
REMARK VINA RESULT:    -4.200      2.091      4.605
REMARK INTER + INTRA:          -6.154
REMARK INTER:                  -6.126
REMARK INTRA:                  -0.028
REMARK UNBOUND:                 0.255
REMARK SMILES CC1=CCC[C@H](C)C(=O)C[C@@H](C(C)C)C(=O)C1
REMARK SMILES IDX 8 1 9 2 6 3 7 4 5 5 4 6 3 7 2 8 1 9 10 11 11 12 15 13 16 14
REMARK SMILES IDX 17 15 12 17 13 18 14 19
REMARK H PARENT
REMARK Flexibility Score: 70.00
ROOT
ATOM      1  C   UNL     1      -3.728 -13.556  31.784  1.00  0.00     0.136 C 
ATOM      2  O   UNL     1      -4.075 -12.619  32.487  1.00  0.00    -0.299 OA
ENDROOT
BRANCH   1   3
ATOM      3  C   UNL     1      -4.808 -14.514  31.297  1.00  0.00     0.053 C 
ATOM      4  C   UNL     1      -5.650 -15.125  32.428  1.00  0.00     0.016 C 
BRANCH   3   5
ATOM      5  C   UNL     1      -5.665 -13.908  30.164  1.00  0.00     0.015 C 
BRANCH   5   6
ATOM      6  C   UNL     1      -5.235 -14.339  28.747  1.00  0.00     0.028 C 
BRANCH   6   7
ATOM      7  C   UNL     1      -4.705 -13.190  27.928  1.00  0.00    -0.028 C 
ATOM      8  C   UNL     1      -3.400 -13.000  27.616  1.00  0.00    -0.070 CG0
ATOM      9  C   UNL     1      -3.035 -11.752  26.850  1.00  0.00     0.039 C 
ATOM     10  G   UNL     1      -2.302 -13.990  27.979  1.00  0.00     0.000 G0
ENDBRANCH   6   7
ENDBRANCH   5   6
ENDBRANCH   3   5
ENDBRANCH   1   3
BRANCH   1  11
ATOM     11  C   UNL     1      -2.266 -13.674  31.394  1.00  0.00     0.087 C 
BRANCH  11  12
ATOM     12  C   UNL     1      -1.791 -12.725  30.255  1.00  0.00     0.066 C 
BRANCH  12  13
ATOM     13  C   UNL     1      -1.328 -13.505  29.031  1.00  0.00     0.140 C 
ATOM     14  O   UNL     1      -0.143 -13.790  28.928  1.00  0.00    -0.299 OA
BRANCH  13  15
ATOM     15  C   UNL     1      -2.298 -14.001  27.982  1.00  0.00     0.106 CG0
ATOM     16  G   UNL     1      -3.391 -12.994  27.646  1.00  0.00     0.000 G0
ENDBRANCH  13  15
ENDBRANCH  12  13
BRANCH  12  17
ATOM     17  C   UNL     1      -0.765 -11.621  30.679  1.00  0.00    -0.006 C 
ATOM     18  C   UNL     1       0.092 -12.050  31.883  1.00  0.00     0.008 C 
ATOM     19  C   UNL     1      -1.489 -10.308  31.035  1.00  0.00     0.008 C 
ENDBRANCH  12  17
ENDBRANCH  11  12
ENDBRANCH   1  11
TORSDOF 1
ENDMDL
MODEL 9
REMARK VINA RESULT:    -4.020      1.842      2.893
REMARK INTER + INTRA:          -5.880
REMARK INTER:                  -6.316
REMARK INTRA:                   0.437
REMARK UNBOUND:                 0.255
REMARK SMILES CC1=CCC[C@H](C)C(=O)C[C@@H](C(C)C)C(=O)C1
REMARK SMILES IDX 8 1 9 2 6 3 7 4 5 5 4 6 3 7 2 8 1 9 10 11 11 12 15 13 16 14
REMARK SMILES IDX 17 15 12 17 13 18 14 19
REMARK H PARENT
REMARK Flexibility Score: 70.00
ROOT
ATOM      1  C   UNL     1      -5.065 -14.238  30.709  1.00  0.00     0.136 C 
ATOM      2  O   UNL     1      -5.982 -14.844  31.241  1.00  0.00    -0.299 OA
ENDROOT
BRANCH   1   3
ATOM      3  C   UNL     1      -5.114 -14.063  29.197  1.00  0.00     0.053 C 
ATOM      4  C   UNL     1      -6.386 -14.633  28.548  1.00  0.00     0.016 C 
BRANCH   3   5
ATOM      5  C   UNL     1      -4.809 -12.613  28.760  1.00  0.00     0.015 C 
BRANCH   5   6
ATOM      6  C   UNL     1      -3.758 -12.499  27.637  1.00  0.00     0.028 C 
BRANCH   6   7
ATOM      7  C   UNL     1      -2.527 -13.324  27.909  1.00  0.00    -0.028 C 
ATOM      8  C   UNL     1      -1.532 -12.971  28.759  1.00  0.00    -0.070 CG0
ATOM      9  C   UNL     1      -0.333 -13.882  28.854  1.00  0.00     0.039 C 
ATOM     10  G   UNL     1      -1.581 -11.722  29.630  1.00  0.00     0.000 G0
ENDBRANCH   6   7
ENDBRANCH   5   6
ENDBRANCH   3   5
ENDBRANCH   1   3
BRANCH   1  11
ATOM     11  C   UNL     1      -3.973 -13.648  31.584  1.00  0.00     0.087 C 
BRANCH  11  12
ATOM     12  C   UNL     1      -3.606 -12.162  31.301  1.00  0.00     0.066 C 
BRANCH  12  13
ATOM     13  C   UNL     1      -2.116 -11.994  31.033  1.00  0.00     0.140 C 
ATOM     14  O   UNL     1      -1.330 -12.145  31.958  1.00  0.00    -0.299 OA
BRANCH  13  15
ATOM     15  C   UNL     1      -1.577 -11.719  29.646  1.00  0.00     0.106 CG0
ATOM     16  G   UNL     1      -1.537 -12.955  28.757  1.00  0.00     0.000 G0
ENDBRANCH  13  15
ENDBRANCH  12  13
BRANCH  12  17
ATOM     17  C   UNL     1      -4.144 -11.123  32.341  1.00  0.00    -0.006 C 
ATOM     18  C   UNL     1      -5.167 -11.741  33.311  1.00  0.00     0.008 C 
ATOM     19  C   UNL     1      -4.806  -9.927  31.629  1.00  0.00     0.008 C 
ENDBRANCH  12  17
ENDBRANCH  11  12
ENDBRANCH   1  11
TORSDOF 1
ENDMDL
