MODEL 1
REMARK VINA RESULT:    -3.969      0.000      0.000
REMARK INTER + INTRA:          -4.719
REMARK INTER:                  -4.433
REMARK INTRA:                  -0.286
REMARK UNBOUND:                -0.286
REMARK SMILES CC(=O)O[C@H]1C[C@H]2CC[C@]1(C)C2(C)C
REMARK SMILES IDX 4 1 2 2 1 3 3 4 5 5 6 6 10 7 7 8 9 9 12 10 11 11 8 12 13 13
REMARK SMILES IDX 14 14
REMARK H PARENT
REMARK Flexibility Score: inf
ROOT
ATOM      1  O   UNL     1     203.965 199.258 216.805  1.00  0.00    -0.462 OA
ENDROOT
BRANCH   1   2
ATOM      2  C   UNL     1     205.164 198.890 217.426  1.00  0.00     0.302 C 
ATOM      3  C   UNL     1     205.655 197.489 217.300  1.00  0.00     0.139 C 
ATOM      4  O   UNL     1     205.851 199.739 218.056  1.00  0.00    -0.253 OA
ENDBRANCH   1   2
BRANCH   1   5
ATOM      5  C   UNL     1     202.793 199.635 217.530  1.00  0.00     0.183 C 
ATOM      6  C   UNL     1     202.417 201.116 217.285  1.00  0.00     0.050 C 
ATOM      7  C   UNL     1     201.525 198.885 217.025  1.00  0.00     0.010 C 
ATOM      8  C   UNL     1     200.977 201.019 216.719  1.00  0.00    -0.001 C 
ATOM      9  C   UNL     1     201.491 199.014 215.476  1.00  0.00     0.011 C 
ATOM     10  C   UNL     1     200.375 199.819 217.471  1.00  0.00    -0.024 C 
ATOM     11  C   UNL     1     201.438 197.435 217.518  1.00  0.00     0.016 C 
ATOM     12  C   UNL     1     201.122 200.496 215.269  1.00  0.00     0.005 C 
ATOM     13  C   UNL     1     198.952 199.416 216.977  1.00  0.00     0.012 C 
ATOM     14  C   UNL     1     200.244 200.046 219.009  1.00  0.00     0.012 C 
ENDBRANCH   1   5
TORSDOF 2
ENDMDL
MODEL 2
REMARK VINA RESULT:    -3.949      2.005      5.539
REMARK INTER + INTRA:          -4.697
REMARK INTER:                  -4.388
REMARK INTRA:                  -0.308
REMARK UNBOUND:                -0.286
REMARK SMILES CC(=O)O[C@H]1C[C@H]2CC[C@]1(C)C2(C)C
REMARK SMILES IDX 4 1 2 2 1 3 3 4 5 5 6 6 10 7 7 8 9 9 12 10 11 11 8 12 13 13
REMARK SMILES IDX 14 14
REMARK H PARENT
REMARK Flexibility Score: inf
ROOT
ATOM      1  O   UNL     1     203.655 198.610 217.197  1.00  0.00    -0.462 OA
ENDROOT
BRANCH   1   2
ATOM      2  C   UNL     1     202.452 199.266 217.477  1.00  0.00     0.302 C 
ATOM      3  C   UNL     1     202.369 200.745 217.313  1.00  0.00     0.139 C 
ATOM      4  O   UNL     1     201.429 198.618 217.826  1.00  0.00    -0.253 OA
ENDBRANCH   1   2
BRANCH   1   5
ATOM      5  C   UNL     1     204.900 199.293 217.038  1.00  0.00     0.183 C 
ATOM      6  C   UNL     1     205.862 199.021 218.219  1.00  0.00     0.050 C 
ATOM      7  C   UNL     1     205.712 198.756 215.822  1.00  0.00     0.010 C 
ATOM      8  C   UNL     1     207.104 198.411 217.521  1.00  0.00    -0.001 C 
ATOM      9  C   UNL     1     205.746 197.206 215.930  1.00  0.00     0.011 C 
ATOM     10  C   UNL     1     207.164 199.155 216.176  1.00  0.00    -0.024 C 
ATOM     11  C   UNL     1     205.190 199.261 214.470  1.00  0.00     0.016 C 
ATOM     12  C   UNL     1     206.703 196.971 217.115  1.00  0.00     0.005 C 
ATOM     13  C   UNL     1     208.263 198.621 215.208  1.00  0.00     0.012 C 
ATOM     14  C   UNL     1     207.429 200.686 216.319  1.00  0.00     0.012 C 
ENDBRANCH   1   5
TORSDOF 2
ENDMDL
MODEL 3
REMARK VINA RESULT:    -3.917      8.504     10.086
REMARK INTER + INTRA:          -4.661
REMARK INTER:                  -4.441
REMARK INTRA:                  -0.220
REMARK UNBOUND:                -0.286
REMARK SMILES CC(=O)O[C@H]1C[C@H]2CC[C@]1(C)C2(C)C
REMARK SMILES IDX 4 1 2 2 1 3 3 4 5 5 6 6 10 7 7 8 9 9 12 10 11 11 8 12 13 13
REMARK SMILES IDX 14 14
REMARK H PARENT
REMARK Flexibility Score: inf
ROOT
ATOM      1  O   UNL     1     195.992 208.020 215.970  1.00  0.00    -0.462 OA
ENDROOT
BRANCH   1   2
ATOM      2  C   UNL     1     196.499 208.819 214.940  1.00  0.00     0.302 C 
ATOM      3  C   UNL     1     197.150 210.118 215.272  1.00  0.00     0.139 C 
ATOM      4  O   UNL     1     196.448 208.434 213.740  1.00  0.00    -0.253 OA
ENDBRANCH   1   2
BRANCH   1   5
ATOM      5  C   UNL     1     195.970 206.592 215.913  1.00  0.00     0.183 C 
ATOM      6  C   UNL     1     197.381 205.986 216.108  1.00  0.00     0.050 C 
ATOM      7  C   UNL     1     195.178 205.970 217.102  1.00  0.00     0.010 C 
ATOM      8  C   UNL     1     197.198 205.071 217.346  1.00  0.00    -0.001 C 
ATOM      9  C   UNL     1     195.696 206.636 218.408  1.00  0.00     0.011 C 
ATOM     10  C   UNL     1     195.762 204.541 217.191  1.00  0.00    -0.024 C 
ATOM     11  C   UNL     1     193.656 206.062 216.934  1.00  0.00     0.016 C 
ATOM     12  C   UNL     1     197.099 206.018 218.567  1.00  0.00     0.005 C 
ATOM     13  C   UNL     1     195.270 203.689 218.402  1.00  0.00     0.012 C 
ATOM     14  C   UNL     1     195.557 203.645 215.930  1.00  0.00     0.012 C 
ENDBRANCH   1   5
TORSDOF 2
ENDMDL
MODEL 4
REMARK VINA RESULT:    -3.849      1.270      2.617
REMARK INTER + INTRA:          -4.585
REMARK INTER:                  -4.306
REMARK INTRA:                  -0.280
REMARK UNBOUND:                -0.286
REMARK SMILES CC(=O)O[C@H]1C[C@H]2CC[C@]1(C)C2(C)C
REMARK SMILES IDX 4 1 2 2 1 3 3 4 5 5 6 6 10 7 7 8 9 9 12 10 11 11 8 12 13 13
REMARK SMILES IDX 14 14
REMARK H PARENT
REMARK Flexibility Score: inf
ROOT
ATOM      1  O   UNL     1     203.686 198.332 217.666  1.00  0.00    -0.462 OA
ENDROOT
BRANCH   1   2
ATOM      2  C   UNL     1     204.956 198.126 217.120  1.00  0.00     0.302 C 
ATOM      3  C   UNL     1     206.141 198.767 217.757  1.00  0.00     0.139 C 
ATOM      4  O   UNL     1     205.115 197.373 216.121  1.00  0.00    -0.253 OA
ENDBRANCH   1   2
BRANCH   1   5
ATOM      5  C   UNL     1     202.505 198.462 216.872  1.00  0.00     0.183 C 
ATOM      6  C   UNL     1     201.266 197.862 217.579  1.00  0.00     0.050 C 
ATOM      7  C   UNL     1     202.087 199.951 216.683  1.00  0.00     0.010 C 
ATOM      8  C   UNL     1     200.295 199.066 217.659  1.00  0.00    -0.001 C 
ATOM      9  C   UNL     1     202.093 200.620 218.086  1.00  0.00     0.011 C 
ATOM     10  C   UNL     1     200.577 199.844 216.362  1.00  0.00    -0.024 C 
ATOM     11  C   UNL     1     202.939 200.697 215.649  1.00  0.00     0.016 C 
ATOM     12  C   UNL     1     200.856 199.997 218.762  1.00  0.00     0.005 C 
ATOM     13  C   UNL     1     199.814 201.201 216.261  1.00  0.00     0.012 C 
ATOM     14  C   UNL     1     200.215 199.054 215.066  1.00  0.00     0.012 C 
ENDBRANCH   1   5
TORSDOF 2
ENDMDL
MODEL 5
REMARK VINA RESULT:    -3.833      6.993      8.817
REMARK INTER + INTRA:          -4.568
REMARK INTER:                  -4.249
REMARK INTRA:                  -0.319
REMARK UNBOUND:                -0.286
REMARK SMILES CC(=O)O[C@H]1C[C@H]2CC[C@]1(C)C2(C)C
REMARK SMILES IDX 4 1 2 2 1 3 3 4 5 5 6 6 10 7 7 8 9 9 12 10 11 11 8 12 13 13
REMARK SMILES IDX 14 14
REMARK H PARENT
REMARK Flexibility Score: inf
ROOT
ATOM      1  O   UNL     1     196.162 203.348 218.544  1.00  0.00    -0.462 OA
ENDROOT
BRANCH   1   2
ATOM      2  C   UNL     1     196.291 201.957 218.472  1.00  0.00     0.302 C 
ATOM      3  C   UNL     1     197.375 201.364 217.639  1.00  0.00     0.139 C 
ATOM      4  O   UNL     1     195.528 201.203 219.135  1.00  0.00    -0.253 OA
ENDBRANCH   1   2
BRANCH   1   5
ATOM      5  C   UNL     1     195.703 204.147 217.451  1.00  0.00     0.183 C 
ATOM      6  C   UNL     1     194.405 204.913 217.803  1.00  0.00     0.050 C 
ATOM      7  C   UNL     1     196.689 205.306 217.119  1.00  0.00     0.010 C 
ATOM      8  C   UNL     1     194.806 206.394 217.584  1.00  0.00    -0.001 C 
ATOM      9  C   UNL     1     197.029 206.029 218.453  1.00  0.00     0.011 C 
ATOM     10  C   UNL     1     195.783 206.330 216.396  1.00  0.00    -0.024 C 
ATOM     11  C   UNL     1     197.930 204.847 216.343  1.00  0.00     0.016 C 
ATOM     12  C   UNL     1     195.718 206.773 218.776  1.00  0.00     0.005 C 
ATOM     13  C   UNL     1     196.452 207.698 216.056  1.00  0.00     0.012 C 
ATOM     14  C   UNL     1     195.126 205.836 215.070  1.00  0.00     0.012 C 
ENDBRANCH   1   5
TORSDOF 2
ENDMDL
MODEL 6
REMARK VINA RESULT:    -3.806      8.187      9.818
REMARK INTER + INTRA:          -4.537
REMARK INTER:                  -4.262
REMARK INTRA:                  -0.275
REMARK UNBOUND:                -0.286
REMARK SMILES CC(=O)O[C@H]1C[C@H]2CC[C@]1(C)C2(C)C
REMARK SMILES IDX 4 1 2 2 1 3 3 4 5 5 6 6 10 7 7 8 9 9 12 10 11 11 8 12 13 13
REMARK SMILES IDX 14 14
REMARK H PARENT
REMARK Flexibility Score: inf
ROOT
ATOM      1  O   UNL     1     197.000 207.718 214.531  1.00  0.00    -0.462 OA
ENDROOT
BRANCH   1   2
ATOM      2  C   UNL     1     197.567 208.953 214.200  1.00  0.00     0.302 C 
ATOM      3  C   UNL     1     197.346 210.124 215.095  1.00  0.00     0.139 C 
ATOM      4  O   UNL     1     198.295 209.076 213.178  1.00  0.00    -0.253 OA
ENDBRANCH   1   2
BRANCH   1   5
ATOM      5  C   UNL     1     196.611 207.367 215.860  1.00  0.00     0.183 C 
ATOM      6  C   UNL     1     195.078 207.204 215.988  1.00  0.00     0.050 C 
ATOM      7  C   UNL     1     197.127 205.955 216.269  1.00  0.00     0.010 C 
ATOM      8  C   UNL     1     194.924 205.747 216.491  1.00  0.00    -0.001 C 
ATOM      9  C   UNL     1     196.756 204.972 215.123  1.00  0.00     0.011 C 
ATOM     10  C   UNL     1     196.151 205.547 217.398  1.00  0.00    -0.024 C 
ATOM     11  C   UNL     1     198.617 205.932 216.632  1.00  0.00     0.016 C 
ATOM     12  C   UNL     1     195.228 204.839 215.274  1.00  0.00     0.005 C 
ATOM     13  C   UNL     1     196.311 204.091 217.931  1.00  0.00     0.012 C 
ATOM     14  C   UNL     1     196.153 206.466 218.659  1.00  0.00     0.012 C 
ENDBRANCH   1   5
TORSDOF 2
ENDMDL
MODEL 7
REMARK VINA RESULT:    -3.734      3.919      5.871
REMARK INTER + INTRA:          -4.456
REMARK INTER:                  -4.107
REMARK INTRA:                  -0.349
REMARK UNBOUND:                -0.286
REMARK SMILES CC(=O)O[C@H]1C[C@H]2CC[C@]1(C)C2(C)C
REMARK SMILES IDX 4 1 2 2 1 3 3 4 5 5 6 6 10 7 7 8 9 9 12 10 11 11 8 12 13 13
REMARK SMILES IDX 14 14
REMARK H PARENT
REMARK Flexibility Score: inf
ROOT
ATOM      1  O   UNL     1     208.691 198.054 217.743  1.00  0.00    -0.462 OA
ENDROOT
BRANCH   1   2
ATOM      2  C   UNL     1     210.083 198.127 217.860  1.00  0.00     0.302 C 
ATOM      3  C   UNL     1     210.861 198.930 216.874  1.00  0.00     0.139 C 
ATOM      4  O   UNL     1     210.682 197.555 218.811  1.00  0.00    -0.253 OA
ENDBRANCH   1   2
BRANCH   1   5
ATOM      5  C   UNL     1     207.994 198.320 216.524  1.00  0.00     0.183 C 
ATOM      6  C   UNL     1     207.076 197.144 216.117  1.00  0.00     0.050 C 
ATOM      7  C   UNL     1     206.980 199.493 216.673  1.00  0.00     0.010 C 
ATOM      8  C   UNL     1     205.676 197.805 216.045  1.00  0.00    -0.001 C 
ATOM      9  C   UNL     1     206.133 199.219 217.948  1.00  0.00     0.011 C 
ATOM     10  C   UNL     1     205.975 199.224 215.529  1.00  0.00    -0.024 C 
ATOM     11  C   UNL     1     207.644 200.877 216.669  1.00  0.00     0.016 C 
ATOM     12  C   UNL     1     205.238 198.042 217.511  1.00  0.00     0.005 C 
ATOM     13  C   UNL     1     204.727 200.159 215.497  1.00  0.00     0.012 C 
ATOM     14  C   UNL     1     206.567 199.254 214.086  1.00  0.00     0.012 C 
ENDBRANCH   1   5
TORSDOF 2
ENDMDL
MODEL 8
REMARK VINA RESULT:    -3.625      9.114     10.873
REMARK INTER + INTRA:          -4.335
REMARK INTER:                  -4.069
REMARK INTRA:                  -0.266
REMARK UNBOUND:                -0.286
REMARK SMILES CC(=O)O[C@H]1C[C@H]2CC[C@]1(C)C2(C)C
REMARK SMILES IDX 4 1 2 2 1 3 3 4 5 5 6 6 10 7 7 8 9 9 12 10 11 11 8 12 13 13
REMARK SMILES IDX 14 14
REMARK H PARENT
REMARK Flexibility Score: inf
ROOT
ATOM      1  O   UNL     1     196.131 207.483 216.495  1.00  0.00    -0.462 OA
ENDROOT
BRANCH   1   2
ATOM      2  C   UNL     1     196.293 206.468 217.445  1.00  0.00     0.302 C 
ATOM      3  C   UNL     1     195.894 206.717 218.859  1.00  0.00     0.139 C 
ATOM      4  O   UNL     1     196.735 205.336 217.110  1.00  0.00    -0.253 OA
ENDBRANCH   1   2
BRANCH   1   5
ATOM      5  C   UNL     1     196.396 207.299 215.103  1.00  0.00     0.183 C 
ATOM      6  C   UNL     1     195.263 207.876 214.220  1.00  0.00     0.050 C 
ATOM      7  C   UNL     1     197.633 208.120 214.630  1.00  0.00     0.010 C 
ATOM      8  C   UNL     1     196.006 208.910 213.336  1.00  0.00    -0.001 C 
ATOM      9  C   UNL     1     197.456 209.575 215.148  1.00  0.00     0.011 C 
ATOM     10  C   UNL     1     197.384 208.266 213.110  1.00  0.00    -0.024 C 
ATOM     11  C   UNL     1     198.972 207.489 215.031  1.00  0.00     0.016 C 
ATOM     12  C   UNL     1     196.321 210.114 214.256  1.00  0.00     0.005 C 
ATOM     13  C   UNL     1     198.392 209.182 212.349  1.00  0.00     0.012 C 
ATOM     14  C   UNL     1     197.328 206.932 212.301  1.00  0.00     0.012 C 
ENDBRANCH   1   5
TORSDOF 2
ENDMDL
MODEL 9
REMARK VINA RESULT:    -3.606      8.205     10.025
REMARK INTER + INTRA:          -4.314
REMARK INTER:                  -4.061
REMARK INTRA:                  -0.253
REMARK UNBOUND:                -0.286
REMARK SMILES CC(=O)O[C@H]1C[C@H]2CC[C@]1(C)C2(C)C
REMARK SMILES IDX 4 1 2 2 1 3 3 4 5 5 6 6 10 7 7 8 9 9 12 10 11 11 8 12 13 13
REMARK SMILES IDX 14 14
REMARK H PARENT
REMARK Flexibility Score: inf
ROOT
ATOM      1  O   UNL     1     196.498 207.999 216.055  1.00  0.00    -0.462 OA
ENDROOT
BRANCH   1   2
ATOM      2  C   UNL     1     196.337 208.839 214.948  1.00  0.00     0.302 C 
ATOM      3  C   UNL     1     197.520 209.180 214.109  1.00  0.00     0.139 C 
ATOM      4  O   UNL     1     195.199 209.277 214.630  1.00  0.00    -0.253 OA
ENDBRANCH   1   2
BRANCH   1   5
ATOM      5  C   UNL     1     195.605 206.926 216.358  1.00  0.00     0.183 C 
ATOM      6  C   UNL     1     195.588 205.857 215.238  1.00  0.00     0.050 C 
ATOM      7  C   UNL     1     196.077 206.101 217.592  1.00  0.00     0.010 C 
ATOM      8  C   UNL     1     196.006 204.566 215.985  1.00  0.00    -0.001 C 
ATOM      9  C   UNL     1     197.578 205.757 217.379  1.00  0.00     0.011 C 
ATOM     10  C   UNL     1     195.379 204.737 217.379  1.00  0.00    -0.024 C 
ATOM     11  C   UNL     1     195.796 206.794 218.932  1.00  0.00     0.016 C 
ATOM     12  C   UNL     1     197.524 204.700 216.257  1.00  0.00     0.005 C 
ATOM     13  C   UNL     1     195.773 203.616 218.390  1.00  0.00     0.012 C 
ATOM     14  C   UNL     1     193.819 204.769 217.365  1.00  0.00     0.012 C 
ENDBRANCH   1   5
TORSDOF 2
ENDMDL
