MODEL 1
REMARK VINA RESULT:    -4.543      0.000      0.000
REMARK INTER + INTRA:          -7.636
REMARK INTER:                  -6.933
REMARK INTRA:                  -0.703
REMARK UNBOUND:                -0.703
REMARK SMILES CCCCCCCCCCC(=O)[O-]
REMARK SMILES IDX 7 1 8 2 9 3 10 4 11 5 12 6 13 7 6 8 5 9 4 10 3 11 2 12 1 13
REMARK H PARENT
REMARK Flexibility Score: inf
ROOT
ATOM      1  C   UNL     1      -2.267  -0.418   7.672  1.00  0.00     0.000 C 
ENDROOT
BRANCH   1   2
ATOM      2  C   UNL     1      -1.918  -1.352   8.842  1.00  0.00     0.000 C 
BRANCH   2   3
ATOM      3  C   UNL     1      -0.432  -1.743   8.865  1.00  0.00     0.006 C 
BRANCH   3   4
ATOM      4  C   UNL     1      -0.152  -2.951   9.767  1.00  0.00     0.053 C 
BRANCH   4   5
ATOM      5  C   UNL     1       1.320  -3.189   9.879  1.00  0.00     0.041 C 
ATOM      6  O   UNL     1       2.121  -2.217   9.879  1.00  0.00    -0.550 OA
ATOM      7  O   UNL     1       1.806  -4.481  10.033  1.00  0.00    -0.550 OA
ENDBRANCH   4   5
ENDBRANCH   3   4
ENDBRANCH   2   3
ENDBRANCH   1   2
BRANCH   1   8
ATOM      8  C   UNL     1      -2.095   1.052   8.074  1.00  0.00     0.000 C 
BRANCH   8   9
ATOM      9  C   UNL     1      -1.539   1.879   6.904  1.00  0.00    -0.000 C 
BRANCH   9  10
ATOM     10  C   UNL     1      -1.590   1.123   5.567  1.00  0.00    -0.000 C 
BRANCH  10  11
ATOM     11  C   UNL     1      -0.476   1.552   4.601  1.00  0.00    -0.000 C 
BRANCH  11  12
ATOM     12  C   UNL     1       0.898   1.106   5.116  1.00  0.00    -0.003 C 
ATOM     13  C   UNL     1       0.853  -0.329   5.635  1.00  0.00     0.004 C 
ENDBRANCH  11  12
ENDBRANCH  10  11
ENDBRANCH   9  10
ENDBRANCH   8   9
ENDBRANCH   1   8
TORSDOF 9
ENDMDL
MODEL 2
REMARK VINA RESULT:    -4.533     15.892     17.444
REMARK INTER + INTRA:          -7.621
REMARK INTER:                  -7.105
REMARK INTRA:                  -0.516
REMARK UNBOUND:                -0.703
REMARK SMILES CCCCCCCCCCC(=O)[O-]
REMARK SMILES IDX 7 1 8 2 9 3 10 4 11 5 12 6 13 7 6 8 5 9 4 10 3 11 2 12 1 13
REMARK H PARENT
REMARK Flexibility Score: inf
ROOT
ATOM      1  C   UNL     1      -5.857  -6.407  -7.254  1.00  0.00     0.000 C 
ENDROOT
BRANCH   1   2
ATOM      2  C   UNL     1      -6.493  -6.282  -8.647  1.00  0.00     0.000 C 
BRANCH   2   3
ATOM      3  C   UNL     1      -6.591  -4.824  -9.124  1.00  0.00     0.006 C 
BRANCH   3   4
ATOM      4  C   UNL     1      -6.054  -3.827  -8.090  1.00  0.00     0.053 C 
BRANCH   4   5
ATOM      5  C   UNL     1      -6.584  -2.455  -8.365  1.00  0.00     0.041 C 
ATOM      6  O   UNL     1      -6.351  -1.513  -7.562  1.00  0.00    -0.550 OA
ATOM      7  O   UNL     1      -7.293  -2.204  -9.533  1.00  0.00    -0.550 OA
ENDBRANCH   4   5
ENDBRANCH   3   4
ENDBRANCH   2   3
ENDBRANCH   1   2
BRANCH   1   8
ATOM      8  C   UNL     1      -6.731  -7.261  -6.327  1.00  0.00     0.000 C 
BRANCH   8   9
ATOM      9  C   UNL     1      -7.699  -6.381  -5.521  1.00  0.00    -0.000 C 
BRANCH   9  10
ATOM     10  C   UNL     1      -8.088  -7.010  -4.174  1.00  0.00    -0.000 C 
BRANCH  10  11
ATOM     11  C   UNL     1      -7.321  -8.308  -3.881  1.00  0.00    -0.000 C 
BRANCH  11  12
ATOM     12  C   UNL     1      -6.381  -8.131  -2.683  1.00  0.00    -0.003 C 
ATOM     13  C   UNL     1      -6.621  -9.210  -1.630  1.00  0.00     0.004 C 
ENDBRANCH  11  12
ENDBRANCH  10  11
ENDBRANCH   9  10
ENDBRANCH   8   9
ENDBRANCH   1   8
TORSDOF 9
ENDMDL
MODEL 3
REMARK VINA RESULT:    -4.520      0.862      1.486
REMARK INTER + INTRA:          -7.601
REMARK INTER:                  -6.822
REMARK INTRA:                  -0.779
REMARK UNBOUND:                -0.703
REMARK SMILES CCCCCCCCCCC(=O)[O-]
REMARK SMILES IDX 7 1 8 2 9 3 10 4 11 5 12 6 13 7 6 8 5 9 4 10 3 11 2 12 1 13
REMARK H PARENT
REMARK Flexibility Score: inf
ROOT
ATOM      1  C   UNL     1      -2.082   0.056   8.446  1.00  0.00     0.000 C 
ENDROOT
BRANCH   1   2
ATOM      2  C   UNL     1      -1.613  -0.978   9.483  1.00  0.00     0.000 C 
BRANCH   2   3
ATOM      3  C   UNL     1      -0.253  -1.597   9.128  1.00  0.00     0.006 C 
BRANCH   3   4
ATOM      4  C   UNL     1      -0.076  -3.007   9.706  1.00  0.00     0.053 C 
BRANCH   4   5
ATOM      5  C   UNL     1       1.371  -3.293   9.953  1.00  0.00     0.041 C 
ATOM      6  O   UNL     1       1.785  -4.481   9.997  1.00  0.00    -0.550 OA
ATOM      7  O   UNL     1       2.274  -2.245  10.085  1.00  0.00    -0.550 OA
ENDBRANCH   4   5
ENDBRANCH   3   4
ENDBRANCH   2   3
ENDBRANCH   1   2
BRANCH   1   8
ATOM      8  C   UNL     1      -2.267  -0.593   7.069  1.00  0.00     0.000 C 
BRANCH   8   9
ATOM      9  C   UNL     1      -2.585   0.465   6.002  1.00  0.00    -0.000 C 
BRANCH   9  10
ATOM     10  C   UNL     1      -1.552   1.602   5.968  1.00  0.00    -0.000 C 
BRANCH  10  11
ATOM     11  C   UNL     1      -0.400   1.328   4.989  1.00  0.00    -0.000 C 
BRANCH  11  12
ATOM     12  C   UNL     1       0.958   1.541   5.667  1.00  0.00    -0.003 C 
ATOM     13  C   UNL     1       0.788   2.061   7.092  1.00  0.00     0.004 C 
ENDBRANCH  11  12
ENDBRANCH  10  11
ENDBRANCH   9  10
ENDBRANCH   8   9
ENDBRANCH   1   8
TORSDOF 9
ENDMDL
MODEL 4
REMARK VINA RESULT:    -4.482      0.751      1.154
REMARK INTER + INTRA:          -7.543
REMARK INTER:                  -6.811
REMARK INTRA:                  -0.733
REMARK UNBOUND:                -0.703
REMARK SMILES CCCCCCCCCCC(=O)[O-]
REMARK SMILES IDX 7 1 8 2 9 3 10 4 11 5 12 6 13 7 6 8 5 9 4 10 3 11 2 12 1 13
REMARK H PARENT
REMARK Flexibility Score: inf
ROOT
ATOM      1  C   UNL     1      -2.282  -0.659   7.714  1.00  0.00     0.000 C 
ENDROOT
BRANCH   1   2
ATOM      2  C   UNL     1      -1.348  -1.838   8.029  1.00  0.00     0.000 C 
BRANCH   2   3
ATOM      3  C   UNL     1      -0.588  -1.655   9.352  1.00  0.00     0.006 C 
BRANCH   3   4
ATOM      4  C   UNL     1      -0.187  -2.990   9.993  1.00  0.00     0.053 C 
BRANCH   4   5
ATOM      5  C   UNL     1       1.294  -3.184   9.910  1.00  0.00     0.041 C 
ATOM      6  O   UNL     1       2.058  -2.190   9.790  1.00  0.00    -0.550 OA
ATOM      7  O   UNL     1       1.835  -4.459  10.014  1.00  0.00    -0.550 OA
ENDBRANCH   4   5
ENDBRANCH   3   4
ENDBRANCH   2   3
ENDBRANCH   1   2
BRANCH   1   8
ATOM      8  C   UNL     1      -2.130   0.455   8.757  1.00  0.00     0.000 C 
BRANCH   8   9
ATOM      9  C   UNL     1      -2.006   1.829   8.079  1.00  0.00    -0.000 C 
BRANCH   9  10
ATOM     10  C   UNL     1      -1.342   1.749   6.696  1.00  0.00    -0.000 C 
BRANCH  10  11
ATOM     11  C   UNL     1       0.182   1.932   6.759  1.00  0.00    -0.000 C 
BRANCH  11  12
ATOM     12  C   UNL     1       0.868   1.229   5.581  1.00  0.00    -0.003 C 
ATOM     13  C   UNL     1       0.220   1.616   4.255  1.00  0.00     0.004 C 
ENDBRANCH  11  12
ENDBRANCH  10  11
ENDBRANCH   9  10
ENDBRANCH   8   9
ENDBRANCH   1   8
TORSDOF 9
ENDMDL
MODEL 5
REMARK VINA RESULT:    -4.478     14.833     15.847
REMARK INTER + INTRA:          -7.537
REMARK INTER:                  -7.074
REMARK INTRA:                  -0.464
REMARK UNBOUND:                -0.703
REMARK SMILES CCCCCCCCCCC(=O)[O-]
REMARK SMILES IDX 7 1 8 2 9 3 10 4 11 5 12 6 13 7 6 8 5 9 4 10 3 11 2 12 1 13
REMARK H PARENT
REMARK Flexibility Score: inf
ROOT
ATOM      1  C   UNL     1      -7.805  -6.288  -5.164  1.00  0.00     0.000 C 
ENDROOT
BRANCH   1   2
ATOM      2  C   UNL     1      -8.769  -6.949  -4.166  1.00  0.00     0.000 C 
BRANCH   2   3
ATOM      3  C   UNL     1      -8.346  -8.378  -3.791  1.00  0.00     0.006 C 
BRANCH   3   4
ATOM      4  C   UNL     1      -8.123  -8.551  -2.284  1.00  0.00     0.053 C 
BRANCH   4   5
ATOM      5  C   UNL     1      -6.667  -8.722  -1.988  1.00  0.00     0.041 C 
ATOM      6  O   UNL     1      -5.808  -8.054  -2.622  1.00  0.00    -0.550 OA
ATOM      7  O   UNL     1      -6.259  -9.585  -0.977  1.00  0.00    -0.550 OA
ENDBRANCH   4   5
ENDBRANCH   3   4
ENDBRANCH   2   3
ENDBRANCH   1   2
BRANCH   1   8
ATOM      8  C   UNL     1      -7.351  -7.289  -6.234  1.00  0.00     0.000 C 
BRANCH   8   9
ATOM      9  C   UNL     1      -6.168  -6.732  -7.040  1.00  0.00    -0.000 C 
BRANCH   9  10
ATOM     10  C   UNL     1      -6.603  -5.703  -8.096  1.00  0.00    -0.000 C 
BRANCH  10  11
ATOM     11  C   UNL     1      -5.958  -4.326  -7.882  1.00  0.00    -0.000 C 
BRANCH  11  12
ATOM     12  C   UNL     1      -6.736  -3.234  -8.625  1.00  0.00    -0.003 C 
ATOM     13  C   UNL     1      -6.407  -1.849  -8.074  1.00  0.00     0.004 C 
ENDBRANCH  11  12
ENDBRANCH  10  11
ENDBRANCH   9  10
ENDBRANCH   8   9
ENDBRANCH   1   8
TORSDOF 9
ENDMDL
MODEL 6
REMARK VINA RESULT:    -4.391      2.422      5.045
REMARK INTER + INTRA:          -7.405
REMARK INTER:                  -6.552
REMARK INTRA:                  -0.853
REMARK UNBOUND:                -0.703
REMARK SMILES CCCCCCCCCCC(=O)[O-]
REMARK SMILES IDX 7 1 8 2 9 3 10 4 11 5 12 6 13 7 6 8 5 9 4 10 3 11 2 12 1 13
REMARK H PARENT
REMARK Flexibility Score: inf
ROOT
ATOM      1  C   UNL     1      -2.372   0.445   6.126  1.00  0.00     0.000 C 
ENDROOT
BRANCH   1   2
ATOM      2  C   UNL     1      -1.377   1.144   5.188  1.00  0.00     0.000 C 
BRANCH   2   3
ATOM      3  C   UNL     1       0.064   0.642   5.371  1.00  0.00     0.006 C 
BRANCH   3   4
ATOM      4  C   UNL     1       1.090   1.782   5.380  1.00  0.00     0.053 C 
BRANCH   4   5
ATOM      5  C   UNL     1       1.196   2.377   6.748  1.00  0.00     0.041 C 
ATOM      6  O   UNL     1       1.025   1.658   7.768  1.00  0.00    -0.550 OA
ATOM      7  O   UNL     1       1.533   3.717   6.900  1.00  0.00    -0.550 OA
ENDBRANCH   4   5
ENDBRANCH   3   4
ENDBRANCH   2   3
ENDBRANCH   1   2
BRANCH   1   8
ATOM      8  C   UNL     1      -2.204   0.936   7.569  1.00  0.00     0.000 C 
BRANCH   8   9
ATOM      9  C   UNL     1      -2.205  -0.243   8.555  1.00  0.00    -0.000 C 
BRANCH   9  10
ATOM     10  C   UNL     1      -1.581  -1.514   7.959  1.00  0.00    -0.000 C 
BRANCH  10  11
ATOM     11  C   UNL     1      -0.099  -1.676   8.328  1.00  0.00    -0.000 C 
BRANCH  11  12
ATOM     12  C   UNL     1       0.057  -2.148   9.778  1.00  0.00    -0.003 C 
ATOM     13  C   UNL     1      -0.025  -3.669   9.875  1.00  0.00     0.004 C 
ENDBRANCH  11  12
ENDBRANCH  10  11
ENDBRANCH   9  10
ENDBRANCH   8   9
ENDBRANCH   1   8
TORSDOF 9
ENDMDL
MODEL 7
REMARK VINA RESULT:    -4.390      3.366      5.286
REMARK INTER + INTRA:          -7.402
REMARK INTER:                  -6.296
REMARK INTRA:                  -1.106
REMARK UNBOUND:                -0.703
REMARK SMILES CCCCCCCCCCC(=O)[O-]
REMARK SMILES IDX 7 1 8 2 9 3 10 4 11 5 12 6 13 7 6 8 5 9 4 10 3 11 2 12 1 13
REMARK H PARENT
REMARK Flexibility Score: inf
ROOT
ATOM      1  C   UNL     1      -0.125  -1.442   8.594  1.00  0.00     0.000 C 
ENDROOT
BRANCH   1   2
ATOM      2  C   UNL     1       0.594  -1.161   7.265  1.00  0.00     0.000 C 
BRANCH   2   3
ATOM      3  C   UNL     1      -0.242  -0.293   6.312  1.00  0.00     0.006 C 
BRANCH   3   4
ATOM      4  C   UNL     1       0.593   0.308   5.174  1.00  0.00     0.053 C 
BRANCH   4   5
ATOM      5  C   UNL     1      -0.047   1.560   4.662  1.00  0.00     0.041 C 
ATOM      6  O   UNL     1      -1.143   1.954   5.142  1.00  0.00    -0.550 OA
ATOM      7  O   UNL     1       0.591   2.319   3.689  1.00  0.00    -0.550 OA
ENDBRANCH   4   5
ENDBRANCH   3   4
ENDBRANCH   2   3
ENDBRANCH   1   2
BRANCH   1   8
ATOM      8  C   UNL     1      -1.510  -2.054   8.350  1.00  0.00     0.000 C 
BRANCH   8   9
ATOM      9  C   UNL     1      -2.615  -1.164   8.938  1.00  0.00    -0.000 C 
BRANCH   9  10
ATOM     10  C   UNL     1      -2.065  -0.076   9.873  1.00  0.00    -0.000 C 
BRANCH  10  11
ATOM     11  C   UNL     1      -2.770   1.276   9.688  1.00  0.00    -0.000 C 
BRANCH  11  12
ATOM     12  C   UNL     1      -2.149   2.065   8.529  1.00  0.00    -0.003 C 
ATOM     13  C   UNL     1      -0.660   2.305   8.760  1.00  0.00     0.004 C 
ENDBRANCH  11  12
ENDBRANCH  10  11
ENDBRANCH   9  10
ENDBRANCH   8   9
ENDBRANCH   1   8
TORSDOF 9
ENDMDL
MODEL 8
REMARK VINA RESULT:    -4.307      2.631      5.412
REMARK INTER + INTRA:          -7.277
REMARK INTER:                  -6.518
REMARK INTRA:                  -0.759
REMARK UNBOUND:                -0.703
REMARK SMILES CCCCCCCCCCC(=O)[O-]
REMARK SMILES IDX 7 1 8 2 9 3 10 4 11 5 12 6 13 7 6 8 5 9 4 10 3 11 2 12 1 13
REMARK H PARENT
REMARK Flexibility Score: inf
ROOT
ATOM      1  C   UNL     1      -2.115   0.001   6.676  1.00  0.00     0.000 C 
ENDROOT
BRANCH   1   2
ATOM      2  C   UNL     1      -1.999   1.311   5.882  1.00  0.00     0.000 C 
BRANCH   2   3
ATOM      3  C   UNL     1      -0.717   1.381   5.039  1.00  0.00     0.006 C 
BRANCH   3   4
ATOM      4  C   UNL     1       0.532   0.965   5.826  1.00  0.00     0.053 C 
BRANCH   4   5
ATOM      5  C   UNL     1       0.863   1.992   6.862  1.00  0.00     0.041 C 
ATOM      6  O   UNL     1       0.902   1.676   8.080  1.00  0.00    -0.550 OA
ATOM      7  O   UNL     1       1.177   3.290   6.478  1.00  0.00    -0.550 OA
ENDBRANCH   4   5
ENDBRANCH   3   4
ENDBRANCH   2   3
ENDBRANCH   1   2
BRANCH   1   8
ATOM      8  C   UNL     1      -2.351   0.281   8.166  1.00  0.00     0.000 C 
BRANCH   8   9
ATOM      9  C   UNL     1      -1.639  -0.763   9.041  1.00  0.00    -0.000 C 
BRANCH   9  10
ATOM     10  C   UNL     1      -1.494  -2.123   8.341  1.00  0.00    -0.000 C 
BRANCH  10  11
ATOM     11  C   UNL     1      -1.294  -3.280   9.330  1.00  0.00    -0.000 C 
BRANCH  11  12
ATOM     12  C   UNL     1      -2.244  -4.442   9.014  1.00  0.00    -0.003 C 
ATOM     13  C   UNL     1      -3.700  -3.988   9.045  1.00  0.00     0.004 C 
ENDBRANCH  11  12
ENDBRANCH  10  11
ENDBRANCH   9  10
ENDBRANCH   8   9
ENDBRANCH   1   8
TORSDOF 9
ENDMDL
MODEL 9
REMARK VINA RESULT:    -4.195      3.071      5.111
REMARK INTER + INTRA:          -7.105
REMARK INTER:                  -5.921
REMARK INTRA:                  -1.184
REMARK UNBOUND:                -0.703
REMARK SMILES CCCCCCCCCCC(=O)[O-]
REMARK SMILES IDX 7 1 8 2 9 3 10 4 11 5 12 6 13 7 6 8 5 9 4 10 3 11 2 12 1 13
REMARK H PARENT
REMARK Flexibility Score: inf
ROOT
ATOM      1  C   UNL     1      -1.675   2.125   8.474  1.00  0.00     0.000 C 
ENDROOT
BRANCH   1   2
ATOM      2  C   UNL     1      -0.164   2.395   8.542  1.00  0.00     0.000 C 
BRANCH   2   3
ATOM      3  C   UNL     1       0.521   2.277   7.172  1.00  0.00     0.006 C 
BRANCH   3   4
ATOM      4  C   UNL     1      -0.437   1.804   6.071  1.00  0.00     0.053 C 
BRANCH   4   5
ATOM      5  C   UNL     1       0.324   1.453   4.832  1.00  0.00     0.041 C 
ATOM      6  O   UNL     1       0.866   0.321   4.720  1.00  0.00    -0.550 OA
ATOM      7  O   UNL     1       0.396   2.357   3.780  1.00  0.00    -0.550 OA
ENDBRANCH   4   5
ENDBRANCH   3   4
ENDBRANCH   2   3
ENDBRANCH   1   2
BRANCH   1   8
ATOM      8  C   UNL     1      -2.253   1.883   9.874  1.00  0.00     0.000 C 
BRANCH   8   9
ATOM      9  C   UNL     1      -2.833   0.465   9.991  1.00  0.00    -0.000 C 
BRANCH   9  10
ATOM     10  C   UNL     1      -1.791  -0.627   9.700  1.00  0.00    -0.000 C 
BRANCH  10  11
ATOM     11  C   UNL     1      -2.160  -1.488   8.482  1.00  0.00    -0.000 C 
BRANCH  11  12
ATOM     12  C   UNL     1      -1.020  -1.506   7.458  1.00  0.00    -0.003 C 
ATOM     13  C   UNL     1       0.339  -1.391   8.142  1.00  0.00     0.004 C 
ENDBRANCH  11  12
ENDBRANCH  10  11
ENDBRANCH   9  10
ENDBRANCH   8   9
ENDBRANCH   1   8
TORSDOF 9
ENDMDL
