MODEL 1
REMARK VINA RESULT:    -5.126      0.000      0.000
REMARK INTER + INTRA:          -5.126
REMARK INTER:                  -5.126
REMARK INTRA:                   0.000
REMARK UNBOUND:                 0.000
REMARK SMILES C=C1[C@@H]2CC[C@@H](C2)C1(C)C
REMARK SMILES IDX 9 1 8 2 6 3 5 4 4 5 3 6 7 7 2 8 1 9 10 10
REMARK H PARENT
REMARK Flexibility Score: inf
ROOT
ATOM      1  C   UNL     1       2.100  11.853   4.016  1.00  0.00     0.016 C 
ATOM      2  C   UNL     1       1.398  13.160   4.452  1.00  0.00    -0.012 C 
ATOM      3  C   UNL     1      -0.159  13.028   4.595  1.00  0.00    -0.001 C 
ATOM      4  C   UNL     1      -0.540  11.780   5.428  1.00  0.00     0.005 C 
ATOM      5  C   UNL     1      -0.041  12.146   6.843  1.00  0.00     0.008 C 
ATOM      6  C   UNL     1       0.461  13.591   6.668  1.00  0.00     0.015 C 
ATOM      7  C   UNL     1      -0.490  14.113   5.614  1.00  0.00     0.012 C 
ATOM      8  C   UNL     1       1.739  13.532   5.876  1.00  0.00    -0.068 C 
ATOM      9  C   UNL     1       2.965  13.725   6.375  1.00  0.00     0.008 C 
ATOM     10  C   UNL     1       1.777  14.287   3.467  1.00  0.00     0.016 C 
ENDROOT
TORSDOF 0
ENDMDL
MODEL 2
REMARK VINA RESULT:    -5.115      2.251      3.601
REMARK INTER + INTRA:          -5.115
REMARK INTER:                  -5.115
REMARK INTRA:                   0.000
REMARK UNBOUND:                 0.000
REMARK SMILES C=C1[C@@H]2CC[C@@H](C2)C1(C)C
REMARK SMILES IDX 9 1 8 2 6 3 5 4 4 5 3 6 7 7 2 8 1 9 10 10
REMARK H PARENT
REMARK Flexibility Score: inf
ROOT
ATOM      1  C   UNL     1       1.709  13.048   1.167  1.00  0.00     0.016 C 
ATOM      2  C   UNL     1       1.701  13.654   2.589  1.00  0.00    -0.012 C 
ATOM      3  C   UNL     1       1.914  12.600   3.731  1.00  0.00    -0.001 C 
ATOM      4  C   UNL     1       3.123  11.682   3.426  1.00  0.00     0.005 C 
ATOM      5  C   UNL     1       4.324  12.645   3.546  1.00  0.00     0.008 C 
ATOM      6  C   UNL     1       3.667  13.958   4.008  1.00  0.00     0.015 C 
ATOM      7  C   UNL     1       2.522  13.441   4.848  1.00  0.00     0.012 C 
ATOM      8  C   UNL     1       2.912  14.523   2.836  1.00  0.00    -0.068 C 
ATOM      9  C   UNL     1       3.292  15.581   2.111  1.00  0.00     0.008 C 
ATOM     10  C   UNL     1       0.389  14.443   2.792  1.00  0.00     0.016 C 
ENDROOT
TORSDOF 0
ENDMDL
MODEL 3
REMARK VINA RESULT:    -5.110      1.788      3.543
REMARK INTER + INTRA:          -5.110
REMARK INTER:                  -5.110
REMARK INTRA:                   0.000
REMARK UNBOUND:                 0.000
REMARK SMILES C=C1[C@@H]2CC[C@@H](C2)C1(C)C
REMARK SMILES IDX 9 1 8 2 6 3 5 4 4 5 3 6 7 7 2 8 1 9 10 10
REMARK H PARENT
REMARK Flexibility Score: inf
ROOT
ATOM      1  C   UNL     1       2.465  15.259   2.256  1.00  0.00     0.016 C 
ATOM      2  C   UNL     1       2.129  13.764   2.463  1.00  0.00    -0.012 C 
ATOM      3  C   UNL     1       3.311  12.922   3.059  1.00  0.00    -0.001 C 
ATOM      4  C   UNL     1       3.928  13.623   4.294  1.00  0.00     0.005 C 
ATOM      5  C   UNL     1       2.800  13.523   5.344  1.00  0.00     0.008 C 
ATOM      6  C   UNL     1       1.728  12.688   4.620  1.00  0.00     0.015 C 
ATOM      7  C   UNL     1       2.582  11.782   3.762  1.00  0.00     0.012 C 
ATOM      8  C   UNL     1       1.113  13.564   3.562  1.00  0.00    -0.068 C 
ATOM      9  C   UNL     1      -0.107  14.109   3.627  1.00  0.00     0.008 C 
ATOM     10  C   UNL     1       1.637  13.171   1.124  1.00  0.00     0.016 C 
ENDROOT
TORSDOF 0
ENDMDL
MODEL 4
REMARK VINA RESULT:    -4.895      1.281      3.401
REMARK INTER + INTRA:          -4.895
REMARK INTER:                  -4.895
REMARK INTRA:                   0.000
REMARK UNBOUND:                 0.000
REMARK SMILES C=C1[C@@H]2CC[C@@H](C2)C1(C)C
REMARK SMILES IDX 9 1 8 2 6 3 5 4 4 5 3 6 7 7 2 8 1 9 10 10
REMARK H PARENT
REMARK Flexibility Score: inf
ROOT
ATOM      1  C   UNL     1       0.295  14.226   4.362  1.00  0.00     0.016 C 
ATOM      2  C   UNL     1       1.180  12.964   4.484  1.00  0.00    -0.012 C 
ATOM      3  C   UNL     1       1.980  12.619   3.179  1.00  0.00    -0.001 C 
ATOM      4  C   UNL     1       2.707  13.868   2.623  1.00  0.00     0.005 C 
ATOM      5  C   UNL     1       3.788  14.140   3.691  1.00  0.00     0.008 C 
ATOM      6  C   UNL     1       3.618  12.958   4.663  1.00  0.00     0.015 C 
ATOM      7  C   UNL     1       3.184  11.857   3.722  1.00  0.00     0.012 C 
ATOM      8  C   UNL     1       2.341  13.182   5.426  1.00  0.00    -0.068 C 
ATOM      9  C   UNL     1       2.265  13.563   6.706  1.00  0.00     0.008 C 
ATOM     10  C   UNL     1       0.302  11.776   4.934  1.00  0.00     0.016 C 
ENDROOT
TORSDOF 0
ENDMDL
MODEL 5
REMARK VINA RESULT:    -4.718      1.307      3.550
REMARK INTER + INTRA:          -4.718
REMARK INTER:                  -4.718
REMARK INTRA:                   0.000
REMARK UNBOUND:                 0.000
REMARK SMILES C=C1[C@@H]2CC[C@@H](C2)C1(C)C
REMARK SMILES IDX 9 1 8 2 6 3 5 4 4 5 3 6 7 7 2 8 1 9 10 10
REMARK H PARENT
REMARK Flexibility Score: inf
ROOT
ATOM      1  C   UNL     1       0.421  11.797   4.880  1.00  0.00     0.016 C 
ATOM      2  C   UNL     1       1.339  13.040   4.917  1.00  0.00    -0.012 C 
ATOM      3  C   UNL     1       2.871  12.699   4.930  1.00  0.00    -0.001 C 
ATOM      4  C   UNL     1       3.223  11.667   3.832  1.00  0.00     0.005 C 
ATOM      5  C   UNL     1       3.006  12.466   2.528  1.00  0.00     0.008 C 
ATOM      6  C   UNL     1       2.665  13.876   3.041  1.00  0.00     0.015 C 
ATOM      7  C   UNL     1       3.492  13.944   4.305  1.00  0.00     0.012 C 
ATOM      8  C   UNL     1       1.279  13.822   3.625  1.00  0.00    -0.068 C 
ATOM      9  C   UNL     1       0.182  14.334   3.057  1.00  0.00     0.008 C 
ATOM     10  C   UNL     1       0.949  13.917   6.127  1.00  0.00     0.016 C 
ENDROOT
TORSDOF 0
ENDMDL
MODEL 6
REMARK VINA RESULT:    -4.580      1.344      2.869
REMARK INTER + INTRA:          -4.580
REMARK INTER:                  -4.580
REMARK INTRA:                   0.000
REMARK UNBOUND:                 0.000
REMARK SMILES C=C1[C@@H]2CC[C@@H](C2)C1(C)C
REMARK SMILES IDX 9 1 8 2 6 3 5 4 4 5 3 6 7 7 2 8 1 9 10 10
REMARK H PARENT
REMARK Flexibility Score: inf
ROOT
ATOM      1  C   UNL     1       4.005  14.187   3.937  1.00  0.00     0.016 C 
ATOM      2  C   UNL     1       2.884  13.151   3.692  1.00  0.00    -0.012 C 
ATOM      3  C   UNL     1       2.451  12.366   4.980  1.00  0.00    -0.001 C 
ATOM      4  C   UNL     1       2.193  13.331   6.163  1.00  0.00     0.005 C 
ATOM      5  C   UNL     1       0.924  14.089   5.715  1.00  0.00     0.008 C 
ATOM      6  C   UNL     1       0.555  13.393   4.393  1.00  0.00     0.015 C 
ATOM      7  C   UNL     1       1.012  11.977   4.662  1.00  0.00     0.012 C 
ATOM      8  C   UNL     1       1.568  13.814   3.362  1.00  0.00    -0.068 C 
ATOM      9  C   UNL     1       1.339  14.674   2.364  1.00  0.00     0.008 C 
ATOM     10  C   UNL     1       3.328  12.186   2.570  1.00  0.00     0.016 C 
ENDROOT
TORSDOF 0
ENDMDL
MODEL 7
REMARK VINA RESULT:    -4.338      2.131      3.710
REMARK INTER + INTRA:          -4.338
REMARK INTER:                  -4.338
REMARK INTRA:                   0.000
REMARK UNBOUND:                 0.000
REMARK SMILES C=C1[C@@H]2CC[C@@H](C2)C1(C)C
REMARK SMILES IDX 9 1 8 2 6 3 5 4 4 5 3 6 7 7 2 8 1 9 10 10
REMARK H PARENT
REMARK Flexibility Score: inf
ROOT
ATOM      1  C   UNL     1       2.506  13.452   5.398  1.00  0.00     0.016 C 
ATOM      2  C   UNL     1       2.799  13.036   3.939  1.00  0.00    -0.012 C 
ATOM      3  C   UNL     1       1.515  12.885   3.050  1.00  0.00    -0.001 C 
ATOM      4  C   UNL     1       0.585  14.114   3.198  1.00  0.00     0.005 C 
ATOM      5  C   UNL     1       1.400  15.242   2.529  1.00  0.00     0.008 C 
ATOM      6  C   UNL     1       2.637  14.501   1.989  1.00  0.00     0.015 C 
ATOM      7  C   UNL     1       2.050  13.150   1.647  1.00  0.00     0.012 C 
ATOM      8  C   UNL     1       3.495  14.134   3.170  1.00  0.00    -0.068 C 
ATOM      9  C   UNL     1       4.647  14.729   3.500  1.00  0.00     0.008 C 
ATOM     10  C   UNL     1       3.632  11.735   3.945  1.00  0.00     0.016 C 
ENDROOT
TORSDOF 0
ENDMDL
MODEL 8
REMARK VINA RESULT:    -4.252      1.278      2.355
REMARK INTER + INTRA:          -4.252
REMARK INTER:                  -4.252
REMARK INTRA:                   0.000
REMARK UNBOUND:                 0.000
REMARK SMILES C=C1[C@@H]2CC[C@@H](C2)C1(C)C
REMARK SMILES IDX 9 1 8 2 6 3 5 4 4 5 3 6 7 7 2 8 1 9 10 10
REMARK H PARENT
REMARK Flexibility Score: inf
ROOT
ATOM      1  C   UNL     1       1.464  13.368   1.735  1.00  0.00     0.016 C 
ATOM      2  C   UNL     1       2.121  13.737   3.086  1.00  0.00    -0.012 C 
ATOM      3  C   UNL     1       1.120  14.331   4.138  1.00  0.00    -0.001 C 
ATOM      4  C   UNL     1      -0.153  13.457   4.255  1.00  0.00     0.005 C 
ATOM      5  C   UNL     1       0.380  12.160   4.902  1.00  0.00     0.008 C 
ATOM      6  C   UNL     1       1.859  12.493   5.173  1.00  0.00     0.015 C 
ATOM      7  C   UNL     1       1.784  13.975   5.464  1.00  0.00     0.012 C 
ATOM      8  C   UNL     1       2.569  12.512   3.846  1.00  0.00    -0.068 C 
ATOM      9  C   UNL     1       3.407  11.566   3.408  1.00  0.00     0.008 C 
ATOM     10  C   UNL     1       3.298  14.702   2.825  1.00  0.00     0.016 C 
ENDROOT
TORSDOF 0
ENDMDL
MODEL 9
REMARK VINA RESULT:    -4.228      1.812      3.661
REMARK INTER + INTRA:          -4.228
REMARK INTER:                  -4.228
REMARK INTRA:                   0.000
REMARK UNBOUND:                 0.000
REMARK SMILES C=C1[C@@H]2CC[C@@H](C2)C1(C)C
REMARK SMILES IDX 9 1 8 2 6 3 5 4 4 5 3 6 7 7 2 8 1 9 10 10
REMARK H PARENT
REMARK Flexibility Score: inf
ROOT
ATOM      1  C   UNL     1       3.086  11.920   3.020  1.00  0.00     0.016 C 
ATOM      2  C   UNL     1       2.888  13.452   3.086  1.00  0.00    -0.012 C 
ATOM      3  C   UNL     1       2.684  14.128   1.685  1.00  0.00    -0.001 C 
ATOM      4  C   UNL     1       1.620  13.374   0.851  1.00  0.00     0.005 C 
ATOM      5  C   UNL     1       0.314  13.659   1.623  1.00  0.00     0.008 C 
ATOM      6  C   UNL     1       0.772  14.623   2.732  1.00  0.00     0.015 C 
ATOM      7  C   UNL     1       1.882  15.377   2.035  1.00  0.00     0.012 C 
ATOM      8  C   UNL     1       1.570  13.822   3.725  1.00  0.00    -0.068 C 
ATOM      9  C   UNL     1       1.147  13.460   4.941  1.00  0.00     0.008 C 
ATOM     10  C   UNL     1       4.079  14.080   3.844  1.00  0.00     0.016 C 
ENDROOT
TORSDOF 0
ENDMDL
