MODEL 1
REMARK VINA RESULT:    -6.027      0.000      0.000
REMARK INTER + INTRA:          -9.287
REMARK INTER:                  -8.493
REMARK INTRA:                  -0.794
REMARK UNBOUND:                -0.794
REMARK SMILES COc1ccc(-c2cc(=O)c3c(OC)c(OC)c(OC)c(OC)c3o2)cc1OC
REMARK SMILES IDX 7 1 8 2 9 3 10 4 11 5 24 6 25 7 21 8 18 9 15 10 12 11 6 12
REMARK SMILES IDX 3 13 27 14 4 15 26 16 5 17 2 18 1 19 28 20 29 21 22 22 23 23
REMARK SMILES IDX 13 24 14 25 19 26 20 27 16 28 17 29
REMARK H PARENT
REMARK Flexibility Score: inf
ROOT
ATOM      1  C   UNL     1       9.215 -40.151 -28.275  1.00  0.00     0.138 A 
ATOM      2  C   UNL     1       9.956 -41.333 -28.129  1.00  0.00     0.100 A 
ATOM      3  C   UNL     1       9.526 -42.493 -28.772  1.00  0.00     0.197 A 
ATOM      4  O   UNL     1      10.203 -43.549 -28.636  1.00  0.00    -0.289 OA
ATOM      5  C   UNL     1       8.359 -42.462 -29.567  1.00  0.00     0.115 A 
ATOM      6  C   UNL     1       7.672 -41.234 -29.672  1.00  0.00     0.188 A 
ATOM      7  O   UNL     1       8.123 -40.157 -29.035  1.00  0.00    -0.452 OA
ATOM      8  C   UNL     1       6.503 -41.124 -30.436  1.00  0.00     0.209 A 
ATOM      9  C   UNL     1       6.011 -42.251 -31.142  1.00  0.00     0.211 A 
ATOM     10  C   UNL     1       6.727 -43.476 -31.074  1.00  0.00     0.208 A 
ATOM     11  C   UNL     1       7.857 -43.596 -30.238  1.00  0.00     0.179 A 
ENDROOT
BRANCH   1  12
ATOM     12  C   UNL     1       9.621 -38.882 -27.618  1.00  0.00     0.021 A 
ATOM     13  C   UNL     1      10.441 -36.502 -26.338  1.00  0.00     0.160 A 
ATOM     14  C   UNL     1      10.680 -37.742 -25.728  1.00  0.00     0.161 A 
ATOM     15  C   UNL     1       9.803 -36.456 -27.590  1.00  0.00     0.051 A 
ATOM     16  C   UNL     1      10.271 -38.926 -26.373  1.00  0.00     0.062 A 
ATOM     17  C   UNL     1       9.402 -37.633 -28.225  1.00  0.00     0.016 A 
BRANCH  13  18
ATOM     18  O   UNL     1      10.855 -35.339 -25.670  1.00  0.00    -0.493 OA
ATOM     19  C   UNL     1      12.159 -34.774 -25.764  1.00  0.00     0.278 C 
ENDBRANCH  13  18
BRANCH  14  20
ATOM     20  O   UNL     1      11.325 -37.758 -24.481  1.00  0.00    -0.493 OA
ATOM     21  C   UNL     1      12.672 -38.170 -24.273  1.00  0.00     0.278 C 
ENDBRANCH  14  20
ENDBRANCH   1  12
BRANCH   8  22
ATOM     22  O   UNL     1       5.886 -39.857 -30.451  1.00  0.00    -0.490 OA
ATOM     23  C   UNL     1       4.705 -39.468 -29.759  1.00  0.00     0.278 C 
ENDBRANCH   8  22
BRANCH  11  24
ATOM     24  O   UNL     1       8.479 -44.837 -30.062  1.00  0.00    -0.492 OA
ATOM     25  C   UNL     1       7.910 -45.869 -29.265  1.00  0.00     0.278 C 
ENDBRANCH  11  24
BRANCH   9  26
ATOM     26  O   UNL     1       4.832 -42.106 -31.897  1.00  0.00    -0.490 OA
ATOM     27  C   UNL     1       4.720 -41.665 -33.246  1.00  0.00     0.279 C 
ENDBRANCH   9  26
BRANCH  10  28
ATOM     28  O   UNL     1       6.324 -44.566 -31.851  1.00  0.00    -0.490 OA
ATOM     29  C   UNL     1       6.801 -44.779 -33.176  1.00  0.00     0.278 C 
ENDBRANCH  10  28
TORSDOF 7
ENDMDL
MODEL 2
REMARK VINA RESULT:    -5.951      1.305      3.770
REMARK INTER + INTRA:          -9.180
REMARK INTER:                  -8.321
REMARK INTRA:                  -0.859
REMARK UNBOUND:                -0.794
REMARK SMILES COc1ccc(-c2cc(=O)c3c(OC)c(OC)c(OC)c(OC)c3o2)cc1OC
REMARK SMILES IDX 7 1 8 2 9 3 10 4 11 5 24 6 25 7 21 8 18 9 15 10 12 11 6 12
REMARK SMILES IDX 3 13 27 14 4 15 26 16 5 17 2 18 1 19 28 20 29 21 22 22 23 23
REMARK SMILES IDX 13 24 14 25 19 26 20 27 16 28 17 29
REMARK H PARENT
REMARK Flexibility Score: inf
ROOT
ATOM      1  C   UNL     1       9.027 -39.905 -28.344  1.00  0.00     0.138 A 
ATOM      2  C   UNL     1       7.811 -39.916 -29.044  1.00  0.00     0.100 A 
ATOM      3  C   UNL     1       7.383 -41.095 -29.652  1.00  0.00     0.197 A 
ATOM      4  O   UNL     1       6.287 -41.093 -30.276  1.00  0.00    -0.289 OA
ATOM      5  C   UNL     1       8.171 -42.262 -29.548  1.00  0.00     0.115 A 
ATOM      6  C   UNL     1       9.377 -42.176 -28.821  1.00  0.00     0.188 A 
ATOM      7  O   UNL     1       9.741 -41.024 -28.263  1.00  0.00    -0.452 OA
ATOM      8  C   UNL     1      10.216 -43.288 -28.679  1.00  0.00     0.209 A 
ATOM      9  C   UNL     1       9.842 -44.533 -29.246  1.00  0.00     0.211 A 
ATOM     10  C   UNL     1       8.607 -44.634 -29.939  1.00  0.00     0.208 A 
ATOM     11  C   UNL     1       7.809 -43.488 -30.145  1.00  0.00     0.179 A 
ENDROOT
BRANCH   1  12
ATOM     12  C   UNL     1       9.536 -38.682 -27.673  1.00  0.00     0.021 A 
ATOM     13  C   UNL     1      10.547 -36.394 -26.362  1.00  0.00     0.160 A 
ATOM     14  C   UNL     1      10.650 -37.652 -25.752  1.00  0.00     0.161 A 
ATOM     15  C   UNL     1       9.948 -36.285 -27.631  1.00  0.00     0.051 A 
ATOM     16  C   UNL     1      10.147 -38.790 -26.411  1.00  0.00     0.062 A 
ATOM     17  C   UNL     1       9.453 -37.417 -28.280  1.00  0.00     0.016 A 
BRANCH  13  18
ATOM     18  O   UNL     1      11.053 -35.276 -25.679  1.00  0.00    -0.493 OA
ATOM     19  C   UNL     1      12.376 -34.770 -25.829  1.00  0.00     0.278 C 
ENDBRANCH  13  18
BRANCH  14  20
ATOM     20  O   UNL     1      11.259 -37.731 -24.489  1.00  0.00    -0.493 OA
ATOM     21  C   UNL     1      12.589 -38.183 -24.260  1.00  0.00     0.278 C 
ENDBRANCH  14  20
ENDBRANCH   1  12
BRANCH   8  22
ATOM     22  O   UNL     1      11.406 -43.081 -27.952  1.00  0.00    -0.490 OA
ATOM     23  C   UNL     1      12.707 -42.857 -28.482  1.00  0.00     0.278 C 
ENDBRANCH   8  22
BRANCH  11  24
ATOM     24  O   UNL     1       6.664 -43.558 -30.946  1.00  0.00    -0.492 OA
ATOM     25  C   UNL     1       6.730 -43.661 -32.364  1.00  0.00     0.278 C 
ENDBRANCH  11  24
BRANCH   9  26
ATOM     26  O   UNL     1      10.711 -45.628 -29.087  1.00  0.00    -0.490 OA
ATOM     27  C   UNL     1      10.790 -46.512 -27.973  1.00  0.00     0.279 C 
ENDBRANCH   9  26
BRANCH  10  28
ATOM     28  O   UNL     1       8.167 -45.875 -30.407  1.00  0.00    -0.490 OA
ATOM     29  C   UNL     1       7.418 -46.776 -29.598  1.00  0.00     0.278 C 
ENDBRANCH  10  28
TORSDOF 7
ENDMDL
MODEL 3
REMARK VINA RESULT:    -5.781      1.228      2.077
REMARK INTER + INTRA:          -8.941
REMARK INTER:                  -8.085
REMARK INTRA:                  -0.856
REMARK UNBOUND:                -0.794
REMARK SMILES COc1ccc(-c2cc(=O)c3c(OC)c(OC)c(OC)c(OC)c3o2)cc1OC
REMARK SMILES IDX 7 1 8 2 9 3 10 4 11 5 24 6 25 7 21 8 18 9 15 10 12 11 6 12
REMARK SMILES IDX 3 13 27 14 4 15 26 16 5 17 2 18 1 19 28 20 29 21 22 22 23 23
REMARK SMILES IDX 13 24 14 25 19 26 20 27 16 28 17 29
REMARK H PARENT
REMARK Flexibility Score: inf
ROOT
ATOM      1  C   UNL     1       9.483 -40.782 -27.981  1.00  0.00     0.138 A 
ATOM      2  C   UNL     1      10.195 -41.921 -27.575  1.00  0.00     0.100 A 
ATOM      3  C   UNL     1       9.871 -43.161 -28.124  1.00  0.00     0.197 A 
ATOM      4  O   UNL     1      10.521 -44.177 -27.753  1.00  0.00    -0.289 OA
ATOM      5  C   UNL     1       8.840 -43.254 -29.084  1.00  0.00     0.115 A 
ATOM      6  C   UNL     1       8.175 -42.064 -29.448  1.00  0.00     0.188 A 
ATOM      7  O   UNL     1       8.521 -40.906 -28.892  1.00  0.00    -0.452 OA
ATOM      8  C   UNL     1       7.138 -42.076 -30.389  1.00  0.00     0.209 A 
ATOM      9  C   UNL     1       6.763 -43.293 -31.013  1.00  0.00     0.211 A 
ATOM     10  C   UNL     1       7.462 -44.483 -30.682  1.00  0.00     0.208 A 
ATOM     11  C   UNL     1       8.450 -44.474 -29.674  1.00  0.00     0.179 A 
ENDROOT
BRANCH   1  12
ATOM     12  C   UNL     1       9.782 -39.433 -27.437  1.00  0.00     0.021 A 
ATOM     13  C   UNL     1      10.306 -36.842 -26.444  1.00  0.00     0.160 A 
ATOM     14  C   UNL     1       9.810 -37.005 -27.745  1.00  0.00     0.161 A 
ATOM     15  C   UNL     1      10.529 -37.974 -25.639  1.00  0.00     0.051 A 
ATOM     16  C   UNL     1       9.547 -38.299 -28.234  1.00  0.00     0.062 A 
ATOM     17  C   UNL     1      10.265 -39.254 -26.129  1.00  0.00     0.016 A 
BRANCH  13  18
ATOM     18  O   UNL     1      10.563 -35.540 -25.985  1.00  0.00    -0.493 OA
ATOM     19  C   UNL     1      11.862 -35.011 -25.742  1.00  0.00     0.278 C 
ENDBRANCH  13  18
BRANCH  14  20
ATOM     20  O   UNL     1       9.591 -35.856 -28.523  1.00  0.00    -0.493 OA
ATOM     21  C   UNL     1       9.373 -35.862 -29.929  1.00  0.00     0.278 C 
ENDBRANCH  14  20
ENDBRANCH   1  12
BRANCH   8  22
ATOM     22  O   UNL     1       6.528 -40.834 -30.659  1.00  0.00    -0.490 OA
ATOM     23  C   UNL     1       5.280 -40.364 -30.164  1.00  0.00     0.278 C 
ENDBRANCH   8  22
BRANCH  11  24
ATOM     24  O   UNL     1       9.039 -45.670 -29.250  1.00  0.00    -0.492 OA
ATOM     25  C   UNL     1       8.363 -46.597 -28.407  1.00  0.00     0.278 C 
ENDBRANCH  11  24
BRANCH   9  26
ATOM     26  O   UNL     1       5.714 -43.268 -31.951  1.00  0.00    -0.490 OA
ATOM     27  C   UNL     1       5.811 -43.011 -33.348  1.00  0.00     0.279 C 
ENDBRANCH   9  26
BRANCH  10  28
ATOM     28  O   UNL     1       7.184 -45.671 -31.367  1.00  0.00    -0.490 OA
ATOM     29  C   UNL     1       7.884 -46.054 -32.546  1.00  0.00     0.278 C 
ENDBRANCH  10  28
TORSDOF 7
ENDMDL
MODEL 4
REMARK VINA RESULT:    -5.435      5.353      9.675
REMARK INTER + INTRA:          -8.454
REMARK INTER:                  -7.618
REMARK INTRA:                  -0.836
REMARK UNBOUND:                -0.794
REMARK SMILES COc1ccc(-c2cc(=O)c3c(OC)c(OC)c(OC)c(OC)c3o2)cc1OC
REMARK SMILES IDX 7 1 8 2 9 3 10 4 11 5 24 6 25 7 21 8 18 9 15 10 12 11 6 12
REMARK SMILES IDX 3 13 27 14 4 15 26 16 5 17 2 18 1 19 28 20 29 21 22 22 23 23
REMARK SMILES IDX 13 24 14 25 19 26 20 27 16 28 17 29
REMARK H PARENT
REMARK Flexibility Score: inf
ROOT
ATOM      1  C   UNL     1       2.825 -41.177 -32.869  1.00  0.00     0.138 A 
ATOM      2  C   UNL     1       1.809 -41.430 -31.936  1.00  0.00     0.100 A 
ATOM      3  C   UNL     1       0.790 -40.494 -31.764  1.00  0.00     0.197 A 
ATOM      4  O   UNL     1      -0.120 -40.735 -30.924  1.00  0.00    -0.289 OA
ATOM      5  C   UNL     1       0.789 -39.311 -32.535  1.00  0.00     0.115 A 
ATOM      6  C   UNL     1       1.840 -39.130 -33.458  1.00  0.00     0.188 A 
ATOM      7  O   UNL     1       2.790 -40.054 -33.581  1.00  0.00    -0.452 OA
ATOM      8  C   UNL     1       1.912 -37.981 -34.254  1.00  0.00     0.209 A 
ATOM      9  C   UNL     1       0.902 -36.990 -34.158  1.00  0.00     0.211 A 
ATOM     10  C   UNL     1      -0.181 -37.191 -33.263  1.00  0.00     0.208 A 
ATOM     11  C   UNL     1      -0.201 -38.314 -32.409  1.00  0.00     0.179 A 
ENDROOT
BRANCH   1  12
ATOM     12  C   UNL     1       3.935 -42.135 -33.101  1.00  0.00     0.021 A 
ATOM     13  C   UNL     1       6.049 -43.970 -33.478  1.00  0.00     0.160 A 
ATOM     14  C   UNL     1       5.891 -43.330 -32.240  1.00  0.00     0.161 A 
ATOM     15  C   UNL     1       5.144 -43.699 -34.520  1.00  0.00     0.051 A 
ATOM     16  C   UNL     1       4.834 -42.418 -32.057  1.00  0.00     0.062 A 
ATOM     17  C   UNL     1       4.096 -42.796 -34.331  1.00  0.00     0.016 A 
BRANCH  13  18
ATOM     18  O   UNL     1       7.115 -44.870 -33.633  1.00  0.00    -0.493 OA
ATOM     19  C   UNL     1       8.319 -44.583 -34.336  1.00  0.00     0.278 C 
ENDBRANCH  13  18
BRANCH  14  20
ATOM     20  O   UNL     1       6.806 -43.625 -31.216  1.00  0.00    -0.493 OA
ATOM     21  C   UNL     1       7.791 -42.721 -30.728  1.00  0.00     0.278 C 
ENDBRANCH  14  20
ENDBRANCH   1  12
BRANCH   8  22
ATOM     22  O   UNL     1       3.018 -37.894 -35.125  1.00  0.00    -0.490 OA
ATOM     23  C   UNL     1       4.250 -37.226 -34.883  1.00  0.00     0.278 C 
ENDBRANCH   8  22
BRANCH  11  24
ATOM     24  O   UNL     1      -1.193 -38.441 -31.430  1.00  0.00    -0.492 OA
ATOM     25  C   UNL     1      -1.225 -37.622 -30.266  1.00  0.00     0.278 C 
ENDBRANCH  11  24
BRANCH   9  26
ATOM     26  O   UNL     1       1.008 -35.845 -34.970  1.00  0.00    -0.490 OA
ATOM     27  C   UNL     1       1.545 -34.577 -34.608  1.00  0.00     0.279 C 
ENDBRANCH   9  26
BRANCH  10  28
ATOM     28  O   UNL     1      -1.244 -36.283 -33.235  1.00  0.00    -0.490 OA
ATOM     29  C   UNL     1      -2.389 -36.420 -34.070  1.00  0.00     0.278 C 
ENDBRANCH  10  28
TORSDOF 7
ENDMDL
MODEL 5
REMARK VINA RESULT:    -5.391      4.043      8.363
REMARK INTER + INTRA:          -8.391
REMARK INTER:                  -7.595
REMARK INTRA:                  -0.796
REMARK UNBOUND:                -0.794
REMARK SMILES COc1ccc(-c2cc(=O)c3c(OC)c(OC)c(OC)c(OC)c3o2)cc1OC
REMARK SMILES IDX 7 1 8 2 9 3 10 4 11 5 24 6 25 7 21 8 18 9 15 10 12 11 6 12
REMARK SMILES IDX 3 13 27 14 4 15 26 16 5 17 2 18 1 19 28 20 29 21 22 22 23 23
REMARK SMILES IDX 13 24 14 25 19 26 20 27 16 28 17 29
REMARK H PARENT
REMARK Flexibility Score: inf
ROOT
ATOM      1  C   UNL     1       3.290 -41.476 -32.539  1.00  0.00     0.138 A 
ATOM      2  C   UNL     1       3.413 -42.298 -33.669  1.00  0.00     0.100 A 
ATOM      3  C   UNL     1       4.583 -43.033 -33.855  1.00  0.00     0.197 A 
ATOM      4  O   UNL     1       4.681 -43.771 -34.873  1.00  0.00    -0.289 OA
ATOM      5  C   UNL     1       5.623 -42.947 -32.903  1.00  0.00     0.115 A 
ATOM      6  C   UNL     1       5.422 -42.105 -31.789  1.00  0.00     0.188 A 
ATOM      7  O   UNL     1       4.287 -41.423 -31.660  1.00  0.00    -0.452 OA
ATOM      8  C   UNL     1       6.409 -41.962 -30.805  1.00  0.00     0.209 A 
ATOM      9  C   UNL     1       7.620 -42.692 -30.907  1.00  0.00     0.211 A 
ATOM     10  C   UNL     1       7.805 -43.576 -32.003  1.00  0.00     0.208 A 
ATOM     11  C   UNL     1       6.839 -43.650 -33.029  1.00  0.00     0.179 A 
ENDROOT
BRANCH   1  12
ATOM     12  C   UNL     1       2.068 -40.672 -32.282  1.00  0.00     0.021 A 
ATOM     13  C   UNL     1      -0.248 -39.114 -31.852  1.00  0.00     0.160 A 
ATOM     14  C   UNL     1       0.751 -38.656 -32.723  1.00  0.00     0.161 A 
ATOM     15  C   UNL     1      -0.091 -40.354 -31.206  1.00  0.00     0.051 A 
ATOM     16  C   UNL     1       1.903 -39.439 -32.936  1.00  0.00     0.062 A 
ATOM     17  C   UNL     1       1.052 -41.126 -31.423  1.00  0.00     0.016 A 
BRANCH  13  18
ATOM     18  O   UNL     1      -1.382 -38.310 -31.655  1.00  0.00    -0.493 OA
ATOM     19  C   UNL     1      -1.623 -37.524 -30.493  1.00  0.00     0.278 C 
ENDBRANCH  13  18
BRANCH  14  20
ATOM     20  O   UNL     1       0.563 -37.418 -33.359  1.00  0.00    -0.493 OA
ATOM     21  C   UNL     1       0.684 -37.204 -34.761  1.00  0.00     0.278 C 
ENDBRANCH  14  20
ENDBRANCH   1  12
BRANCH   8  22
ATOM     22  O   UNL     1       6.111 -41.077 -29.749  1.00  0.00    -0.490 OA
ATOM     23  C   UNL     1       6.573 -39.740 -29.593  1.00  0.00     0.278 C 
ENDBRANCH   8  22
BRANCH  11  24
ATOM     24  O   UNL     1       7.083 -44.413 -34.177  1.00  0.00    -0.492 OA
ATOM     25  C   UNL     1       8.088 -44.066 -35.123  1.00  0.00     0.278 C 
ENDBRANCH  11  24
BRANCH   9  26
ATOM     26  O   UNL     1       8.591 -42.521 -29.902  1.00  0.00    -0.490 OA
ATOM     27  C   UNL     1       8.653 -43.180 -28.641  1.00  0.00     0.279 C 
ENDBRANCH   9  26
BRANCH  10  28
ATOM     28  O   UNL     1       8.940 -44.389 -32.063  1.00  0.00    -0.490 OA
ATOM     29  C   UNL     1       8.977 -45.694 -31.493  1.00  0.00     0.278 C 
ENDBRANCH  10  28
TORSDOF 7
ENDMDL
MODEL 6
REMARK VINA RESULT:    -5.385      2.597      4.707
REMARK INTER + INTRA:          -8.382
REMARK INTER:                  -7.805
REMARK INTRA:                  -0.577
REMARK UNBOUND:                -0.794
REMARK SMILES COc1ccc(-c2cc(=O)c3c(OC)c(OC)c(OC)c(OC)c3o2)cc1OC
REMARK SMILES IDX 7 1 8 2 9 3 10 4 11 5 24 6 25 7 21 8 18 9 15 10 12 11 6 12
REMARK SMILES IDX 3 13 27 14 4 15 26 16 5 17 2 18 1 19 28 20 29 21 22 22 23 23
REMARK SMILES IDX 13 24 14 25 19 26 20 27 16 28 17 29
REMARK H PARENT
REMARK Flexibility Score: inf
ROOT
ATOM      1  C   UNL     1       8.341 -37.045 -29.977  1.00  0.00     0.138 A 
ATOM      2  C   UNL     1       8.215 -36.237 -31.117  1.00  0.00     0.100 A 
ATOM      3  C   UNL     1       7.439 -36.681 -32.187  1.00  0.00     0.197 A 
ATOM      4  O   UNL     1       7.330 -35.944 -33.205  1.00  0.00    -0.289 OA
ATOM      5  C   UNL     1       6.784 -37.930 -32.106  1.00  0.00     0.115 A 
ATOM      6  C   UNL     1       6.952 -38.681 -30.924  1.00  0.00     0.188 A 
ATOM      7  O   UNL     1       7.707 -38.213 -29.934  1.00  0.00    -0.452 OA
ATOM      8  C   UNL     1       6.340 -39.932 -30.771  1.00  0.00     0.209 A 
ATOM      9  C   UNL     1       5.514 -40.446 -31.803  1.00  0.00     0.211 A 
ATOM     10  C   UNL     1       5.307 -39.670 -32.974  1.00  0.00     0.208 A 
ATOM     11  C   UNL     1       5.992 -38.449 -33.151  1.00  0.00     0.179 A 
ENDROOT
BRANCH   1  12
ATOM     12  C   UNL     1       9.150 -36.627 -28.804  1.00  0.00     0.021 A 
ATOM     13  C   UNL     1      10.650 -35.869 -26.534  1.00  0.00     0.160 A 
ATOM     14  C   UNL     1       9.309 -36.253 -26.390  1.00  0.00     0.161 A 
ATOM     15  C   UNL     1      11.241 -35.876 -27.811  1.00  0.00     0.051 A 
ATOM     16  C   UNL     1       8.567 -36.633 -27.525  1.00  0.00     0.062 A 
ATOM     17  C   UNL     1      10.500 -36.255 -28.932  1.00  0.00     0.016 A 
BRANCH  13  18
ATOM     18  O   UNL     1      11.364 -35.491 -25.386  1.00  0.00    -0.493 OA
ATOM     19  C   UNL     1      12.680 -34.945 -25.396  1.00  0.00     0.278 C 
ENDBRANCH  13  18
BRANCH  14  20
ATOM     20  O   UNL     1       8.749 -36.243 -25.102  1.00  0.00    -0.493 OA
ATOM     21  C   UNL     1       7.408 -35.868 -24.807  1.00  0.00     0.278 C 
ENDBRANCH  14  20
ENDBRANCH   1  12
BRANCH   8  22
ATOM     22  O   UNL     1       6.596 -40.606 -29.560  1.00  0.00    -0.490 OA
ATOM     23  C   UNL     1       7.622 -41.559 -29.307  1.00  0.00     0.278 C 
ENDBRANCH   8  22
BRANCH  11  24
ATOM     24  O   UNL     1       5.898 -37.754 -34.362  1.00  0.00    -0.492 OA
ATOM     25  C   UNL     1       4.732 -37.027 -34.735  1.00  0.00     0.278 C 
ENDBRANCH  11  24
BRANCH   9  26
ATOM     26  O   UNL     1       4.919 -41.708 -31.617  1.00  0.00    -0.490 OA
ATOM     27  C   UNL     1       5.428 -42.972 -32.030  1.00  0.00     0.279 C 
ENDBRANCH   9  26
BRANCH  10  28
ATOM     28  O   UNL     1       4.408 -40.106 -33.952  1.00  0.00    -0.490 OA
ATOM     29  C   UNL     1       2.999 -40.114 -33.747  1.00  0.00     0.278 C 
ENDBRANCH  10  28
TORSDOF 7
ENDMDL
MODEL 7
REMARK VINA RESULT:    -5.351      4.056      7.350
REMARK INTER + INTRA:          -8.335
REMARK INTER:                  -7.500
REMARK INTRA:                  -0.835
REMARK UNBOUND:                -0.794
REMARK SMILES COc1ccc(-c2cc(=O)c3c(OC)c(OC)c(OC)c(OC)c3o2)cc1OC
REMARK SMILES IDX 7 1 8 2 9 3 10 4 11 5 24 6 25 7 21 8 18 9 15 10 12 11 6 12
REMARK SMILES IDX 3 13 27 14 4 15 26 16 5 17 2 18 1 19 28 20 29 21 22 22 23 23
REMARK SMILES IDX 13 24 14 25 19 26 20 27 16 28 17 29
REMARK H PARENT
REMARK Flexibility Score: inf
ROOT
ATOM      1  C   UNL     1       5.050 -42.261 -32.222  1.00  0.00     0.138 A 
ATOM      2  C   UNL     1       5.272 -42.680 -33.542  1.00  0.00     0.100 A 
ATOM      3  C   UNL     1       6.446 -43.363 -33.855  1.00  0.00     0.197 A 
ATOM      4  O   UNL     1       6.632 -43.737 -35.045  1.00  0.00    -0.289 OA
ATOM      5  C   UNL     1       7.391 -43.631 -32.841  1.00  0.00     0.115 A 
ATOM      6  C   UNL     1       7.095 -43.186 -31.536  1.00  0.00     0.188 A 
ATOM      7  O   UNL     1       5.961 -42.536 -31.291  1.00  0.00    -0.452 OA
ATOM      8  C   UNL     1       7.985 -43.408 -30.478  1.00  0.00     0.209 A 
ATOM      9  C   UNL     1       9.192 -44.116 -30.706  1.00  0.00     0.211 A 
ATOM     10  C   UNL     1       9.471 -44.606 -32.009  1.00  0.00     0.208 A 
ATOM     11  C   UNL     1       8.606 -44.306 -33.083  1.00  0.00     0.179 A 
ENDROOT
BRANCH   1  12
ATOM     12  C   UNL     1       3.819 -41.533 -31.824  1.00  0.00     0.021 A 
ATOM     13  C   UNL     1       1.514 -40.098 -31.048  1.00  0.00     0.160 A 
ATOM     14  C   UNL     1       2.749 -39.814 -30.448  1.00  0.00     0.161 A 
ATOM     15  C   UNL     1       1.437 -41.090 -32.042  1.00  0.00     0.051 A 
ATOM     16  C   UNL     1       3.896 -40.531 -30.841  1.00  0.00     0.062 A 
ATOM     17  C   UNL     1       2.578 -41.796 -32.428  1.00  0.00     0.016 A 
BRANCH  13  18
ATOM     18  O   UNL     1       0.387 -39.370 -30.633  1.00  0.00    -0.493 OA
ATOM     19  C   UNL     1      -0.646 -38.915 -31.503  1.00  0.00     0.278 C 
ENDBRANCH  13  18
BRANCH  14  20
ATOM     20  O   UNL     1       2.797 -38.813 -29.464  1.00  0.00    -0.493 OA
ATOM     21  C   UNL     1       3.713 -38.795 -28.375  1.00  0.00     0.278 C 
ENDBRANCH  14  20
ENDBRANCH   1  12
BRANCH   8  22
ATOM     22  O   UNL     1       7.599 -42.899 -29.221  1.00  0.00    -0.490 OA
ATOM     23  C   UNL     1       8.023 -41.681 -28.620  1.00  0.00     0.278 C 
ENDBRANCH   8  22
BRANCH  11  24
ATOM     24  O   UNL     1       8.950 -44.667 -34.391  1.00  0.00    -0.492 OA
ATOM     25  C   UNL     1       9.968 -43.996 -35.125  1.00  0.00     0.278 C 
ENDBRANCH  11  24
BRANCH   9  26
ATOM     26  O   UNL     1      10.065 -44.318 -29.620  1.00  0.00    -0.490 OA
ATOM     27  C   UNL     1      10.032 -45.380 -28.672  1.00  0.00     0.279 C 
ENDBRANCH   9  26
BRANCH  10  28
ATOM     28  O   UNL     1      10.598 -45.402 -32.232  1.00  0.00    -0.490 OA
ATOM     29  C   UNL     1      10.561 -46.823 -32.139  1.00  0.00     0.278 C 
ENDBRANCH  10  28
TORSDOF 7
ENDMDL
MODEL 8
REMARK VINA RESULT:    -5.345      3.839      7.629
REMARK INTER + INTRA:          -8.327
REMARK INTER:                  -7.485
REMARK INTRA:                  -0.842
REMARK UNBOUND:                -0.794
REMARK SMILES COc1ccc(-c2cc(=O)c3c(OC)c(OC)c(OC)c(OC)c3o2)cc1OC
REMARK SMILES IDX 7 1 8 2 9 3 10 4 11 5 24 6 25 7 21 8 18 9 15 10 12 11 6 12
REMARK SMILES IDX 3 13 27 14 4 15 26 16 5 17 2 18 1 19 28 20 29 21 22 22 23 23
REMARK SMILES IDX 13 24 14 25 19 26 20 27 16 28 17 29
REMARK H PARENT
REMARK Flexibility Score: inf
ROOT
ATOM      1  C   UNL     1       3.745 -41.493 -32.081  1.00  0.00     0.138 A 
ATOM      2  C   UNL     1       3.762 -42.250 -33.262  1.00  0.00     0.100 A 
ATOM      3  C   UNL     1       4.885 -43.017 -33.566  1.00  0.00     0.197 A 
ATOM      4  O   UNL     1       4.887 -43.696 -34.630  1.00  0.00    -0.289 OA
ATOM      5  C   UNL     1       5.985 -43.029 -32.681  1.00  0.00     0.115 A 
ATOM      6  C   UNL     1       5.892 -42.249 -31.510  1.00  0.00     0.188 A 
ATOM      7  O   UNL     1       4.797 -41.532 -31.268  1.00  0.00    -0.452 OA
ATOM      8  C   UNL     1       6.943 -42.204 -30.586  1.00  0.00     0.209 A 
ATOM      9  C   UNL     1       8.113 -42.974 -30.808  1.00  0.00     0.211 A 
ATOM     10  C   UNL     1       8.190 -43.796 -31.964  1.00  0.00     0.208 A 
ATOM     11  C   UNL     1       7.159 -43.771 -32.927  1.00  0.00     0.179 A 
ENDROOT
BRANCH   1  12
ATOM     12  C   UNL     1       2.578 -40.658 -31.699  1.00  0.00     0.021 A 
ATOM     13  C   UNL     1       0.392 -39.017 -30.987  1.00  0.00     0.160 A 
ATOM     14  C   UNL     1       1.695 -38.503 -30.946  1.00  0.00     0.161 A 
ATOM     15  C   UNL     1       0.184 -40.348 -31.395  1.00  0.00     0.051 A 
ATOM     16  C   UNL     1       2.782 -39.325 -31.304  1.00  0.00     0.062 A 
ATOM     17  C   UNL     1       1.264 -41.156 -31.752  1.00  0.00     0.016 A 
BRANCH  13  18
ATOM     18  O   UNL     1      -0.671 -38.177 -30.620  1.00  0.00    -0.493 OA
ATOM     19  C   UNL     1      -1.579 -37.576 -31.538  1.00  0.00     0.278 C 
ENDBRANCH  13  18
BRANCH  14  20
ATOM     20  O   UNL     1       1.872 -37.169 -30.542  1.00  0.00    -0.493 OA
ATOM     21  C   UNL     1       2.488 -36.769 -29.322  1.00  0.00     0.278 C 
ENDBRANCH  14  20
ENDBRANCH   1  12
BRANCH   8  22
ATOM     22  O   UNL     1       6.752 -41.373 -29.463  1.00  0.00    -0.490 OA
ATOM     23  C   UNL     1       7.294 -40.075 -29.253  1.00  0.00     0.278 C 
ENDBRANCH   8  22
BRANCH  11  24
ATOM     24  O   UNL     1       7.298 -44.472 -34.130  1.00  0.00    -0.492 OA
ATOM     25  C   UNL     1       8.246 -44.100 -35.125  1.00  0.00     0.278 C 
ENDBRANCH  11  24
BRANCH   9  26
ATOM     26  O   UNL     1       9.152 -42.902 -29.862  1.00  0.00    -0.490 OA
ATOM     27  C   UNL     1       9.297 -43.682 -28.679  1.00  0.00     0.279 C 
ENDBRANCH   9  26
BRANCH  10  28
ATOM     28  O   UNL     1       9.284 -44.648 -32.144  1.00  0.00    -0.490 OA
ATOM     29  C   UNL     1       9.290 -45.994 -31.679  1.00  0.00     0.278 C 
ENDBRANCH  10  28
TORSDOF 7
ENDMDL
MODEL 9
REMARK VINA RESULT:    -5.266      3.870      8.199
REMARK INTER + INTRA:          -8.216
REMARK INTER:                  -7.366
REMARK INTRA:                  -0.850
REMARK UNBOUND:                -0.794
REMARK SMILES COc1ccc(-c2cc(=O)c3c(OC)c(OC)c(OC)c(OC)c3o2)cc1OC
REMARK SMILES IDX 7 1 8 2 9 3 10 4 11 5 24 6 25 7 21 8 18 9 15 10 12 11 6 12
REMARK SMILES IDX 3 13 27 14 4 15 26 16 5 17 2 18 1 19 28 20 29 21 22 22 23 23
REMARK SMILES IDX 13 24 14 25 19 26 20 27 16 28 17 29
REMARK H PARENT
REMARK Flexibility Score: inf
ROOT
ATOM      1  C   UNL     1       6.649 -43.253 -32.926  1.00  0.00     0.138 A 
ATOM      2  C   UNL     1       5.450 -43.279 -33.653  1.00  0.00     0.100 A 
ATOM      3  C   UNL     1       4.395 -42.456 -33.261  1.00  0.00     0.197 A 
ATOM      4  O   UNL     1       3.322 -42.486 -33.924  1.00  0.00    -0.289 OA
ATOM      5  C   UNL     1       4.550 -41.602 -32.146  1.00  0.00     0.115 A 
ATOM      6  C   UNL     1       5.788 -41.626 -31.471  1.00  0.00     0.188 A 
ATOM      7  O   UNL     1       6.762 -42.433 -31.885  1.00  0.00    -0.452 OA
ATOM      8  C   UNL     1       6.016 -40.813 -30.354  1.00  0.00     0.209 A 
ATOM      9  C   UNL     1       5.003 -39.929 -29.903  1.00  0.00     0.211 A 
ATOM     10  C   UNL     1       3.773 -39.870 -30.610  1.00  0.00     0.208 A 
ATOM     11  C   UNL     1       3.525 -40.751 -31.684  1.00  0.00     0.179 A 
ENDROOT
BRANCH   1  12
ATOM     12  C   UNL     1       7.810 -44.102 -33.295  1.00  0.00     0.021 A 
ATOM     13  C   UNL     1      10.055 -45.664 -33.999  1.00  0.00     0.160 A 
ATOM     14  C   UNL     1       9.991 -44.318 -34.386  1.00  0.00     0.161 A 
ATOM     15  C   UNL     1       9.002 -46.223 -33.252  1.00  0.00     0.051 A 
ATOM     16  C   UNL     1       8.870 -43.543 -34.030  1.00  0.00     0.062 A 
ATOM     17  C   UNL     1       7.895 -45.449 -32.900  1.00  0.00     0.016 A 
BRANCH  13  18
ATOM     18  O   UNL     1      11.182 -46.414 -34.373  1.00  0.00    -0.493 OA
ATOM     19  C   UNL     1      12.095 -47.011 -33.457  1.00  0.00     0.278 C 
ENDBRANCH  13  18
BRANCH  14  20
ATOM     20  O   UNL     1      11.060 -43.786 -35.125  1.00  0.00    -0.493 OA
ATOM     21  C   UNL     1      12.110 -42.999 -34.574  1.00  0.00     0.278 C 
ENDBRANCH  14  20
ENDBRANCH   1  12
BRANCH   8  22
ATOM     22  O   UNL     1       7.281 -40.935 -29.742  1.00  0.00    -0.490 OA
ATOM     23  C   UNL     1       7.599 -41.673 -28.568  1.00  0.00     0.278 C 
ENDBRANCH   8  22
BRANCH  11  24
ATOM     24  O   UNL     1       2.264 -40.790 -32.290  1.00  0.00    -0.492 OA
ATOM     25  C   UNL     1       1.134 -41.386 -31.661  1.00  0.00     0.278 C 
ENDBRANCH  11  24
BRANCH   9  26
ATOM     26  O   UNL     1       5.265 -39.130 -28.775  1.00  0.00    -0.490 OA
ATOM     27  C   UNL     1       5.927 -37.869 -28.745  1.00  0.00     0.279 C 
ENDBRANCH   9  26
BRANCH  10  28
ATOM     28  O   UNL     1       2.805 -38.926 -30.253  1.00  0.00    -0.490 OA
ATOM     29  C   UNL     1       2.767 -37.620 -30.817  1.00  0.00     0.278 C 
ENDBRANCH  10  28
TORSDOF 7
ENDMDL
