MODEL 1
REMARK VINA RESULT:    -4.932      0.000      0.000
REMARK INTER + INTRA:         -15.062
REMARK INTER:                 -13.005
REMARK INTRA:                  -2.057
REMARK UNBOUND:                -2.057
REMARK SMILES CCCCCCCCCCCCCCCCCCCCCCCCCCCCCC(=O)[O-]
REMARK SMILES IDX 16 1 17 2 18 3 19 4 20 5 21 6 22 7 23 8 24 9 25 10 26 11
REMARK SMILES IDX 27 12 28 13 29 14 30 15 31 16 32 17 15 18 14 19 13 20 12 21
REMARK SMILES IDX 11 22 10 23 9 24 8 25 7 26 6 27 5 28 4 29 3 30 2 31 1 32
REMARK H PARENT
REMARK Flexibility Score: inf
ROOT
ATOM      1  C   UNL     1    -130.494 107.011  38.920  1.00  0.00     0.000 C 
ENDROOT
BRANCH   1   2
ATOM      2  C   UNL     1    -129.741 105.673  38.848  1.00  0.00     0.000 C 
BRANCH   2   3
ATOM      3  C   UNL     1    -129.023 105.320  40.163  1.00  0.00     0.000 C 
BRANCH   3   4
ATOM      4  C   UNL     1    -129.254 106.352  41.287  1.00  0.00     0.000 C 
BRANCH   4   5
ATOM      5  C   UNL     1    -127.948 107.017  41.747  1.00  0.00     0.000 C 
BRANCH   5   6
ATOM      6  C   UNL     1    -128.230 108.189  42.694  1.00  0.00     0.000 C 
BRANCH   6   7
ATOM      7  C   UNL     1    -129.732 108.511  42.742  1.00  0.00     0.000 C 
BRANCH   7   8
ATOM      8  C   UNL     1    -130.214 108.898  44.150  1.00  0.00     0.000 C 
BRANCH   8   9
ATOM      9  C   UNL     1    -129.834 110.319  44.607  1.00  0.00     0.000 C 
BRANCH   9  10
ATOM     10  C   UNL     1    -129.389 111.251  43.461  1.00  0.00     0.000 C 
BRANCH  10  11
ATOM     11  C   UNL     1    -129.034 112.664  43.952  1.00  0.00     0.000 C 
BRANCH  11  12
ATOM     12  C   UNL     1    -129.565 113.735  42.985  1.00  0.00     0.000 C 
BRANCH  12  13
ATOM     13  C   UNL     1    -129.556 115.144  43.600  1.00  0.00     0.006 C 
BRANCH  13  14
ATOM     14  C   UNL     1    -129.650 115.124  45.132  1.00  0.00     0.053 C 
BRANCH  14  15
ATOM     15  C   UNL     1    -130.201 116.412  45.669  1.00  0.00     0.041 C 
ATOM     16  O   UNL     1    -130.405 117.388  44.900  1.00  0.00    -0.550 OA
ATOM     17  O   UNL     1    -130.559 116.509  47.009  1.00  0.00    -0.550 OA
ENDBRANCH  14  15
ENDBRANCH  13  14
ENDBRANCH  12  13
ENDBRANCH  11  12
ENDBRANCH  10  11
ENDBRANCH   9  10
ENDBRANCH   8   9
ENDBRANCH   7   8
ENDBRANCH   6   7
ENDBRANCH   5   6
ENDBRANCH   4   5
ENDBRANCH   3   4
ENDBRANCH   2   3
ENDBRANCH   1   2
BRANCH   1  18
ATOM     18  C   UNL     1    -129.558 108.224  38.794  1.00  0.00     0.000 C 
BRANCH  18  19
ATOM     19  C   UNL     1    -130.237 109.542  39.212  1.00  0.00     0.000 C 
BRANCH  19  20
ATOM     20  C   UNL     1    -129.258 110.536  39.872  1.00  0.00     0.000 C 
BRANCH  20  21
ATOM     21  C   UNL     1    -129.150 111.889  39.144  1.00  0.00     0.000 C 
BRANCH  21  22
ATOM     22  C   UNL     1    -127.977 112.013  38.152  1.00  0.00     0.000 C 
BRANCH  22  23
ATOM     23  C   UNL     1    -128.036 113.242  37.226  1.00  0.00     0.000 C 
BRANCH  23  24
ATOM     24  C   UNL     1    -128.917 113.018  35.987  1.00  0.00    -0.000 C 
BRANCH  24  25
ATOM     25  C   UNL     1    -129.322 114.360  35.358  1.00  0.00    -0.000 C 
BRANCH  25  26
ATOM     26  C   UNL     1    -129.796 114.219  33.902  1.00  0.00    -0.000 C 
BRANCH  26  27
ATOM     27  C   UNL     1    -131.190 113.579  33.794  1.00  0.00    -0.000 C 
BRANCH  27  28
ATOM     28  C   UNL     1    -132.226 114.256  34.707  1.00  0.00    -0.000 C 
BRANCH  28  29
ATOM     29  C   UNL     1    -133.671 114.039  34.230  1.00  0.00    -0.000 C 
BRANCH  29  30
ATOM     30  C   UNL     1    -133.702 113.235  32.922  1.00  0.00    -0.000 C 
BRANCH  30  31
ATOM     31  C   UNL     1    -135.127 113.043  32.380  1.00  0.00    -0.003 C 
ATOM     32  C   UNL     1    -135.365 113.774  31.058  1.00  0.00     0.004 C 
ENDBRANCH  30  31
ENDBRANCH  29  30
ENDBRANCH  28  29
ENDBRANCH  27  28
ENDBRANCH  26  27
ENDBRANCH  25  26
ENDBRANCH  24  25
ENDBRANCH  23  24
ENDBRANCH  22  23
ENDBRANCH  21  22
ENDBRANCH  20  21
ENDBRANCH  19  20
ENDBRANCH  18  19
ENDBRANCH   1  18
TORSDOF 28
ENDMDL
MODEL 2
REMARK VINA RESULT:    -4.858      3.429      9.193
REMARK INTER + INTRA:         -14.867
REMARK INTER:                 -12.807
REMARK INTRA:                  -2.060
REMARK UNBOUND:                -2.057
REMARK SMILES CCCCCCCCCCCCCCCCCCCCCCCCCCCCCC(=O)[O-]
REMARK SMILES IDX 16 1 17 2 18 3 19 4 20 5 21 6 22 7 23 8 24 9 25 10 26 11
REMARK SMILES IDX 27 12 28 13 29 14 30 15 31 16 32 17 15 18 14 19 13 20 12 21
REMARK SMILES IDX 11 22 10 23 9 24 8 25 7 26 6 27 5 28 4 29 3 30 2 31 1 32
REMARK H PARENT
REMARK Flexibility Score: inf
ROOT
ATOM      1  C   UNL     1    -130.123 106.087  39.040  1.00  0.00     0.000 C 
ENDROOT
BRANCH   1   2
ATOM      2  C   UNL     1    -130.077 107.572  38.647  1.00  0.00     0.000 C 
BRANCH   2   3
ATOM      3  C   UNL     1    -131.385 108.317  38.971  1.00  0.00     0.000 C 
BRANCH   3   4
ATOM      4  C   UNL     1    -131.167 109.782  39.408  1.00  0.00     0.000 C 
BRANCH   4   5
ATOM      5  C   UNL     1    -129.678 110.143  39.516  1.00  0.00     0.000 C 
BRANCH   5   6
ATOM      6  C   UNL     1    -129.445 111.621  39.180  1.00  0.00     0.000 C 
BRANCH   6   7
ATOM      7  C   UNL     1    -128.200 111.797  38.296  1.00  0.00     0.000 C 
BRANCH   7   8
ATOM      8  C   UNL     1    -128.137 113.179  37.623  1.00  0.00     0.000 C 
BRANCH   8   9
ATOM      9  C   UNL     1    -128.309 113.171  36.092  1.00  0.00     0.000 C 
BRANCH   9  10
ATOM     10  C   UNL     1    -129.725 113.559  35.615  1.00  0.00     0.000 C 
BRANCH  10  11
ATOM     11  C   UNL     1    -129.714 114.298  34.268  1.00  0.00     0.000 C 
BRANCH  11  12
ATOM     12  C   UNL     1    -130.943 113.927  33.423  1.00  0.00     0.000 C 
BRANCH  12  13
ATOM     13  C   UNL     1    -132.025 113.201  34.239  1.00  0.00     0.006 C 
BRANCH  13  14
ATOM     14  C   UNL     1    -133.091 112.539  33.354  1.00  0.00     0.053 C 
BRANCH  14  15
ATOM     15  C   UNL     1    -134.209 113.486  33.035  1.00  0.00     0.041 C 
ATOM     16  O   UNL     1    -135.013 113.234  32.099  1.00  0.00    -0.550 OA
ATOM     17  O   UNL     1    -134.407 114.616  33.822  1.00  0.00    -0.550 OA
ENDBRANCH  14  15
ENDBRANCH  13  14
ENDBRANCH  12  13
ENDBRANCH  11  12
ENDBRANCH  10  11
ENDBRANCH   9  10
ENDBRANCH   8   9
ENDBRANCH   7   8
ENDBRANCH   6   7
ENDBRANCH   5   6
ENDBRANCH   4   5
ENDBRANCH   3   4
ENDBRANCH   2   3
ENDBRANCH   1   2
BRANCH   1  18
ATOM     18  C   UNL     1    -128.927 105.668  39.910  1.00  0.00     0.000 C 
BRANCH  18  19
ATOM     19  C   UNL     1    -129.052 106.156  41.365  1.00  0.00     0.000 C 
BRANCH  19  20
ATOM     20  C   UNL     1    -128.866 107.682  41.502  1.00  0.00     0.000 C 
BRANCH  20  21
ATOM     21  C   UNL     1    -129.025 108.207  42.942  1.00  0.00     0.000 C 
BRANCH  21  22
ATOM     22  C   UNL     1    -129.745 109.562  43.074  1.00  0.00     0.000 C 
BRANCH  22  23
ATOM     23  C   UNL     1    -128.824 110.766  43.349  1.00  0.00     0.000 C 
BRANCH  23  24
ATOM     24  C   UNL     1    -129.574 111.978  43.922  1.00  0.00    -0.000 C 
BRANCH  24  25
ATOM     25  C   UNL     1    -129.026 113.286  43.331  1.00  0.00    -0.000 C 
BRANCH  25  26
ATOM     26  C   UNL     1    -129.940 113.881  42.248  1.00  0.00    -0.000 C 
BRANCH  26  27
ATOM     27  C   UNL     1    -130.261 115.365  42.495  1.00  0.00    -0.000 C 
BRANCH  27  28
ATOM     28  C   UNL     1    -129.194 116.067  43.352  1.00  0.00    -0.000 C 
BRANCH  28  29
ATOM     29  C   UNL     1    -129.801 116.907  44.486  1.00  0.00    -0.000 C 
BRANCH  29  30
ATOM     30  C   UNL     1    -130.355 116.006  45.600  1.00  0.00    -0.000 C 
BRANCH  30  31
ATOM     31  C   UNL     1    -130.449 116.729  46.953  1.00  0.00    -0.003 C 
ATOM     32  C   UNL     1    -131.332 117.976  46.901  1.00  0.00     0.004 C 
ENDBRANCH  30  31
ENDBRANCH  29  30
ENDBRANCH  28  29
ENDBRANCH  27  28
ENDBRANCH  26  27
ENDBRANCH  25  26
ENDBRANCH  24  25
ENDBRANCH  23  24
ENDBRANCH  22  23
ENDBRANCH  21  22
ENDBRANCH  20  21
ENDBRANCH  19  20
ENDBRANCH  18  19
ENDBRANCH   1  18
TORSDOF 28
ENDMDL
MODEL 3
REMARK VINA RESULT:    -4.610      1.148      2.793
REMARK INTER + INTRA:         -14.214
REMARK INTER:                 -11.728
REMARK INTRA:                  -2.485
REMARK UNBOUND:                -2.057
REMARK SMILES CCCCCCCCCCCCCCCCCCCCCCCCCCCCCC(=O)[O-]
REMARK SMILES IDX 16 1 17 2 18 3 19 4 20 5 21 6 22 7 23 8 24 9 25 10 26 11
REMARK SMILES IDX 27 12 28 13 29 14 30 15 31 16 32 17 15 18 14 19 13 20 12 21
REMARK SMILES IDX 11 22 10 23 9 24 8 25 7 26 6 27 5 28 4 29 3 30 2 31 1 32
REMARK H PARENT
REMARK Flexibility Score: inf
ROOT
ATOM      1  C   UNL     1    -129.351 107.075  40.589  1.00  0.00     0.000 C 
ENDROOT
BRANCH   1   2
ATOM      2  C   UNL     1    -128.945 107.832  41.864  1.00  0.00     0.000 C 
BRANCH   2   3
ATOM      3  C   UNL     1    -130.129 108.079  42.815  1.00  0.00     0.000 C 
BRANCH   3   4
ATOM      4  C   UNL     1    -129.857 109.178  43.866  1.00  0.00     0.000 C 
BRANCH   4   5
ATOM      5  C   UNL     1    -129.352 110.481  43.228  1.00  0.00     0.000 C 
BRANCH   5   6
ATOM      6  C   UNL     1    -129.381 111.634  44.239  1.00  0.00     0.000 C 
BRANCH   6   7
ATOM      7  C   UNL     1    -129.104 112.980  43.551  1.00  0.00     0.000 C 
BRANCH   7   8
ATOM      8  C   UNL     1    -130.147 113.324  42.473  1.00  0.00     0.000 C 
BRANCH   8   9
ATOM      9  C   UNL     1    -130.196 114.807  42.058  1.00  0.00     0.000 C 
BRANCH   9  10
ATOM     10  C   UNL     1    -129.050 115.662  42.639  1.00  0.00     0.000 C 
BRANCH  10  11
ATOM     11  C   UNL     1    -129.351 117.169  42.584  1.00  0.00     0.000 C 
BRANCH  11  12
ATOM     12  C   UNL     1    -130.214 117.605  43.778  1.00  0.00     0.000 C 
BRANCH  12  13
ATOM     13  C   UNL     1    -129.432 117.613  45.102  1.00  0.00     0.006 C 
BRANCH  13  14
ATOM     14  C   UNL     1    -130.349 117.659  46.333  1.00  0.00     0.053 C 
BRANCH  14  15
ATOM     15  C   UNL     1    -130.853 116.294  46.697  1.00  0.00     0.041 C 
ATOM     16  O   UNL     1    -131.885 116.162  47.405  1.00  0.00    -0.550 OA
ATOM     17  O   UNL     1    -130.221 115.163  46.191  1.00  0.00    -0.550 OA
ENDBRANCH  14  15
ENDBRANCH  13  14
ENDBRANCH  12  13
ENDBRANCH  11  12
ENDBRANCH  10  11
ENDBRANCH   9  10
ENDBRANCH   8   9
ENDBRANCH   7   8
ENDBRANCH   6   7
ENDBRANCH   5   6
ENDBRANCH   4   5
ENDBRANCH   3   4
ENDBRANCH   2   3
ENDBRANCH   1   2
BRANCH   1  18
ATOM     18  C   UNL     1    -129.803 108.017  39.460  1.00  0.00     0.000 C 
BRANCH  18  19
ATOM     19  C   UNL     1    -128.978 109.316  39.406  1.00  0.00     0.000 C 
BRANCH  19  20
ATOM     20  C   UNL     1    -129.825 110.574  39.693  1.00  0.00     0.000 C 
BRANCH  20  21
ATOM     21  C   UNL     1    -129.099 111.900  39.397  1.00  0.00     0.000 C 
BRANCH  21  22
ATOM     22  C   UNL     1    -128.189 111.891  38.153  1.00  0.00     0.000 C 
BRANCH  22  23
ATOM     23  C   UNL     1    -128.298 113.141  37.259  1.00  0.00     0.000 C 
BRANCH  23  24
ATOM     24  C   UNL     1    -129.179 112.917  36.020  1.00  0.00    -0.000 C 
BRANCH  24  25
ATOM     25  C   UNL     1    -129.053 114.097  35.044  1.00  0.00    -0.000 C 
BRANCH  25  26
ATOM     26  C   UNL     1    -130.399 114.503  34.421  1.00  0.00    -0.000 C 
BRANCH  26  27
ATOM     27  C   UNL     1    -130.935 113.451  33.434  1.00  0.00    -0.000 C 
BRANCH  27  28
ATOM     28  C   UNL     1    -132.300 112.882  33.857  1.00  0.00    -0.000 C 
BRANCH  28  29
ATOM     29  C   UNL     1    -133.250 113.961  34.401  1.00  0.00    -0.000 C 
BRANCH  29  30
ATOM     30  C   UNL     1    -134.445 114.166  33.457  1.00  0.00    -0.000 C 
BRANCH  30  31
ATOM     31  C   UNL     1    -134.604 113.017  32.448  1.00  0.00    -0.003 C 
ATOM     32  C   UNL     1    -135.467 113.398  31.244  1.00  0.00     0.004 C 
ENDBRANCH  30  31
ENDBRANCH  29  30
ENDBRANCH  28  29
ENDBRANCH  27  28
ENDBRANCH  26  27
ENDBRANCH  25  26
ENDBRANCH  24  25
ENDBRANCH  23  24
ENDBRANCH  22  23
ENDBRANCH  21  22
ENDBRANCH  20  21
ENDBRANCH  19  20
ENDBRANCH  18  19
ENDBRANCH   1  18
TORSDOF 28
ENDMDL
MODEL 4
REMARK VINA RESULT:    -4.496      3.915      8.429
REMARK INTER + INTRA:         -13.913
REMARK INTER:                 -11.907
REMARK INTRA:                  -2.007
REMARK UNBOUND:                -2.057
REMARK SMILES CCCCCCCCCCCCCCCCCCCCCCCCCCCCCC(=O)[O-]
REMARK SMILES IDX 16 1 17 2 18 3 19 4 20 5 21 6 22 7 23 8 24 9 25 10 26 11
REMARK SMILES IDX 27 12 28 13 29 14 30 15 31 16 32 17 15 18 14 19 13 20 12 21
REMARK SMILES IDX 11 22 10 23 9 24 8 25 7 26 6 27 5 28 4 29 3 30 2 31 1 32
REMARK H PARENT
REMARK Flexibility Score: inf
ROOT
ATOM      1  C   UNL     1    -131.599 109.471  39.130  1.00  0.00     0.000 C 
ENDROOT
BRANCH   1   2
ATOM      2  C   UNL     1    -130.374 109.801  39.996  1.00  0.00     0.000 C 
BRANCH   2   3
ATOM      3  C   UNL     1    -129.452 110.852  39.352  1.00  0.00     0.000 C 
BRANCH   3   4
ATOM      4  C   UNL     1    -129.485 112.221  40.066  1.00  0.00     0.000 C 
BRANCH   4   5
ATOM      5  C   UNL     1    -130.281 112.175  41.379  1.00  0.00     0.000 C 
BRANCH   5   6
ATOM      6  C   UNL     1    -129.342 112.084  42.588  1.00  0.00     0.000 C 
BRANCH   6   7
ATOM      7  C   UNL     1    -129.486 113.318  43.493  1.00  0.00     0.000 C 
BRANCH   7   8
ATOM      8  C   UNL     1    -130.201 114.489  42.796  1.00  0.00     0.000 C 
BRANCH   8   9
ATOM      9  C   UNL     1    -129.271 115.566  42.204  1.00  0.00     0.000 C 
BRANCH   9  10
ATOM     10  C   UNL     1    -129.766 117.012  42.421  1.00  0.00     0.000 C 
BRANCH  10  11
ATOM     11  C   UNL     1    -128.656 117.945  42.933  1.00  0.00     0.000 C 
BRANCH  11  12
ATOM     12  C   UNL     1    -129.003 118.509  44.320  1.00  0.00     0.000 C 
BRANCH  12  13
ATOM     13  C   UNL     1    -130.070 117.674  45.048  1.00  0.00     0.006 C 
BRANCH  13  14
ATOM     14  C   UNL     1    -130.344 118.175  46.474  1.00  0.00     0.053 C 
BRANCH  14  15
ATOM     15  C   UNL     1    -131.586 117.560  47.046  1.00  0.00     0.041 C 
ATOM     16  O   UNL     1    -132.645 118.233  47.147  1.00  0.00    -0.550 OA
ATOM     17  O   UNL     1    -131.594 116.215  47.402  1.00  0.00    -0.550 OA
ENDBRANCH  14  15
ENDBRANCH  13  14
ENDBRANCH  12  13
ENDBRANCH  11  12
ENDBRANCH  10  11
ENDBRANCH   9  10
ENDBRANCH   8   9
ENDBRANCH   7   8
ENDBRANCH   6   7
ENDBRANCH   5   6
ENDBRANCH   4   5
ENDBRANCH   3   4
ENDBRANCH   2   3
ENDBRANCH   1   2
BRANCH   1  18
ATOM     18  C   UNL     1    -131.616 108.006  38.662  1.00  0.00     0.000 C 
BRANCH  18  19
ATOM     19  C   UNL     1    -130.241 107.326  38.794  1.00  0.00     0.000 C 
BRANCH  19  20
ATOM     20  C   UNL     1    -130.333 105.785  38.787  1.00  0.00     0.000 C 
BRANCH  20  21
ATOM     21  C   UNL     1    -129.257 105.088  39.642  1.00  0.00     0.000 C 
BRANCH  21  22
ATOM     22  C   UNL     1    -128.407 106.022  40.523  1.00  0.00     0.000 C 
BRANCH  22  23
ATOM     23  C   UNL     1    -129.183 106.752  41.635  1.00  0.00     0.000 C 
BRANCH  23  24
ATOM     24  C   UNL     1    -128.611 108.143  41.952  1.00  0.00    -0.000 C 
BRANCH  24  25
ATOM     25  C   UNL     1    -128.790 108.478  43.442  1.00  0.00    -0.000 C 
BRANCH  25  26
ATOM     26  C   UNL     1    -130.163 109.095  43.754  1.00  0.00    -0.000 C 
BRANCH  26  27
ATOM     27  C   UNL     1    -131.162 108.066  44.308  1.00  0.00    -0.000 C 
BRANCH  27  28
ATOM     28  C   UNL     1    -132.064 108.648  45.409  1.00  0.00    -0.000 C 
BRANCH  28  29
ATOM     29  C   UNL     1    -131.275 109.093  46.650  1.00  0.00    -0.000 C 
BRANCH  29  30
ATOM     30  C   UNL     1    -130.545 107.904  47.292  1.00  0.00    -0.000 C 
BRANCH  30  31
ATOM     31  C   UNL     1    -129.848 108.279  48.609  1.00  0.00    -0.003 C 
ATOM     32  C   UNL     1    -129.259 107.070  49.336  1.00  0.00     0.004 C 
ENDBRANCH  30  31
ENDBRANCH  29  30
ENDBRANCH  28  29
ENDBRANCH  27  28
ENDBRANCH  26  27
ENDBRANCH  25  26
ENDBRANCH  24  25
ENDBRANCH  23  24
ENDBRANCH  22  23
ENDBRANCH  21  22
ENDBRANCH  20  21
ENDBRANCH  19  20
ENDBRANCH  18  19
ENDBRANCH   1  18
TORSDOF 28
ENDMDL
MODEL 5
REMARK VINA RESULT:    -4.481      3.664      9.568
REMARK INTER + INTRA:         -13.874
REMARK INTER:                 -12.310
REMARK INTRA:                  -1.564
REMARK UNBOUND:                -2.057
REMARK SMILES CCCCCCCCCCCCCCCCCCCCCCCCCCCCCC(=O)[O-]
REMARK SMILES IDX 16 1 17 2 18 3 19 4 20 5 21 6 22 7 23 8 24 9 25 10 26 11
REMARK SMILES IDX 27 12 28 13 29 14 30 15 31 16 32 17 15 18 14 19 13 20 12 21
REMARK SMILES IDX 11 22 10 23 9 24 8 25 7 26 6 27 5 28 4 29 3 30 2 31 1 32
REMARK H PARENT
REMARK Flexibility Score: inf
ROOT
ATOM      1  C   UNL     1    -128.411 106.891  41.357  1.00  0.00     0.000 C 
ENDROOT
BRANCH   1   2
ATOM      2  C   UNL     1    -129.767 107.156  40.684  1.00  0.00     0.000 C 
BRANCH   2   3
ATOM      3  C   UNL     1    -129.628 107.642  39.230  1.00  0.00     0.000 C 
BRANCH   3   4
ATOM      4  C   UNL     1    -130.077 109.105  39.024  1.00  0.00     0.000 C 
BRANCH   4   5
ATOM      5  C   UNL     1    -129.036 110.111  39.539  1.00  0.00     0.000 C 
BRANCH   5   6
ATOM      6  C   UNL     1    -128.357 110.844  38.375  1.00  0.00     0.000 C 
BRANCH   6   7
ATOM      7  C   UNL     1    -128.447 112.367  38.553  1.00  0.00     0.000 C 
BRANCH   7   8
ATOM      8  C   UNL     1    -128.026 113.141  37.291  1.00  0.00     0.000 C 
BRANCH   8   9
ATOM      9  C   UNL     1    -129.000 113.037  36.102  1.00  0.00     0.000 C 
BRANCH   9  10
ATOM     10  C   UNL     1    -128.903 114.210  35.104  1.00  0.00     0.000 C 
BRANCH  10  11
ATOM     11  C   UNL     1    -130.274 114.629  34.550  1.00  0.00     0.000 C 
BRANCH  11  12
ATOM     12  C   UNL     1    -130.879 113.521  33.674  1.00  0.00     0.000 C 
BRANCH  12  13
ATOM     13  C   UNL     1    -132.344 113.219  34.029  1.00  0.00     0.006 C 
BRANCH  13  14
ATOM     14  C   UNL     1    -133.169 112.768  32.814  1.00  0.00     0.053 C 
BRANCH  14  15
ATOM     15  C   UNL     1    -134.487 113.481  32.746  1.00  0.00     0.041 C 
ATOM     16  O   UNL     1    -134.738 114.435  33.528  1.00  0.00    -0.550 OA
ATOM     17  O   UNL     1    -135.413 113.136  31.767  1.00  0.00    -0.550 OA
ENDBRANCH  14  15
ENDBRANCH  13  14
ENDBRANCH  12  13
ENDBRANCH  11  12
ENDBRANCH  10  11
ENDBRANCH   9  10
ENDBRANCH   8   9
ENDBRANCH   7   8
ENDBRANCH   6   7
ENDBRANCH   5   6
ENDBRANCH   4   5
ENDBRANCH   3   4
ENDBRANCH   2   3
ENDBRANCH   1   2
BRANCH   1  18
ATOM     18  C   UNL     1    -128.123 107.865  42.511  1.00  0.00     0.000 C 
BRANCH  18  19
ATOM     19  C   UNL     1    -129.043 109.100  42.488  1.00  0.00     0.000 C 
BRANCH  19  20
ATOM     20  C   UNL     1    -129.796 109.310  43.819  1.00  0.00     0.000 C 
BRANCH  20  21
ATOM     21  C   UNL     1    -129.619 110.715  44.425  1.00  0.00     0.000 C 
BRANCH  21  22
ATOM     22  C   UNL     1    -129.123 111.798  43.449  1.00  0.00     0.000 C 
BRANCH  22  23
ATOM     23  C   UNL     1    -129.176 113.238  43.993  1.00  0.00     0.000 C 
BRANCH  23  24
ATOM     24  C   UNL     1    -130.347 114.053  43.420  1.00  0.00    -0.000 C 
BRANCH  24  25
ATOM     25  C   UNL     1    -129.841 115.098  42.414  1.00  0.00    -0.000 C 
BRANCH  25  26
ATOM     26  C   UNL     1    -130.113 116.543  42.866  1.00  0.00    -0.000 C 
BRANCH  26  27
ATOM     27  C   UNL     1    -128.890 117.193  43.534  1.00  0.00    -0.000 C 
BRANCH  27  28
ATOM     28  C   UNL     1    -129.275 118.127  44.693  1.00  0.00    -0.000 C 
BRANCH  28  29
ATOM     29  C   UNL     1    -130.495 117.626  45.481  1.00  0.00    -0.000 C 
BRANCH  29  30
ATOM     30  C   UNL     1    -130.476 118.160  46.921  1.00  0.00    -0.000 C 
BRANCH  30  31
ATOM     31  C   UNL     1    -131.716 119.005  47.255  1.00  0.00    -0.003 C 
ATOM     32  C   UNL     1    -133.021 118.215  47.148  1.00  0.00     0.004 C 
ENDBRANCH  30  31
ENDBRANCH  29  30
ENDBRANCH  28  29
ENDBRANCH  27  28
ENDBRANCH  26  27
ENDBRANCH  25  26
ENDBRANCH  24  25
ENDBRANCH  23  24
ENDBRANCH  22  23
ENDBRANCH  21  22
ENDBRANCH  20  21
ENDBRANCH  19  20
ENDBRANCH  18  19
ENDBRANCH   1  18
TORSDOF 28
ENDMDL
MODEL 6
REMARK VINA RESULT:    -4.361      3.622      9.374
REMARK INTER + INTRA:         -13.558
REMARK INTER:                 -12.100
REMARK INTRA:                  -1.458
REMARK UNBOUND:                -2.057
REMARK SMILES CCCCCCCCCCCCCCCCCCCCCCCCCCCCCC(=O)[O-]
REMARK SMILES IDX 16 1 17 2 18 3 19 4 20 5 21 6 22 7 23 8 24 9 25 10 26 11
REMARK SMILES IDX 27 12 28 13 29 14 30 15 31 16 32 17 15 18 14 19 13 20 12 21
REMARK SMILES IDX 11 22 10 23 9 24 8 25 7 26 6 27 5 28 4 29 3 30 2 31 1 32
REMARK H PARENT
REMARK Flexibility Score: inf
ROOT
ATOM      1  C   UNL     1    -131.235 107.468  38.759  1.00  0.00     0.000 C 
ENDROOT
BRANCH   1   2
ATOM      2  C   UNL     1    -131.334 109.002  38.772  1.00  0.00     0.000 C 
BRANCH   2   3
ATOM      3  C   UNL     1    -130.477 109.647  39.875  1.00  0.00     0.000 C 
BRANCH   3   4
ATOM      4  C   UNL     1    -129.113 110.167  39.371  1.00  0.00     0.000 C 
BRANCH   4   5
ATOM      5  C   UNL     1    -129.168 111.647  38.964  1.00  0.00     0.000 C 
BRANCH   5   6
ATOM      6  C   UNL     1    -127.936 112.036  38.138  1.00  0.00     0.000 C 
BRANCH   6   7
ATOM      7  C   UNL     1    -128.221 113.271  37.268  1.00  0.00     0.000 C 
BRANCH   7   8
ATOM      8  C   UNL     1    -128.926 112.919  35.947  1.00  0.00     0.000 C 
BRANCH   8   9
ATOM      9  C   UNL     1    -128.979 114.057  34.909  1.00  0.00     0.000 C 
BRANCH   9  10
ATOM     10  C   UNL     1    -130.231 114.027  34.006  1.00  0.00     0.000 C 
BRANCH  10  11
ATOM     11  C   UNL     1    -131.447 114.704  34.659  1.00  0.00     0.000 C 
BRANCH  11  12
ATOM     12  C   UNL     1    -132.600 113.705  34.848  1.00  0.00     0.000 C 
BRANCH  12  13
ATOM     13  C   UNL     1    -132.546 112.541  33.845  1.00  0.00     0.006 C 
BRANCH  13  14
ATOM     14  C   UNL     1    -133.041 112.939  32.447  1.00  0.00     0.053 C 
BRANCH  14  15
ATOM     15  C   UNL     1    -134.476 113.374  32.472  1.00  0.00     0.041 C 
ATOM     16  O   UNL     1    -134.965 113.902  33.505  1.00  0.00    -0.550 OA
ATOM     17  O   UNL     1    -135.256 113.261  31.326  1.00  0.00    -0.550 OA
ENDBRANCH  14  15
ENDBRANCH  13  14
ENDBRANCH  12  13
ENDBRANCH  11  12
ENDBRANCH  10  11
ENDBRANCH   9  10
ENDBRANCH   8   9
ENDBRANCH   7   8
ENDBRANCH   6   7
ENDBRANCH   5   6
ENDBRANCH   4   5
ENDBRANCH   3   4
ENDBRANCH   2   3
ENDBRANCH   1   2
BRANCH   1  18
ATOM     18  C   UNL     1    -129.781 106.969  38.794  1.00  0.00     0.000 C 
BRANCH  18  19
ATOM     19  C   UNL     1    -129.622 105.664  39.597  1.00  0.00     0.000 C 
BRANCH  19  20
ATOM     20  C   UNL     1    -129.379 105.914  41.101  1.00  0.00     0.000 C 
BRANCH  20  21
ATOM     21  C   UNL     1    -128.094 106.707  41.407  1.00  0.00     0.000 C 
BRANCH  21  22
ATOM     22  C   UNL     1    -128.303 108.048  42.135  1.00  0.00     0.000 C 
BRANCH  22  23
ATOM     23  C   UNL     1    -129.715 108.262  42.712  1.00  0.00     0.000 C 
BRANCH  23  24
ATOM     24  C   UNL     1    -129.757 109.337  43.810  1.00  0.00    -0.000 C 
BRANCH  24  25
ATOM     25  C   UNL     1    -129.260 110.686  43.269  1.00  0.00    -0.000 C 
BRANCH  25  26
ATOM     26  C   UNL     1    -129.495 111.846  44.250  1.00  0.00    -0.000 C 
BRANCH  26  27
ATOM     27  C   UNL     1    -128.973 113.190  43.713  1.00  0.00    -0.000 C 
BRANCH  27  28
ATOM     28  C   UNL     1    -130.107 114.167  43.360  1.00  0.00    -0.000 C 
BRANCH  28  29
ATOM     29  C   UNL     1    -129.772 115.622  43.722  1.00  0.00    -0.000 C 
BRANCH  29  30
ATOM     30  C   UNL     1    -129.393 116.426  42.469  1.00  0.00    -0.000 C 
BRANCH  30  31
ATOM     31  C   UNL     1    -128.875 117.834  42.804  1.00  0.00    -0.003 C 
ATOM     32  C   UNL     1    -129.034 118.190  44.282  1.00  0.00     0.004 C 
ENDBRANCH  30  31
ENDBRANCH  29  30
ENDBRANCH  28  29
ENDBRANCH  27  28
ENDBRANCH  26  27
ENDBRANCH  25  26
ENDBRANCH  24  25
ENDBRANCH  23  24
ENDBRANCH  22  23
ENDBRANCH  21  22
ENDBRANCH  20  21
ENDBRANCH  19  20
ENDBRANCH  18  19
ENDBRANCH   1  18
TORSDOF 28
ENDMDL
MODEL 7
REMARK VINA RESULT:    -4.152      1.015      2.352
REMARK INTER + INTRA:         -13.006
REMARK INTER:                 -10.918
REMARK INTRA:                  -2.088
REMARK UNBOUND:                -2.057
REMARK SMILES CCCCCCCCCCCCCCCCCCCCCCCCCCCCCC(=O)[O-]
REMARK SMILES IDX 16 1 17 2 18 3 19 4 20 5 21 6 22 7 23 8 24 9 25 10 26 11
REMARK SMILES IDX 27 12 28 13 29 14 30 15 31 16 32 17 15 18 14 19 13 20 12 21
REMARK SMILES IDX 11 22 10 23 9 24 8 25 7 26 6 27 5 28 4 29 3 30 2 31 1 32
REMARK H PARENT
REMARK Flexibility Score: inf
ROOT
ATOM      1  C   UNL     1    -130.250 109.629  39.485  1.00  0.00     0.000 C 
ENDROOT
BRANCH   1   2
ATOM      2  C   UNL     1    -130.769 108.202  39.252  1.00  0.00     0.000 C 
BRANCH   2   3
ATOM      3  C   UNL     1    -129.662 107.227  38.812  1.00  0.00     0.000 C 
BRANCH   3   4
ATOM      4  C   UNL     1    -129.539 105.984  39.720  1.00  0.00     0.000 C 
BRANCH   4   5
ATOM      5  C   UNL     1    -129.398 106.358  41.203  1.00  0.00     0.000 C 
BRANCH   5   6
ATOM      6  C   UNL     1    -127.997 106.907  41.501  1.00  0.00     0.000 C 
BRANCH   6   7
ATOM      7  C   UNL     1    -128.066 108.106  42.460  1.00  0.00     0.000 C 
BRANCH   7   8
ATOM      8  C   UNL     1    -129.429 108.230  43.163  1.00  0.00     0.000 C 
BRANCH   8   9
ATOM      9  C   UNL     1    -129.987 109.663  43.264  1.00  0.00     0.000 C 
BRANCH   9  10
ATOM     10  C   UNL     1    -128.941 110.766  42.997  1.00  0.00     0.000 C 
BRANCH  10  11
ATOM     11  C   UNL     1    -129.306 112.100  43.667  1.00  0.00     0.000 C 
BRANCH  11  12
ATOM     12  C   UNL     1    -129.700 113.155  42.622  1.00  0.00     0.000 C 
BRANCH  12  13
ATOM     13  C   UNL     1    -130.029 114.519  43.251  1.00  0.00     0.006 C 
BRANCH  13  14
ATOM     14  C   UNL     1    -129.340 114.729  44.607  1.00  0.00     0.053 C 
BRANCH  14  15
ATOM     15  C   UNL     1    -129.784 116.003  45.261  1.00  0.00     0.041 C 
ATOM     16  O   UNL     1    -130.396 115.977  46.361  1.00  0.00    -0.550 OA
ATOM     17  O   UNL     1    -129.457 117.228  44.689  1.00  0.00    -0.550 OA
ENDBRANCH  14  15
ENDBRANCH  13  14
ENDBRANCH  12  13
ENDBRANCH  11  12
ENDBRANCH  10  11
ENDBRANCH   9  10
ENDBRANCH   8   9
ENDBRANCH   7   8
ENDBRANCH   6   7
ENDBRANCH   5   6
ENDBRANCH   4   5
ENDBRANCH   3   4
ENDBRANCH   2   3
ENDBRANCH   1   2
BRANCH   1  18
ATOM     18  C   UNL     1    -128.714 109.709  39.474  1.00  0.00     0.000 C 
BRANCH  18  19
ATOM     19  C   UNL     1    -128.179 110.684  38.409  1.00  0.00     0.000 C 
BRANCH  19  20
ATOM     20  C   UNL     1    -128.822 112.084  38.503  1.00  0.00     0.000 C 
BRANCH  20  21
ATOM     21  C   UNL     1    -128.045 113.184  37.754  1.00  0.00     0.000 C 
BRANCH  21  22
ATOM     22  C   UNL     1    -128.226 113.196  36.225  1.00  0.00     0.000 C 
BRANCH  22  23
ATOM     23  C   UNL     1    -129.643 113.555  35.740  1.00  0.00     0.000 C 
BRANCH  23  24
ATOM     24  C   UNL     1    -129.640 114.500  34.528  1.00  0.00    -0.000 C 
BRANCH  24  25
ATOM     25  C   UNL     1    -130.540 113.951  33.409  1.00  0.00    -0.000 C 
BRANCH  25  26
ATOM     26  C   UNL     1    -131.747 113.164  33.945  1.00  0.00    -0.000 C 
BRANCH  26  27
ATOM     27  C   UNL     1    -132.645 112.621  32.821  1.00  0.00    -0.000 C 
BRANCH  27  28
ATOM     28  C   UNL     1    -134.126 112.989  33.015  1.00  0.00    -0.000 C 
BRANCH  28  29
ATOM     29  C   UNL     1    -134.318 114.412  33.562  1.00  0.00    -0.000 C 
BRANCH  29  30
ATOM     30  C   UNL     1    -133.683 114.555  34.954  1.00  0.00    -0.000 C 
BRANCH  30  31
ATOM     31  C   UNL     1    -133.644 116.014  35.437  1.00  0.00    -0.003 C 
ATOM     32  C   UNL     1    -132.373 116.347  36.220  1.00  0.00     0.004 C 
ENDBRANCH  30  31
ENDBRANCH  29  30
ENDBRANCH  28  29
ENDBRANCH  27  28
ENDBRANCH  26  27
ENDBRANCH  25  26
ENDBRANCH  24  25
ENDBRANCH  23  24
ENDBRANCH  22  23
ENDBRANCH  21  22
ENDBRANCH  20  21
ENDBRANCH  19  20
ENDBRANCH  18  19
ENDBRANCH   1  18
TORSDOF 28
ENDMDL
MODEL 8
REMARK VINA RESULT:    -4.120      3.461      8.735
REMARK INTER + INTRA:         -12.920
REMARK INTER:                  -9.781
REMARK INTRA:                  -3.139
REMARK UNBOUND:                -2.057
REMARK SMILES CCCCCCCCCCCCCCCCCCCCCCCCCCCCCC(=O)[O-]
REMARK SMILES IDX 16 1 17 2 18 3 19 4 20 5 21 6 22 7 23 8 24 9 25 10 26 11
REMARK SMILES IDX 27 12 28 13 29 14 30 15 31 16 32 17 15 18 14 19 13 20 12 21
REMARK SMILES IDX 11 22 10 23 9 24 8 25 7 26 6 27 5 28 4 29 3 30 2 31 1 32
REMARK H PARENT
REMARK Flexibility Score: inf
ROOT
ATOM      1  C   UNL     1    -128.784 108.806  43.418  1.00  0.00     0.000 C 
ENDROOT
BRANCH   1   2
ATOM      2  C   UNL     1    -128.032 108.514  42.110  1.00  0.00     0.000 C 
BRANCH   2   3
ATOM      3  C   UNL     1    -127.991 107.014  41.767  1.00  0.00     0.000 C 
BRANCH   3   4
ATOM      4  C   UNL     1    -129.371 106.427  41.399  1.00  0.00     0.000 C 
BRANCH   4   5
ATOM      5  C   UNL     1    -129.327 105.601  40.105  1.00  0.00     0.000 C 
BRANCH   5   6
ATOM      6  C   UNL     1    -130.104 106.297  38.982  1.00  0.00     0.000 C 
BRANCH   6   7
ATOM      7  C   UNL     1    -129.639 107.751  38.806  1.00  0.00     0.000 C 
BRANCH   7   8
ATOM      8  C   UNL     1    -130.750 108.772  39.104  1.00  0.00     0.000 C 
BRANCH   8   9
ATOM      9  C   UNL     1    -130.262 110.198  39.426  1.00  0.00     0.000 C 
BRANCH   9  10
ATOM     10  C   UNL     1    -128.803 110.474  39.006  1.00  0.00     0.000 C 
BRANCH  10  11
ATOM     11  C   UNL     1    -128.548 111.957  38.695  1.00  0.00     0.000 C 
BRANCH  11  12
ATOM     12  C   UNL     1    -128.206 112.160  37.210  1.00  0.00     0.000 C 
BRANCH  12  13
ATOM     13  C   UNL     1    -128.929 113.370  36.595  1.00  0.00     0.006 C 
BRANCH  13  14
ATOM     14  C   UNL     1    -128.855 113.389  35.062  1.00  0.00     0.053 C 
BRANCH  14  15
ATOM     15  C   UNL     1    -129.990 114.167  34.464  1.00  0.00     0.041 C 
ATOM     16  O   UNL     1    -130.262 115.323  34.883  1.00  0.00    -0.550 OA
ATOM     17  O   UNL     1    -130.702 113.641  33.392  1.00  0.00    -0.550 OA
ENDBRANCH  14  15
ENDBRANCH  13  14
ENDBRANCH  12  13
ENDBRANCH  11  12
ENDBRANCH  10  11
ENDBRANCH   9  10
ENDBRANCH   8   9
ENDBRANCH   7   8
ENDBRANCH   6   7
ENDBRANCH   5   6
ENDBRANCH   4   5
ENDBRANCH   3   4
ENDBRANCH   2   3
ENDBRANCH   1   2
BRANCH   1  18
ATOM     18  C   UNL     1    -129.759 109.988  43.290  1.00  0.00     0.000 C 
BRANCH  18  19
ATOM     19  C   UNL     1    -129.040 111.323  43.021  1.00  0.00     0.000 C 
BRANCH  19  20
ATOM     20  C   UNL     1    -129.855 112.268  42.112  1.00  0.00     0.000 C 
BRANCH  20  21
ATOM     21  C   UNL     1    -129.987 113.704  42.657  1.00  0.00     0.000 C 
BRANCH  21  22
ATOM     22  C   UNL     1    -129.235 113.982  43.972  1.00  0.00     0.000 C 
BRANCH  22  23
ATOM     23  C   UNL     1    -130.131 114.361  45.166  1.00  0.00     0.000 C 
BRANCH  23  24
ATOM     24  C   UNL     1    -129.597 115.565  45.958  1.00  0.00    -0.000 C 
BRANCH  24  25
ATOM     25  C   UNL     1    -130.687 116.139  46.876  1.00  0.00    -0.000 C 
BRANCH  25  26
ATOM     26  C   UNL     1    -131.328 117.419  46.315  1.00  0.00    -0.000 C 
BRANCH  26  27
ATOM     27  C   UNL     1    -130.650 118.697  46.838  1.00  0.00    -0.000 C 
BRANCH  27  28
ATOM     28  C   UNL     1    -129.373 119.051  46.058  1.00  0.00    -0.000 C 
BRANCH  28  29
ATOM     29  C   UNL     1    -129.603 119.122  44.540  1.00  0.00    -0.000 C 
BRANCH  29  30
ATOM     30  C   UNL     1    -128.312 118.798  43.773  1.00  0.00    -0.000 C 
BRANCH  30  31
ATOM     31  C   UNL     1    -128.519 117.721  42.697  1.00  0.00    -0.003 C 
ATOM     32  C   UNL     1    -129.941 117.160  42.682  1.00  0.00     0.004 C 
ENDBRANCH  30  31
ENDBRANCH  29  30
ENDBRANCH  28  29
ENDBRANCH  27  28
ENDBRANCH  26  27
ENDBRANCH  25  26
ENDBRANCH  24  25
ENDBRANCH  23  24
ENDBRANCH  22  23
ENDBRANCH  21  22
ENDBRANCH  20  21
ENDBRANCH  19  20
ENDBRANCH  18  19
ENDBRANCH   1  18
TORSDOF 28
ENDMDL
MODEL 9
REMARK VINA RESULT:    -3.977      4.394      8.031
REMARK INTER + INTRA:         -12.545
REMARK INTER:                  -9.580
REMARK INTRA:                  -2.965
REMARK UNBOUND:                -2.057
REMARK SMILES CCCCCCCCCCCCCCCCCCCCCCCCCCCCCC(=O)[O-]
REMARK SMILES IDX 16 1 17 2 18 3 19 4 20 5 21 6 22 7 23 8 24 9 25 10 26 11
REMARK SMILES IDX 27 12 28 13 29 14 30 15 31 16 32 17 15 18 14 19 13 20 12 21
REMARK SMILES IDX 11 22 10 23 9 24 8 25 7 26 6 27 5 28 4 29 3 30 2 31 1 32
REMARK H PARENT
REMARK Flexibility Score: inf
ROOT
ATOM      1  C   UNL     1    -130.884 110.141  40.370  1.00  0.00     0.000 C 
ENDROOT
BRANCH   1   2
ATOM      2  C   UNL     1    -132.074 109.990  39.410  1.00  0.00     0.000 C 
BRANCH   2   3
ATOM      3  C   UNL     1    -131.894 108.832  38.412  1.00  0.00     0.000 C 
BRANCH   3   4
ATOM      4  C   UNL     1    -131.222 107.586  39.029  1.00  0.00     0.000 C 
BRANCH   4   5
ATOM      5  C   UNL     1    -129.801 107.364  38.490  1.00  0.00     0.000 C 
BRANCH   5   6
ATOM      6  C   UNL     1    -129.554 105.882  38.184  1.00  0.00     0.000 C 
BRANCH   6   7
ATOM      7  C   UNL     1    -130.159 104.984  39.275  1.00  0.00     0.000 C 
BRANCH   7   8
ATOM      8  C   UNL     1    -129.133 104.571  40.344  1.00  0.00     0.000 C 
BRANCH   8   9
ATOM      9  C   UNL     1    -128.196 105.696  40.824  1.00  0.00     0.000 C 
BRANCH   9  10
ATOM     10  C   UNL     1    -128.899 106.789  41.656  1.00  0.00     0.000 C 
BRANCH  10  11
ATOM     11  C   UNL     1    -127.917 107.832  42.214  1.00  0.00     0.000 C 
BRANCH  11  12
ATOM     12  C   UNL     1    -128.666 108.993  42.886  1.00  0.00     0.000 C 
BRANCH  12  13
ATOM     13  C   UNL     1    -129.934 108.532  43.623  1.00  0.00     0.006 C 
BRANCH  13  14
ATOM     14  C   UNL     1    -130.300 109.446  44.802  1.00  0.00     0.053 C 
BRANCH  14  15
ATOM     15  C   UNL     1    -131.077 108.708  45.852  1.00  0.00     0.041 C 
ATOM     16  O   UNL     1    -130.483 108.141  46.806  1.00  0.00    -0.550 OA
ATOM     17  O   UNL     1    -132.468 108.708  45.814  1.00  0.00    -0.550 OA
ENDBRANCH  14  15
ENDBRANCH  13  14
ENDBRANCH  12  13
ENDBRANCH  11  12
ENDBRANCH  10  11
ENDBRANCH   9  10
ENDBRANCH   8   9
ENDBRANCH   7   8
ENDBRANCH   6   7
ENDBRANCH   5   6
ENDBRANCH   4   5
ENDBRANCH   3   4
ENDBRANCH   2   3
ENDBRANCH   1   2
BRANCH   1  18
ATOM     18  C   UNL     1    -129.689 110.861  39.723  1.00  0.00     0.000 C 
BRANCH  18  19
ATOM     19  C   UNL     1    -129.431 112.250  40.338  1.00  0.00     0.000 C 
BRANCH  19  20
ATOM     20  C   UNL     1    -130.195 112.469  41.661  1.00  0.00     0.000 C 
BRANCH  20  21
ATOM     21  C   UNL     1    -129.306 112.405  42.918  1.00  0.00     0.000 C 
BRANCH  21  22
ATOM     22  C   UNL     1    -129.447 113.592  43.888  1.00  0.00     0.000 C 
BRANCH  22  23
ATOM     23  C   UNL     1    -130.226 114.799  43.331  1.00  0.00     0.000 C 
BRANCH  23  24
ATOM     24  C   UNL     1    -129.382 115.677  42.394  1.00  0.00    -0.000 C 
BRANCH  24  25
ATOM     25  C   UNL     1    -129.839 117.143  42.465  1.00  0.00    -0.000 C 
BRANCH  25  26
ATOM     26  C   UNL     1    -128.664 118.131  42.549  1.00  0.00    -0.000 C 
BRANCH  26  27
ATOM     27  C   UNL     1    -128.520 118.761  43.945  1.00  0.00    -0.000 C 
BRANCH  27  28
ATOM     28  C   UNL     1    -129.226 117.943  45.040  1.00  0.00    -0.000 C 
BRANCH  28  29
ATOM     29  C   UNL     1    -130.178 118.793  45.896  1.00  0.00    -0.000 C 
BRANCH  29  30
ATOM     30  C   UNL     1    -131.044 117.904  46.800  1.00  0.00    -0.000 C 
BRANCH  30  31
ATOM     31  C   UNL     1    -130.864 116.407  46.505  1.00  0.00    -0.003 C 
ATOM     32  C   UNL     1    -131.793 115.520  47.335  1.00  0.00     0.004 C 
ENDBRANCH  30  31
ENDBRANCH  29  30
ENDBRANCH  28  29
ENDBRANCH  27  28
ENDBRANCH  26  27
ENDBRANCH  25  26
ENDBRANCH  24  25
ENDBRANCH  23  24
ENDBRANCH  22  23
ENDBRANCH  21  22
ENDBRANCH  20  21
ENDBRANCH  19  20
ENDBRANCH  18  19
ENDBRANCH   1  18
TORSDOF 28
ENDMDL
