MODEL 1
REMARK VINA RESULT:    -3.281      0.000      0.000
REMARK INTER + INTRA:         -11.711
REMARK INTER:                  -8.267
REMARK INTRA:                  -3.444
REMARK UNBOUND:                -3.444
REMARK SMILES CCCCCCCCCCCCCCCCCCCCCCCCCCCC(=O)[O-]
REMARK SMILES IDX 15 1 16 2 17 3 18 4 19 5 20 6 21 7 22 8 23 9 24 10 25 11
REMARK SMILES IDX 26 12 27 13 28 14 29 15 30 16 14 17 13 18 12 19 11 20 10 21
REMARK SMILES IDX 9 22 8 23 7 24 6 25 5 26 4 27 3 28 2 29 1 30
REMARK H PARENT
REMARK Flexibility Score: inf
ROOT
ATOM      1  C   UNL     1     -12.376  10.364   4.363  1.00  0.00     0.000 C 
ENDROOT
BRANCH   1   2
ATOM      2  C   UNL     1     -13.870  10.373   3.993  1.00  0.00     0.000 C 
BRANCH   2   3
ATOM      3  C   UNL     1     -14.388   8.976   3.602  1.00  0.00     0.000 C 
BRANCH   3   4
ATOM      4  C   UNL     1     -15.899   8.976   3.310  1.00  0.00     0.000 C 
BRANCH   4   5
ATOM      5  C   UNL     1     -16.496  10.392   3.389  1.00  0.00     0.000 C 
BRANCH   5   6
ATOM      6  C   UNL     1     -17.971  10.442   2.961  1.00  0.00     0.000 C 
BRANCH   6   7
ATOM      7  C   UNL     1     -18.198  11.315   1.711  1.00  0.00     0.000 C 
BRANCH   7   8
ATOM      8  C   UNL     1     -17.759  10.617   0.410  1.00  0.00     0.000 C 
BRANCH   8   9
ATOM      9  C   UNL     1     -18.708  10.831  -0.785  1.00  0.00     0.000 C 
BRANCH   9  10
ATOM     10  C   UNL     1     -18.001  11.453  -2.000  1.00  0.00     0.000 C 
BRANCH  10  11
ATOM     11  C   UNL     1     -16.737  12.210  -1.563  1.00  0.00     0.000 C 
BRANCH  11  12
ATOM     12  C   UNL     1     -15.483  11.781  -2.338  1.00  0.00     0.006 C 
BRANCH  12  13
ATOM     13  C   UNL     1     -15.178  10.284  -2.194  1.00  0.00     0.053 C 
BRANCH  13  14
ATOM     14  C   UNL     1     -13.718  10.070  -1.945  1.00  0.00     0.041 C 
ATOM     15  O   UNL     1     -13.336   9.192  -1.129  1.00  0.00    -0.550 OA
ATOM     16  O   UNL     1     -12.779  10.815  -2.647  1.00  0.00    -0.550 OA
ENDBRANCH  13  14
ENDBRANCH  12  13
ENDBRANCH  11  12
ENDBRANCH  10  11
ENDBRANCH   9  10
ENDBRANCH   8   9
ENDBRANCH   7   8
ENDBRANCH   6   7
ENDBRANCH   5   6
ENDBRANCH   4   5
ENDBRANCH   3   4
ENDBRANCH   2   3
ENDBRANCH   1   2
BRANCH   1  17
ATOM     17  C   UNL     1     -12.156  10.586   5.873  1.00  0.00     0.000 C 
BRANCH  17  18
ATOM     18  C   UNL     1     -12.469   9.318   6.702  1.00  0.00     0.000 C 
BRANCH  18  19
ATOM     19  C   UNL     1     -13.501   9.557   7.819  1.00  0.00     0.000 C 
BRANCH  19  20
ATOM     20  C   UNL     1     -14.929   9.176   7.394  1.00  0.00     0.000 C 
BRANCH  20  21
ATOM     21  C   UNL     1     -15.829  10.402   7.169  1.00  0.00     0.000 C 
BRANCH  21  22
ATOM     22  C   UNL     1     -17.312  10.031   6.988  1.00  0.00    -0.000 C 
BRANCH  22  23
ATOM     23  C   UNL     1     -18.165  10.393   8.217  1.00  0.00    -0.000 C 
BRANCH  23  24
ATOM     24  C   UNL     1     -18.416   9.186   9.138  1.00  0.00    -0.000 C 
BRANCH  24  25
ATOM     25  C   UNL     1     -17.930   9.433  10.578  1.00  0.00    -0.000 C 
BRANCH  25  26
ATOM     26  C   UNL     1     -16.427   9.169  10.785  1.00  0.00    -0.000 C 
BRANCH  26  27
ATOM     27  C   UNL     1     -15.617  10.471  10.927  1.00  0.00    -0.000 C 
BRANCH  27  28
ATOM     28  C   UNL     1     -14.173  10.227  11.401  1.00  0.00    -0.000 C 
BRANCH  28  29
ATOM     29  C   UNL     1     -13.894  10.649  12.856  1.00  0.00    -0.003 C 
ATOM     30  C   UNL     1     -15.093  11.322  13.525  1.00  0.00     0.004 C 
ENDBRANCH  28  29
ENDBRANCH  27  28
ENDBRANCH  26  27
ENDBRANCH  25  26
ENDBRANCH  24  25
ENDBRANCH  23  24
ENDBRANCH  22  23
ENDBRANCH  21  22
ENDBRANCH  20  21
ENDBRANCH  19  20
ENDBRANCH  18  19
ENDBRANCH  17  18
ENDBRANCH   1  17
TORSDOF 26
ENDMDL
MODEL 2
REMARK VINA RESULT:    -2.857      3.096      6.660
REMARK INTER + INTRA:         -10.643
REMARK INTER:                  -7.516
REMARK INTRA:                  -3.127
REMARK UNBOUND:                -3.444
REMARK SMILES CCCCCCCCCCCCCCCCCCCCCCCCCCCC(=O)[O-]
REMARK SMILES IDX 15 1 16 2 17 3 18 4 19 5 20 6 21 7 22 8 23 9 24 10 25 11
REMARK SMILES IDX 26 12 27 13 28 14 29 15 30 16 14 17 13 18 12 19 11 20 10 21
REMARK SMILES IDX 9 22 8 23 7 24 6 25 5 26 4 27 3 28 2 29 1 30
REMARK H PARENT
REMARK Flexibility Score: inf
ROOT
ATOM      1  C   UNL     1     -18.067  14.201   0.560  1.00  0.00     0.000 C 
ENDROOT
BRANCH   1   2
ATOM      2  C   UNL     1     -18.808  14.968  -0.551  1.00  0.00     0.000 C 
BRANCH   2   3
ATOM      3  C   UNL     1     -18.997  14.122  -1.824  1.00  0.00     0.000 C 
BRANCH   3   4
ATOM      4  C   UNL     1     -17.709  13.382  -2.229  1.00  0.00     0.000 C 
BRANCH   4   5
ATOM      5  C   UNL     1     -18.014  12.068  -2.969  1.00  0.00     0.000 C 
BRANCH   5   6
ATOM      6  C   UNL     1     -17.634  10.822  -2.153  1.00  0.00     0.000 C 
BRANCH   6   7
ATOM      7  C   UNL     1     -16.296  10.203  -2.602  1.00  0.00     0.000 C 
BRANCH   7   8
ATOM      8  C   UNL     1     -15.182  10.369  -1.552  1.00  0.00     0.000 C 
BRANCH   8   9
ATOM      9  C   UNL     1     -13.799   9.856  -1.998  1.00  0.00     0.000 C 
BRANCH   9  10
ATOM     10  C   UNL     1     -13.710   9.628  -3.515  1.00  0.00     0.000 C 
BRANCH  10  11
ATOM     11  C   UNL     1     -12.884  10.739  -4.183  1.00  0.00     0.000 C 
BRANCH  11  12
ATOM     12  C   UNL     1     -13.392  11.103  -5.586  1.00  0.00     0.006 C 
BRANCH  12  13
ATOM     13  C   UNL     1     -14.336  12.312  -5.582  1.00  0.00     0.053 C 
BRANCH  13  14
ATOM     14  C   UNL     1     -15.735  11.883  -5.895  1.00  0.00     0.041 C 
ATOM     15  O   UNL     1     -15.992  10.673  -6.123  1.00  0.00    -0.550 OA
ATOM     16  O   UNL     1     -16.763  12.818  -5.894  1.00  0.00    -0.550 OA
ENDBRANCH  13  14
ENDBRANCH  12  13
ENDBRANCH  11  12
ENDBRANCH  10  11
ENDBRANCH   9  10
ENDBRANCH   8   9
ENDBRANCH   7   8
ENDBRANCH   6   7
ENDBRANCH   5   6
ENDBRANCH   4   5
ENDBRANCH   3   4
ENDBRANCH   2   3
ENDBRANCH   1   2
BRANCH   1  17
ATOM     17  C   UNL     1     -19.026  13.332   1.397  1.00  0.00     0.000 C 
BRANCH  17  18
ATOM     18  C   UNL     1     -18.989  11.846   0.973  1.00  0.00     0.000 C 
BRANCH  18  19
ATOM     19  C   UNL     1     -18.568  10.896   2.108  1.00  0.00     0.000 C 
BRANCH  19  20
ATOM     20  C   UNL     1     -17.447   9.931   1.685  1.00  0.00     0.000 C 
BRANCH  20  21
ATOM     21  C   UNL     1     -16.414   9.695   2.799  1.00  0.00     0.000 C 
BRANCH  21  22
ATOM     22  C   UNL     1     -17.054   9.252   4.126  1.00  0.00    -0.000 C 
BRANCH  22  23
ATOM     23  C   UNL     1     -16.572  10.090   5.323  1.00  0.00    -0.000 C 
BRANCH  23  24
ATOM     24  C   UNL     1     -16.026   9.222   6.471  1.00  0.00    -0.000 C 
BRANCH  24  25
ATOM     25  C   UNL     1     -14.521   9.444   6.712  1.00  0.00    -0.000 C 
BRANCH  25  26
ATOM     26  C   UNL     1     -13.786  10.091   5.525  1.00  0.00    -0.000 C 
BRANCH  26  27
ATOM     27  C   UNL     1     -12.831   9.108   4.820  1.00  0.00    -0.000 C 
BRANCH  27  28
ATOM     28  C   UNL     1     -12.277   9.661   3.494  1.00  0.00    -0.000 C 
BRANCH  28  29
ATOM     29  C   UNL     1     -12.710   8.878   2.241  1.00  0.00    -0.003 C 
ATOM     30  C   UNL     1     -11.864   9.203   1.009  1.00  0.00     0.004 C 
ENDBRANCH  28  29
ENDBRANCH  27  28
ENDBRANCH  26  27
ENDBRANCH  25  26
ENDBRANCH  24  25
ENDBRANCH  23  24
ENDBRANCH  22  23
ENDBRANCH  21  22
ENDBRANCH  20  21
ENDBRANCH  19  20
ENDBRANCH  18  19
ENDBRANCH  17  18
ENDBRANCH   1  17
TORSDOF 26
ENDMDL
MODEL 3
REMARK VINA RESULT:    -2.816      4.119     10.779
REMARK INTER + INTRA:         -10.541
REMARK INTER:                  -8.371
REMARK INTRA:                  -2.170
REMARK UNBOUND:                -3.444
REMARK SMILES CCCCCCCCCCCCCCCCCCCCCCCCCCCC(=O)[O-]
REMARK SMILES IDX 15 1 16 2 17 3 18 4 19 5 20 6 21 7 22 8 23 9 24 10 25 11
REMARK SMILES IDX 26 12 27 13 28 14 29 15 30 16 14 17 13 18 12 19 11 20 10 21
REMARK SMILES IDX 9 22 8 23 7 24 6 25 5 26 4 27 3 28 2 29 1 30
REMARK H PARENT
REMARK Flexibility Score: inf
ROOT
ATOM      1  C   UNL     1     -12.813   9.636   3.479  1.00  0.00     0.000 C 
ENDROOT
BRANCH   1   2
ATOM      2  C   UNL     1     -12.511  10.282   4.843  1.00  0.00     0.000 C 
BRANCH   2   3
ATOM      3  C   UNL     1     -11.946   9.273   5.861  1.00  0.00     0.000 C 
BRANCH   3   4
ATOM      4  C   UNL     1     -12.943   8.969   6.993  1.00  0.00     0.000 C 
BRANCH   4   5
ATOM      5  C   UNL     1     -13.981  10.093   7.157  1.00  0.00     0.000 C 
BRANCH   5   6
ATOM      6  C   UNL     1     -15.414   9.561   7.323  1.00  0.00     0.000 C 
BRANCH   6   7
ATOM      7  C   UNL     1     -16.484  10.621   6.995  1.00  0.00     0.000 C 
BRANCH   7   8
ATOM      8  C   UNL     1     -17.901  10.185   7.409  1.00  0.00     0.000 C 
BRANCH   8   9
ATOM      9  C   UNL     1     -17.995   9.561   8.815  1.00  0.00     0.000 C 
BRANCH   9  10
ATOM     10  C   UNL     1     -18.252  10.606   9.913  1.00  0.00     0.000 C 
BRANCH  10  11
ATOM     11  C   UNL     1     -17.182  10.512  11.013  1.00  0.00     0.000 C 
BRANCH  11  12
ATOM     12  C   UNL     1     -17.730   9.958  12.336  1.00  0.00     0.006 C 
BRANCH  12  13
ATOM     13  C   UNL     1     -17.226  10.734  13.560  1.00  0.00     0.053 C 
BRANCH  13  14
ATOM     14  C   UNL     1     -16.278  11.813  13.140  1.00  0.00     0.041 C 
ATOM     15  O   UNL     1     -16.712  12.945  12.807  1.00  0.00    -0.550 OA
ATOM     16  O   UNL     1     -14.909  11.576  13.157  1.00  0.00    -0.550 OA
ENDBRANCH  13  14
ENDBRANCH  12  13
ENDBRANCH  11  12
ENDBRANCH  10  11
ENDBRANCH   9  10
ENDBRANCH   8   9
ENDBRANCH   7   8
ENDBRANCH   6   7
ENDBRANCH   5   6
ENDBRANCH   4   5
ENDBRANCH   3   4
ENDBRANCH   2   3
ENDBRANCH   1   2
BRANCH   1  17
ATOM     17  C   UNL     1     -14.199   8.963   3.455  1.00  0.00     0.000 C 
BRANCH  17  18
ATOM     18  C   UNL     1     -15.348   9.981   3.641  1.00  0.00     0.000 C 
BRANCH  18  19
ATOM     19  C   UNL     1     -16.689   9.506   3.054  1.00  0.00     0.000 C 
BRANCH  19  20
ATOM     20  C   UNL     1     -16.877   9.935   1.590  1.00  0.00     0.000 C 
BRANCH  20  21
ATOM     21  C   UNL     1     -17.999  10.972   1.413  1.00  0.00     0.000 C 
BRANCH  21  22
ATOM     22  C   UNL     1     -18.919  10.661   0.219  1.00  0.00    -0.000 C 
BRANCH  22  23
ATOM     23  C   UNL     1     -18.137  10.215  -1.029  1.00  0.00    -0.000 C 
BRANCH  23  24
ATOM     24  C   UNL     1     -17.478  11.394  -1.766  1.00  0.00    -0.000 C 
BRANCH  24  25
ATOM     25  C   UNL     1     -15.943  11.280  -1.808  1.00  0.00    -0.000 C 
BRANCH  25  26
ATOM     26  C   UNL     1     -15.428   9.838  -1.972  1.00  0.00    -0.000 C 
BRANCH  26  27
ATOM     27  C   UNL     1     -13.889   9.765  -2.007  1.00  0.00    -0.000 C 
BRANCH  27  28
ATOM     28  C   UNL     1     -13.258  10.877  -2.864  1.00  0.00    -0.000 C 
BRANCH  28  29
ATOM     29  C   UNL     1     -12.779  10.423  -4.255  1.00  0.00    -0.003 C 
ATOM     30  C   UNL     1     -13.463   9.143  -4.736  1.00  0.00     0.004 C 
ENDBRANCH  28  29
ENDBRANCH  27  28
ENDBRANCH  26  27
ENDBRANCH  25  26
ENDBRANCH  24  25
ENDBRANCH  23  24
ENDBRANCH  22  23
ENDBRANCH  21  22
ENDBRANCH  20  21
ENDBRANCH  19  20
ENDBRANCH  18  19
ENDBRANCH  17  18
ENDBRANCH   1  17
TORSDOF 26
ENDMDL
MODEL 4
REMARK VINA RESULT:    -2.789      1.551      2.034
REMARK INTER + INTRA:         -10.471
REMARK INTER:                  -7.932
REMARK INTRA:                  -2.539
REMARK UNBOUND:                -3.444
REMARK SMILES CCCCCCCCCCCCCCCCCCCCCCCCCCCC(=O)[O-]
REMARK SMILES IDX 15 1 16 2 17 3 18 4 19 5 20 6 21 7 22 8 23 9 24 10 25 11
REMARK SMILES IDX 26 12 27 13 28 14 29 15 30 16 14 17 13 18 12 19 11 20 10 21
REMARK SMILES IDX 9 22 8 23 7 24 6 25 5 26 4 27 3 28 2 29 1 30
REMARK H PARENT
REMARK Flexibility Score: inf
ROOT
ATOM      1  C   UNL     1     -12.629  10.515   4.670  1.00  0.00     0.000 C 
ENDROOT
BRANCH   1   2
ATOM      2  C   UNL     1     -14.147  10.565   4.421  1.00  0.00     0.000 C 
BRANCH   2   3
ATOM      3  C   UNL     1     -14.774   9.161   4.321  1.00  0.00     0.000 C 
BRANCH   3   4
ATOM      4  C   UNL     1     -15.857   9.084   3.230  1.00  0.00     0.000 C 
BRANCH   4   5
ATOM      5  C   UNL     1     -16.713  10.362   3.185  1.00  0.00     0.000 C 
BRANCH   5   6
ATOM      6  C   UNL     1     -17.933  10.229   2.258  1.00  0.00     0.000 C 
BRANCH   6   7
ATOM      7  C   UNL     1     -17.684  10.823   0.858  1.00  0.00     0.000 C 
BRANCH   7   8
ATOM      8  C   UNL     1     -16.800   9.920  -0.022  1.00  0.00     0.000 C 
BRANCH   8   9
ATOM      9  C   UNL     1     -17.013  10.095  -1.538  1.00  0.00     0.000 C 
BRANCH   9  10
ATOM     10  C   UNL     1     -15.743   9.808  -2.354  1.00  0.00     0.000 C 
BRANCH  10  11
ATOM     11  C   UNL     1     -14.990  11.112  -2.662  1.00  0.00     0.000 C 
BRANCH  11  12
ATOM     12  C   UNL     1     -13.475  10.910  -2.808  1.00  0.00     0.006 C 
BRANCH  12  13
ATOM     13  C   UNL     1     -13.070  10.434  -4.209  1.00  0.00     0.053 C 
BRANCH  13  14
ATOM     14  C   UNL     1     -13.870  11.146  -5.254  1.00  0.00     0.041 C 
ATOM     15  O   UNL     1     -13.671  12.367  -5.483  1.00  0.00    -0.550 OA
ATOM     16  O   UNL     1     -14.809  10.447  -6.004  1.00  0.00    -0.550 OA
ENDBRANCH  13  14
ENDBRANCH  12  13
ENDBRANCH  11  12
ENDBRANCH  10  11
ENDBRANCH   9  10
ENDBRANCH   8   9
ENDBRANCH   7   8
ENDBRANCH   6   7
ENDBRANCH   5   6
ENDBRANCH   4   5
ENDBRANCH   3   4
ENDBRANCH   2   3
ENDBRANCH   1   2
BRANCH   1  17
ATOM     17  C   UNL     1     -12.290  10.535   6.173  1.00  0.00     0.000 C 
BRANCH  17  18
ATOM     18  C   UNL     1     -12.672   9.212   6.877  1.00  0.00     0.000 C 
BRANCH  18  19
ATOM     19  C   UNL     1     -13.431   9.418   8.200  1.00  0.00     0.000 C 
BRANCH  19  20
ATOM     20  C   UNL     1     -14.931   9.103   8.074  1.00  0.00     0.000 C 
BRANCH  20  21
ATOM     21  C   UNL     1     -15.775  10.348   7.752  1.00  0.00     0.000 C 
BRANCH  21  22
ATOM     22  C   UNL     1     -17.153  10.001   7.160  1.00  0.00    -0.000 C 
BRANCH  22  23
ATOM     23  C   UNL     1     -18.312  10.396   8.092  1.00  0.00    -0.000 C 
BRANCH  23  24
ATOM     24  C   UNL     1     -18.207   9.735   9.478  1.00  0.00    -0.000 C 
BRANCH  24  25
ATOM     25  C   UNL     1     -18.764  10.629  10.601  1.00  0.00    -0.000 C 
BRANCH  25  26
ATOM     26  C   UNL     1     -17.686  11.428  11.357  1.00  0.00    -0.000 C 
BRANCH  26  27
ATOM     27  C   UNL     1     -17.370  10.826  12.739  1.00  0.00    -0.000 C 
BRANCH  27  28
ATOM     28  C   UNL     1     -16.010  10.107  12.780  1.00  0.00    -0.000 C 
BRANCH  28  29
ATOM     29  C   UNL     1     -15.109  10.368  11.559  1.00  0.00    -0.003 C 
ATOM     30  C   UNL     1     -13.617  10.320  11.893  1.00  0.00     0.004 C 
ENDBRANCH  28  29
ENDBRANCH  27  28
ENDBRANCH  26  27
ENDBRANCH  25  26
ENDBRANCH  24  25
ENDBRANCH  23  24
ENDBRANCH  22  23
ENDBRANCH  21  22
ENDBRANCH  20  21
ENDBRANCH  19  20
ENDBRANCH  18  19
ENDBRANCH  17  18
ENDBRANCH   1  17
TORSDOF 26
ENDMDL
MODEL 5
REMARK VINA RESULT:    -2.753      3.717     11.008
REMARK INTER + INTRA:         -10.380
REMARK INTER:                  -7.756
REMARK INTRA:                  -2.624
REMARK UNBOUND:                -3.444
REMARK SMILES CCCCCCCCCCCCCCCCCCCCCCCCCCCC(=O)[O-]
REMARK SMILES IDX 15 1 16 2 17 3 18 4 19 5 20 6 21 7 22 8 23 9 24 10 25 11
REMARK SMILES IDX 26 12 27 13 28 14 29 15 30 16 14 17 13 18 12 19 11 20 10 21
REMARK SMILES IDX 9 22 8 23 7 24 6 25 5 26 4 27 3 28 2 29 1 30
REMARK H PARENT
REMARK Flexibility Score: inf
ROOT
ATOM      1  C   UNL     1     -15.127  11.117   5.080  1.00  0.00     0.000 C 
ENDROOT
BRANCH   1   2
ATOM      2  C   UNL     1     -15.695  11.104   6.510  1.00  0.00     0.000 C 
BRANCH   2   3
ATOM      3  C   UNL     1     -16.439   9.796   6.837  1.00  0.00     0.000 C 
BRANCH   3   4
ATOM      4  C   UNL     1     -17.952   9.905   6.573  1.00  0.00     0.000 C 
BRANCH   4   5
ATOM      5  C   UNL     1     -18.775   9.582   7.832  1.00  0.00     0.000 C 
BRANCH   5   6
ATOM      6  C   UNL     1     -18.285  10.341   9.076  1.00  0.00     0.000 C 
BRANCH   6   7
ATOM      7  C   UNL     1     -18.428   9.517  10.370  1.00  0.00     0.000 C 
BRANCH   7   8
ATOM      8  C   UNL     1     -18.933  10.357  11.558  1.00  0.00     0.000 C 
BRANCH   8   9
ATOM      9  C   UNL     1     -18.788  11.880  11.374  1.00  0.00     0.000 C 
BRANCH   9  10
ATOM     10  C   UNL     1     -17.622  12.469  12.184  1.00  0.00     0.000 C 
BRANCH  10  11
ATOM     11  C   UNL     1     -17.243  11.535  13.345  1.00  0.00     0.000 C 
BRANCH  11  12
ATOM     12  C   UNL     1     -15.742  11.217  13.393  1.00  0.00     0.006 C 
BRANCH  12  13
ATOM     13  C   UNL     1     -15.190  10.745  12.041  1.00  0.00     0.053 C 
BRANCH  13  14
ATOM     14  C   UNL     1     -13.719  10.486  12.139  1.00  0.00     0.041 C 
ATOM     15  O   UNL     1     -13.017  11.120  12.969  1.00  0.00    -0.550 OA
ATOM     16  O   UNL     1     -13.132   9.513  11.340  1.00  0.00    -0.550 OA
ENDBRANCH  13  14
ENDBRANCH  12  13
ENDBRANCH  11  12
ENDBRANCH  10  11
ENDBRANCH   9  10
ENDBRANCH   8   9
ENDBRANCH   7   8
ENDBRANCH   6   7
ENDBRANCH   5   6
ENDBRANCH   4   5
ENDBRANCH   3   4
ENDBRANCH   2   3
ENDBRANCH   1   2
BRANCH   1  17
ATOM     17  C   UNL     1     -14.937   9.692   4.523  1.00  0.00     0.000 C 
BRANCH  17  18
ATOM     18  C   UNL     1     -15.867   9.404   3.322  1.00  0.00     0.000 C 
BRANCH  18  19
ATOM     19  C   UNL     1     -16.848  10.551   3.019  1.00  0.00     0.000 C 
BRANCH  19  20
ATOM     20  C   UNL     1     -18.244  10.044   2.622  1.00  0.00     0.000 C 
BRANCH  20  21
ATOM     21  C   UNL     1     -18.808  10.761   1.384  1.00  0.00     0.000 C 
BRANCH  21  22
ATOM     22  C   UNL     1     -17.805  10.820   0.217  1.00  0.00    -0.000 C 
BRANCH  22  23
ATOM     23  C   UNL     1     -18.328  11.649  -0.969  1.00  0.00    -0.000 C 
BRANCH  23  24
ATOM     24  C   UNL     1     -17.278  12.636  -1.508  1.00  0.00    -0.000 C 
BRANCH  24  25
ATOM     25  C   UNL     1     -17.324  12.765  -3.042  1.00  0.00    -0.000 C 
BRANCH  25  26
ATOM     26  C   UNL     1     -16.038  12.297  -3.748  1.00  0.00    -0.000 C 
BRANCH  26  27
ATOM     27  C   UNL     1     -14.898  12.001  -2.754  1.00  0.00    -0.000 C 
BRANCH  27  28
ATOM     28  C   UNL     1     -13.890  10.968  -3.292  1.00  0.00    -0.000 C 
BRANCH  28  29
ATOM     29  C   UNL     1     -13.932   9.601  -2.585  1.00  0.00    -0.003 C 
ATOM     30  C   UNL     1     -14.884   9.574  -1.389  1.00  0.00     0.004 C 
ENDBRANCH  28  29
ENDBRANCH  27  28
ENDBRANCH  26  27
ENDBRANCH  25  26
ENDBRANCH  24  25
ENDBRANCH  23  24
ENDBRANCH  22  23
ENDBRANCH  21  22
ENDBRANCH  20  21
ENDBRANCH  19  20
ENDBRANCH  18  19
ENDBRANCH  17  18
ENDBRANCH   1  17
TORSDOF 26
ENDMDL
MODEL 6
REMARK VINA RESULT:    -2.734      1.653      3.243
REMARK INTER + INTRA:         -10.334
REMARK INTER:                  -7.918
REMARK INTRA:                  -2.416
REMARK UNBOUND:                -3.444
REMARK SMILES CCCCCCCCCCCCCCCCCCCCCCCCCCCC(=O)[O-]
REMARK SMILES IDX 15 1 16 2 17 3 18 4 19 5 20 6 21 7 22 8 23 9 24 10 25 11
REMARK SMILES IDX 26 12 27 13 28 14 29 15 30 16 14 17 13 18 12 19 11 20 10 21
REMARK SMILES IDX 9 22 8 23 7 24 6 25 5 26 4 27 3 28 2 29 1 30
REMARK H PARENT
REMARK Flexibility Score: inf
ROOT
ATOM      1  C   UNL     1     -13.201  10.640   5.204  1.00  0.00     0.000 C 
ENDROOT
BRANCH   1   2
ATOM      2  C   UNL     1     -12.726  10.350   3.769  1.00  0.00     0.000 C 
BRANCH   2   3
ATOM      3  C   UNL     1     -13.080   8.923   3.308  1.00  0.00     0.000 C 
BRANCH   3   4
ATOM      4  C   UNL     1     -14.408   8.875   2.532  1.00  0.00     0.000 C 
BRANCH   4   5
ATOM      5  C   UNL     1     -15.621   9.032   3.466  1.00  0.00     0.000 C 
BRANCH   5   6
ATOM      6  C   UNL     1     -16.390  10.342   3.230  1.00  0.00     0.000 C 
BRANCH   6   7
ATOM      7  C   UNL     1     -17.801  10.108   2.655  1.00  0.00     0.000 C 
BRANCH   7   8
ATOM      8  C   UNL     1     -17.835   8.983   1.604  1.00  0.00     0.000 C 
BRANCH   8   9
ATOM      9  C   UNL     1     -17.313   9.389   0.212  1.00  0.00     0.000 C 
BRANCH   9  10
ATOM     10  C   UNL     1     -17.653  10.844  -0.148  1.00  0.00     0.000 C 
BRANCH  10  11
ATOM     11  C   UNL     1     -17.350  11.121  -1.630  1.00  0.00     0.000 C 
BRANCH  11  12
ATOM     12  C   UNL     1     -16.443  12.342  -1.838  1.00  0.00     0.006 C 
BRANCH  12  13
ATOM     13  C   UNL     1     -15.200  12.023  -2.678  1.00  0.00     0.053 C 
BRANCH  13  14
ATOM     14  C   UNL     1     -15.432  12.381  -4.112  1.00  0.00     0.041 C 
ATOM     15  O   UNL     1     -14.873  11.725  -5.029  1.00  0.00    -0.550 OA
ATOM     16  O   UNL     1     -16.301  13.416  -4.437  1.00  0.00    -0.550 OA
ENDBRANCH  13  14
ENDBRANCH  12  13
ENDBRANCH  11  12
ENDBRANCH  10  11
ENDBRANCH   9  10
ENDBRANCH   8   9
ENDBRANCH   7   8
ENDBRANCH   6   7
ENDBRANCH   5   6
ENDBRANCH   4   5
ENDBRANCH   3   4
ENDBRANCH   2   3
ENDBRANCH   1   2
BRANCH   1  17
ATOM     17  C   UNL     1     -12.174  10.177   6.256  1.00  0.00     0.000 C 
BRANCH  17  18
ATOM     18  C   UNL     1     -12.797   9.219   7.299  1.00  0.00     0.000 C 
BRANCH  18  19
ATOM     19  C   UNL     1     -14.319   9.387   7.452  1.00  0.00     0.000 C 
BRANCH  19  20
ATOM     20  C   UNL     1     -14.753   9.511   8.922  1.00  0.00     0.000 C 
BRANCH  20  21
ATOM     21  C   UNL     1     -13.610   9.216   9.907  1.00  0.00     0.000 C 
BRANCH  21  22
ATOM     22  C   UNL     1     -14.079   9.166  11.372  1.00  0.00    -0.000 C 
BRANCH  22  23
ATOM     23  C   UNL     1     -13.698  10.433  12.158  1.00  0.00    -0.000 C 
BRANCH  23  24
ATOM     24  C   UNL     1     -14.609  10.670  13.375  1.00  0.00    -0.000 C 
BRANCH  24  25
ATOM     25  C   UNL     1     -15.564  11.861  13.175  1.00  0.00    -0.000 C 
BRANCH  25  26
ATOM     26  C   UNL     1     -17.038  11.457  12.987  1.00  0.00    -0.000 C 
BRANCH  26  27
ATOM     27  C   UNL     1     -17.325  10.032  13.498  1.00  0.00    -0.000 C 
BRANCH  27  28
ATOM     28  C   UNL     1     -18.208   9.219  12.535  1.00  0.00    -0.000 C 
BRANCH  28  29
ATOM     29  C   UNL     1     -17.638   9.068  11.113  1.00  0.00    -0.003 C 
ATOM     30  C   UNL     1     -18.529   9.695  10.040  1.00  0.00     0.004 C 
ENDBRANCH  28  29
ENDBRANCH  27  28
ENDBRANCH  26  27
ENDBRANCH  25  26
ENDBRANCH  24  25
ENDBRANCH  23  24
ENDBRANCH  22  23
ENDBRANCH  21  22
ENDBRANCH  20  21
ENDBRANCH  19  20
ENDBRANCH  18  19
ENDBRANCH  17  18
ENDBRANCH   1  17
TORSDOF 26
ENDMDL
MODEL 7
REMARK VINA RESULT:    -2.703      3.682     10.562
REMARK INTER + INTRA:         -10.254
REMARK INTER:                  -7.948
REMARK INTRA:                  -2.306
REMARK UNBOUND:                -3.444
REMARK SMILES CCCCCCCCCCCCCCCCCCCCCCCCCCCC(=O)[O-]
REMARK SMILES IDX 15 1 16 2 17 3 18 4 19 5 20 6 21 7 22 8 23 9 24 10 25 11
REMARK SMILES IDX 26 12 27 13 28 14 29 15 30 16 14 17 13 18 12 19 11 20 10 21
REMARK SMILES IDX 9 22 8 23 7 24 6 25 5 26 4 27 3 28 2 29 1 30
REMARK H PARENT
REMARK Flexibility Score: inf
ROOT
ATOM      1  C   UNL     1     -12.804  10.828   4.367  1.00  0.00     0.000 C 
ENDROOT
BRANCH   1   2
ATOM      2  C   UNL     1     -13.141  10.922   5.866  1.00  0.00     0.000 C 
BRANCH   2   3
ATOM      3  C   UNL     1     -12.364   9.893   6.710  1.00  0.00     0.000 C 
BRANCH   3   4
ATOM      4  C   UNL     1     -13.296   8.875   7.390  1.00  0.00     0.000 C 
BRANCH   4   5
ATOM      5  C   UNL     1     -14.589   9.536   7.899  1.00  0.00     0.000 C 
BRANCH   5   6
ATOM      6  C   UNL     1     -15.853   8.961   7.239  1.00  0.00     0.000 C 
BRANCH   6   7
ATOM      7  C   UNL     1     -17.084   9.014   8.164  1.00  0.00     0.000 C 
BRANCH   7   8
ATOM      8  C   UNL     1     -16.731   9.446   9.599  1.00  0.00     0.000 C 
BRANCH   8   9
ATOM      9  C   UNL     1     -17.619  10.569  10.169  1.00  0.00     0.000 C 
BRANCH   9  10
ATOM     10  C   UNL     1     -17.754  10.503  11.698  1.00  0.00     0.000 C 
BRANCH  10  11
ATOM     11  C   UNL     1     -17.334  11.836  12.338  1.00  0.00     0.000 C 
BRANCH  11  12
ATOM     12  C   UNL     1     -15.907  11.806  12.904  1.00  0.00     0.006 C 
BRANCH  12  13
ATOM     13  C   UNL     1     -15.257  10.420  12.807  1.00  0.00     0.053 C 
BRANCH  13  14
ATOM     14  C   UNL     1     -13.811  10.546  12.441  1.00  0.00     0.041 C 
ATOM     15  O   UNL     1     -13.369   9.991  11.403  1.00  0.00    -0.550 OA
ATOM     16  O   UNL     1     -12.961  11.312  13.229  1.00  0.00    -0.550 OA
ENDBRANCH  13  14
ENDBRANCH  12  13
ENDBRANCH  11  12
ENDBRANCH  10  11
ENDBRANCH   9  10
ENDBRANCH   8   9
ENDBRANCH   7   8
ENDBRANCH   6   7
ENDBRANCH   5   6
ENDBRANCH   4   5
ENDBRANCH   3   4
ENDBRANCH   2   3
ENDBRANCH   1   2
BRANCH   1  17
ATOM     17  C   UNL     1     -13.186   9.458   3.775  1.00  0.00     0.000 C 
BRANCH  17  18
ATOM     18  C   UNL     1     -14.684   9.132   3.974  1.00  0.00     0.000 C 
BRANCH  18  19
ATOM     19  C   UNL     1     -15.609  10.341   3.749  1.00  0.00     0.000 C 
BRANCH  19  20
ATOM     20  C   UNL     1     -17.089   9.938   3.632  1.00  0.00     0.000 C 
BRANCH  20  21
ATOM     21  C   UNL     1     -17.425   9.299   2.274  1.00  0.00     0.000 C 
BRANCH  21  22
ATOM     22  C   UNL     1     -18.327  10.189   1.400  1.00  0.00    -0.000 C 
BRANCH  22  23
ATOM     23  C   UNL     1     -18.213   9.855  -0.098  1.00  0.00    -0.000 C 
BRANCH  23  24
ATOM     24  C   UNL     1     -16.993  10.520  -0.760  1.00  0.00    -0.000 C 
BRANCH  24  25
ATOM     25  C   UNL     1     -17.281  11.965  -1.208  1.00  0.00    -0.000 C 
BRANCH  25  26
ATOM     26  C   UNL     1     -16.447  12.421  -2.420  1.00  0.00    -0.000 C 
BRANCH  26  27
ATOM     27  C   UNL     1     -15.891  11.235  -3.230  1.00  0.00    -0.000 C 
BRANCH  27  28
ATOM     28  C   UNL     1     -14.378  11.346  -3.490  1.00  0.00    -0.000 C 
BRANCH  28  29
ATOM     29  C   UNL     1     -13.498  10.535  -2.522  1.00  0.00    -0.003 C 
ATOM     30  C   UNL     1     -13.972   9.091  -2.349  1.00  0.00     0.004 C 
ENDBRANCH  28  29
ENDBRANCH  27  28
ENDBRANCH  26  27
ENDBRANCH  25  26
ENDBRANCH  24  25
ENDBRANCH  23  24
ENDBRANCH  22  23
ENDBRANCH  21  22
ENDBRANCH  20  21
ENDBRANCH  19  20
ENDBRANCH  18  19
ENDBRANCH  17  18
ENDBRANCH   1  17
TORSDOF 26
ENDMDL
MODEL 8
REMARK VINA RESULT:    -2.605      3.919     12.090
REMARK INTER + INTRA:         -10.008
REMARK INTER:                  -7.303
REMARK INTRA:                  -2.706
REMARK UNBOUND:                -3.444
REMARK SMILES CCCCCCCCCCCCCCCCCCCCCCCCCCCC(=O)[O-]
REMARK SMILES IDX 15 1 16 2 17 3 18 4 19 5 20 6 21 7 22 8 23 9 24 10 25 11
REMARK SMILES IDX 26 12 27 13 28 14 29 15 30 16 14 17 13 18 12 19 11 20 10 21
REMARK SMILES IDX 9 22 8 23 7 24 6 25 5 26 4 27 3 28 2 29 1 30
REMARK H PARENT
REMARK Flexibility Score: inf
ROOT
ATOM      1  C   UNL     1     -16.854  10.005   1.845  1.00  0.00     0.000 C 
ENDROOT
BRANCH   1   2
ATOM      2  C   UNL     1     -16.980   9.156   3.122  1.00  0.00     0.000 C 
BRANCH   2   3
ATOM      3  C   UNL     1     -18.178   9.577   3.994  1.00  0.00     0.000 C 
BRANCH   3   4
ATOM      4  C   UNL     1     -18.050   9.073   5.442  1.00  0.00     0.000 C 
BRANCH   4   5
ATOM      5  C   UNL     1     -17.211  10.030   6.307  1.00  0.00     0.000 C 
BRANCH   5   6
ATOM      6  C   UNL     1     -16.451   9.307   7.431  1.00  0.00     0.000 C 
BRANCH   6   7
ATOM      7  C   UNL     1     -16.792   9.857   8.829  1.00  0.00     0.000 C 
BRANCH   7   8
ATOM      8  C   UNL     1     -18.308   9.914   9.092  1.00  0.00     0.000 C 
BRANCH   8   9
ATOM      9  C   UNL     1     -18.718  10.776  10.302  1.00  0.00     0.000 C 
BRANCH   9  10
ATOM     10  C   UNL     1     -17.768  10.609  11.499  1.00  0.00     0.000 C 
BRANCH  10  11
ATOM     11  C   UNL     1     -17.082  11.943  11.837  1.00  0.00     0.000 C 
BRANCH  11  12
ATOM     12  C   UNL     1     -16.144  11.844  13.048  1.00  0.00     0.006 C 
BRANCH  12  13
ATOM     13  C   UNL     1     -15.382  10.513  13.104  1.00  0.00     0.053 C 
BRANCH  13  14
ATOM     14  C   UNL     1     -14.081  10.625  12.374  1.00  0.00     0.041 C 
ATOM     15  O   UNL     1     -13.089  11.169  12.924  1.00  0.00    -0.550 OA
ATOM     16  O   UNL     1     -13.954  10.089  11.098  1.00  0.00    -0.550 OA
ENDBRANCH  13  14
ENDBRANCH  12  13
ENDBRANCH  11  12
ENDBRANCH  10  11
ENDBRANCH   9  10
ENDBRANCH   8   9
ENDBRANCH   7   8
ENDBRANCH   6   7
ENDBRANCH   5   6
ENDBRANCH   4   5
ENDBRANCH   3   4
ENDBRANCH   2   3
ENDBRANCH   1   2
BRANCH   1  17
ATOM     17  C   UNL     1     -17.958  11.078   1.755  1.00  0.00     0.000 C 
BRANCH  17  18
ATOM     18  C   UNL     1     -18.771  10.973   0.444  1.00  0.00     0.000 C 
BRANCH  18  19
ATOM     19  C   UNL     1     -17.936  10.498  -0.758  1.00  0.00     0.000 C 
BRANCH  19  20
ATOM     20  C   UNL     1     -17.494  11.660  -1.664  1.00  0.00     0.000 C 
BRANCH  20  21
ATOM     21  C   UNL     1     -15.971  11.709  -1.868  1.00  0.00     0.000 C 
BRANCH  21  22
ATOM     22  C   UNL     1     -15.343  10.314  -2.035  1.00  0.00    -0.000 C 
BRANCH  22  23
ATOM     23  C   UNL     1     -13.832  10.377  -2.320  1.00  0.00    -0.000 C 
BRANCH  23  24
ATOM     24  C   UNL     1     -13.474   9.851  -3.721  1.00  0.00    -0.000 C 
BRANCH  24  25
ATOM     25  C   UNL     1     -12.758  10.908  -4.583  1.00  0.00    -0.000 C 
BRANCH  25  26
ATOM     26  C   UNL     1     -13.713  11.805  -5.392  1.00  0.00    -0.000 C 
BRANCH  26  27
ATOM     27  C   UNL     1     -14.960  11.045  -5.881  1.00  0.00    -0.000 C 
BRANCH  27  28
ATOM     28  C   UNL     1     -16.274  11.770  -5.538  1.00  0.00    -0.000 C 
BRANCH  28  29
ATOM     29  C   UNL     1     -16.127  13.282  -5.285  1.00  0.00    -0.003 C 
ATOM     30  C   UNL     1     -17.359  13.903  -4.628  1.00  0.00     0.004 C 
ENDBRANCH  28  29
ENDBRANCH  27  28
ENDBRANCH  26  27
ENDBRANCH  25  26
ENDBRANCH  24  25
ENDBRANCH  23  24
ENDBRANCH  22  23
ENDBRANCH  21  22
ENDBRANCH  20  21
ENDBRANCH  19  20
ENDBRANCH  18  19
ENDBRANCH  17  18
ENDBRANCH   1  17
TORSDOF 26
ENDMDL
MODEL 9
REMARK VINA RESULT:    -2.581      3.947     11.916
REMARK INTER + INTRA:          -9.948
REMARK INTER:                  -7.237
REMARK INTRA:                  -2.711
REMARK UNBOUND:                -3.444
REMARK SMILES CCCCCCCCCCCCCCCCCCCCCCCCCCCC(=O)[O-]
REMARK SMILES IDX 15 1 16 2 17 3 18 4 19 5 20 6 21 7 22 8 23 9 24 10 25 11
REMARK SMILES IDX 26 12 27 13 28 14 29 15 30 16 14 17 13 18 12 19 11 20 10 21
REMARK SMILES IDX 9 22 8 23 7 24 6 25 5 26 4 27 3 28 2 29 1 30
REMARK H PARENT
REMARK Flexibility Score: inf
ROOT
ATOM      1  C   UNL     1     -16.823  10.008   2.388  1.00  0.00     0.000 C 
ENDROOT
BRANCH   1   2
ATOM      2  C   UNL     1     -17.040   9.105   3.616  1.00  0.00     0.000 C 
BRANCH   2   3
ATOM      3  C   UNL     1     -18.193   9.596   4.511  1.00  0.00     0.000 C 
BRANCH   3   4
ATOM      4  C   UNL     1     -17.999   9.191   5.984  1.00  0.00     0.000 C 
BRANCH   4   5
ATOM      5  C   UNL     1     -17.263  10.280   6.783  1.00  0.00     0.000 C 
BRANCH   5   6
ATOM      6  C   UNL     1     -16.470   9.715   7.973  1.00  0.00     0.000 C 
BRANCH   6   7
ATOM      7  C   UNL     1     -16.901  10.327   9.319  1.00  0.00     0.000 C 
BRANCH   7   8
ATOM      8  C   UNL     1     -18.423  10.544   9.415  1.00  0.00     0.000 C 
BRANCH   8   9
ATOM      9  C   UNL     1     -18.895  11.221  10.716  1.00  0.00     0.000 C 
BRANCH   9  10
ATOM     10  C   UNL     1     -18.009  10.871  11.922  1.00  0.00     0.000 C 
BRANCH  10  11
ATOM     11  C   UNL     1     -17.345  12.135  12.492  1.00  0.00     0.000 C 
BRANCH  11  12
ATOM     12  C   UNL     1     -15.952  11.867  13.081  1.00  0.00     0.006 C 
BRANCH  12  13
ATOM     13  C   UNL     1     -15.435  10.457  12.767  1.00  0.00     0.053 C 
BRANCH  13  14
ATOM     14  C   UNL     1     -14.044  10.521  12.219  1.00  0.00     0.041 C 
ATOM     15  O   UNL     1     -13.781  10.019  11.095  1.00  0.00    -0.550 OA
ATOM     16  O   UNL     1     -13.046  11.173  12.933  1.00  0.00    -0.550 OA
ENDBRANCH  13  14
ENDBRANCH  12  13
ENDBRANCH  11  12
ENDBRANCH  10  11
ENDBRANCH   9  10
ENDBRANCH   8   9
ENDBRANCH   7   8
ENDBRANCH   6   7
ENDBRANCH   5   6
ENDBRANCH   4   5
ENDBRANCH   3   4
ENDBRANCH   2   3
ENDBRANCH   1   2
BRANCH   1  17
ATOM     17  C   UNL     1     -18.026  10.939   2.139  1.00  0.00     0.000 C 
BRANCH  17  18
ATOM     18  C   UNL     1     -18.302  11.147   0.632  1.00  0.00     0.000 C 
BRANCH  18  19
ATOM     19  C   UNL     1     -17.144  10.689  -0.272  1.00  0.00     0.000 C 
BRANCH  19  20
ATOM     20  C   UNL     1     -17.632   9.931  -1.518  1.00  0.00     0.000 C 
BRANCH  20  21
ATOM     21  C   UNL     1     -17.655  10.811  -2.779  1.00  0.00     0.000 C 
BRANCH  21  22
ATOM     22  C   UNL     1     -16.706  12.019  -2.684  1.00  0.00    -0.000 C 
BRANCH  22  23
ATOM     23  C   UNL     1     -16.911  13.022  -3.832  1.00  0.00    -0.000 C 
BRANCH  23  24
ATOM     24  C   UNL     1     -15.752  13.008  -4.844  1.00  0.00    -0.000 C 
BRANCH  24  25
ATOM     25  C   UNL     1     -15.850  11.834  -5.836  1.00  0.00    -0.000 C 
BRANCH  25  26
ATOM     26  C   UNL     1     -14.583  10.960  -5.898  1.00  0.00    -0.000 C 
BRANCH  26  27
ATOM     27  C   UNL     1     -13.422  11.551  -5.077  1.00  0.00    -0.000 C 
BRANCH  27  28
ATOM     28  C   UNL     1     -12.848  10.556  -4.051  1.00  0.00    -0.000 C 
BRANCH  28  29
ATOM     29  C   UNL     1     -13.896   9.645  -3.385  1.00  0.00    -0.003 C 
ATOM     30  C   UNL     1     -13.862   9.710  -1.858  1.00  0.00     0.004 C 
ENDBRANCH  28  29
ENDBRANCH  27  28
ENDBRANCH  26  27
ENDBRANCH  25  26
ENDBRANCH  24  25
ENDBRANCH  23  24
ENDBRANCH  22  23
ENDBRANCH  21  22
ENDBRANCH  20  21
ENDBRANCH  19  20
ENDBRANCH  18  19
ENDBRANCH  17  18
ENDBRANCH   1  17
TORSDOF 26
ENDMDL
