MODEL 1
REMARK VINA RESULT:     4.196      0.000      0.000
REMARK INTER + INTRA:           5.597
REMARK INTER:                   5.054
REMARK INTRA:                   0.543
REMARK UNBOUND:                 0.543
REMARK SMILES O=c1c(O)c(-c2ccc(O)c(O)c2)oc2cc(O)cc(O)c12
REMARK SMILES IDX 5 1 3 2 2 3 1 4 22 5 20 6 19 7 17 8 16 9 15 10 14 11 6 12
REMARK SMILES IDX 7 13 8 14 9 15 13 16 11 17 10 18 12 20 4 22 21 24 18 26
REMARK H PARENT 10 19 12 21 4 23 21 25 18 27
REMARK Flexibility Score: inf
ROOT
ATOM      1  C   UNL     1      -2.183  32.002   8.914  1.00  0.00     0.180 A 
ATOM      2  C   UNL     1      -3.478  31.906   8.374  1.00  0.00     0.208 A 
ATOM      3  C   UNL     1      -3.633  31.883   6.979  1.00  0.00     0.238 A 
ATOM      4  O   UNL     1      -4.789  31.742   6.502  1.00  0.00    -0.285 OA
ATOM      5  C   UNL     1      -2.495  31.975   6.142  1.00  0.00     0.111 A 
ATOM      6  C   UNL     1      -2.538  32.003   4.715  1.00  0.00     0.134 A 
ATOM      7  C   UNL     1      -1.343  31.963   3.987  1.00  0.00     0.093 A 
ATOM      8  C   UNL     1      -0.106  31.963   4.631  1.00  0.00     0.123 A 
ATOM      9  C   UNL     1      -0.052  31.996   6.025  1.00  0.00     0.094 A 
ATOM     10  C   UNL     1      -1.227  31.999   6.780  1.00  0.00     0.146 A 
ATOM     11  O   UNL     1      -1.132  32.020   8.104  1.00  0.00    -0.452 OA
ENDROOT
BRANCH   1  12
ATOM     12  C   UNL     1      -1.941  32.055  10.374  1.00  0.00     0.025 A 
ATOM     13  C   UNL     1      -0.637  32.034  10.901  1.00  0.00     0.016 A 
ATOM     14  C   UNL     1      -0.433  32.061  12.283  1.00  0.00     0.051 A 
ATOM     15  C   UNL     1      -1.526  32.096  13.159  1.00  0.00     0.157 A 
ATOM     16  C   UNL     1      -3.033  32.070  11.257  1.00  0.00     0.062 A 
ATOM     17  C   UNL     1      -2.833  32.097  12.642  1.00  0.00     0.158 A 
BRANCH  15  18
ATOM     18  O   UNL     1      -1.320  32.125  14.537  1.00  0.00    -0.504 OA
ATOM     19  H   UNL     1      -1.974  32.583  15.162  1.00  0.00     0.293 HD
ENDBRANCH  15  18
BRANCH  17  20
ATOM     20  O   UNL     1      -3.942  32.125  13.486  1.00  0.00    -0.504 OA
ATOM     21  H   UNL     1      -4.517  32.952  13.592  1.00  0.00     0.293 HD
ENDBRANCH  17  20
ENDBRANCH   1  12
BRANCH   2  22
ATOM     22  O   UNL     1      -4.585  31.794   9.219  1.00  0.00    -0.502 OA
ATOM     23  H   UNL     1      -4.805  32.491   9.921  1.00  0.00     0.293 HD
ENDBRANCH   2  22
BRANCH   6  24
ATOM     24  O   UNL     1      -3.719  32.097   3.972  1.00  0.00    -0.507 OA
ATOM     25  H   UNL     1      -4.185  31.319   3.531  1.00  0.00     0.293 HD
ENDBRANCH   6  24
BRANCH   8  26
ATOM     26  O   UNL     1       1.063  31.940   3.875  1.00  0.00    -0.508 OA
ATOM     27  H   UNL     1       1.230  31.224   3.178  1.00  0.00     0.293 HD
ENDBRANCH   8  26
TORSDOF 6
ENDMDL
MODEL 2
REMARK VINA RESULT:     6.192     23.219     26.084
REMARK INTER + INTRA:           8.002
REMARK INTER:                   7.531
REMARK INTRA:                   0.471
REMARK UNBOUND:                 0.543
REMARK SMILES O=c1c(O)c(-c2ccc(O)c(O)c2)oc2cc(O)cc(O)c12
REMARK SMILES IDX 5 1 3 2 2 3 1 4 22 5 20 6 19 7 17 8 16 9 15 10 14 11 6 12
REMARK SMILES IDX 7 13 8 14 9 15 13 16 11 17 10 18 12 20 4 22 21 24 18 26
REMARK H PARENT 10 19 12 21 4 23 21 25 18 27
REMARK Flexibility Score: inf
ROOT
ATOM      1  C   UNL     1      10.837  13.602  20.318  1.00  0.00     0.180 A 
ATOM      2  C   UNL     1      11.059  12.923  21.529  1.00  0.00     0.208 A 
ATOM      3  C   UNL     1      12.126  13.325  22.348  1.00  0.00     0.238 A 
ATOM      4  O   UNL     1      12.286  12.750  23.456  1.00  0.00    -0.285 OA
ATOM      5  C   UNL     1      12.967  14.388  21.940  1.00  0.00     0.111 A 
ATOM      6  C   UNL     1      14.101  14.852  22.672  1.00  0.00     0.134 A 
ATOM      7  C   UNL     1      14.783  15.995  22.238  1.00  0.00     0.093 A 
ATOM      8  C   UNL     1      14.414  16.652  21.065  1.00  0.00     0.123 A 
ATOM      9  C   UNL     1      13.344  16.172  20.309  1.00  0.00     0.094 A 
ATOM     10  C   UNL     1      12.621  15.055  20.735  1.00  0.00     0.146 A 
ATOM     11  O   UNL     1      11.602  14.637  19.994  1.00  0.00    -0.452 OA
ENDROOT
BRANCH   1  12
ATOM     12  C   UNL     1       9.747  13.221  19.390  1.00  0.00     0.025 A 
ATOM     13  C   UNL     1       8.804  12.236  19.733  1.00  0.00     0.016 A 
ATOM     14  C   UNL     1       7.800  11.875  18.831  1.00  0.00     0.051 A 
ATOM     15  C   UNL     1       7.730  12.482  17.571  1.00  0.00     0.157 A 
ATOM     16  C   UNL     1       9.685  13.811  18.117  1.00  0.00     0.062 A 
ATOM     17  C   UNL     1       8.680  13.452  17.211  1.00  0.00     0.158 A 
BRANCH  15  18
ATOM     18  O   UNL     1       6.725  12.121  16.674  1.00  0.00    -0.504 OA
ATOM     19  H   UNL     1       6.522  11.150  16.467  1.00  0.00     0.293 HD
ENDBRANCH  15  18
BRANCH  17  20
ATOM     20  O   UNL     1       8.642  14.070  15.963  1.00  0.00    -0.504 OA
ATOM     21  H   UNL     1       9.359  14.719  15.661  1.00  0.00     0.293 HD
ENDBRANCH  17  20
ENDBRANCH   1  12
BRANCH   2  22
ATOM     22  O   UNL     1      10.203  11.891  21.923  1.00  0.00    -0.502 OA
ATOM     23  H   UNL     1       9.717  11.898  22.812  1.00  0.00     0.293 HD
ENDBRANCH   2  22
BRANCH   6  24
ATOM     24  O   UNL     1      14.611  14.213  23.806  1.00  0.00    -0.507 OA
ATOM     25  H   UNL     1      14.474  14.528  24.754  1.00  0.00     0.293 HD
ENDBRANCH   6  24
BRANCH   8  26
ATOM     26  O   UNL     1      15.125  17.777  20.654  1.00  0.00    -0.508 OA
ATOM     27  H   UNL     1      15.410  17.902  19.690  1.00  0.00     0.293 HD
ENDBRANCH   8  26
TORSDOF 6
ENDMDL
