MODEL 1
REMARK VINA RESULT:    -2.767      0.000      0.000
REMARK INTER + INTRA:          -6.614
REMARK INTER:                  -4.223
REMARK INTRA:                  -2.391
REMARK UNBOUND:                -2.391
REMARK SMILES CC(=O)CCC=C(C)CCC=C(C)CCC=C(C)C
REMARK SMILES IDX 10 1 11 2 12 3 13 4 14 5 15 6 16 7 18 8 17 9 19 10 9 11 7 12
REMARK SMILES IDX 6 13 8 14 5 15 4 16 2 17 3 18 1 19
REMARK H PARENT
REMARK Flexibility Score: inf
ROOT
ATOM      1  C   UNL     1     166.547 171.758 141.888  1.00  0.00     0.032 C 
ENDROOT
BRANCH   1   2
ATOM      2  C   UNL     1     167.001 170.794 140.817  1.00  0.00    -0.028 C 
ATOM      3  C   UNL     1     166.721 169.470 140.802  1.00  0.00    -0.077 C 
ATOM      4  C   UNL     1     166.004 168.790 141.943  1.00  0.00     0.039 C 
BRANCH   3   5
ATOM      5  C   UNL     1     167.189 168.627 139.634  1.00  0.00     0.034 C 
BRANCH   5   6
ATOM      6  C   UNL     1     168.528 169.126 139.074  1.00  0.00     0.032 C 
BRANCH   6   7
ATOM      7  C   UNL     1     169.696 168.340 139.624  1.00  0.00    -0.028 C 
ATOM      8  C   UNL     1     171.713 167.918 140.960  1.00  0.00     0.039 C 
ATOM      9  C   UNL     1     170.634 168.842 140.458  1.00  0.00    -0.080 C 
ATOM     10  C   UNL     1     170.639 170.292 140.883  1.00  0.00     0.039 C 
ENDBRANCH   6   7
ENDBRANCH   5   6
ENDBRANCH   3   5
ENDBRANCH   1   2
BRANCH   1  11
ATOM     11  C   UNL     1     167.619 171.935 142.972  1.00  0.00     0.034 C 
BRANCH  11  12
ATOM     12  C   UNL     1     167.051 171.782 144.372  1.00  0.00    -0.077 C 
ATOM     13  C   UNL     1     167.830 171.598 145.461  1.00  0.00    -0.028 C 
ATOM     14  C   UNL     1     165.556 171.807 144.559  1.00  0.00     0.039 C 
BRANCH  13  15
ATOM     15  C   UNL     1     169.341 171.578 145.423  1.00  0.00     0.035 C 
BRANCH  15  16
ATOM     16  C   UNL     1     169.910 170.207 145.811  1.00  0.00     0.079 C 
BRANCH  16  17
ATOM     17  C   UNL     1     170.214 169.360 144.600  1.00  0.00     0.130 C 
ATOM     18  O   UNL     1     171.361 169.297 144.181  1.00  0.00    -0.300 OA
ATOM     19  C   UNL     1     169.134 168.603 143.887  1.00  0.00     0.087 C 
ENDBRANCH  16  17
ENDBRANCH  15  16
ENDBRANCH  13  15
ENDBRANCH  11  12
ENDBRANCH   1  11
TORSDOF 9
ENDMDL
MODEL 2
REMARK VINA RESULT:    -2.730     19.427     21.971
REMARK INTER + INTRA:          -6.557
REMARK INTER:                  -4.175
REMARK INTRA:                  -2.382
REMARK UNBOUND:                -2.391
REMARK SMILES CC(=O)CCC=C(C)CCC=C(C)CCC=C(C)C
REMARK SMILES IDX 10 1 11 2 12 3 13 4 14 5 15 6 16 7 18 8 17 9 19 10 9 11 7 12
REMARK SMILES IDX 6 13 8 14 5 15 4 16 2 17 3 18 1 19
REMARK H PARENT
REMARK Flexibility Score: inf
ROOT
ATOM      1  C   UNL     1     157.808 154.426 145.829  1.00  0.00     0.032 C 
ENDROOT
BRANCH   1   2
ATOM      2  C   UNL     1     156.301 154.432 145.735  1.00  0.00    -0.028 C 
ATOM      3  C   UNL     1     155.494 153.462 146.225  1.00  0.00    -0.077 C 
ATOM      4  C   UNL     1     156.043 152.193 146.830  1.00  0.00     0.039 C 
BRANCH   3   5
ATOM      5  C   UNL     1     153.992 153.622 146.115  1.00  0.00     0.034 C 
BRANCH   5   6
ATOM      6  C   UNL     1     153.438 154.543 147.211  1.00  0.00     0.032 C 
BRANCH   6   7
ATOM      7  C   UNL     1     153.095 153.778 148.470  1.00  0.00    -0.028 C 
ATOM      8  C   UNL     1     153.318 153.037 150.801  1.00  0.00     0.039 C 
ATOM      9  C   UNL     1     153.816 153.818 149.613  1.00  0.00    -0.080 C 
ATOM     10  C   UNL     1     155.102 154.604 149.725  1.00  0.00     0.039 C 
ENDBRANCH   6   7
ENDBRANCH   5   6
ENDBRANCH   3   5
ENDBRANCH   1   2
BRANCH   1  11
ATOM     11  C   UNL     1     158.453 154.116 144.471  1.00  0.00     0.034 C 
BRANCH  11  12
ATOM     12  C   UNL     1     158.682 152.629 144.269  1.00  0.00    -0.077 C 
ATOM     13  C   UNL     1     158.152 151.941 143.233  1.00  0.00    -0.028 C 
ATOM     14  C   UNL     1     159.511 151.875 145.278  1.00  0.00     0.039 C 
BRANCH  13  15
ATOM     15  C   UNL     1     157.325 152.573 142.137  1.00  0.00     0.035 C 
BRANCH  15  16
ATOM     16  C   UNL     1     155.824 152.319 142.328  1.00  0.00     0.079 C 
BRANCH  16  17
ATOM     17  C   UNL     1     155.001 153.545 142.020  1.00  0.00     0.130 C 
ATOM     18  O   UNL     1     153.834 153.419 141.682  1.00  0.00    -0.300 OA
ATOM     19  C   UNL     1     155.592 154.922 142.106  1.00  0.00     0.087 C 
ENDBRANCH  16  17
ENDBRANCH  15  16
ENDBRANCH  13  15
ENDBRANCH  11  12
ENDBRANCH   1  11
TORSDOF 9
ENDMDL
MODEL 3
REMARK VINA RESULT:    -2.719     20.024     22.221
REMARK INTER + INTRA:          -6.541
REMARK INTER:                  -3.519
REMARK INTRA:                  -3.023
REMARK UNBOUND:                -2.391
REMARK SMILES CC(=O)CCC=C(C)CCC=C(C)CCC=C(C)C
REMARK SMILES IDX 10 1 11 2 12 3 13 4 14 5 15 6 16 7 18 8 17 9 19 10 9 11 7 12
REMARK SMILES IDX 6 13 8 14 5 15 4 16 2 17 3 18 1 19
REMARK H PARENT
REMARK Flexibility Score: inf
ROOT
ATOM      1  C   UNL     1     156.774 153.202 151.632  1.00  0.00     0.032 C 
ENDROOT
BRANCH   1   2
ATOM      2  C   UNL     1     155.642 152.634 150.809  1.00  0.00    -0.028 C 
ATOM      3  C   UNL     1     154.360 153.063 150.861  1.00  0.00    -0.077 C 
ATOM      4  C   UNL     1     153.903 154.104 151.854  1.00  0.00     0.039 C 
BRANCH   3   5
ATOM      5  C   UNL     1     153.333 152.445 149.935  1.00  0.00     0.034 C 
BRANCH   5   6
ATOM      6  C   UNL     1     152.559 153.514 149.152  1.00  0.00     0.032 C 
BRANCH   6   7
ATOM      7  C   UNL     1     153.343 154.020 147.963  1.00  0.00    -0.028 C 
ATOM      8  C   UNL     1     154.597 155.631 146.597  1.00  0.00     0.039 C 
ATOM      9  C   UNL     1     153.784 155.290 147.818  1.00  0.00    -0.080 C 
ATOM     10  C   UNL     1     153.472 156.369 148.829  1.00  0.00     0.039 C 
ENDBRANCH   6   7
ENDBRANCH   5   6
ENDBRANCH   3   5
ENDBRANCH   1   2
BRANCH   1  11
ATOM     11  C   UNL     1     157.899 153.743 150.740  1.00  0.00     0.034 C 
BRANCH  11  12
ATOM     12  C   UNL     1     157.391 154.742 149.716  1.00  0.00    -0.077 C 
ATOM     13  C   UNL     1     157.397 154.496 148.387  1.00  0.00    -0.028 C 
ATOM     14  C   UNL     1     156.882 156.079 150.192  1.00  0.00     0.039 C 
BRANCH  13  15
ATOM     15  C   UNL     1     157.853 153.192 147.774  1.00  0.00     0.035 C 
BRANCH  15  16
ATOM     16  C   UNL     1     156.672 152.322 147.323  1.00  0.00     0.079 C 
BRANCH  16  17
ATOM     17  C   UNL     1     156.402 152.461 145.845  1.00  0.00     0.130 C 
ATOM     18  O   UNL     1     157.282 152.882 145.109  1.00  0.00    -0.300 OA
ATOM     19  C   UNL     1     155.068 152.108 145.259  1.00  0.00     0.087 C 
ENDBRANCH  16  17
ENDBRANCH  15  16
ENDBRANCH  13  15
ENDBRANCH  11  12
ENDBRANCH   1  11
TORSDOF 9
ENDMDL
MODEL 4
REMARK VINA RESULT:    -2.717      3.412      7.279
REMARK INTER + INTRA:          -6.538
REMARK INTER:                  -5.111
REMARK INTRA:                  -1.426
REMARK UNBOUND:                -2.391
REMARK SMILES CC(=O)CCC=C(C)CCC=C(C)CCC=C(C)C
REMARK SMILES IDX 10 1 11 2 12 3 13 4 14 5 15 6 16 7 18 8 17 9 19 10 9 11 7 12
REMARK SMILES IDX 6 13 8 14 5 15 4 16 2 17 3 18 1 19
REMARK H PARENT
REMARK Flexibility Score: inf
ROOT
ATOM      1  C   UNL     1     168.672 171.082 145.270  1.00  0.00     0.032 C 
ENDROOT
BRANCH   1   2
ATOM      2  C   UNL     1     169.187 171.755 146.521  1.00  0.00    -0.028 C 
ATOM      3  C   UNL     1     168.844 171.404 147.782  1.00  0.00    -0.077 C 
ATOM      4  C   UNL     1     167.801 170.350 148.065  1.00  0.00     0.039 C 
BRANCH   3   5
ATOM      5  C   UNL     1     169.482 172.125 148.951  1.00  0.00     0.034 C 
BRANCH   5   6
ATOM      6  C   UNL     1     170.843 171.518 149.318  1.00  0.00     0.032 C 
BRANCH   6   7
ATOM      7  C   UNL     1     171.010 171.373 150.814  1.00  0.00    -0.028 C 
ATOM      8  C   UNL     1     170.989 170.247 152.996  1.00  0.00     0.039 C 
ATOM      9  C   UNL     1     170.723 170.253 151.514  1.00  0.00    -0.080 C 
ATOM     10  C   UNL     1     170.133 169.025 150.859  1.00  0.00     0.039 C 
ENDBRANCH   6   7
ENDBRANCH   5   6
ENDBRANCH   3   5
ENDBRANCH   1   2
BRANCH   1  11
ATOM     11  C   UNL     1     167.997 172.090 144.330  1.00  0.00     0.034 C 
BRANCH  11  12
ATOM     12  C   UNL     1     166.527 171.776 144.111  1.00  0.00    -0.077 C 
ATOM     13  C   UNL     1     166.004 171.544 142.886  1.00  0.00    -0.028 C 
ATOM     14  C   UNL     1     165.602 171.747 145.300  1.00  0.00     0.039 C 
BRANCH  13  15
ATOM     15  C   UNL     1     166.818 171.515 141.613  1.00  0.00     0.035 C 
BRANCH  15  16
ATOM     16  C   UNL     1     167.041 170.085 141.104  1.00  0.00     0.079 C 
BRANCH  16  17
ATOM     17  C   UNL     1     168.471 169.855 140.679  1.00  0.00     0.130 C 
ATOM     18  O   UNL     1     168.704 169.385 139.576  1.00  0.00    -0.300 OA
ATOM     19  C   UNL     1     169.616 170.180 141.592  1.00  0.00     0.087 C 
ENDBRANCH  16  17
ENDBRANCH  15  16
ENDBRANCH  13  15
ENDBRANCH  11  12
ENDBRANCH   1  11
TORSDOF 9
ENDMDL
MODEL 5
REMARK VINA RESULT:    -2.698     19.749     21.914
REMARK INTER + INTRA:          -6.509
REMARK INTER:                  -4.814
REMARK INTRA:                  -1.695
REMARK UNBOUND:                -2.391
REMARK SMILES CC(=O)CCC=C(C)CCC=C(C)CCC=C(C)C
REMARK SMILES IDX 10 1 11 2 12 3 13 4 14 5 15 6 16 7 18 8 17 9 19 10 9 11 7 12
REMARK SMILES IDX 6 13 8 14 5 15 4 16 2 17 3 18 1 19
REMARK H PARENT
REMARK Flexibility Score: inf
ROOT
ATOM      1  C   UNL     1     156.337 152.368 145.939  1.00  0.00     0.032 C 
ENDROOT
BRANCH   1   2
ATOM      2  C   UNL     1     157.007 152.276 144.589  1.00  0.00    -0.028 C 
ATOM      3  C   UNL     1     157.540 153.325 143.920  1.00  0.00    -0.077 C 
ATOM      4  C   UNL     1     157.413 154.743 144.421  1.00  0.00     0.039 C 
BRANCH   3   5
ATOM      5  C   UNL     1     158.237 153.083 142.598  1.00  0.00     0.034 C 
BRANCH   5   6
ATOM      6  C   UNL     1     157.247 152.668 141.501  1.00  0.00     0.032 C 
BRANCH   6   7
ATOM      7  C   UNL     1     156.592 153.865 140.850  1.00  0.00    -0.028 C 
ATOM      8  C   UNL     1     154.837 155.526 140.412  1.00  0.00     0.039 C 
ATOM      9  C   UNL     1     155.333 154.285 141.106  1.00  0.00    -0.080 C 
ATOM     10  C   UNL     1     154.413 153.541 142.046  1.00  0.00     0.039 C 
ENDBRANCH   6   7
ENDBRANCH   5   6
ENDBRANCH   3   5
ENDBRANCH   1   2
BRANCH   1  11
ATOM     11  C   UNL     1     154.814 152.219 145.820  1.00  0.00     0.034 C 
BRANCH  11  12
ATOM     12  C   UNL     1     154.072 153.394 146.432  1.00  0.00    -0.077 C 
ATOM     13  C   UNL     1     153.644 153.401 147.714  1.00  0.00    -0.028 C 
ATOM     14  C   UNL     1     153.770 154.594 145.572  1.00  0.00     0.039 C 
BRANCH  13  15
ATOM     15  C   UNL     1     153.900 152.279 148.694  1.00  0.00     0.035 C 
BRANCH  15  16
ATOM     16  C   UNL     1     153.040 152.410 149.958  1.00  0.00     0.079 C 
BRANCH  16  17
ATOM     17  C   UNL     1     153.795 153.065 151.088  1.00  0.00     0.130 C 
ATOM     18  O   UNL     1     155.006 153.207 151.000  1.00  0.00    -0.300 OA
ATOM     19  C   UNL     1     153.093 153.534 152.327  1.00  0.00     0.087 C 
ENDBRANCH  16  17
ENDBRANCH  15  16
ENDBRANCH  13  15
ENDBRANCH  11  12
ENDBRANCH   1  11
TORSDOF 9
ENDMDL
MODEL 6
REMARK VINA RESULT:    -2.658      2.155      4.226
REMARK INTER + INTRA:          -6.448
REMARK INTER:                  -4.009
REMARK INTRA:                  -2.439
REMARK UNBOUND:                -2.391
REMARK SMILES CC(=O)CCC=C(C)CCC=C(C)CCC=C(C)C
REMARK SMILES IDX 10 1 11 2 12 3 13 4 14 5 15 6 16 7 18 8 17 9 19 10 9 11 7 12
REMARK SMILES IDX 6 13 8 14 5 15 4 16 2 17 3 18 1 19
REMARK H PARENT
REMARK Flexibility Score: inf
ROOT
ATOM      1  C   UNL     1     169.969 170.538 146.188  1.00  0.00     0.032 C 
ENDROOT
BRANCH   1   2
ATOM      2  C   UNL     1     170.100 169.930 144.811  1.00  0.00    -0.028 C 
ATOM      3  C   UNL     1     169.323 168.931 144.333  1.00  0.00    -0.077 C 
ATOM      4  C   UNL     1     168.296 168.234 145.191  1.00  0.00     0.039 C 
BRANCH   3   5
ATOM      5  C   UNL     1     169.523 168.454 142.910  1.00  0.00     0.034 C 
BRANCH   5   6
ATOM      6  C   UNL     1     169.855 169.616 141.962  1.00  0.00     0.032 C 
BRANCH   6   7
ATOM      7  C   UNL     1     168.637 170.088 141.202  1.00  0.00    -0.028 C 
ATOM      8  C   UNL     1     166.965 170.128 139.403  1.00  0.00     0.039 C 
ATOM      9  C   UNL     1     168.229 169.584 140.015  1.00  0.00    -0.080 C 
ATOM     10  C   UNL     1     169.008 168.513 139.287  1.00  0.00     0.039 C 
ENDBRANCH   6   7
ENDBRANCH   5   6
ENDBRANCH   3   5
ENDBRANCH   1   2
BRANCH   1  11
ATOM     11  C   UNL     1     169.173 171.849 146.147  1.00  0.00     0.034 C 
BRANCH  11  12
ATOM     12  C   UNL     1     167.688 171.627 146.376  1.00  0.00    -0.077 C 
ATOM     13  C   UNL     1     166.778 171.680 145.377  1.00  0.00    -0.028 C 
ATOM     14  C   UNL     1     167.197 171.363 147.777  1.00  0.00     0.039 C 
BRANCH  13  15
ATOM     15  C   UNL     1     167.132 171.909 143.926  1.00  0.00     0.035 C 
BRANCH  15  16
ATOM     16  C   UNL     1     165.890 171.921 143.025  1.00  0.00     0.079 C 
BRANCH  16  17
ATOM     17  C   UNL     1     165.055 170.677 143.200  1.00  0.00     0.130 C 
ATOM     18  O   UNL     1     163.920 170.770 143.642  1.00  0.00    -0.300 OA
ATOM     19  C   UNL     1     165.596 169.320 142.856  1.00  0.00     0.087 C 
ENDBRANCH  16  17
ENDBRANCH  15  16
ENDBRANCH  13  15
ENDBRANCH  11  12
ENDBRANCH   1  11
TORSDOF 9
ENDMDL
MODEL 7
REMARK VINA RESULT:    -2.643      3.503      6.067
REMARK INTER + INTRA:          -6.426
REMARK INTER:                  -4.037
REMARK INTRA:                  -2.389
REMARK UNBOUND:                -2.391
REMARK SMILES CC(=O)CCC=C(C)CCC=C(C)CCC=C(C)C
REMARK SMILES IDX 10 1 11 2 12 3 13 4 14 5 15 6 16 7 18 8 17 9 19 10 9 11 7 12
REMARK SMILES IDX 6 13 8 14 5 15 4 16 2 17 3 18 1 19
REMARK H PARENT
REMARK Flexibility Score: inf
ROOT
ATOM      1  C   UNL     1     167.810 169.554 147.962  1.00  0.00     0.032 C 
ENDROOT
BRANCH   1   2
ATOM      2  C   UNL     1     166.664 169.959 147.066  1.00  0.00    -0.028 C 
ATOM      3  C   UNL     1     165.993 171.131 147.155  1.00  0.00    -0.077 C 
ATOM      4  C   UNL     1     166.259 172.125 148.259  1.00  0.00     0.039 C 
BRANCH   3   5
ATOM      5  C   UNL     1     164.900 171.437 146.152  1.00  0.00     0.034 C 
BRANCH   5   6
ATOM      6  C   UNL     1     165.215 170.847 144.771  1.00  0.00     0.032 C 
BRANCH   6   7
ATOM      7  C   UNL     1     166.262 171.654 144.039  1.00  0.00    -0.028 C 
ATOM      8  C   UNL     1     168.320 172.068 142.763  1.00  0.00     0.039 C 
ATOM      9  C   UNL     1     167.395 171.141 143.508  1.00  0.00    -0.080 C 
ATOM     10  C   UNL     1     167.762 169.683 143.652  1.00  0.00     0.039 C 
ENDBRANCH   6   7
ENDBRANCH   5   6
ENDBRANCH   3   5
ENDBRANCH   1   2
BRANCH   1  11
ATOM     11  C   UNL     1     169.159 169.685 147.240  1.00  0.00     0.034 C 
BRANCH  11  12
ATOM     12  C   UNL     1     169.775 171.061 147.418  1.00  0.00    -0.077 C 
ATOM     13  C   UNL     1     170.545 171.386 148.480  1.00  0.00    -0.028 C 
ATOM     14  C   UNL     1     169.497 172.124 146.385  1.00  0.00     0.039 C 
BRANCH  13  15
ATOM     15  C   UNL     1     170.924 170.415 149.574  1.00  0.00     0.035 C 
BRANCH  15  16
ATOM     16  C   UNL     1     170.543 170.937 150.966  1.00  0.00     0.079 C 
BRANCH  16  17
ATOM     17  C   UNL     1     169.231 170.362 151.442  1.00  0.00     0.130 C 
ATOM     18  O   UNL     1     169.192 169.215 151.861  1.00  0.00    -0.300 OA
ATOM     19  C   UNL     1     167.966 171.167 151.399  1.00  0.00     0.087 C 
ENDBRANCH  16  17
ENDBRANCH  15  16
ENDBRANCH  13  15
ENDBRANCH  11  12
ENDBRANCH   1  11
TORSDOF 9
ENDMDL
MODEL 8
REMARK VINA RESULT:    -2.628      2.897      4.644
REMARK INTER + INTRA:          -6.402
REMARK INTER:                  -4.374
REMARK INTRA:                  -2.028
REMARK UNBOUND:                -2.391
REMARK SMILES CC(=O)CCC=C(C)CCC=C(C)CCC=C(C)C
REMARK SMILES IDX 10 1 11 2 12 3 13 4 14 5 15 6 16 7 18 8 17 9 19 10 9 11 7 12
REMARK SMILES IDX 6 13 8 14 5 15 4 16 2 17 3 18 1 19
REMARK H PARENT
REMARK Flexibility Score: inf
ROOT
ATOM      1  C   UNL     1     167.441 171.376 146.647  1.00  0.00     0.032 C 
ENDROOT
BRANCH   1   2
ATOM      2  C   UNL     1     166.724 171.659 145.349  1.00  0.00    -0.028 C 
ATOM      3  C   UNL     1     166.210 170.712 144.529  1.00  0.00    -0.077 C 
ATOM      4  C   UNL     1     166.408 169.238 144.786  1.00  0.00     0.039 C 
BRANCH   3   5
ATOM      5  C   UNL     1     165.461 171.138 143.284  1.00  0.00     0.034 C 
BRANCH   5   6
ATOM      6  C   UNL     1     166.376 171.872 142.294  1.00  0.00     0.032 C 
BRANCH   6   7
ATOM      7  C   UNL     1     166.912 170.944 141.228  1.00  0.00    -0.028 C 
ATOM      8  C   UNL     1     168.508 169.429 140.138  1.00  0.00     0.039 C 
ATOM      9  C   UNL     1     168.136 170.371 141.252  1.00  0.00    -0.080 C 
ATOM     10  C   UNL     1     169.136 170.659 142.348  1.00  0.00     0.039 C 
ENDBRANCH   6   7
ENDBRANCH   5   6
ENDBRANCH   3   5
ENDBRANCH   1   2
BRANCH   1  11
ATOM     11  C   UNL     1     168.911 171.813 146.583  1.00  0.00     0.034 C 
BRANCH  11  12
ATOM     12  C   UNL     1     169.864 170.673 146.894  1.00  0.00    -0.077 C 
ATOM     13  C   UNL     1     170.571 170.604 148.044  1.00  0.00    -0.028 C 
ATOM     14  C   UNL     1     170.059 169.585 145.869  1.00  0.00     0.039 C 
BRANCH  13  15
ATOM     15  C   UNL     1     170.454 171.609 149.166  1.00  0.00     0.035 C 
BRANCH  15  16
ATOM     16  C   UNL     1     169.778 171.013 150.408  1.00  0.00     0.079 C 
BRANCH  16  17
ATOM     17  C   UNL     1     168.282 170.912 150.240  1.00  0.00     0.130 C 
ATOM     18  O   UNL     1     167.773 169.825 150.011  1.00  0.00    -0.300 OA
ATOM     19  C   UNL     1     167.404 172.125 150.333  1.00  0.00     0.087 C 
ENDBRANCH  16  17
ENDBRANCH  15  16
ENDBRANCH  13  15
ENDBRANCH  11  12
ENDBRANCH   1  11
TORSDOF 9
ENDMDL
