MODEL 1
REMARK VINA RESULT:    -4.344      0.000      0.000
REMARK INTER + INTRA:          -4.725
REMARK INTER:                  -4.598
REMARK INTRA:                  -0.127
REMARK UNBOUND:                -0.127
REMARK SMILES C=C(C)[C@@H]1CC=C(C)CC1
REMARK SMILES IDX 8 1 7 2 6 3 5 4 4 5 10 6 9 7 2 8 1 9 3 10
REMARK H PARENT
REMARK Flexibility Score: inf
ROOT
ATOM      1  C   UNL     1      17.654  14.305  36.366  1.00  0.00     0.039 C 
ATOM      2  C   UNL     1      16.169  14.235  36.595  1.00  0.00    -0.077 C 
ATOM      3  C   UNL     1      15.495  15.371  36.875  1.00  0.00    -0.027 C 
ATOM      4  C   UNL     1      13.999  15.414  37.068  1.00  0.00     0.035 C 
ATOM      5  C   UNL     1      13.425  14.041  37.462  1.00  0.00     0.018 C 
ATOM      6  C   UNL     1      13.971  12.957  36.520  1.00  0.00     0.013 C 
ATOM      7  C   UNL     1      15.498  12.875  36.635  1.00  0.00     0.031 C 
ENDROOT
BRANCH   5   8
ATOM      8  C   UNL     1      11.902  14.057  37.484  1.00  0.00    -0.077 C 
ATOM      9  C   UNL     1      11.221  15.001  38.157  1.00  0.00     0.008 C 
ATOM     10  C   UNL     1      11.125  13.004  36.736  1.00  0.00     0.039 C 
ENDBRANCH   5   8
TORSDOF 1
ENDMDL
MODEL 2
REMARK VINA RESULT:    -4.324      1.287      2.176
REMARK INTER + INTRA:          -4.704
REMARK INTER:                  -4.575
REMARK INTRA:                  -0.128
REMARK UNBOUND:                -0.127
REMARK SMILES C=C(C)[C@@H]1CC=C(C)CC1
REMARK SMILES IDX 8 1 7 2 6 3 5 4 4 5 10 6 9 7 2 8 1 9 3 10
REMARK H PARENT
REMARK Flexibility Score: inf
ROOT
ATOM      1  C   UNL     1      15.711  14.965  36.015  1.00  0.00     0.039 C 
ATOM      2  C   UNL     1      14.387  14.964  36.729  1.00  0.00    -0.077 C 
ATOM      3  C   UNL     1      13.932  16.115  37.269  1.00  0.00    -0.027 C 
ATOM      4  C   UNL     1      12.594  16.228  37.957  1.00  0.00     0.035 C 
ATOM      5  C   UNL     1      12.084  14.867  38.464  1.00  0.00     0.018 C 
ATOM      6  C   UNL     1      12.202  13.818  37.347  1.00  0.00     0.013 C 
ATOM      7  C   UNL     1      13.668  13.644  36.936  1.00  0.00     0.031 C 
ENDROOT
BRANCH   5   8
ATOM      8  C   UNL     1      10.661  14.966  38.999  1.00  0.00    -0.077 C 
ATOM      9  C   UNL     1       9.801  15.886  38.531  1.00  0.00     0.008 C 
ATOM     10  C   UNL     1      10.190  14.018  40.071  1.00  0.00     0.039 C 
ENDBRANCH   5   8
TORSDOF 1
ENDMDL
MODEL 3
REMARK VINA RESULT:    -4.212      1.162      4.833
REMARK INTER + INTRA:          -4.585
REMARK INTER:                  -4.456
REMARK INTRA:                  -0.128
REMARK UNBOUND:                -0.127
REMARK SMILES C=C(C)[C@@H]1CC=C(C)CC1
REMARK SMILES IDX 8 1 7 2 6 3 5 4 4 5 10 6 9 7 2 8 1 9 3 10
REMARK H PARENT
REMARK Flexibility Score: inf
ROOT
ATOM      1  C   UNL     1       9.410  15.681  38.981  1.00  0.00     0.039 C 
ATOM      2  C   UNL     1      10.719  15.318  38.337  1.00  0.00    -0.077 C 
ATOM      3  C   UNL     1      10.906  14.055  37.896  1.00  0.00    -0.027 C 
ATOM      4  C   UNL     1      12.161  13.607  37.189  1.00  0.00     0.035 C 
ATOM      5  C   UNL     1      13.364  14.513  37.511  1.00  0.00     0.018 C 
ATOM      6  C   UNL     1      12.965  15.987  37.346  1.00  0.00     0.013 C 
ATOM      7  C   UNL     1      11.837  16.344  38.322  1.00  0.00     0.031 C 
ENDROOT
BRANCH   5   8
ATOM      8  C   UNL     1      14.576  14.156  36.661  1.00  0.00    -0.077 C 
ATOM      9  C   UNL     1      14.885  12.877  36.385  1.00  0.00     0.008 C 
ATOM     10  C   UNL     1      15.455  15.246  36.104  1.00  0.00     0.039 C 
ENDBRANCH   5   8
TORSDOF 1
ENDMDL
MODEL 4
REMARK VINA RESULT:    -4.155     14.820     15.883
REMARK INTER + INTRA:          -4.525
REMARK INTER:                  -4.395
REMARK INTRA:                  -0.129
REMARK UNBOUND:                -0.127
REMARK SMILES C=C(C)[C@@H]1CC=C(C)CC1
REMARK SMILES IDX 8 1 7 2 6 3 5 4 4 5 10 6 9 7 2 8 1 9 3 10
REMARK H PARENT
REMARK Flexibility Score: inf
ROOT
ATOM      1  C   UNL     1       5.098  19.404  22.785  1.00  0.00     0.039 C 
ATOM      2  C   UNL     1       6.559  19.298  23.128  1.00  0.00    -0.077 C 
ATOM      3  C   UNL     1       6.965  19.628  24.373  1.00  0.00    -0.027 C 
ATOM      4  C   UNL     1       8.398  19.504  24.831  1.00  0.00     0.035 C 
ATOM      5  C   UNL     1       9.387  19.518  23.651  1.00  0.00     0.018 C 
ATOM      6  C   UNL     1       8.919  18.534  22.568  1.00  0.00     0.013 C 
ATOM      7  C   UNL     1       7.546  18.952  22.029  1.00  0.00     0.031 C 
ENDROOT
BRANCH   5   8
ATOM      8  C   UNL     1      10.809  19.219  24.111  1.00  0.00    -0.077 C 
ATOM      9  C   UNL     1      11.795  18.988  23.227  1.00  0.00     0.008 C 
ATOM     10  C   UNL     1      11.136  19.185  25.581  1.00  0.00     0.039 C 
ENDBRANCH   5   8
TORSDOF 1
ENDMDL
MODEL 5
REMARK VINA RESULT:    -4.147     13.494     14.130
REMARK INTER + INTRA:          -4.516
REMARK INTER:                  -4.391
REMARK INTRA:                  -0.126
REMARK UNBOUND:                -0.127
REMARK SMILES C=C(C)[C@@H]1CC=C(C)CC1
REMARK SMILES IDX 8 1 7 2 6 3 5 4 4 5 10 6 9 7 2 8 1 9 3 10
REMARK H PARENT
REMARK Flexibility Score: inf
ROOT
ATOM      1  C   UNL     1      11.335  18.889  27.598  1.00  0.00     0.039 C 
ATOM      2  C   UNL     1      10.178  19.156  26.676  1.00  0.00    -0.077 C 
ATOM      3  C   UNL     1       8.920  18.976  27.133  1.00  0.00    -0.027 C 
ATOM      4  C   UNL     1       7.694  19.267  26.303  1.00  0.00     0.035 C 
ATOM      5  C   UNL     1       7.993  19.238  24.793  1.00  0.00     0.018 C 
ATOM      6  C   UNL     1       9.246  20.075  24.495  1.00  0.00     0.013 C 
ATOM      7  C   UNL     1      10.461  19.490  25.223  1.00  0.00     0.031 C 
ENDROOT
BRANCH   5   8
ATOM      8  C   UNL     1       6.794  19.702  23.976  1.00  0.00    -0.077 C 
ATOM      9  C   UNL     1       6.156  20.850  24.261  1.00  0.00     0.008 C 
ATOM     10  C   UNL     1       6.303  18.872  22.818  1.00  0.00     0.039 C 
ENDBRANCH   5   8
TORSDOF 1
ENDMDL
MODEL 6
REMARK VINA RESULT:    -4.140      1.346      4.480
REMARK INTER + INTRA:          -4.509
REMARK INTER:                  -4.387
REMARK INTRA:                  -0.122
REMARK UNBOUND:                -0.127
REMARK SMILES C=C(C)[C@@H]1CC=C(C)CC1
REMARK SMILES IDX 8 1 7 2 6 3 5 4 4 5 10 6 9 7 2 8 1 9 3 10
REMARK H PARENT
REMARK Flexibility Score: inf
ROOT
ATOM      1  C   UNL     1      10.064  14.325  39.743  1.00  0.00     0.039 C 
ATOM      2  C   UNL     1      11.227  14.669  38.855  1.00  0.00    -0.077 C 
ATOM      3  C   UNL     1      11.822  15.874  38.991  1.00  0.00    -0.027 C 
ATOM      4  C   UNL     1      13.028  16.292  38.185  1.00  0.00     0.035 C 
ATOM      5  C   UNL     1      13.152  15.498  36.872  1.00  0.00     0.018 C 
ATOM      6  C   UNL     1      12.996  13.996  37.155  1.00  0.00     0.013 C 
ATOM      7  C   UNL     1      11.610  13.709  37.744  1.00  0.00     0.031 C 
ENDROOT
BRANCH   5   8
ATOM      8  C   UNL     1      14.461  15.805  36.154  1.00  0.00    -0.077 C 
ATOM      9  C   UNL     1      14.557  16.823  35.281  1.00  0.00     0.008 C 
ATOM     10  C   UNL     1      15.683  14.966  36.421  1.00  0.00     0.039 C 
ENDBRANCH   5   8
TORSDOF 1
ENDMDL
MODEL 7
REMARK VINA RESULT:    -4.077     15.374     16.047
REMARK INTER + INTRA:          -4.443
REMARK INTER:                  -4.318
REMARK INTRA:                  -0.124
REMARK UNBOUND:                -0.127
REMARK SMILES C=C(C)[C@@H]1CC=C(C)CC1
REMARK SMILES IDX 8 1 7 2 6 3 5 4 4 5 10 6 9 7 2 8 1 9 3 10
REMARK H PARENT
REMARK Flexibility Score: inf
ROOT
ATOM      1  C   UNL     1      11.276  19.354  24.748  1.00  0.00     0.039 C 
ATOM      2  C   UNL     1       9.898  19.306  24.149  1.00  0.00    -0.077 C 
ATOM      3  C   UNL     1       9.764  19.031  22.833  1.00  0.00    -0.027 C 
ATOM      4  C   UNL     1       8.424  18.908  22.150  1.00  0.00     0.035 C 
ATOM      5  C   UNL     1       7.312  19.647  22.915  1.00  0.00     0.018 C 
ATOM      6  C   UNL     1       7.367  19.274  24.404  1.00  0.00     0.013 C 
ATOM      7  C   UNL     1       8.710  19.698  25.009  1.00  0.00     0.031 C 
ENDROOT
BRANCH   5   8
ATOM      8  C   UNL     1       5.940  19.371  22.313  1.00  0.00    -0.077 C 
ATOM      9  C   UNL     1       5.400  18.141  22.339  1.00  0.00     0.008 C 
ATOM     10  C   UNL     1       5.156  20.489  21.676  1.00  0.00     0.039 C 
ENDBRANCH   5   8
TORSDOF 1
ENDMDL
MODEL 8
REMARK VINA RESULT:    -3.994     15.490     16.729
REMARK INTER + INTRA:          -4.354
REMARK INTER:                  -4.228
REMARK INTRA:                  -0.126
REMARK UNBOUND:                -0.127
REMARK SMILES C=C(C)[C@@H]1CC=C(C)CC1
REMARK SMILES IDX 8 1 7 2 6 3 5 4 4 5 10 6 9 7 2 8 1 9 3 10
REMARK H PARENT
REMARK Flexibility Score: inf
ROOT
ATOM      1  C   UNL     1       3.987  19.623  21.140  1.00  0.00     0.039 C 
ATOM      2  C   UNL     1       5.116  19.613  22.134  1.00  0.00    -0.077 C 
ATOM      3  C   UNL     1       5.981  18.576  22.133  1.00  0.00    -0.027 C 
ATOM      4  C   UNL     1       7.175  18.500  23.053  1.00  0.00     0.035 C 
ATOM      5  C   UNL     1       6.999  19.377  24.307  1.00  0.00     0.018 C 
ATOM      6  C   UNL     1       6.528  20.781  23.899  1.00  0.00     0.013 C 
ATOM      7  C   UNL     1       5.170  20.700  23.191  1.00  0.00     0.031 C 
ENDROOT
BRANCH   5   8
ATOM      8  C   UNL     1       8.275  19.427  25.137  1.00  0.00    -0.077 C 
ATOM      9  C   UNL     1       9.475  19.622  24.564  1.00  0.00     0.008 C 
ATOM     10  C   UNL     1       8.209  19.264  26.634  1.00  0.00     0.039 C 
ENDBRANCH   5   8
TORSDOF 1
ENDMDL
MODEL 9
REMARK VINA RESULT:    -3.954     12.181     12.622
REMARK INTER + INTRA:          -4.312
REMARK INTER:                  -4.183
REMARK INTRA:                  -0.129
REMARK UNBOUND:                -0.127
REMARK SMILES C=C(C)[C@@H]1CC=C(C)CC1
REMARK SMILES IDX 8 1 7 2 6 3 5 4 4 5 10 6 9 7 2 8 1 9 3 10
REMARK H PARENT
REMARK Flexibility Score: inf
ROOT
ATOM      1  C   UNL     1      13.954  20.110  26.746  1.00  0.00     0.039 C 
ATOM      2  C   UNL     1      12.486  19.840  26.560  1.00  0.00    -0.077 C 
ATOM      3  C   UNL     1      11.925  20.072  25.354  1.00  0.00    -0.027 C 
ATOM      4  C   UNL     1      10.474  19.783  25.053  1.00  0.00     0.035 C 
ATOM      5  C   UNL     1       9.612  19.745  26.327  1.00  0.00     0.018 C 
ATOM      6  C   UNL     1      10.288  18.863  27.388  1.00  0.00     0.013 C 
ATOM      7  C   UNL     1      11.656  19.442  27.767  1.00  0.00     0.031 C 
ENDROOT
BRANCH   5   8
ATOM      8  C   UNL     1       8.192  19.283  26.029  1.00  0.00    -0.077 C 
ATOM      9  C   UNL     1       7.373  18.861  27.008  1.00  0.00     0.008 C 
ATOM     10  C   UNL     1       7.674  19.299  24.614  1.00  0.00     0.039 C 
ENDBRANCH   5   8
TORSDOF 1
ENDMDL
