MODEL 1
REMARK VINA RESULT:    -3.533      0.000      0.000
REMARK INTER + INTRA:          -4.318
REMARK INTER:                  -4.256
REMARK INTRA:                  -0.062
REMARK UNBOUND:                -0.062
REMARK SMILES CC[C@@H](C)[C@H]([NH3+])C(=O)[O-]
REMARK SMILES IDX 3 1 4 2 5 3 6 4 7 8 8 9 9 10 2 11 1 12
REMARK H PARENT 6 5 6 6 6 7
REMARK Flexibility Score: inf
ROOT
ATOM      1  C   UNL     1      -8.359  14.116   6.783  1.00  0.00     0.050 C 
ATOM      2  C   UNL     1      -9.384  13.365   5.913  1.00  0.00     0.014 C 
ENDROOT
BRANCH   1   3
ATOM      3  C   UNL     1      -8.748  14.129   8.297  1.00  0.00     0.230 C 
BRANCH   3   4
ATOM      4  N   UNL     1      -9.465  12.905   8.681  1.00  0.00    -0.350 N 
ATOM      5  H   UNL     1     -10.319  12.788   8.088  1.00  0.00     0.345 HD
ATOM      6  H   UNL     1      -8.849  12.074   8.527  1.00  0.00     0.345 HD
ATOM      7  H   UNL     1      -9.746  12.932   9.687  1.00  0.00     0.345 HD
ENDBRANCH   3   4
BRANCH   3   8
ATOM      8  C   UNL     1      -9.503  15.364   8.738  1.00  0.00     0.099 C 
ATOM      9  O   UNL     1      -9.809  15.516   9.950  1.00  0.00    -0.544 OA
ATOM     10  O   UNL     1      -9.917  16.318   7.815  1.00  0.00    -0.544 OA
ENDBRANCH   3   8
ENDBRANCH   1   3
BRANCH   1  11
ATOM     11  C   UNL     1      -6.902  13.699   6.450  1.00  0.00     0.006 C 
ATOM     12  C   UNL     1      -6.009  14.806   5.888  1.00  0.00     0.004 C 
ENDBRANCH   1  11
TORSDOF 4
ENDMDL
MODEL 2
REMARK VINA RESULT:    -3.505      4.148      6.062
REMARK INTER + INTRA:          -4.284
REMARK INTER:                  -4.228
REMARK INTRA:                  -0.055
REMARK UNBOUND:                -0.062
REMARK SMILES CC[C@@H](C)[C@H]([NH3+])C(=O)[O-]
REMARK SMILES IDX 3 1 4 2 5 3 6 4 7 8 8 9 9 10 2 11 1 12
REMARK H PARENT 6 5 6 6 6 7
REMARK Flexibility Score: inf
ROOT
ATOM      1  C   UNL     1      -9.785  17.152  12.451  1.00  0.00     0.050 C 
ATOM      2  C   UNL     1     -11.124  17.850  12.751  1.00  0.00     0.014 C 
ENDROOT
BRANCH   1   3
ATOM      3  C   UNL     1      -9.359  17.284  10.953  1.00  0.00     0.230 C 
BRANCH   3   4
ATOM      4  N   UNL     1      -9.676  18.615  10.416  1.00  0.00    -0.350 N 
ATOM      5  H   UNL     1      -9.051  18.833   9.606  1.00  0.00     0.345 HD
ATOM      6  H   UNL     1     -10.664  18.630  10.075  1.00  0.00     0.345 HD
ATOM      7  H   UNL     1      -9.562  19.354  11.146  1.00  0.00     0.345 HD
ENDBRANCH   3   4
BRANCH   3   8
ATOM      8  C   UNL     1      -9.893  16.192  10.052  1.00  0.00     0.099 C 
ATOM      9  O   UNL     1      -9.710  16.256   8.807  1.00  0.00    -0.544 OA
ATOM     10  O   UNL     1     -10.636  15.136  10.570  1.00  0.00    -0.544 OA
ENDBRANCH   3   8
ENDBRANCH   1   3
BRANCH   1  11
ATOM     11  C   UNL     1      -8.703  17.498  13.507  1.00  0.00     0.006 C 
ATOM     12  C   UNL     1      -8.404  16.404  14.533  1.00  0.00     0.004 C 
ENDBRANCH   1  11
TORSDOF 4
ENDMDL
MODEL 3
REMARK VINA RESULT:    -3.395     16.291     17.025
REMARK INTER + INTRA:          -4.151
REMARK INTER:                  -4.070
REMARK INTRA:                  -0.081
REMARK UNBOUND:                -0.062
REMARK SMILES CC[C@@H](C)[C@H]([NH3+])C(=O)[O-]
REMARK SMILES IDX 3 1 4 2 5 3 6 4 7 8 8 9 9 10 2 11 1 12
REMARK H PARENT 6 5 6 6 6 7
REMARK Flexibility Score: inf
ROOT
ATOM      1  C   UNL     1       5.596  11.755  15.688  1.00  0.00     0.050 C 
ATOM      2  C   UNL     1       4.351  12.299  14.964  1.00  0.00     0.014 C 
ENDROOT
BRANCH   1   3
ATOM      3  C   UNL     1       5.764  12.347  17.125  1.00  0.00     0.230 C 
BRANCH   3   4
ATOM      4  N   UNL     1       4.504  12.296  17.882  1.00  0.00    -0.350 N 
ATOM      5  H   UNL     1       4.617  12.786  18.799  1.00  0.00     0.345 HD
ATOM      6  H   UNL     1       3.752  12.785  17.345  1.00  0.00     0.345 HD
ATOM      7  H   UNL     1       4.207  11.309  18.054  1.00  0.00     0.345 HD
ENDBRANCH   3   4
BRANCH   3   8
ATOM      8  C   UNL     1       6.365  13.736  17.163  1.00  0.00     0.099 C 
ATOM      9  O   UNL     1       6.042  14.537  18.079  1.00  0.00    -0.544 OA
ATOM     10  O   UNL     1       7.235  14.166  16.167  1.00  0.00    -0.544 OA
ENDBRANCH   3   8
ENDBRANCH   1   3
BRANCH   1  11
ATOM     11  C   UNL     1       5.711  10.213  15.563  1.00  0.00     0.006 C 
ATOM     12  C   UNL     1       4.632   9.535  14.717  1.00  0.00     0.004 C 
ENDBRANCH   1  11
TORSDOF 4
ENDMDL
MODEL 4
REMARK VINA RESULT:    -3.380      2.735      3.106
REMARK INTER + INTRA:          -4.133
REMARK INTER:                  -4.021
REMARK INTRA:                  -0.112
REMARK UNBOUND:                -0.062
REMARK SMILES CC[C@@H](C)[C@H]([NH3+])C(=O)[O-]
REMARK SMILES IDX 3 1 4 2 5 3 6 4 7 8 8 9 9 10 2 11 1 12
REMARK H PARENT 6 5 6 6 6 7
REMARK Flexibility Score: inf
ROOT
ATOM      1  C   UNL     1      -7.742  13.814   6.513  1.00  0.00     0.050 C 
ATOM      2  C   UNL     1      -7.805  13.719   8.048  1.00  0.00     0.014 C 
ENDROOT
BRANCH   1   3
ATOM      3  C   UNL     1      -8.727  14.880   5.934  1.00  0.00     0.230 C 
BRANCH   3   4
ATOM      4  N   UNL     1      -9.364  15.664   7.002  1.00  0.00    -0.350 N 
ATOM      5  H   UNL     1     -10.148  16.235   6.609  1.00  0.00     0.345 HD
ATOM      6  H   UNL     1      -9.765  15.018   7.721  1.00  0.00     0.345 HD
ATOM      7  H   UNL     1      -8.677  16.299   7.467  1.00  0.00     0.345 HD
ENDBRANCH   3   4
BRANCH   3   8
ATOM      8  C   UNL     1      -9.759  14.324   4.977  1.00  0.00     0.099 C 
ATOM      9  O   UNL     1     -10.084  13.109   5.037  1.00  0.00    -0.544 OA
ATOM     10  O   UNL     1     -10.324  15.124   3.989  1.00  0.00    -0.544 OA
ENDBRANCH   3   8
ENDBRANCH   1   3
BRANCH   1  11
ATOM     11  C   UNL     1      -6.280  13.876   5.996  1.00  0.00     0.006 C 
ATOM     12  C   UNL     1      -5.740  15.277   5.705  1.00  0.00     0.004 C 
ENDBRANCH   1  11
TORSDOF 4
ENDMDL
MODEL 5
REMARK VINA RESULT:    -3.331     16.076     17.120
REMARK INTER + INTRA:          -4.074
REMARK INTER:                  -3.988
REMARK INTRA:                  -0.087
REMARK UNBOUND:                -0.062
REMARK SMILES CC[C@@H](C)[C@H]([NH3+])C(=O)[O-]
REMARK SMILES IDX 3 1 4 2 5 3 6 4 7 8 8 9 9 10 2 11 1 12
REMARK H PARENT 6 5 6 6 6 7
REMARK Flexibility Score: inf
ROOT
ATOM      1  C   UNL     1       6.847  18.834  12.076  1.00  0.00     0.050 C 
ATOM      2  C   UNL     1       5.415  18.268  12.073  1.00  0.00     0.014 C 
ENDROOT
BRANCH   1   3
ATOM      3  C   UNL     1       7.676  18.384  10.830  1.00  0.00     0.230 C 
BRANCH   3   4
ATOM      4  N   UNL     1       6.968  18.676   9.575  1.00  0.00    -0.350 N 
ATOM      5  H   UNL     1       7.610  19.159   8.905  1.00  0.00     0.345 HD
ATOM      6  H   UNL     1       6.652  17.782   9.133  1.00  0.00     0.345 HD
ATOM      7  H   UNL     1       6.132  19.280   9.745  1.00  0.00     0.345 HD
ENDBRANCH   3   4
BRANCH   3   8
ATOM      8  C   UNL     1       8.137  16.943  10.872  1.00  0.00     0.099 C 
ATOM      9  O   UNL     1       8.641  16.473  11.925  1.00  0.00    -0.544 OA
ATOM     10  O   UNL     1       8.062  16.136   9.742  1.00  0.00    -0.544 OA
ENDBRANCH   3   8
ENDBRANCH   1   3
BRANCH   1  11
ATOM     11  C   UNL     1       6.869  20.350  12.406  1.00  0.00     0.006 C 
ATOM     12  C   UNL     1       5.508  20.987  12.688  1.00  0.00     0.004 C 
ENDBRANCH   1  11
TORSDOF 4
ENDMDL
MODEL 6
REMARK VINA RESULT:    -3.246      2.670      3.725
REMARK INTER + INTRA:          -3.972
REMARK INTER:                  -3.903
REMARK INTRA:                  -0.069
REMARK UNBOUND:                -0.062
REMARK SMILES CC[C@@H](C)[C@H]([NH3+])C(=O)[O-]
REMARK SMILES IDX 3 1 4 2 5 3 6 4 7 8 8 9 9 10 2 11 1 12
REMARK H PARENT 6 5 6 6 6 7
REMARK Flexibility Score: inf
ROOT
ATOM      1  C   UNL     1      -9.300  14.226   7.966  1.00  0.00     0.050 C 
ATOM      2  C   UNL     1      -8.008  13.421   8.193  1.00  0.00     0.014 C 
ENDROOT
BRANCH   1   3
ATOM      3  C   UNL     1     -10.467  13.347   7.408  1.00  0.00     0.230 C 
BRANCH   3   4
ATOM      4  N   UNL     1     -10.773  12.222   8.303  1.00  0.00    -0.350 N 
ATOM      5  H   UNL     1     -11.674  11.773   8.020  1.00  0.00     0.345 HD
ATOM      6  H   UNL     1     -10.018  11.501   8.232  1.00  0.00     0.345 HD
ATOM      7  H   UNL     1     -10.842  12.538   9.297  1.00  0.00     0.345 HD
ENDBRANCH   3   4
BRANCH   3   8
ATOM      8  C   UNL     1     -10.267  12.872   5.985  1.00  0.00     0.099 C 
ATOM      9  O   UNL     1     -10.683  11.736   5.636  1.00  0.00    -0.544 OA
ATOM     10  O   UNL     1      -9.578  13.650   5.061  1.00  0.00    -0.544 OA
ENDBRANCH   3   8
ENDBRANCH   1   3
BRANCH   1  11
ATOM     11  C   UNL     1      -9.641  15.130   9.180  1.00  0.00     0.006 C 
ATOM     12  C   UNL     1     -10.166  16.526   8.839  1.00  0.00     0.004 C 
ENDBRANCH   1  11
TORSDOF 4
ENDMDL
MODEL 7
REMARK VINA RESULT:    -3.244     16.302     17.061
REMARK INTER + INTRA:          -3.969
REMARK INTER:                  -3.900
REMARK INTRA:                  -0.069
REMARK UNBOUND:                -0.062
REMARK SMILES CC[C@@H](C)[C@H]([NH3+])C(=O)[O-]
REMARK SMILES IDX 3 1 4 2 5 3 6 4 7 8 8 9 9 10 2 11 1 12
REMARK H PARENT 6 5 6 6 6 7
REMARK Flexibility Score: inf
ROOT
ATOM      1  C   UNL     1       5.457  11.587  16.262  1.00  0.00     0.050 C 
ATOM      2  C   UNL     1       6.883  11.008  16.228  1.00  0.00     0.014 C 
ENDROOT
BRANCH   1   3
ATOM      3  C   UNL     1       5.432  13.108  16.624  1.00  0.00     0.230 C 
BRANCH   3   4
ATOM      4  N   UNL     1       6.716  13.757  16.319  1.00  0.00    -0.350 N 
ATOM      5  H   UNL     1       7.395  13.053  15.948  1.00  0.00     0.345 HD
ATOM      6  H   UNL     1       6.574  14.487  15.583  1.00  0.00     0.345 HD
ATOM      7  H   UNL     1       7.121  14.211  17.168  1.00  0.00     0.345 HD
ENDBRANCH   3   4
BRANCH   3   8
ATOM      8  C   UNL     1       4.995  13.407  18.042  1.00  0.00     0.099 C 
ATOM      9  O   UNL     1       4.875  12.470  18.875  1.00  0.00    -0.544 OA
ATOM     10  O   UNL     1       4.669  14.701  18.431  1.00  0.00    -0.544 OA
ENDBRANCH   3   8
ENDBRANCH   1   3
BRANCH   1  11
ATOM     11  C   UNL     1       4.630  11.163  15.020  1.00  0.00     0.006 C 
ATOM     12  C   UNL     1       4.668   9.673  14.677  1.00  0.00     0.004 C 
ENDBRANCH   1  11
TORSDOF 4
ENDMDL
MODEL 8
REMARK VINA RESULT:    -3.243     16.393     17.026
REMARK INTER + INTRA:          -3.968
REMARK INTER:                  -3.903
REMARK INTRA:                  -0.065
REMARK UNBOUND:                -0.062
REMARK SMILES CC[C@@H](C)[C@H]([NH3+])C(=O)[O-]
REMARK SMILES IDX 3 1 4 2 5 3 6 4 7 8 8 9 9 10 2 11 1 12
REMARK H PARENT 6 5 6 6 6 7
REMARK Flexibility Score: inf
ROOT
ATOM      1  C   UNL     1       6.803  19.364  11.675  1.00  0.00     0.050 C 
ATOM      2  C   UNL     1       8.033  19.926  12.411  1.00  0.00     0.014 C 
ENDROOT
BRANCH   1   3
ATOM      3  C   UNL     1       6.929  17.836  11.370  1.00  0.00     0.230 C 
BRANCH   3   4
ATOM      4  N   UNL     1       7.855  17.174  12.300  1.00  0.00    -0.350 N 
ATOM      5  H   UNL     1       8.797  17.626  12.251  1.00  0.00     0.345 HD
ATOM      6  H   UNL     1       7.501  17.272  13.279  1.00  0.00     0.345 HD
ATOM      7  H   UNL     1       7.951  16.157  12.078  1.00  0.00     0.345 HD
ENDBRANCH   3   4
BRANCH   3   8
ATOM      8  C   UNL     1       7.275  17.511   9.933  1.00  0.00     0.099 C 
ATOM      9  O   UNL     1       7.354  16.311   9.560  1.00  0.00    -0.544 OA
ATOM     10  O   UNL     1       7.562  18.521   9.021  1.00  0.00    -0.544 OA
ENDBRANCH   3   8
ENDBRANCH   1   3
BRANCH   1  11
ATOM     11  C   UNL     1       5.475  19.827  12.330  1.00  0.00     0.006 C 
ATOM     12  C   UNL     1       5.395  21.312  12.687  1.00  0.00     0.004 C 
ENDBRANCH   1  11
TORSDOF 4
ENDMDL
MODEL 9
REMARK VINA RESULT:    -0.925      2.704      3.229
REMARK INTER + INTRA:          -1.176
REMARK INTER:                  -1.113
REMARK INTRA:                  -0.063
REMARK UNBOUND:                -0.062
REMARK SMILES CC[C@@H](C)[C@H]([NH3+])C(=O)[O-]
REMARK SMILES IDX 3 1 4 2 5 3 6 4 7 8 8 9 9 10 2 11 1 12
REMARK H PARENT 6 5 6 6 6 7
REMARK Flexibility Score: inf
ROOT
ATOM      1  C   UNL     1      -8.575  13.373   6.861  1.00  0.00     0.050 C 
ATOM      2  C   UNL     1      -8.033  13.752   8.251  1.00  0.00     0.014 C 
ENDROOT
BRANCH   1   3
ATOM      3  C   UNL     1     -10.134  13.271   6.829  1.00  0.00     0.230 C 
BRANCH   3   4
ATOM      4  N   UNL     1     -10.651  12.526   7.986  1.00  0.00    -0.350 N 
ATOM      5  H   UNL     1     -10.305  11.539   7.961  1.00  0.00     0.345 HD
ATOM      6  H   UNL     1     -10.306  12.966   8.870  1.00  0.00     0.345 HD
ATOM      7  H   UNL     1     -11.696  12.524   7.999  1.00  0.00     0.345 HD
ENDBRANCH   3   4
BRANCH   3   8
ATOM      8  C   UNL     1     -10.699  12.726   5.535  1.00  0.00     0.099 C 
ATOM      9  O   UNL     1     -10.745  11.483   5.341  1.00  0.00    -0.544 OA
ATOM     10  O   UNL     1     -11.125  13.581   4.524  1.00  0.00    -0.544 OA
ENDBRANCH   3   8
ENDBRANCH   1   3
BRANCH   1  11
ATOM     11  C   UNL     1      -7.918  14.213   5.734  1.00  0.00     0.006 C 
ATOM     12  C   UNL     1      -6.407  14.417   5.855  1.00  0.00     0.004 C 
ENDBRANCH   1  11
TORSDOF 4
ENDMDL
