MODEL 1
REMARK VINA RESULT:    -4.237      0.000      0.000
REMARK INTER + INTRA:          -7.119
REMARK INTER:                  -6.219
REMARK INTRA:                  -0.900
REMARK UNBOUND:                -0.900
REMARK SMILES CC(C)COC(=O)c1ccccc1C(=O)OCC(C)C
REMARK SMILES IDX 8 1 9 2 10 3 11 4 12 5 13 6 6 7 7 8 5 9 4 10 2 11 1 12 3 13
REMARK SMILES IDX 14 14 15 15 16 16 17 17 18 18 19 19 20 20
REMARK H PARENT
REMARK Flexibility Score: inf
ROOT
ATOM      1  C   UNL     1      27.031  39.199  20.576  1.00  0.00     0.074 A 
ATOM      2  C   UNL     1      25.760  39.725  20.877  1.00  0.00     0.016 A 
ATOM      3  C   UNL     1      24.642  38.894  20.946  1.00  0.00     0.001 A 
ATOM      4  C   UNL     1      24.773  37.525  20.718  1.00  0.00     0.001 A 
ATOM      5  C   UNL     1      26.019  36.986  20.395  1.00  0.00     0.016 A 
ATOM      6  C   UNL     1      27.156  37.809  20.297  1.00  0.00     0.074 A 
ENDROOT
BRANCH   1   7
ATOM      7  C   UNL     1      28.189  40.118  20.631  1.00  0.00     0.339 C 
ATOM      8  O   UNL     1      29.084  39.966  21.508  1.00  0.00    -0.246 OA
BRANCH   7   9
ATOM      9  O   UNL     1      28.254  41.196  19.743  1.00  0.00    -0.462 OA
BRANCH   9  10
ATOM     10  C   UNL     1      28.718  42.487  20.128  1.00  0.00     0.236 C 
BRANCH  10  11
ATOM     11  C   UNL     1      27.580  43.511  20.005  1.00  0.00     0.021 C 
ATOM     12  C   UNL     1      26.877  43.394  18.645  1.00  0.00     0.011 C 
ATOM     13  C   UNL     1      26.570  43.330  21.143  1.00  0.00     0.011 C 
ENDBRANCH  10  11
ENDBRANCH   9  10
ENDBRANCH   7   9
ENDBRANCH   1   7
BRANCH   6  14
ATOM     14  C   UNL     1      28.420  37.189  19.840  1.00  0.00     0.339 C 
ATOM     15  O   UNL     1      28.888  37.458  18.700  1.00  0.00    -0.246 OA
BRANCH  14  16
ATOM     16  O   UNL     1      29.062  36.255  20.661  1.00  0.00    -0.462 OA
BRANCH  16  17
ATOM     17  C   UNL     1      28.803  34.855  20.584  1.00  0.00     0.236 C 
BRANCH  17  18
ATOM     18  C   UNL     1      29.056  34.200  21.949  1.00  0.00     0.021 C 
ATOM     19  C   UNL     1      29.119  32.671  21.824  1.00  0.00     0.011 C 
ATOM     20  C   UNL     1      27.968  34.607  22.949  1.00  0.00     0.011 C 
ENDBRANCH  17  18
ENDBRANCH  16  17
ENDBRANCH  14  16
ENDBRANCH   6  14
TORSDOF 8
ENDMDL
MODEL 2
REMARK VINA RESULT:    -3.878      1.805      4.061
REMARK INTER + INTRA:          -6.591
REMARK INTER:                  -5.590
REMARK INTRA:                  -1.001
REMARK UNBOUND:                -0.900
REMARK SMILES CC(C)COC(=O)c1ccccc1C(=O)OCC(C)C
REMARK SMILES IDX 8 1 9 2 10 3 11 4 12 5 13 6 6 7 7 8 5 9 4 10 2 11 1 12 3 13
REMARK SMILES IDX 14 14 15 15 16 16 17 17 18 18 19 19 20 20
REMARK H PARENT
REMARK Flexibility Score: inf
ROOT
ATOM      1  C   UNL     1      28.246  37.739  19.101  1.00  0.00     0.074 A 
ATOM      2  C   UNL     1      29.112  36.706  18.699  1.00  0.00     0.016 A 
ATOM      3  C   UNL     1      29.125  35.483  19.372  1.00  0.00     0.001 A 
ATOM      4  C   UNL     1      28.274  35.272  20.455  1.00  0.00     0.001 A 
ATOM      5  C   UNL     1      27.424  36.291  20.885  1.00  0.00     0.016 A 
ATOM      6  C   UNL     1      27.411  37.540  20.237  1.00  0.00     0.074 A 
ENDROOT
BRANCH   1   7
ATOM      7  C   UNL     1      28.204  38.966  18.274  1.00  0.00     0.339 C 
ATOM      8  O   UNL     1      28.158  38.885  17.015  1.00  0.00    -0.246 OA
BRANCH   7   9
ATOM      9  O   UNL     1      28.277  40.216  18.895  1.00  0.00    -0.462 OA
BRANCH   9  10
ATOM     10  C   UNL     1      27.298  41.232  18.701  1.00  0.00     0.236 C 
BRANCH  10  11
ATOM     11  C   UNL     1      27.514  42.369  19.711  1.00  0.00     0.021 C 
ATOM     12  C   UNL     1      26.318  42.494  20.666  1.00  0.00     0.011 C 
ATOM     13  C   UNL     1      28.806  42.143  20.503  1.00  0.00     0.011 C 
ENDBRANCH  10  11
ENDBRANCH   9  10
ENDBRANCH   7   9
ENDBRANCH   1   7
BRANCH   6  14
ATOM     14  C   UNL     1      26.568  38.610  20.816  1.00  0.00     0.339 C 
ATOM     15  O   UNL     1      27.013  39.343  21.742  1.00  0.00    -0.246 OA
BRANCH  14  16
ATOM     16  O   UNL     1      25.252  38.765  20.368  1.00  0.00    -0.462 OA
BRANCH  16  17
ATOM     17  C   UNL     1      24.132  38.759  21.250  1.00  0.00     0.236 C 
BRANCH  17  18
ATOM     18  C   UNL     1      23.494  37.363  21.279  1.00  0.00     0.021 C 
ATOM     19  C   UNL     1      24.115  36.496  22.383  1.00  0.00     0.011 C 
ATOM     20  C   UNL     1      23.644  36.678  19.917  1.00  0.00     0.011 C 
ENDBRANCH  17  18
ENDBRANCH  16  17
ENDBRANCH  14  16
ENDBRANCH   6  14
TORSDOF 8
ENDMDL
MODEL 3
REMARK VINA RESULT:    -3.759      1.767      5.735
REMARK INTER + INTRA:          -6.417
REMARK INTER:                  -5.634
REMARK INTRA:                  -0.783
REMARK UNBOUND:                -0.900
REMARK SMILES CC(C)COC(=O)c1ccccc1C(=O)OCC(C)C
REMARK SMILES IDX 8 1 9 2 10 3 11 4 12 5 13 6 6 7 7 8 5 9 4 10 2 11 1 12 3 13
REMARK SMILES IDX 14 14 15 15 16 16 17 17 18 18 19 19 20 20
REMARK H PARENT
REMARK Flexibility Score: inf
ROOT
ATOM      1  C   UNL     1      27.424  37.397  20.350  1.00  0.00     0.074 A 
ATOM      2  C   UNL     1      27.438  36.159  21.018  1.00  0.00     0.016 A 
ATOM      3  C   UNL     1      28.282  35.130  20.598  1.00  0.00     0.001 A 
ATOM      4  C   UNL     1      29.125  35.321  19.505  1.00  0.00     0.001 A 
ATOM      5  C   UNL     1      29.111  36.533  18.814  1.00  0.00     0.016 A 
ATOM      6  C   UNL     1      28.252  37.575  19.206  1.00  0.00     0.074 A 
ENDROOT
BRANCH   1   7
ATOM      7  C   UNL     1      26.590  38.479  20.919  1.00  0.00     0.339 C 
ATOM      8  O   UNL     1      27.004  39.156  21.901  1.00  0.00    -0.246 OA
BRANCH   7   9
ATOM      9  O   UNL     1      25.311  38.706  20.400  1.00  0.00    -0.462 OA
BRANCH   9  10
ATOM     10  C   UNL     1      24.144  38.753  21.216  1.00  0.00     0.236 C 
BRANCH  10  11
ATOM     11  C   UNL     1      23.468  37.374  21.243  1.00  0.00     0.021 C 
ATOM     12  C   UNL     1      23.620  36.658  19.894  1.00  0.00     0.011 C 
ATOM     13  C   UNL     1      24.049  36.514  22.371  1.00  0.00     0.011 C 
ENDBRANCH  10  11
ENDBRANCH   9  10
ENDBRANCH   7   9
ENDBRANCH   1   7
BRANCH   6  14
ATOM     14  C   UNL     1      28.208  38.790  18.360  1.00  0.00     0.339 C 
ATOM     15  O   UNL     1      28.219  38.693  17.103  1.00  0.00    -0.246 OA
BRANCH  14  16
ATOM     16  O   UNL     1      28.213  40.049  18.968  1.00  0.00    -0.462 OA
BRANCH  16  17
ATOM     17  C   UNL     1      27.265  41.064  18.646  1.00  0.00     0.236 C 
BRANCH  17  18
ATOM     18  C   UNL     1      27.430  42.258  19.597  1.00  0.00     0.021 C 
ATOM     19  C   UNL     1      26.443  42.170  20.769  1.00  0.00     0.011 C 
ATOM     20  C   UNL     1      27.241  43.577  18.839  1.00  0.00     0.011 C 
ENDBRANCH  17  18
ENDBRANCH  16  17
ENDBRANCH  14  16
ENDBRANCH   6  14
TORSDOF 8
ENDMDL
MODEL 4
REMARK VINA RESULT:    -3.750      1.863      6.531
REMARK INTER + INTRA:          -6.404
REMARK INTER:                  -4.977
REMARK INTRA:                  -1.427
REMARK UNBOUND:                -0.900
REMARK SMILES CC(C)COC(=O)c1ccccc1C(=O)OCC(C)C
REMARK SMILES IDX 8 1 9 2 10 3 11 4 12 5 13 6 6 7 7 8 5 9 4 10 2 11 1 12 3 13
REMARK SMILES IDX 14 14 15 15 16 16 17 17 18 18 19 19 20 20
REMARK H PARENT
REMARK Flexibility Score: inf
ROOT
ATOM      1  C   UNL     1      27.042  39.051  19.844  1.00  0.00     0.074 A 
ATOM      2  C   UNL     1      26.957  38.482  18.560  1.00  0.00     0.016 A 
ATOM      3  C   UNL     1      27.937  38.735  17.600  1.00  0.00     0.001 A 
ATOM      4  C   UNL     1      29.019  39.559  17.907  1.00  0.00     0.001 A 
ATOM      5  C   UNL     1      29.112  40.152  19.166  1.00  0.00     0.016 A 
ATOM      6  C   UNL     1      28.122  39.929  20.141  1.00  0.00     0.074 A 
ENDROOT
BRANCH   1   7
ATOM      7  C   UNL     1      26.030  38.649  20.846  1.00  0.00     0.339 C 
ATOM      8  O   UNL     1      24.923  39.253  20.912  1.00  0.00    -0.246 OA
BRANCH   7   9
ATOM      9  O   UNL     1      26.331  37.635  21.760  1.00  0.00    -0.462 OA
BRANCH   9  10
ATOM     10  C   UNL     1      26.468  36.269  21.379  1.00  0.00     0.236 C 
BRANCH  10  11
ATOM     11  C   UNL     1      27.941  35.844  21.470  1.00  0.00     0.021 C 
ATOM     12  C   UNL     1      28.100  34.584  22.334  1.00  0.00     0.011 C 
ATOM     13  C   UNL     1      28.516  35.604  20.070  1.00  0.00     0.011 C 
ENDBRANCH  10  11
ENDBRANCH   9  10
ENDBRANCH   7   9
ENDBRANCH   1   7
BRANCH   6  14
ATOM     14  C   UNL     1      28.225  40.679  21.414  1.00  0.00     0.339 C 
ATOM     15  O   UNL     1      29.124  40.394  22.252  1.00  0.00    -0.246 OA
BRANCH  14  16
ATOM     16  O   UNL     1      27.280  41.667  21.707  1.00  0.00    -0.462 OA
BRANCH  16  17
ATOM     17  C   UNL     1      27.639  43.015  22.000  1.00  0.00     0.236 C 
BRANCH  17  18
ATOM     18  C   UNL     1      27.608  43.858  20.718  1.00  0.00     0.021 C 
ATOM     19  C   UNL     1      26.535  43.346  19.747  1.00  0.00     0.011 C 
ATOM     20  C   UNL     1      28.984  43.854  20.041  1.00  0.00     0.011 C 
ENDBRANCH  17  18
ENDBRANCH  16  17
ENDBRANCH  14  16
ENDBRANCH   6  14
TORSDOF 8
ENDMDL
MODEL 5
REMARK VINA RESULT:    -3.747      2.063      4.264
REMARK INTER + INTRA:          -6.399
REMARK INTER:                  -5.914
REMARK INTRA:                  -0.485
REMARK UNBOUND:                -0.900
REMARK SMILES CC(C)COC(=O)c1ccccc1C(=O)OCC(C)C
REMARK SMILES IDX 8 1 9 2 10 3 11 4 12 5 13 6 6 7 7 8 5 9 4 10 2 11 1 12 3 13
REMARK SMILES IDX 14 14 15 15 16 16 17 17 18 18 19 19 20 20
REMARK H PARENT
REMARK Flexibility Score: inf
ROOT
ATOM      1  C   UNL     1      26.741  36.317  21.964  1.00  0.00     0.074 A 
ATOM      2  C   UNL     1      26.229  35.943  23.221  1.00  0.00     0.016 A 
ATOM      3  C   UNL     1      26.866  34.969  23.990  1.00  0.00     0.001 A 
ATOM      4  C   UNL     1      28.024  34.353  23.518  1.00  0.00     0.001 A 
ATOM      5  C   UNL     1      28.536  34.692  22.265  1.00  0.00     0.016 A 
ATOM      6  C   UNL     1      27.897  35.654  21.463  1.00  0.00     0.074 A 
ENDROOT
BRANCH   1   7
ATOM      7  C   UNL     1      26.081  37.436  21.255  1.00  0.00     0.339 C 
ATOM      8  O   UNL     1      25.015  37.240  20.607  1.00  0.00    -0.246 OA
BRANCH   7   9
ATOM      9  O   UNL     1      26.679  38.699  21.256  1.00  0.00    -0.462 OA
BRANCH   9  10
ATOM     10  C   UNL     1      25.986  39.882  20.867  1.00  0.00     0.236 C 
BRANCH  10  11
ATOM     11  C   UNL     1      26.933  41.089  20.926  1.00  0.00     0.021 C 
ATOM     12  C   UNL     1      27.012  41.796  19.566  1.00  0.00     0.011 C 
ATOM     13  C   UNL     1      26.480  42.072  22.011  1.00  0.00     0.011 C 
ENDBRANCH  10  11
ENDBRANCH   9  10
ENDBRANCH   7   9
ENDBRANCH   1   7
BRANCH   6  14
ATOM     14  C   UNL     1      28.429  35.882  20.100  1.00  0.00     0.339 C 
ATOM     15  O   UNL     1      28.669  34.906  19.337  1.00  0.00    -0.246 OA
BRANCH  14  16
ATOM     16  O   UNL     1      28.720  37.185  19.686  1.00  0.00    -0.462 OA
BRANCH  16  17
ATOM     17  C   UNL     1      29.125  37.499  18.355  1.00  0.00     0.236 C 
BRANCH  17  18
ATOM     18  C   UNL     1      28.350  38.723  17.846  1.00  0.00     0.021 C 
ATOM     19  C   UNL     1      26.835  38.491  17.931  1.00  0.00     0.011 C 
ATOM     20  C   UNL     1      28.758  39.052  16.405  1.00  0.00     0.011 C 
ENDBRANCH  17  18
ENDBRANCH  16  17
ENDBRANCH  14  16
ENDBRANCH   6  14
TORSDOF 8
ENDMDL
MODEL 6
REMARK VINA RESULT:    -3.700      1.770      6.796
REMARK INTER + INTRA:          -6.331
REMARK INTER:                  -6.203
REMARK INTRA:                  -0.128
REMARK UNBOUND:                -0.900
REMARK SMILES CC(C)COC(=O)c1ccccc1C(=O)OCC(C)C
REMARK SMILES IDX 8 1 9 2 10 3 11 4 12 5 13 6 6 7 7 8 5 9 4 10 2 11 1 12 3 13
REMARK SMILES IDX 14 14 15 15 16 16 17 17 18 18 19 19 20 20
REMARK H PARENT
REMARK Flexibility Score: inf
ROOT
ATOM      1  C   UNL     1      27.762  37.890  19.547  1.00  0.00     0.074 A 
ATOM      2  C   UNL     1      28.574  37.502  18.464  1.00  0.00     0.016 A 
ATOM      3  C   UNL     1      28.900  38.409  17.455  1.00  0.00     0.001 A 
ATOM      4  C   UNL     1      28.423  39.717  17.511  1.00  0.00     0.001 A 
ATOM      5  C   UNL     1      27.598  40.117  18.562  1.00  0.00     0.016 A 
ATOM      6  C   UNL     1      27.237  39.213  19.578  1.00  0.00     0.074 A 
ENDROOT
BRANCH   1   7
ATOM      7  C   UNL     1      27.551  36.911  20.636  1.00  0.00     0.339 C 
ATOM      8  O   UNL     1      26.486  36.931  21.314  1.00  0.00    -0.246 OA
BRANCH   7   9
ATOM      9  O   UNL     1      28.566  36.002  20.951  1.00  0.00    -0.462 OA
BRANCH   9  10
ATOM     10  C   UNL     1      28.336  34.602  21.077  1.00  0.00     0.236 C 
BRANCH  10  11
ATOM     11  C   UNL     1      28.836  34.110  22.443  1.00  0.00     0.021 C 
ATOM     12  C   UNL     1      27.818  34.424  23.549  1.00  0.00     0.011 C 
ATOM     13  C   UNL     1      29.125  32.606  22.398  1.00  0.00     0.011 C 
ENDBRANCH  10  11
ENDBRANCH   9  10
ENDBRANCH   7   9
ENDBRANCH   1   7
BRANCH   6  14
ATOM     14  C   UNL     1      26.269  39.672  20.600  1.00  0.00     0.339 C 
ATOM     15  O   UNL     1      25.084  39.238  20.597  1.00  0.00    -0.246 OA
BRANCH  14  16
ATOM     16  O   UNL     1      26.663  40.635  21.534  1.00  0.00    -0.462 OA
BRANCH  16  17
ATOM     17  C   UNL     1      26.138  41.961  21.542  1.00  0.00     0.236 C 
BRANCH  17  18
ATOM     18  C   UNL     1      27.232  42.960  21.141  1.00  0.00     0.021 C 
ATOM     19  C   UNL     1      27.180  43.261  19.637  1.00  0.00     0.011 C 
ATOM     20  C   UNL     1      28.615  42.425  21.529  1.00  0.00     0.011 C 
ENDBRANCH  17  18
ENDBRANCH  16  17
ENDBRANCH  14  16
ENDBRANCH   6  14
TORSDOF 8
ENDMDL
MODEL 7
REMARK VINA RESULT:    -3.531      1.942      2.862
REMARK INTER + INTRA:          -6.083
REMARK INTER:                  -5.990
REMARK INTRA:                  -0.092
REMARK UNBOUND:                -0.900
REMARK SMILES CC(C)COC(=O)c1ccccc1C(=O)OCC(C)C
REMARK SMILES IDX 8 1 9 2 10 3 11 4 12 5 13 6 6 7 7 8 5 9 4 10 2 11 1 12 3 13
REMARK SMILES IDX 14 14 15 15 16 16 17 17 18 18 19 19 20 20
REMARK H PARENT
REMARK Flexibility Score: inf
ROOT
ATOM      1  C   UNL     1      27.454  38.918  19.386  1.00  0.00     0.074 A 
ATOM      2  C   UNL     1      27.776  39.732  18.283  1.00  0.00     0.016 A 
ATOM      3  C   UNL     1      28.604  39.259  17.264  1.00  0.00     0.001 A 
ATOM      4  C   UNL     1      29.125  37.968  17.330  1.00  0.00     0.001 A 
ATOM      5  C   UNL     1      28.838  37.153  18.425  1.00  0.00     0.016 A 
ATOM      6  C   UNL     1      28.024  37.617  19.475  1.00  0.00     0.074 A 
ENDROOT
BRANCH   1   7
ATOM      7  C   UNL     1      26.481  39.442  20.369  1.00  0.00     0.339 C 
ATOM      8  O   UNL     1      25.284  39.042  20.358  1.00  0.00    -0.246 OA
BRANCH   7   9
ATOM      9  O   UNL     1      26.881  40.431  21.273  1.00  0.00    -0.462 OA
BRANCH   9  10
ATOM     10  C   UNL     1      28.175  40.454  21.869  1.00  0.00     0.236 C 
BRANCH  10  11
ATOM     11  C   UNL     1      28.642  41.905  22.054  1.00  0.00     0.021 C 
ATOM     12  C   UNL     1      27.554  42.895  21.615  1.00  0.00     0.011 C 
ATOM     13  C   UNL     1      29.036  42.159  23.513  1.00  0.00     0.011 C 
ENDBRANCH  10  11
ENDBRANCH   9  10
ENDBRANCH   7   9
ENDBRANCH   1   7
BRANCH   6  14
ATOM     14  C   UNL     1      27.855  36.742  20.657  1.00  0.00     0.339 C 
ATOM     15  O   UNL     1      26.892  36.922  21.451  1.00  0.00    -0.246 OA
BRANCH  14  16
ATOM     16  O   UNL     1      28.805  35.750  20.919  1.00  0.00    -0.462 OA
BRANCH  16  17
ATOM     17  C   UNL     1      28.467  34.370  21.035  1.00  0.00     0.236 C 
BRANCH  17  18
ATOM     18  C   UNL     1      28.918  33.833  22.401  1.00  0.00     0.021 C 
ATOM     19  C   UNL     1      29.125  32.312  22.355  1.00  0.00     0.011 C 
ATOM     20  C   UNL     1      27.896  34.198  23.484  1.00  0.00     0.011 C 
ENDBRANCH  17  18
ENDBRANCH  16  17
ENDBRANCH  14  16
ENDBRANCH   6  14
TORSDOF 8
ENDMDL
MODEL 8
REMARK VINA RESULT:    -3.355      2.477      3.283
REMARK INTER + INTRA:          -5.825
REMARK INTER:                  -4.796
REMARK INTRA:                  -1.029
REMARK UNBOUND:                -0.900
REMARK SMILES CC(C)COC(=O)c1ccccc1C(=O)OCC(C)C
REMARK SMILES IDX 8 1 9 2 10 3 11 4 12 5 13 6 6 7 7 8 5 9 4 10 2 11 1 12 3 13
REMARK SMILES IDX 14 14 15 15 16 16 17 17 18 18 19 19 20 20
REMARK H PARENT
REMARK Flexibility Score: inf
ROOT
ATOM      1  C   UNL     1      27.127  40.234  19.981  1.00  0.00     0.074 A 
ATOM      2  C   UNL     1      27.936  40.730  18.943  1.00  0.00     0.016 A 
ATOM      3  C   UNL     1      28.145  39.984  17.782  1.00  0.00     0.001 A 
ATOM      4  C   UNL     1      27.549  38.732  17.639  1.00  0.00     0.001 A 
ATOM      5  C   UNL     1      26.762  38.211  18.666  1.00  0.00     0.016 A 
ATOM      6  C   UNL     1      26.557  38.935  19.855  1.00  0.00     0.074 A 
ENDROOT
BRANCH   1   7
ATOM      7  C   UNL     1      26.857  41.125  21.132  1.00  0.00     0.339 C 
ATOM      8  O   UNL     1      25.718  41.647  21.281  1.00  0.00    -0.246 OA
BRANCH   7   9
ATOM      9  O   UNL     1      27.892  41.434  22.019  1.00  0.00    -0.462 OA
BRANCH   9  10
ATOM     10  C   UNL     1      28.363  42.763  22.223  1.00  0.00     0.236 C 
BRANCH  10  11
ATOM     11  C   UNL     1      28.309  43.115  23.717  1.00  0.00     0.021 C 
ATOM     12  C   UNL     1      26.920  43.639  24.110  1.00  0.00     0.011 C 
ATOM     13  C   UNL     1      28.678  41.896  24.569  1.00  0.00     0.011 C 
ENDBRANCH  10  11
ENDBRANCH   9  10
ENDBRANCH   7   9
ENDBRANCH   1   7
BRANCH   6  14
ATOM     14  C   UNL     1      25.805  38.275  20.946  1.00  0.00     0.339 C 
ATOM     15  O   UNL     1      24.562  38.456  21.065  1.00  0.00    -0.246 OA
BRANCH  14  16
ATOM     16  O   UNL     1      26.495  37.495  21.880  1.00  0.00    -0.462 OA
BRANCH  16  17
ATOM     17  C   UNL     1      26.508  36.071  21.836  1.00  0.00     0.236 C 
BRANCH  17  18
ATOM     18  C   UNL     1      27.943  35.564  21.637  1.00  0.00     0.021 C 
ATOM     19  C   UNL     1      28.194  35.177  20.173  1.00  0.00     0.011 C 
ATOM     20  C   UNL     1      28.223  34.371  22.558  1.00  0.00     0.011 C 
ENDBRANCH  17  18
ENDBRANCH  16  17
ENDBRANCH  14  16
ENDBRANCH   6  14
TORSDOF 8
ENDMDL
MODEL 9
REMARK VINA RESULT:    -3.000      1.538      2.148
REMARK INTER + INTRA:          -5.302
REMARK INTER:                  -5.218
REMARK INTRA:                  -0.085
REMARK UNBOUND:                -0.900
REMARK SMILES CC(C)COC(=O)c1ccccc1C(=O)OCC(C)C
REMARK SMILES IDX 8 1 9 2 10 3 11 4 12 5 13 6 6 7 7 8 5 9 4 10 2 11 1 12 3 13
REMARK SMILES IDX 14 14 15 15 16 16 17 17 18 18 19 19 20 20
REMARK H PARENT
REMARK Flexibility Score: inf
ROOT
ATOM      1  C   UNL     1      26.376  38.609  20.849  1.00  0.00     0.074 A 
ATOM      2  C   UNL     1      25.172  39.336  20.880  1.00  0.00     0.016 A 
ATOM      3  C   UNL     1      23.951  38.689  21.078  1.00  0.00     0.001 A 
ATOM      4  C   UNL     1      23.914  37.306  21.248  1.00  0.00     0.001 A 
ATOM      5  C   UNL     1      25.094  36.562  21.197  1.00  0.00     0.016 A 
ATOM      6  C   UNL     1      26.332  37.192  20.976  1.00  0.00     0.074 A 
ENDROOT
BRANCH   1   7
ATOM      7  C   UNL     1      27.640  39.372  20.750  1.00  0.00     0.339 C 
ATOM      8  O   UNL     1      28.185  39.561  19.627  1.00  0.00    -0.246 OA
BRANCH   7   9
ATOM      9  O   UNL     1      28.261  39.829  21.916  1.00  0.00    -0.462 OA
BRANCH   9  10
ATOM     10  C   UNL     1      28.875  41.111  22.012  1.00  0.00     0.236 C 
BRANCH  10  11
ATOM     11  C   UNL     1      27.977  42.064  22.816  1.00  0.00     0.021 C 
ATOM     12  C   UNL     1      28.707  43.378  23.127  1.00  0.00     0.011 C 
ATOM     13  C   UNL     1      26.677  42.345  22.054  1.00  0.00     0.011 C 
ENDBRANCH  10  11
ENDBRANCH   9  10
ENDBRANCH   7   9
ENDBRANCH   1   7
BRANCH   6  14
ATOM     14  C   UNL     1      27.527  36.331  20.821  1.00  0.00     0.339 C 
ATOM     15  O   UNL     1      28.434  36.640  20.001  1.00  0.00    -0.246 OA
BRANCH  14  16
ATOM     16  O   UNL     1      27.614  35.141  21.550  1.00  0.00    -0.462 OA
BRANCH  16  17
ATOM     17  C   UNL     1      27.664  35.110  22.974  1.00  0.00     0.236 C 
BRANCH  17  18
ATOM     18  C   UNL     1      28.269  33.782  23.450  1.00  0.00     0.021 C 
ATOM     19  C   UNL     1      29.105  33.980  24.722  1.00  0.00     0.011 C 
ATOM     20  C   UNL     1      29.125  33.156  22.343  1.00  0.00     0.011 C 
ENDBRANCH  17  18
ENDBRANCH  16  17
ENDBRANCH  14  16
ENDBRANCH   6  14
TORSDOF 8
ENDMDL
