MODEL 1
REMARK VINA RESULT:    -4.425      0.000      0.000
REMARK INTER + INTRA:          -5.760
REMARK INTER:                  -5.460
REMARK INTRA:                  -0.300
REMARK UNBOUND:                -0.300
REMARK SMILES CCOC(=O)c1ccc(O)c(O)c1
REMARK SMILES IDX 4 1 5 2 3 3 2 4 1 5 6 6 13 7 7 8 11 9 8 10 9 11 12 12 10 14
REMARK H PARENT 12 13 10 15
REMARK Flexibility Score: inf
ROOT
ATOM      1  C   UNL     1       4.562 -17.287  14.899  1.00  0.00     0.338 C 
ATOM      2  O   UNL     1       4.679 -18.063  15.888  1.00  0.00    -0.246 OA
ENDROOT
BRANCH   1   3
ATOM      3  O   UNL     1       4.962 -17.708  13.627  1.00  0.00    -0.462 OA
BRANCH   3   4
ATOM      4  C   UNL     1       6.277 -18.178  13.350  1.00  0.00     0.230 C 
ATOM      5  C   UNL     1       7.271 -17.043  13.536  1.00  0.00     0.049 C 
ENDBRANCH   3   4
ENDBRANCH   1   3
BRANCH   1   6
ATOM      6  C   UNL     1       4.002 -15.929  15.084  1.00  0.00     0.064 A 
ATOM      7  C   UNL     1       2.652 -15.662  14.790  1.00  0.00     0.065 A 
ATOM      8  C   UNL     1       4.815 -14.885  15.555  1.00  0.00     0.020 A 
ATOM      9  C   UNL     1       2.124 -14.378  14.966  1.00  0.00     0.158 A 
ATOM     10  C   UNL     1       4.291 -13.602  15.730  1.00  0.00     0.051 A 
ATOM     11  C   UNL     1       2.947 -13.342  15.438  1.00  0.00     0.157 A 
BRANCH   9  12
ATOM     12  O   UNL     1       0.781 -14.151  14.664  1.00  0.00    -0.504 OA
ATOM     13  H   UNL     1       0.486 -13.393  14.061  1.00  0.00     0.293 HD
ENDBRANCH   9  12
BRANCH  11  14
ATOM     14  O   UNL     1       2.426 -12.061  15.613  1.00  0.00    -0.504 OA
ATOM     15  H   UNL     1       2.760 -11.273  15.069  1.00  0.00     0.293 HD
ENDBRANCH  11  14
ENDBRANCH   1   6
TORSDOF 5
ENDMDL
MODEL 2
REMARK VINA RESULT:    -4.275      1.136      2.069
REMARK INTER + INTRA:          -5.575
REMARK INTER:                  -5.275
REMARK INTRA:                  -0.299
REMARK UNBOUND:                -0.300
REMARK SMILES CCOC(=O)c1ccc(O)c(O)c1
REMARK SMILES IDX 4 1 5 2 3 3 2 4 1 5 6 6 13 7 7 8 11 9 8 10 9 11 12 12 10 14
REMARK H PARENT 12 13 10 15
REMARK Flexibility Score: inf
ROOT
ATOM      1  C   UNL     1       4.610 -17.271  14.732  1.00  0.00     0.338 C 
ATOM      2  O   UNL     1       5.348 -17.485  13.731  1.00  0.00    -0.246 OA
ENDROOT
BRANCH   1   3
ATOM      3  O   UNL     1       4.317 -18.310  15.621  1.00  0.00    -0.462 OA
BRANCH   3   4
ATOM      4  C   UNL     1       5.020 -18.496  16.846  1.00  0.00     0.230 C 
ATOM      5  C   UNL     1       4.094 -18.197  18.013  1.00  0.00     0.049 C 
ENDBRANCH   3   4
ENDBRANCH   1   3
BRANCH   1   6
ATOM      6  C   UNL     1       4.053 -15.920  14.968  1.00  0.00     0.064 A 
ATOM      7  C   UNL     1       2.700 -15.643  14.699  1.00  0.00     0.065 A 
ATOM      8  C   UNL     1       4.872 -14.893  15.465  1.00  0.00     0.020 A 
ATOM      9  C   UNL     1       2.174 -14.366  14.923  1.00  0.00     0.158 A 
ATOM     10  C   UNL     1       4.350 -13.616  15.689  1.00  0.00     0.051 A 
ATOM     11  C   UNL     1       3.003 -13.346  15.420  1.00  0.00     0.157 A 
BRANCH   9  12
ATOM     12  O   UNL     1       0.828 -14.129  14.644  1.00  0.00    -0.504 OA
ATOM     13  H   UNL     1       0.506 -13.885  13.715  1.00  0.00     0.293 HD
ENDBRANCH   9  12
BRANCH  11  14
ATOM     14  O   UNL     1       2.484 -12.072  15.644  1.00  0.00    -0.504 OA
ATOM     15  H   UNL     1       1.831 -11.643  14.997  1.00  0.00     0.293 HD
ENDBRANCH  11  14
ENDBRANCH   1   6
TORSDOF 5
ENDMDL
MODEL 3
REMARK VINA RESULT:    -4.205      1.544      2.528
REMARK INTER + INTRA:          -5.488
REMARK INTER:                  -5.212
REMARK INTRA:                  -0.275
REMARK UNBOUND:                -0.300
REMARK SMILES CCOC(=O)c1ccc(O)c(O)c1
REMARK SMILES IDX 4 1 5 2 3 3 2 4 1 5 6 6 13 7 7 8 11 9 8 10 9 11 12 12 10 14
REMARK H PARENT 12 13 10 15
REMARK Flexibility Score: inf
ROOT
ATOM      1  C   UNL     1       6.340 -15.073  14.809  1.00  0.00     0.338 C 
ATOM      2  O   UNL     1       7.076 -14.050  14.727  1.00  0.00    -0.246 OA
ENDROOT
BRANCH   1   3
ATOM      3  O   UNL     1       6.912 -16.350  14.792  1.00  0.00    -0.462 OA
BRANCH   3   4
ATOM      4  C   UNL     1       7.550 -16.891  13.640  1.00  0.00     0.230 C 
ATOM      5  C   UNL     1       6.676 -17.978  13.038  1.00  0.00     0.049 C 
ENDBRANCH   3   4
ENDBRANCH   1   3
BRANCH   1   6
ATOM      6  C   UNL     1       4.873 -14.925  14.924  1.00  0.00     0.064 A 
ATOM      7  C   UNL     1       4.295 -13.669  15.189  1.00  0.00     0.065 A 
ATOM      8  C   UNL     1       4.033 -16.041  14.771  1.00  0.00     0.020 A 
ATOM      9  C   UNL     1       2.907 -13.530  15.297  1.00  0.00     0.158 A 
ATOM     10  C   UNL     1       2.647 -15.905  14.878  1.00  0.00     0.051 A 
ATOM     11  C   UNL     1       2.077 -14.653  15.141  1.00  0.00     0.157 A 
BRANCH   9  12
ATOM     12  O   UNL     1       2.370 -12.270  15.560  1.00  0.00    -0.504 OA
ATOM     13  H   UNL     1       2.954 -11.451  15.680  1.00  0.00     0.293 HD
ENDBRANCH   9  12
BRANCH  11  14
ATOM     14  O   UNL     1       0.694 -14.521  15.249  1.00  0.00    -0.504 OA
ATOM     15  H   UNL     1       0.092 -15.326  15.381  1.00  0.00     0.293 HD
ENDBRANCH  11  14
ENDBRANCH   1   6
TORSDOF 5
ENDMDL
MODEL 4
REMARK VINA RESULT:    -3.994      1.471      4.839
REMARK INTER + INTRA:          -5.228
REMARK INTER:                  -4.979
REMARK INTRA:                  -0.250
REMARK UNBOUND:                -0.300
REMARK SMILES CCOC(=O)c1ccc(O)c(O)c1
REMARK SMILES IDX 4 1 5 2 3 3 2 4 1 5 6 6 13 7 7 8 11 9 8 10 9 11 12 12 10 14
REMARK H PARENT 12 13 10 15
REMARK Flexibility Score: inf
ROOT
ATOM      1  C   UNL     1       2.491 -14.151  15.431  1.00  0.00     0.338 C 
ATOM      2  O   UNL     1       1.467 -14.099  14.694  1.00  0.00    -0.246 OA
ENDROOT
BRANCH   1   3
ATOM      3  O   UNL     1       2.895 -13.019  16.148  1.00  0.00    -0.462 OA
BRANCH   3   4
ATOM      4  C   UNL     1       3.424 -11.857  15.517  1.00  0.00     0.230 C 
ATOM      5  C   UNL     1       4.501 -12.264  14.525  1.00  0.00     0.049 C 
ENDBRANCH   3   4
ENDBRANCH   1   3
BRANCH   1   6
ATOM      6  C   UNL     1       3.266 -15.406  15.538  1.00  0.00     0.064 A 
ATOM      7  C   UNL     1       3.606 -16.142  14.387  1.00  0.00     0.065 A 
ATOM      8  C   UNL     1       3.674 -15.883  16.795  1.00  0.00     0.020 A 
ATOM      9  C   UNL     1       4.340 -17.329  14.490  1.00  0.00     0.158 A 
ATOM     10  C   UNL     1       4.407 -17.068  16.901  1.00  0.00     0.051 A 
ATOM     11  C   UNL     1       4.743 -17.795  15.752  1.00  0.00     0.157 A 
BRANCH   9  12
ATOM     12  O   UNL     1       4.658 -18.032  13.328  1.00  0.00    -0.504 OA
ATOM     13  H   UNL     1       4.086 -18.795  12.987  1.00  0.00     0.293 HD
ENDBRANCH   9  12
BRANCH  11  14
ATOM     14  O   UNL     1       5.473 -18.978  15.860  1.00  0.00    -0.504 OA
ATOM     15  H   UNL     1       5.323 -19.755  15.226  1.00  0.00     0.293 HD
ENDBRANCH  11  14
ENDBRANCH   1   6
TORSDOF 5
ENDMDL
MODEL 5
REMARK VINA RESULT:    -3.956      2.643      5.116
REMARK INTER + INTRA:          -5.181
REMARK INTER:                  -4.925
REMARK INTRA:                  -0.256
REMARK UNBOUND:                -0.300
REMARK SMILES CCOC(=O)c1ccc(O)c(O)c1
REMARK SMILES IDX 4 1 5 2 3 3 2 4 1 5 6 6 13 7 7 8 11 9 8 10 9 11 12 12 10 14
REMARK H PARENT 12 13 10 15
REMARK Flexibility Score: inf
ROOT
ATOM      1  C   UNL     1       5.654 -11.813  14.084  1.00  0.00     0.338 C 
ATOM      2  O   UNL     1       6.886 -11.637  14.294  1.00  0.00    -0.246 OA
ENDROOT
BRANCH   1   3
ATOM      3  O   UNL     1       4.866 -10.757  13.615  1.00  0.00    -0.462 OA
BRANCH   3   4
ATOM      4  C   UNL     1       4.745  -9.520  14.310  1.00  0.00     0.230 C 
ATOM      5  C   UNL     1       3.340  -9.388  14.872  1.00  0.00     0.049 C 
ENDBRANCH   3   4
ENDBRANCH   1   3
BRANCH   1   6
ATOM      6  C   UNL     1       5.040 -13.137  14.332  1.00  0.00     0.064 A 
ATOM      7  C   UNL     1       3.655 -13.329  14.172  1.00  0.00     0.065 A 
ATOM      8  C   UNL     1       5.836 -14.223  14.733  1.00  0.00     0.020 A 
ATOM      9  C   UNL     1       3.077 -14.581  14.407  1.00  0.00     0.158 A 
ATOM     10  C   UNL     1       5.261 -15.474  14.968  1.00  0.00     0.051 A 
ATOM     11  C   UNL     1       3.882 -15.660  14.807  1.00  0.00     0.157 A 
BRANCH   9  12
ATOM     12  O   UNL     1       1.700 -14.733  14.239  1.00  0.00    -0.504 OA
ATOM     13  H   UNL     1       1.288 -15.611  13.945  1.00  0.00     0.293 HD
ENDBRANCH   9  12
BRANCH  11  14
ATOM     14  O   UNL     1       3.311 -16.909  15.043  1.00  0.00    -0.504 OA
ATOM     15  H   UNL     1       2.831 -17.118  15.912  1.00  0.00     0.293 HD
ENDBRANCH  11  14
ENDBRANCH   1   6
TORSDOF 5
ENDMDL
MODEL 6
REMARK VINA RESULT:    -3.949      1.721      2.499
REMARK INTER + INTRA:          -5.173
REMARK INTER:                  -4.899
REMARK INTRA:                  -0.274
REMARK UNBOUND:                -0.300
REMARK SMILES CCOC(=O)c1ccc(O)c(O)c1
REMARK SMILES IDX 4 1 5 2 3 3 2 4 1 5 6 6 13 7 7 8 11 9 8 10 9 11 12 12 10 14
REMARK H PARENT 12 13 10 15
REMARK Flexibility Score: inf
ROOT
ATOM      1  C   UNL     1       4.543 -18.029  15.218  1.00  0.00     0.338 C 
ATOM      2  O   UNL     1       4.330 -18.494  16.372  1.00  0.00    -0.246 OA
ENDROOT
BRANCH   1   3
ATOM      3  O   UNL     1       4.855 -18.891  14.161  1.00  0.00    -0.462 OA
BRANCH   3   4
ATOM      4  C   UNL     1       6.143 -19.475  14.000  1.00  0.00     0.230 C 
ATOM      5  C   UNL     1       6.913 -18.719  12.930  1.00  0.00     0.049 C 
ENDBRANCH   3   4
ENDBRANCH   1   3
BRANCH   1   6
ATOM      6  C   UNL     1       4.465 -16.570  14.979  1.00  0.00     0.064 A 
ATOM      7  C   UNL     1       5.634 -15.790  14.903  1.00  0.00     0.065 A 
ATOM      8  C   UNL     1       3.218 -15.943  14.826  1.00  0.00     0.020 A 
ATOM      9  C   UNL     1       5.559 -14.411  14.676  1.00  0.00     0.158 A 
ATOM     10  C   UNL     1       3.139 -14.566  14.600  1.00  0.00     0.051 A 
ATOM     11  C   UNL     1       4.306 -13.795  14.524  1.00  0.00     0.157 A 
BRANCH   9  12
ATOM     12  O   UNL     1       6.739 -13.671  14.607  1.00  0.00    -0.504 OA
ATOM     13  H   UNL     1       7.576 -13.944  15.108  1.00  0.00     0.293 HD
ENDBRANCH   9  12
BRANCH  11  14
ATOM     14  O   UNL     1       4.225 -12.422  14.300  1.00  0.00    -0.504 OA
ATOM     15  H   UNL     1       5.053 -11.836  14.286  1.00  0.00     0.293 HD
ENDBRANCH  11  14
ENDBRANCH   1   6
TORSDOF 5
ENDMDL
MODEL 7
REMARK VINA RESULT:    -3.926      1.691      5.092
REMARK INTER + INTRA:          -5.144
REMARK INTER:                  -4.896
REMARK INTRA:                  -0.248
REMARK UNBOUND:                -0.300
REMARK SMILES CCOC(=O)c1ccc(O)c(O)c1
REMARK SMILES IDX 4 1 5 2 3 3 2 4 1 5 6 6 13 7 7 8 11 9 8 10 9 11 12 12 10 14
REMARK H PARENT 12 13 10 15
REMARK Flexibility Score: inf
ROOT
ATOM      1  C   UNL     1       5.027 -14.418  15.474  1.00  0.00     0.338 C 
ATOM      2  O   UNL     1       5.567 -13.968  16.522  1.00  0.00    -0.246 OA
ENDROOT
BRANCH   1   3
ATOM      3  O   UNL     1       3.881 -13.804  14.958  1.00  0.00    -0.462 OA
BRANCH   3   4
ATOM      4  C   UNL     1       2.599 -13.934  15.565  1.00  0.00     0.230 C 
ATOM      5  C   UNL     1       1.698 -14.774  14.675  1.00  0.00     0.049 C 
ENDBRANCH   3   4
ENDBRANCH   1   3
BRANCH   1   6
ATOM      6  C   UNL     1       5.603 -15.596  14.788  1.00  0.00     0.064 A 
ATOM      7  C   UNL     1       4.831 -16.753  14.573  1.00  0.00     0.065 A 
ATOM      8  C   UNL     1       6.935 -15.575  14.343  1.00  0.00     0.020 A 
ATOM      9  C   UNL     1       5.377 -17.865  13.924  1.00  0.00     0.158 A 
ATOM     10  C   UNL     1       7.484 -16.685  13.695  1.00  0.00     0.051 A 
ATOM     11  C   UNL     1       6.710 -17.833  13.483  1.00  0.00     0.157 A 
BRANCH   9  12
ATOM     12  O   UNL     1       4.581 -18.994  13.729  1.00  0.00    -0.504 OA
ATOM     13  H   UNL     1       3.594 -18.926  13.514  1.00  0.00     0.293 HD
ENDBRANCH   9  12
BRANCH  11  14
ATOM     14  O   UNL     1       7.260 -18.939  12.837  1.00  0.00    -0.504 OA
ATOM     15  H   UNL     1       7.308 -18.994  11.825  1.00  0.00     0.293 HD
ENDBRANCH  11  14
ENDBRANCH   1   6
TORSDOF 5
ENDMDL
MODEL 8
REMARK VINA RESULT:    -3.864      2.043      3.051
REMARK INTER + INTRA:          -5.067
REMARK INTER:                  -4.755
REMARK INTRA:                  -0.312
REMARK UNBOUND:                -0.300
REMARK SMILES CCOC(=O)c1ccc(O)c(O)c1
REMARK SMILES IDX 4 1 5 2 3 3 2 4 1 5 6 6 13 7 7 8 11 9 8 10 9 11 12 12 10 14
REMARK H PARENT 12 13 10 15
REMARK Flexibility Score: inf
ROOT
ATOM      1  C   UNL     1       5.733 -16.561  16.535  1.00  0.00     0.338 C 
ATOM      2  O   UNL     1       6.833 -16.265  15.990  1.00  0.00    -0.246 OA
ENDROOT
BRANCH   1   3
ATOM      3  O   UNL     1       5.694 -17.511  17.561  1.00  0.00    -0.462 OA
BRANCH   3   4
ATOM      4  C   UNL     1       5.223 -18.840  17.362  1.00  0.00     0.230 C 
ATOM      5  C   UNL     1       3.872 -19.007  18.038  1.00  0.00     0.049 C 
ENDBRANCH   3   4
ENDBRANCH   1   3
BRANCH   1   6
ATOM      6  C   UNL     1       4.484 -15.905  16.090  1.00  0.00     0.064 A 
ATOM      7  C   UNL     1       3.773 -15.050  16.953  1.00  0.00     0.065 A 
ATOM      8  C   UNL     1       3.988 -16.129  14.795  1.00  0.00     0.020 A 
ATOM      9  C   UNL     1       2.592 -14.430  16.531  1.00  0.00     0.158 A 
ATOM     10  C   UNL     1       2.809 -15.512  14.370  1.00  0.00     0.051 A 
ATOM     11  C   UNL     1       2.106 -14.662  15.233  1.00  0.00     0.157 A 
BRANCH   9  12
ATOM     12  O   UNL     1       1.915 -13.590  17.414  1.00  0.00    -0.504 OA
ATOM     13  H   UNL     1       1.157 -12.990  17.112  1.00  0.00     0.293 HD
ENDBRANCH   9  12
BRANCH  11  14
ATOM     14  O   UNL     1       0.930 -14.047  14.808  1.00  0.00    -0.504 OA
ATOM     15  H   UNL     1       0.825 -13.039  14.812  1.00  0.00     0.293 HD
ENDBRANCH  11  14
ENDBRANCH   1   6
TORSDOF 5
ENDMDL
MODEL 9
REMARK VINA RESULT:    -3.662     12.994     13.865
REMARK INTER + INTRA:          -4.818
REMARK INTER:                  -4.530
REMARK INTRA:                  -0.288
REMARK UNBOUND:                -0.300
REMARK SMILES CCOC(=O)c1ccc(O)c(O)c1
REMARK SMILES IDX 4 1 5 2 3 3 2 4 1 5 6 6 13 7 7 8 11 9 8 10 9 11 12 12 10 14
REMARK H PARENT 12 13 10 15
REMARK Flexibility Score: inf
ROOT
ATOM      1  C   UNL     1       4.213 -22.836   3.480  1.00  0.00     0.338 C 
ATOM      2  O   UNL     1       4.183 -21.625   3.125  1.00  0.00    -0.246 OA
ENDROOT
BRANCH   1   3
ATOM      3  O   UNL     1       5.409 -23.558   3.403  1.00  0.00    -0.462 OA
BRANCH   3   4
ATOM      4  C   UNL     1       6.619 -23.109   4.004  1.00  0.00     0.230 C 
ATOM      5  C   UNL     1       6.626 -23.490   5.475  1.00  0.00     0.049 C 
ENDBRANCH   3   4
ENDBRANCH   1   3
BRANCH   1   6
ATOM      6  C   UNL     1       2.985 -23.495   3.977  1.00  0.00     0.064 A 
ATOM      7  C   UNL     1       1.808 -23.500   3.206  1.00  0.00     0.065 A 
ATOM      8  C   UNL     1       2.978 -24.127   5.232  1.00  0.00     0.020 A 
ATOM      9  C   UNL     1       0.648 -24.124   3.677  1.00  0.00     0.158 A 
ATOM     10  C   UNL     1       1.822 -24.751   5.706  1.00  0.00     0.051 A 
ATOM     11  C   UNL     1       0.653 -24.753   4.934  1.00  0.00     0.157 A 
BRANCH   9  12
ATOM     12  O   UNL     1      -0.500 -24.108   2.885  1.00  0.00    -0.504 OA
ATOM     13  H   UNL     1      -1.429 -24.073   3.285  1.00  0.00     0.293 HD
ENDBRANCH   9  12
BRANCH  11  14
ATOM     14  O   UNL     1      -0.500 -25.375   5.409  1.00  0.00    -0.504 OA
ATOM     15  H   UNL     1      -1.239 -24.849   5.861  1.00  0.00     0.293 HD
ENDBRANCH  11  14
ENDBRANCH   1   6
TORSDOF 5
ENDMDL
