MODEL 1
REMARK VINA RESULT:    -4.287      0.000      0.000
REMARK INTER + INTRA:          -5.071
REMARK INTER:                  -5.039
REMARK INTRA:                  -0.032
REMARK UNBOUND:                -0.032
REMARK SMILES O=C([O-])CCC(=O)[O-]
REMARK SMILES IDX 4 1 2 2 1 3 3 4 5 5 6 6 7 7 8 8
REMARK H PARENT
REMARK Flexibility Score: inf
ROOT
ATOM      1  C   UNL     1      -8.981  -8.366  -1.342  1.00  0.00     0.059 C 
ENDROOT
BRANCH   1   2
ATOM      2  C   UNL     1     -10.227  -8.051  -2.108  1.00  0.00     0.042 C 
ATOM      3  O   UNL     1     -11.125  -8.923  -2.244  1.00  0.00    -0.550 OA
ATOM      4  O   UNL     1     -10.419  -6.778  -2.631  1.00  0.00    -0.550 OA
ENDBRANCH   1   2
BRANCH   1   5
ATOM      5  C   UNL     1      -7.773  -8.412  -2.280  1.00  0.00     0.059 C 
BRANCH   5   6
ATOM      6  C   UNL     1      -6.529  -8.731  -1.514  1.00  0.00     0.042 C 
ATOM      7  O   UNL     1      -6.399  -8.340  -0.324  1.00  0.00    -0.550 OA
ATOM      8  O   UNL     1      -5.532  -9.501  -2.098  1.00  0.00    -0.550 OA
ENDBRANCH   5   6
ENDBRANCH   1   5
TORSDOF 3
ENDMDL
MODEL 2
REMARK VINA RESULT:    -4.225      0.062      4.318
REMARK INTER + INTRA:          -4.997
REMARK INTER:                  -4.966
REMARK INTRA:                  -0.032
REMARK UNBOUND:                -0.032
REMARK SMILES O=C([O-])CCC(=O)[O-]
REMARK SMILES IDX 4 1 2 2 1 3 3 4 5 5 6 6 7 7 8 8
REMARK H PARENT
REMARK Flexibility Score: inf
ROOT
ATOM      1  C   UNL     1      -7.750  -8.376  -2.229  1.00  0.00     0.059 C 
ENDROOT
BRANCH   1   2
ATOM      2  C   UNL     1      -6.510  -8.744  -1.477  1.00  0.00     0.042 C 
ATOM      3  O   UNL     1      -6.370  -8.395  -0.275  1.00  0.00    -0.550 OA
ATOM      4  O   UNL     1      -5.529  -9.516  -2.089  1.00  0.00    -0.550 OA
ENDBRANCH   1   2
BRANCH   1   5
ATOM      5  C   UNL     1      -8.961  -8.369  -1.294  1.00  0.00     0.059 C 
BRANCH   5   6
ATOM      6  C   UNL     1     -10.209  -8.065  -2.058  1.00  0.00     0.042 C 
ATOM      7  O   UNL     1     -11.125  -8.926  -2.144  1.00  0.00    -0.550 OA
ATOM      8  O   UNL     1     -10.384  -6.814  -2.637  1.00  0.00    -0.550 OA
ENDBRANCH   5   6
ENDBRANCH   1   5
TORSDOF 3
ENDMDL
MODEL 3
REMARK VINA RESULT:    -3.564     21.094     21.896
REMARK INTER + INTRA:          -4.221
REMARK INTER:                  -4.188
REMARK INTRA:                  -0.032
REMARK UNBOUND:                -0.032
REMARK SMILES O=C([O-])CCC(=O)[O-]
REMARK SMILES IDX 4 1 2 2 1 3 3 4 5 5 6 6 7 7 8 8
REMARK H PARENT
REMARK Flexibility Score: inf
ROOT
ATOM      1  C   UNL     1       4.627   6.679 -10.448  1.00  0.00     0.059 C 
ENDROOT
BRANCH   1   2
ATOM      2  C   UNL     1       4.347   7.114 -11.851  1.00  0.00     0.042 C 
ATOM      3  O   UNL     1       5.003   8.058 -12.366  1.00  0.00    -0.550 OA
ATOM      4  O   UNL     1       3.393   6.445 -12.609  1.00  0.00    -0.550 OA
ENDBRANCH   1   2
BRANCH   1   5
ATOM      5  C   UNL     1       4.444   7.848  -9.478  1.00  0.00     0.059 C 
BRANCH   5   6
ATOM      6  C   UNL     1       4.166   7.344  -8.098  1.00  0.00     0.042 C 
ATOM      7  O   UNL     1       4.635   6.238  -7.721  1.00  0.00    -0.550 OA
ATOM      8  O   UNL     1       3.428   8.117  -7.211  1.00  0.00    -0.550 OA
ENDBRANCH   5   6
ENDBRANCH   1   5
TORSDOF 3
ENDMDL
MODEL 4
REMARK VINA RESULT:    -3.318     21.427     22.267
REMARK INTER + INTRA:          -3.932
REMARK INTER:                  -3.900
REMARK INTRA:                  -0.032
REMARK UNBOUND:                -0.032
REMARK SMILES O=C([O-])CCC(=O)[O-]
REMARK SMILES IDX 4 1 2 2 1 3 3 4 5 5 6 6 7 7 8 8
REMARK H PARENT
REMARK Flexibility Score: inf
ROOT
ATOM      1  C   UNL     1       4.661   8.113  -9.513  1.00  0.00     0.059 C 
ENDROOT
BRANCH   1   2
ATOM      2  C   UNL     1       4.243   7.489  -8.220  1.00  0.00     0.042 C 
ATOM      3  O   UNL     1       3.504   8.122  -7.420  1.00  0.00    -0.550 OA
ATOM      4  O   UNL     1       4.629   6.189  -7.917  1.00  0.00    -0.550 OA
ENDBRANCH   1   2
BRANCH   1   5
ATOM      5  C   UNL     1       4.602   7.086 -10.646  1.00  0.00     0.059 C 
BRANCH   5   6
ATOM      6  C   UNL     1       4.269   7.756 -11.941  1.00  0.00     0.042 C 
ATOM      7  O   UNL     1       5.175   7.998 -12.781  1.00  0.00    -0.550 OA
ATOM      8  O   UNL     1       2.949   8.070 -12.242  1.00  0.00    -0.550 OA
ENDBRANCH   5   6
ENDBRANCH   1   5
TORSDOF 3
ENDMDL
MODEL 5
REMARK VINA RESULT:    -3.253     15.875     17.510
REMARK INTER + INTRA:          -3.855
REMARK INTER:                  -3.816
REMARK INTRA:                  -0.039
REMARK UNBOUND:                -0.032
REMARK SMILES O=C([O-])CCC(=O)[O-]
REMARK SMILES IDX 4 1 2 2 1 3 3 4 5 5 6 6 7 7 8 8
REMARK H PARENT
REMARK Flexibility Score: inf
ROOT
ATOM      1  C   UNL     1       1.888   3.485   5.064  1.00  0.00     0.059 C 
ENDROOT
BRANCH   1   2
ATOM      2  C   UNL     1       3.139   4.060   5.649  1.00  0.00     0.042 C 
ATOM      3  O   UNL     1       3.142   5.229   6.116  1.00  0.00    -0.550 OA
ATOM      4  O   UNL     1       4.292   3.287   5.721  1.00  0.00    -0.550 OA
ENDBRANCH   1   2
BRANCH   1   5
ATOM      5  C   UNL     1       1.191   2.578   6.079  1.00  0.00     0.059 C 
BRANCH   5   6
ATOM      6  C   UNL     1      -0.291   2.611   5.879  1.00  0.00     0.042 C 
ATOM      7  O   UNL     1      -0.940   3.662   6.125  1.00  0.00    -0.550 OA
ATOM      8  O   UNL     1      -0.949   1.497   5.375  1.00  0.00    -0.550 OA
ENDBRANCH   5   6
ENDBRANCH   1   5
TORSDOF 3
ENDMDL
MODEL 6
REMARK VINA RESULT:    -3.224     18.108     18.890
REMARK INTER + INTRA:          -3.821
REMARK INTER:                  -3.807
REMARK INTRA:                  -0.013
REMARK UNBOUND:                -0.032
REMARK SMILES O=C([O-])CCC(=O)[O-]
REMARK SMILES IDX 4 1 2 2 1 3 3 4 5 5 6 6 7 7 8 8
REMARK H PARENT
REMARK Flexibility Score: inf
ROOT
ATOM      1  C   UNL     1       4.978  -4.547 -13.433  1.00  0.00     0.059 C 
ENDROOT
BRANCH   1   2
ATOM      2  C   UNL     1       6.407  -4.947 -13.252  1.00  0.00     0.042 C 
ATOM      3  O   UNL     1       6.941  -5.770 -14.041  1.00  0.00    -0.550 OA
ATOM      4  O   UNL     1       7.166  -4.374 -12.238  1.00  0.00    -0.550 OA
ENDBRANCH   1   2
BRANCH   1   5
ATOM      5  C   UNL     1       4.887  -3.166 -14.086  1.00  0.00     0.059 C 
BRANCH   5   6
ATOM      6  C   UNL     1       4.481  -2.138 -13.080  1.00  0.00     0.042 C 
ATOM      7  O   UNL     1       3.584  -1.298 -13.357  1.00  0.00    -0.550 OA
ATOM      8  O   UNL     1       5.060  -2.135 -11.817  1.00  0.00    -0.550 OA
ENDBRANCH   5   6
ENDBRANCH   1   5
TORSDOF 3
ENDMDL
MODEL 7
REMARK VINA RESULT:    -3.187     18.065     18.929
REMARK INTER + INTRA:          -3.778
REMARK INTER:                  -3.705
REMARK INTRA:                  -0.073
REMARK UNBOUND:                -0.032
REMARK SMILES O=C([O-])CCC(=O)[O-]
REMARK SMILES IDX 4 1 2 2 1 3 3 4 5 5 6 6 7 7 8 8
REMARK H PARENT
REMARK Flexibility Score: inf
ROOT
ATOM      1  C   UNL     1       5.005  -4.608 -13.455  1.00  0.00     0.059 C 
ENDROOT
BRANCH   1   2
ATOM      2  C   UNL     1       6.445  -5.006 -13.399  1.00  0.00     0.042 C 
ATOM      3  O   UNL     1       7.249  -4.378 -12.660  1.00  0.00    -0.550 OA
ATOM      4  O   UNL     1       6.892  -6.104 -14.125  1.00  0.00    -0.550 OA
ENDBRANCH   1   2
BRANCH   1   5
ATOM      5  C   UNL     1       4.859  -3.212 -14.066  1.00  0.00     0.059 C 
BRANCH   5   6
ATOM      6  C   UNL     1       4.443  -2.226 -13.021  1.00  0.00     0.042 C 
ATOM      7  O   UNL     1       4.975  -2.248 -11.880  1.00  0.00    -0.550 OA
ATOM      8  O   UNL     1       3.501  -1.251 -13.322  1.00  0.00    -0.550 OA
ENDBRANCH   5   6
ENDBRANCH   1   5
TORSDOF 3
ENDMDL
MODEL 8
REMARK VINA RESULT:    -3.140     18.070     18.830
REMARK INTER + INTRA:          -3.723
REMARK INTER:                  -3.653
REMARK INTRA:                  -0.070
REMARK UNBOUND:                -0.032
REMARK SMILES O=C([O-])CCC(=O)[O-]
REMARK SMILES IDX 4 1 2 2 1 3 3 4 5 5 6 6 7 7 8 8
REMARK H PARENT
REMARK Flexibility Score: inf
ROOT
ATOM      1  C   UNL     1       6.237  -3.021 -13.307  1.00  0.00     0.059 C 
ENDROOT
BRANCH   1   2
ATOM      2  C   UNL     1       6.530  -4.208 -12.445  1.00  0.00     0.042 C 
ATOM      3  O   UNL     1       6.826  -5.314 -12.968  1.00  0.00    -0.550 OA
ATOM      4  O   UNL     1       6.525  -4.080 -11.061  1.00  0.00    -0.550 OA
ENDBRANCH   1   2
BRANCH   1   5
ATOM      5  C   UNL     1       5.192  -2.122 -12.644  1.00  0.00     0.059 C 
BRANCH   5   6
ATOM      6  C   UNL     1       3.986  -1.990 -13.519  1.00  0.00     0.042 C 
ATOM      7  O   UNL     1       3.488  -0.855 -13.744  1.00  0.00    -0.550 OA
ATOM      8  O   UNL     1       3.440  -3.114 -14.125  1.00  0.00    -0.550 OA
ENDBRANCH   5   6
ENDBRANCH   1   5
TORSDOF 3
ENDMDL
