MODEL 1
REMARK VINA RESULT:    -2.633      0.000      0.000
REMARK INTER + INTRA:          -9.572
REMARK INTER:                  -5.711
REMARK INTRA:                  -3.861
REMARK UNBOUND:                -3.861
REMARK SMILES CCCCCCCCCCCCCCCCCCCCCC(=O)[O-]
REMARK SMILES IDX 12 1 11 2 10 3 9 4 8 5 7 6 6 7 5 8 4 9 3 10 2 11 1 12 13 13
REMARK SMILES IDX 14 14 15 15 16 16 17 17 18 18 19 19 20 20 21 21 22 22 23 23
REMARK SMILES IDX 24 24
REMARK H PARENT
REMARK Flexibility Score: inf
ROOT
ATOM      1  C   UNL     1     147.406 149.263 143.004  1.00  0.00     0.000 C 
ENDROOT
BRANCH   1   2
ATOM      2  C   UNL     1     146.833 147.831 143.035  1.00  0.00     0.000 C 
BRANCH   2   3
ATOM      3  C   UNL     1     147.860 146.716 142.762  1.00  0.00     0.000 C 
BRANCH   3   4
ATOM      4  C   UNL     1     147.385 145.710 141.701  1.00  0.00    -0.000 C 
BRANCH   4   5
ATOM      5  C   UNL     1     145.886 145.880 141.384  1.00  0.00    -0.000 C 
BRANCH   5   6
ATOM      6  C   UNL     1     145.573 145.694 139.884  1.00  0.00    -0.000 C 
BRANCH   6   7
ATOM      7  C   UNL     1     146.460 146.567 138.976  1.00  0.00    -0.000 C 
BRANCH   7   8
ATOM      8  C   UNL     1     145.629 147.500 138.079  1.00  0.00    -0.000 C 
BRANCH   8   9
ATOM      9  C   UNL     1     144.147 147.553 138.485  1.00  0.00    -0.000 C 
BRANCH   9  10
ATOM     10  C   UNL     1     143.283 148.528 137.660  1.00  0.00    -0.000 C 
BRANCH  10  11
ATOM     11  C   UNL     1     144.017 149.787 137.163  1.00  0.00    -0.003 C 
ATOM     12  C   UNL     1     143.330 151.086 137.584  1.00  0.00     0.004 C 
ENDBRANCH  10  11
ENDBRANCH   9  10
ENDBRANCH   8   9
ENDBRANCH   7   8
ENDBRANCH   6   7
ENDBRANCH   5   6
ENDBRANCH   4   5
ENDBRANCH   3   4
ENDBRANCH   2   3
ENDBRANCH   1   2
BRANCH   1  13
ATOM     13  C   UNL     1     146.808 150.190 141.926  1.00  0.00     0.000 C 
BRANCH  13  14
ATOM     14  C   UNL     1     145.699 149.556 141.066  1.00  0.00     0.000 C 
BRANCH  14  15
ATOM     15  C   UNL     1     144.493 150.490 140.864  1.00  0.00     0.000 C 
BRANCH  15  16
ATOM     16  C   UNL     1     143.190 149.914 141.441  1.00  0.00     0.000 C 
BRANCH  16  17
ATOM     17  C   UNL     1     143.317 148.514 142.073  1.00  0.00     0.000 C 
BRANCH  17  18
ATOM     18  C   UNL     1     143.209 148.510 143.613  1.00  0.00     0.000 C 
BRANCH  18  19
ATOM     19  C   UNL     1     143.138 149.927 144.200  1.00  0.00     0.000 C 
BRANCH  19  20
ATOM     20  C   UNL     1     144.460 150.306 144.887  1.00  0.00     0.006 C 
BRANCH  20  21
ATOM     21  C   UNL     1     144.391 150.140 146.412  1.00  0.00     0.053 C 
BRANCH  21  22
ATOM     22  C   UNL     1     144.788 151.394 147.133  1.00  0.00     0.041 C 
ATOM     23  O   UNL     1     144.276 152.499 146.812  1.00  0.00    -0.550 OA
ATOM     24  O   UNL     1     145.734 151.342 148.149  1.00  0.00    -0.550 OA
ENDBRANCH  21  22
ENDBRANCH  20  21
ENDBRANCH  19  20
ENDBRANCH  18  19
ENDBRANCH  17  18
ENDBRANCH  16  17
ENDBRANCH  15  16
ENDBRANCH  14  15
ENDBRANCH  13  14
ENDBRANCH   1  13
TORSDOF 20
ENDMDL
MODEL 2
REMARK VINA RESULT:    -2.425      1.949      2.867
REMARK INTER + INTRA:          -9.121
REMARK INTER:                  -5.280
REMARK INTRA:                  -3.841
REMARK UNBOUND:                -3.861
REMARK SMILES CCCCCCCCCCCCCCCCCCCCCC(=O)[O-]
REMARK SMILES IDX 12 1 11 2 10 3 9 4 8 5 7 6 6 7 5 8 4 9 3 10 2 11 1 12 13 13
REMARK SMILES IDX 14 14 15 15 16 16 17 17 18 18 19 19 20 20 21 21 22 22 23 23
REMARK SMILES IDX 24 24
REMARK H PARENT
REMARK Flexibility Score: inf
ROOT
ATOM      1  C   UNL     1     146.724 149.610 141.933  1.00  0.00     0.000 C 
ENDROOT
BRANCH   1   2
ATOM      2  C   UNL     1     146.865 148.611 143.102  1.00  0.00     0.000 C 
BRANCH   2   3
ATOM      3  C   UNL     1     147.718 147.367 142.790  1.00  0.00     0.000 C 
BRANCH   3   4
ATOM      4  C   UNL     1     147.110 146.070 143.349  1.00  0.00    -0.000 C 
BRANCH   4   5
ATOM      5  C   UNL     1     145.652 146.273 143.806  1.00  0.00    -0.000 C 
BRANCH   5   6
ATOM      6  C   UNL     1     144.663 145.354 143.056  1.00  0.00    -0.000 C 
BRANCH   6   7
ATOM      7  C   UNL     1     145.269 144.742 141.779  1.00  0.00    -0.000 C 
BRANCH   7   8
ATOM      8  C   UNL     1     144.359 144.940 140.555  1.00  0.00    -0.000 C 
BRANCH   8   9
ATOM      9  C   UNL     1     145.071 145.644 139.388  1.00  0.00    -0.000 C 
BRANCH   9  10
ATOM     10  C   UNL     1     146.549 145.998 139.650  1.00  0.00    -0.000 C 
BRANCH  10  11
ATOM     11  C   UNL     1     147.134 147.079 138.722  1.00  0.00    -0.003 C 
ATOM     12  C   UNL     1     147.590 146.526 137.371  1.00  0.00     0.004 C 
ENDBRANCH  10  11
ENDBRANCH   9  10
ENDBRANCH   8   9
ENDBRANCH   7   8
ENDBRANCH   6   7
ENDBRANCH   5   6
ENDBRANCH   4   5
ENDBRANCH   3   4
ENDBRANCH   2   3
ENDBRANCH   1   2
BRANCH   1  13
ATOM     13  C   UNL     1     145.275 149.939 141.519  1.00  0.00     0.000 C 
BRANCH  13  14
ATOM     14  C   UNL     1     144.435 148.728 141.072  1.00  0.00     0.000 C 
BRANCH  14  15
ATOM     15  C   UNL     1     143.167 148.535 141.922  1.00  0.00     0.000 C 
BRANCH  15  16
ATOM     16  C   UNL     1     143.135 149.449 143.159  1.00  0.00     0.000 C 
BRANCH  16  17
ATOM     17  C   UNL     1     142.986 148.719 144.507  1.00  0.00     0.000 C 
BRANCH  17  18
ATOM     18  C   UNL     1     144.044 149.121 145.556  1.00  0.00     0.000 C 
BRANCH  18  19
ATOM     19  C   UNL     1     144.397 150.614 145.495  1.00  0.00     0.000 C 
BRANCH  19  20
ATOM     20  C   UNL     1     144.211 151.282 146.866  1.00  0.00     0.006 C 
BRANCH  20  21
ATOM     21  C   UNL     1     145.524 151.353 147.660  1.00  0.00     0.053 C 
BRANCH  21  22
ATOM     22  C   UNL     1     145.429 150.630 148.971  1.00  0.00     0.041 C 
ATOM     23  O   UNL     1     145.313 149.376 148.997  1.00  0.00    -0.550 OA
ATOM     24  O   UNL     1     145.452 151.346 150.162  1.00  0.00    -0.550 OA
ENDBRANCH  21  22
ENDBRANCH  20  21
ENDBRANCH  19  20
ENDBRANCH  18  19
ENDBRANCH  17  18
ENDBRANCH  16  17
ENDBRANCH  15  16
ENDBRANCH  14  15
ENDBRANCH  13  14
ENDBRANCH   1  13
TORSDOF 20
ENDMDL
MODEL 3
REMARK VINA RESULT:    -2.329      1.384      2.073
REMARK INTER + INTRA:          -8.913
REMARK INTER:                  -5.008
REMARK INTRA:                  -3.905
REMARK UNBOUND:                -3.861
REMARK SMILES CCCCCCCCCCCCCCCCCCCCCC(=O)[O-]
REMARK SMILES IDX 12 1 11 2 10 3 9 4 8 5 7 6 6 7 5 8 4 9 3 10 2 11 1 12 13 13
REMARK SMILES IDX 14 14 15 15 16 16 17 17 18 18 19 19 20 20 21 21 22 22 23 23
REMARK SMILES IDX 24 24
REMARK H PARENT
REMARK Flexibility Score: inf
ROOT
ATOM      1  C   UNL     1     146.657 148.714 141.626  1.00  0.00     0.000 C 
ENDROOT
BRANCH   1   2
ATOM      2  C   UNL     1     147.150 148.230 143.006  1.00  0.00     0.000 C 
BRANCH   2   3
ATOM      3  C   UNL     1     147.558 146.745 143.062  1.00  0.00     0.000 C 
BRANCH   3   4
ATOM      4  C   UNL     1     146.428 145.833 143.569  1.00  0.00    -0.000 C 
BRANCH   4   5
ATOM      5  C   UNL     1     146.153 144.670 142.596  1.00  0.00    -0.000 C 
BRANCH   5   6
ATOM      6  C   UNL     1     144.825 144.842 141.828  1.00  0.00    -0.000 C 
BRANCH   6   7
ATOM      7  C   UNL     1     144.995 145.622 140.510  1.00  0.00    -0.000 C 
BRANCH   7   8
ATOM      8  C   UNL     1     145.993 144.939 139.559  1.00  0.00    -0.000 C 
BRANCH   8   9
ATOM      9  C   UNL     1     146.906 145.941 138.832  1.00  0.00    -0.000 C 
BRANCH   9  10
ATOM     10  C   UNL     1     146.299 147.344 138.632  1.00  0.00    -0.000 C 
BRANCH  10  11
ATOM     11  C   UNL     1     145.435 147.505 137.367  1.00  0.00    -0.003 C 
ATOM     12  C   UNL     1     144.004 147.950 137.672  1.00  0.00     0.004 C 
ENDBRANCH  10  11
ENDBRANCH   9  10
ENDBRANCH   8   9
ENDBRANCH   7   8
ENDBRANCH   6   7
ENDBRANCH   5   6
ENDBRANCH   4   5
ENDBRANCH   3   4
ENDBRANCH   2   3
ENDBRANCH   1   2
BRANCH   1  13
ATOM     13  C   UNL     1     145.885 150.049 141.633  1.00  0.00     0.000 C 
BRANCH  13  14
ATOM     14  C   UNL     1     144.652 150.092 140.712  1.00  0.00     0.000 C 
BRANCH  14  15
ATOM     15  C   UNL     1     143.329 149.902 141.476  1.00  0.00     0.000 C 
BRANCH  15  16
ATOM     16  C   UNL     1     142.954 148.421 141.657  1.00  0.00     0.000 C 
BRANCH  16  17
ATOM     17  C   UNL     1     143.245 147.838 143.054  1.00  0.00     0.000 C 
BRANCH  17  18
ATOM     18  C   UNL     1     142.934 148.808 144.213  1.00  0.00     0.000 C 
BRANCH  18  19
ATOM     19  C   UNL     1     144.147 149.044 145.125  1.00  0.00     0.000 C 
BRANCH  19  20
ATOM     20  C   UNL     1     144.628 150.501 145.037  1.00  0.00     0.006 C 
BRANCH  20  21
ATOM     21  C   UNL     1     143.462 151.490 144.890  1.00  0.00     0.053 C 
BRANCH  21  22
ATOM     22  C   UNL     1     143.542 152.605 145.889  1.00  0.00     0.041 C 
ATOM     23  O   UNL     1     144.132 153.679 145.595  1.00  0.00    -0.550 OA
ATOM     24  O   UNL     1     142.978 152.451 147.150  1.00  0.00    -0.550 OA
ENDBRANCH  21  22
ENDBRANCH  20  21
ENDBRANCH  19  20
ENDBRANCH  18  19
ENDBRANCH  17  18
ENDBRANCH  16  17
ENDBRANCH  15  16
ENDBRANCH  14  15
ENDBRANCH  13  14
ENDBRANCH   1  13
TORSDOF 20
ENDMDL
MODEL 4
REMARK VINA RESULT:    -2.283      4.630     10.314
REMARK INTER + INTRA:          -8.814
REMARK INTER:                  -6.451
REMARK INTRA:                  -2.363
REMARK UNBOUND:                -3.861
REMARK SMILES CCCCCCCCCCCCCCCCCCCCCC(=O)[O-]
REMARK SMILES IDX 12 1 11 2 10 3 9 4 8 5 7 6 6 7 5 8 4 9 3 10 2 11 1 12 13 13
REMARK SMILES IDX 14 14 15 15 16 16 17 17 18 18 19 19 20 20 21 21 22 22 23 23
REMARK SMILES IDX 24 24
REMARK H PARENT
REMARK Flexibility Score: inf
ROOT
ATOM      1  C   UNL     1     145.517 151.360 147.775  1.00  0.00     0.000 C 
ENDROOT
BRANCH   1   2
ATOM      2  C   UNL     1     146.082 151.070 149.181  1.00  0.00     0.000 C 
BRANCH   2   3
ATOM      3  C   UNL     1     145.919 149.614 149.657  1.00  0.00     0.000 C 
BRANCH   3   4
ATOM      4  C   UNL     1     145.172 149.503 150.997  1.00  0.00    -0.000 C 
BRANCH   4   5
ATOM      5  C   UNL     1     143.684 149.880 150.854  1.00  0.00    -0.000 C 
BRANCH   5   6
ATOM      6  C   UNL     1     143.228 150.905 151.915  1.00  0.00    -0.000 C 
BRANCH   6   7
ATOM      7  C   UNL     1     143.495 152.361 151.490  1.00  0.00    -0.000 C 
BRANCH   7   8
ATOM      8  C   UNL     1     144.767 152.930 152.142  1.00  0.00    -0.000 C 
BRANCH   8   9
ATOM      9  C   UNL     1     145.081 152.283 153.501  1.00  0.00    -0.000 C 
BRANCH   9  10
ATOM     10  C   UNL     1     145.970 153.130 154.433  1.00  0.00    -0.000 C 
BRANCH  10  11
ATOM     11  C   UNL     1     146.473 154.454 153.827  1.00  0.00    -0.003 C 
ATOM     12  C   UNL     1     146.266 155.653 154.753  1.00  0.00     0.004 C 
ENDBRANCH  10  11
ENDBRANCH   9  10
ENDBRANCH   8   9
ENDBRANCH   7   8
ENDBRANCH   6   7
ENDBRANCH   5   6
ENDBRANCH   4   5
ENDBRANCH   3   4
ENDBRANCH   2   3
ENDBRANCH   1   2
BRANCH   1  13
ATOM     13  C   UNL     1     144.019 151.723 147.728  1.00  0.00     0.000 C 
BRANCH  13  14
ATOM     14  C   UNL     1     143.154 150.802 146.848  1.00  0.00     0.000 C 
BRANCH  14  15
ATOM     15  C   UNL     1     143.691 149.361 146.783  1.00  0.00     0.000 C 
BRANCH  15  16
ATOM     16  C   UNL     1     144.006 148.908 145.348  1.00  0.00     0.000 C 
BRANCH  16  17
ATOM     17  C   UNL     1     144.474 150.026 144.397  1.00  0.00     0.000 C 
BRANCH  17  18
ATOM     18  C   UNL     1     145.012 149.512 143.044  1.00  0.00     0.000 C 
BRANCH  18  19
ATOM     19  C   UNL     1     146.504 149.821 142.850  1.00  0.00     0.000 C 
BRANCH  19  20
ATOM     20  C   UNL     1     147.343 148.534 142.888  1.00  0.00     0.006 C 
BRANCH  20  21
ATOM     21  C   UNL     1     146.472 147.276 143.026  1.00  0.00     0.053 C 
BRANCH  21  22
ATOM     22  C   UNL     1     147.263 146.019 142.817  1.00  0.00     0.041 C 
ATOM     23  O   UNL     1     146.685 144.900 142.811  1.00  0.00    -0.550 OA
ATOM     24  O   UNL     1     148.640 146.084 142.646  1.00  0.00    -0.550 OA
ENDBRANCH  21  22
ENDBRANCH  20  21
ENDBRANCH  19  20
ENDBRANCH  18  19
ENDBRANCH  17  18
ENDBRANCH  16  17
ENDBRANCH  15  16
ENDBRANCH  14  15
ENDBRANCH  13  14
ENDBRANCH   1  13
TORSDOF 20
ENDMDL
MODEL 5
REMARK VINA RESULT:    -2.255      4.686      8.625
REMARK INTER + INTRA:          -8.753
REMARK INTER:                  -6.325
REMARK INTRA:                  -2.428
REMARK UNBOUND:                -3.861
REMARK SMILES CCCCCCCCCCCCCCCCCCCCCC(=O)[O-]
REMARK SMILES IDX 12 1 11 2 10 3 9 4 8 5 7 6 6 7 5 8 4 9 3 10 2 11 1 12 13 13
REMARK SMILES IDX 14 14 15 15 16 16 17 17 18 18 19 19 20 20 21 21 22 22 23 23
REMARK SMILES IDX 24 24
REMARK H PARENT
REMARK Flexibility Score: inf
ROOT
ATOM      1  C   UNL     1     145.805 149.760 149.626  1.00  0.00     0.000 C 
ENDROOT
BRANCH   1   2
ATOM      2  C   UNL     1     145.955 151.166 149.008  1.00  0.00     0.000 C 
BRANCH   2   3
ATOM      3  C   UNL     1     145.474 151.286 147.550  1.00  0.00     0.000 C 
BRANCH   3   4
ATOM      4  C   UNL     1     143.994 151.688 147.438  1.00  0.00    -0.000 C 
BRANCH   4   5
ATOM      5  C   UNL     1     143.124 150.528 146.915  1.00  0.00    -0.000 C 
BRANCH   5   6
ATOM      6  C   UNL     1     143.968 149.352 146.376  1.00  0.00    -0.000 C 
BRANCH   6   7
ATOM      7  C   UNL     1     143.707 149.065 144.886  1.00  0.00    -0.000 C 
BRANCH   7   8
ATOM      8  C   UNL     1     144.316 150.144 143.974  1.00  0.00    -0.000 C 
BRANCH   8   9
ATOM      9  C   UNL     1     145.736 149.793 143.500  1.00  0.00    -0.000 C 
BRANCH   9  10
ATOM     10  C   UNL     1     146.019 148.284 143.360  1.00  0.00    -0.000 C 
BRANCH  10  11
ATOM     11  C   UNL     1     147.429 147.930 142.854  1.00  0.00    -0.003 C 
ATOM     12  C   UNL     1     147.564 146.468 142.428  1.00  0.00     0.004 C 
ENDBRANCH  10  11
ENDBRANCH   9  10
ENDBRANCH   8   9
ENDBRANCH   7   8
ENDBRANCH   6   7
ENDBRANCH   5   6
ENDBRANCH   4   5
ENDBRANCH   3   4
ENDBRANCH   2   3
ENDBRANCH   1   2
BRANCH   1  13
ATOM     13  C   UNL     1     144.980 149.696 150.927  1.00  0.00     0.000 C 
BRANCH  13  14
ATOM     14  C   UNL     1     143.660 150.488 150.900  1.00  0.00     0.000 C 
BRANCH  14  15
ATOM     15  C   UNL     1     142.876 150.388 152.221  1.00  0.00     0.000 C 
BRANCH  15  16
ATOM     16  C   UNL     1     143.584 149.510 153.267  1.00  0.00     0.000 C 
BRANCH  16  17
ATOM     17  C   UNL     1     143.862 150.198 154.617  1.00  0.00     0.000 C 
BRANCH  17  18
ATOM     18  C   UNL     1     145.296 150.753 154.753  1.00  0.00     0.000 C 
BRANCH  18  19
ATOM     19  C   UNL     1     145.318 152.228 155.178  1.00  0.00     0.000 C 
BRANCH  19  20
ATOM     20  C   UNL     1     144.581 153.107 154.155  1.00  0.00     0.006 C 
BRANCH  20  21
ATOM     21  C   UNL     1     145.379 153.279 152.854  1.00  0.00     0.053 C 
BRANCH  21  22
ATOM     22  C   UNL     1     146.308 154.455 152.916  1.00  0.00     0.041 C 
ATOM     23  O   UNL     1     147.497 154.304 153.304  1.00  0.00    -0.550 OA
ATOM     24  O   UNL     1     145.855 155.719 152.558  1.00  0.00    -0.550 OA
ENDBRANCH  21  22
ENDBRANCH  20  21
ENDBRANCH  19  20
ENDBRANCH  18  19
ENDBRANCH  17  18
ENDBRANCH  16  17
ENDBRANCH  15  16
ENDBRANCH  14  15
ENDBRANCH  13  14
ENDBRANCH   1  13
TORSDOF 20
ENDMDL
MODEL 6
REMARK VINA RESULT:    -2.244      1.914      3.256
REMARK INTER + INTRA:          -8.729
REMARK INTER:                  -5.657
REMARK INTRA:                  -3.072
REMARK UNBOUND:                -3.861
REMARK SMILES CCCCCCCCCCCCCCCCCCCCCC(=O)[O-]
REMARK SMILES IDX 12 1 11 2 10 3 9 4 8 5 7 6 6 7 5 8 4 9 3 10 2 11 1 12 13 13
REMARK SMILES IDX 14 14 15 15 16 16 17 17 18 18 19 19 20 20 21 21 22 22 23 23
REMARK SMILES IDX 24 24
REMARK H PARENT
REMARK Flexibility Score: inf
ROOT
ATOM      1  C   UNL     1     146.040 148.884 143.278  1.00  0.00     0.000 C 
ENDROOT
BRANCH   1   2
ATOM      2  C   UNL     1     147.361 148.146 142.974  1.00  0.00     0.000 C 
BRANCH   2   3
ATOM      3  C   UNL     1     147.350 146.640 143.301  1.00  0.00     0.000 C 
BRANCH   3   4
ATOM      4  C   UNL     1     148.350 145.836 142.453  1.00  0.00    -0.000 C 
BRANCH   4   5
ATOM      5  C   UNL     1     147.661 144.679 141.703  1.00  0.00    -0.000 C 
BRANCH   5   6
ATOM      6  C   UNL     1     146.512 145.164 140.793  1.00  0.00    -0.000 C 
BRANCH   6   7
ATOM      7  C   UNL     1     146.972 146.204 139.754  1.00  0.00    -0.000 C 
BRANCH   7   8
ATOM      8  C   UNL     1     145.982 147.375 139.630  1.00  0.00    -0.000 C 
BRANCH   8   9
ATOM      9  C   UNL     1     144.621 147.076 140.280  1.00  0.00    -0.000 C 
BRANCH   9  10
ATOM     10  C   UNL     1     143.600 148.229 140.205  1.00  0.00    -0.000 C 
BRANCH  10  11
ATOM     11  C   UNL     1     144.187 149.594 139.799  1.00  0.00    -0.003 C 
ATOM     12  C   UNL     1     144.015 150.664 140.877  1.00  0.00     0.004 C 
ENDBRANCH  10  11
ENDBRANCH   9  10
ENDBRANCH   8   9
ENDBRANCH   7   8
ENDBRANCH   6   7
ENDBRANCH   5   6
ENDBRANCH   4   5
ENDBRANCH   3   4
ENDBRANCH   2   3
ENDBRANCH   1   2
BRANCH   1  13
ATOM     13  C   UNL     1     144.874 147.987 143.740  1.00  0.00     0.000 C 
BRANCH  13  14
ATOM     14  C   UNL     1     144.017 148.569 144.879  1.00  0.00     0.000 C 
BRANCH  14  15
ATOM     15  C   UNL     1     143.144 149.752 144.424  1.00  0.00     0.000 C 
BRANCH  15  16
ATOM     16  C   UNL     1     143.632 151.100 144.982  1.00  0.00     0.000 C 
BRANCH  16  17
ATOM     17  C   UNL     1     144.524 151.006 146.234  1.00  0.00     0.000 C 
BRANCH  17  18
ATOM     18  C   UNL     1     143.776 151.274 147.557  1.00  0.00     0.000 C 
BRANCH  18  19
ATOM     19  C   UNL     1     143.439 149.982 148.315  1.00  0.00     0.000 C 
BRANCH  19  20
ATOM     20  C   UNL     1     144.712 149.183 148.635  1.00  0.00     0.006 C 
BRANCH  20  21
ATOM     21  C   UNL     1     145.700 149.983 149.496  1.00  0.00     0.053 C 
BRANCH  21  22
ATOM     22  C   UNL     1     145.153 150.265 150.864  1.00  0.00     0.041 C 
ATOM     23  O   UNL     1     144.794 149.317 151.612  1.00  0.00    -0.550 OA
ATOM     24  O   UNL     1     145.028 151.577 151.306  1.00  0.00    -0.550 OA
ENDBRANCH  21  22
ENDBRANCH  20  21
ENDBRANCH  19  20
ENDBRANCH  18  19
ENDBRANCH  17  18
ENDBRANCH  16  17
ENDBRANCH  15  16
ENDBRANCH  14  15
ENDBRANCH  13  14
ENDBRANCH   1  13
TORSDOF 20
ENDMDL
MODEL 7
REMARK VINA RESULT:    -2.215      5.155     11.013
REMARK INTER + INTRA:          -8.665
REMARK INTER:                  -6.545
REMARK INTRA:                  -2.120
REMARK UNBOUND:                -3.861
REMARK SMILES CCCCCCCCCCCCCCCCCCCCCC(=O)[O-]
REMARK SMILES IDX 12 1 11 2 10 3 9 4 8 5 7 6 6 7 5 8 4 9 3 10 2 11 1 12 13 13
REMARK SMILES IDX 14 14 15 15 16 16 17 17 18 18 19 19 20 20 21 21 22 22 23 23
REMARK SMILES IDX 24 24
REMARK H PARENT
REMARK Flexibility Score: inf
ROOT
ATOM      1  C   UNL     1     145.777 149.826 149.677  1.00  0.00     0.000 C 
ENDROOT
BRANCH   1   2
ATOM      2  C   UNL     1     144.937 149.918 150.968  1.00  0.00     0.000 C 
BRANCH   2   3
ATOM      3  C   UNL     1     144.871 151.322 151.599  1.00  0.00     0.000 C 
BRANCH   3   4
ATOM      4  C   UNL     1     143.562 151.572 152.367  1.00  0.00    -0.000 C 
BRANCH   4   5
ATOM      5  C   UNL     1     143.814 151.764 153.876  1.00  0.00    -0.000 C 
BRANCH   5   6
ATOM      6  C   UNL     1     145.133 151.113 154.345  1.00  0.00    -0.000 C 
BRANCH   6   7
ATOM      7  C   UNL     1     145.985 152.054 155.217  1.00  0.00    -0.000 C 
BRANCH   7   8
ATOM      8  C   UNL     1     145.781 153.532 154.843  1.00  0.00    -0.000 C 
BRANCH   8   9
ATOM      9  C   UNL     1     146.826 154.043 153.837  1.00  0.00    -0.000 C 
BRANCH   9  10
ATOM     10  C   UNL     1     146.269 154.971 152.740  1.00  0.00    -0.000 C 
BRANCH  10  11
ATOM     11  C   UNL     1     145.008 155.763 153.134  1.00  0.00    -0.003 C 
ATOM     12  C   UNL     1     143.770 155.354 152.335  1.00  0.00     0.004 C 
ENDBRANCH  10  11
ENDBRANCH   9  10
ENDBRANCH   8   9
ENDBRANCH   7   8
ENDBRANCH   6   7
ENDBRANCH   5   6
ENDBRANCH   4   5
ENDBRANCH   3   4
ENDBRANCH   2   3
ENDBRANCH   1   2
BRANCH   1  13
ATOM     13  C   UNL     1     145.940 151.149 148.901  1.00  0.00     0.000 C 
BRANCH  13  14
ATOM     14  C   UNL     1     145.363 151.142 147.474  1.00  0.00     0.000 C 
BRANCH  14  15
ATOM     15  C   UNL     1     144.009 150.415 147.382  1.00  0.00     0.000 C 
BRANCH  15  16
ATOM     16  C   UNL     1     144.034 149.233 146.399  1.00  0.00     0.000 C 
BRANCH  16  17
ATOM     17  C   UNL     1     143.178 149.417 145.131  1.00  0.00     0.000 C 
BRANCH  17  18
ATOM     18  C   UNL     1     143.928 150.087 143.961  1.00  0.00     0.000 C 
BRANCH  18  19
ATOM     19  C   UNL     1     145.421 149.726 143.936  1.00  0.00     0.000 C 
BRANCH  19  20
ATOM     20  C   UNL     1     145.642 148.335 143.322  1.00  0.00     0.006 C 
BRANCH  20  21
ATOM     21  C   UNL     1     147.112 148.090 142.952  1.00  0.00     0.053 C 
BRANCH  21  22
ATOM     22  C   UNL     1     147.495 146.647 143.096  1.00  0.00     0.041 C 
ATOM     23  O   UNL     1     148.632 146.253 142.724  1.00  0.00    -0.550 OA
ATOM     24  O   UNL     1     146.590 145.737 143.628  1.00  0.00    -0.550 OA
ENDBRANCH  21  22
ENDBRANCH  20  21
ENDBRANCH  19  20
ENDBRANCH  18  19
ENDBRANCH  17  18
ENDBRANCH  16  17
ENDBRANCH  15  16
ENDBRANCH  14  15
ENDBRANCH  13  14
ENDBRANCH   1  13
TORSDOF 20
ENDMDL
MODEL 8
REMARK VINA RESULT:    -2.210      4.672     10.392
REMARK INTER + INTRA:          -8.656
REMARK INTER:                  -5.924
REMARK INTRA:                  -2.732
REMARK UNBOUND:                -3.861
REMARK SMILES CCCCCCCCCCCCCCCCCCCCCC(=O)[O-]
REMARK SMILES IDX 12 1 11 2 10 3 9 4 8 5 7 6 6 7 5 8 4 9 3 10 2 11 1 12 13 13
REMARK SMILES IDX 14 14 15 15 16 16 17 17 18 18 19 19 20 20 21 21 22 22 23 23
REMARK SMILES IDX 24 24
REMARK H PARENT
REMARK Flexibility Score: inf
ROOT
ATOM      1  C   UNL     1     145.428 151.237 147.862  1.00  0.00     0.000 C 
ENDROOT
BRANCH   1   2
ATOM      2  C   UNL     1     145.896 151.059 149.322  1.00  0.00     0.000 C 
BRANCH   2   3
ATOM      3  C   UNL     1     145.826 149.615 149.852  1.00  0.00     0.000 C 
BRANCH   3   4
ATOM      4  C   UNL     1     144.997 149.491 151.142  1.00  0.00    -0.000 C 
BRANCH   4   5
ATOM      5  C   UNL     1     143.494 149.712 150.878  1.00  0.00    -0.000 C 
BRANCH   5   6
ATOM      6  C   UNL     1     142.878 150.774 151.814  1.00  0.00    -0.000 C 
BRANCH   6   7
ATOM      7  C   UNL     1     143.018 152.206 151.264  1.00  0.00    -0.000 C 
BRANCH   7   8
ATOM      8  C   UNL     1     144.069 153.022 152.035  1.00  0.00    -0.000 C 
BRANCH   8   9
ATOM      9  C   UNL     1     144.132 152.656 153.527  1.00  0.00    -0.000 C 
BRANCH   9  10
ATOM     10  C   UNL     1     145.545 152.343 154.059  1.00  0.00    -0.000 C 
BRANCH  10  11
ATOM     11  C   UNL     1     145.612 151.214 155.104  1.00  0.00    -0.003 C 
ATOM     12  C   UNL     1     144.427 150.251 155.023  1.00  0.00     0.004 C 
ENDBRANCH  10  11
ENDBRANCH   9  10
ENDBRANCH   8   9
ENDBRANCH   7   8
ENDBRANCH   6   7
ENDBRANCH   5   6
ENDBRANCH   4   5
ENDBRANCH   3   4
ENDBRANCH   2   3
ENDBRANCH   1   2
BRANCH   1  13
ATOM     13  C   UNL     1     143.930 151.559 147.686  1.00  0.00     0.000 C 
BRANCH  13  14
ATOM     14  C   UNL     1     143.064 150.381 147.203  1.00  0.00     0.000 C 
BRANCH  14  15
ATOM     15  C   UNL     1     143.900 149.211 146.656  1.00  0.00     0.000 C 
BRANCH  15  16
ATOM     16  C   UNL     1     143.784 149.059 145.130  1.00  0.00     0.000 C 
BRANCH  16  17
ATOM     17  C   UNL     1     144.478 150.161 144.308  1.00  0.00     0.000 C 
BRANCH  17  18
ATOM     18  C   UNL     1     145.740 149.683 143.559  1.00  0.00     0.000 C 
BRANCH  18  19
ATOM     19  C   UNL     1     145.831 148.152 143.480  1.00  0.00     0.000 C 
BRANCH  19  20
ATOM     20  C   UNL     1     146.751 147.713 142.330  1.00  0.00     0.006 C 
BRANCH  20  21
ATOM     21  C   UNL     1     147.881 146.791 142.809  1.00  0.00     0.053 C 
BRANCH  21  22
ATOM     22  C   UNL     1     147.560 145.343 142.583  1.00  0.00     0.041 C 
ATOM     23  O   UNL     1     148.118 144.708 141.650  1.00  0.00    -0.550 OA
ATOM     24  O   UNL     1     146.633 144.702 143.396  1.00  0.00    -0.550 OA
ENDBRANCH  21  22
ENDBRANCH  20  21
ENDBRANCH  19  20
ENDBRANCH  18  19
ENDBRANCH  17  18
ENDBRANCH  16  17
ENDBRANCH  15  16
ENDBRANCH  14  15
ENDBRANCH  13  14
ENDBRANCH   1  13
TORSDOF 20
ENDMDL
MODEL 9
REMARK VINA RESULT:    -2.209      3.718      7.574
REMARK INTER + INTRA:          -8.652
REMARK INTER:                  -5.501
REMARK INTRA:                  -3.151
REMARK UNBOUND:                -3.861
REMARK SMILES CCCCCCCCCCCCCCCCCCCCCC(=O)[O-]
REMARK SMILES IDX 12 1 11 2 10 3 9 4 8 5 7 6 6 7 5 8 4 9 3 10 2 11 1 12 13 13
REMARK SMILES IDX 14 14 15 15 16 16 17 17 18 18 19 19 20 20 21 21 22 22 23 23
REMARK SMILES IDX 24 24
REMARK H PARENT
REMARK Flexibility Score: inf
ROOT
ATOM      1  C   UNL     1     147.371 149.076 143.016  1.00  0.00     0.000 C 
ENDROOT
BRANCH   1   2
ATOM      2  C   UNL     1     146.707 150.028 141.999  1.00  0.00     0.000 C 
BRANCH   2   3
ATOM      3  C   UNL     1     145.540 149.413 141.203  1.00  0.00     0.000 C 
BRANCH   3   4
ATOM      4  C   UNL     1     144.162 149.875 141.709  1.00  0.00    -0.000 C 
BRANCH   4   5
ATOM      5  C   UNL     1     143.358 148.709 142.318  1.00  0.00    -0.000 C 
BRANCH   5   6
ATOM      6  C   UNL     1     143.587 148.562 143.838  1.00  0.00    -0.000 C 
BRANCH   6   7
ATOM      7  C   UNL     1     143.440 149.896 144.595  1.00  0.00    -0.000 C 
BRANCH   7   8
ATOM      8  C   UNL     1     144.639 150.172 145.518  1.00  0.00    -0.000 C 
BRANCH   8   9
ATOM      9  C   UNL     1     144.400 151.357 146.468  1.00  0.00    -0.000 C 
BRANCH   9  10
ATOM     10  C   UNL     1     145.378 151.442 147.657  1.00  0.00    -0.000 C 
BRANCH  10  11
ATOM     11  C   UNL     1     144.888 150.771 148.953  1.00  0.00    -0.003 C 
ATOM     12  C   UNL     1     145.700 149.532 149.330  1.00  0.00     0.004 C 
ENDBRANCH  10  11
ENDBRANCH   9  10
ENDBRANCH   8   9
ENDBRANCH   7   8
ENDBRANCH   6   7
ENDBRANCH   5   6
ENDBRANCH   4   5
ENDBRANCH   3   4
ENDBRANCH   2   3
ENDBRANCH   1   2
BRANCH   1  13
ATOM     13  C   UNL     1     146.906 147.607 142.944  1.00  0.00     0.000 C 
BRANCH  13  14
ATOM     14  C   UNL     1     148.019 146.588 142.636  1.00  0.00     0.000 C 
BRANCH  14  15
ATOM     15  C   UNL     1     147.540 145.129 142.748  1.00  0.00     0.000 C 
BRANCH  15  16
ATOM     16  C   UNL     1     146.189 145.001 143.470  1.00  0.00     0.000 C 
BRANCH  16  17
ATOM     17  C   UNL     1     145.080 144.297 142.664  1.00  0.00     0.000 C 
BRANCH  17  18
ATOM     18  C   UNL     1     144.365 145.216 141.650  1.00  0.00     0.000 C 
BRANCH  18  19
ATOM     19  C   UNL     1     144.870 145.014 140.214  1.00  0.00     0.000 C 
BRANCH  19  20
ATOM     20  C   UNL     1     145.197 146.361 139.550  1.00  0.00     0.006 C 
BRANCH  20  21
ATOM     21  C   UNL     1     146.682 146.480 139.179  1.00  0.00     0.053 C 
BRANCH  21  22
ATOM     22  C   UNL     1     146.878 146.732 137.714  1.00  0.00     0.041 C 
ATOM     23  O   UNL     1     145.948 147.233 137.027  1.00  0.00    -0.550 OA
ATOM     24  O   UNL     1     148.082 146.398 137.105  1.00  0.00    -0.550 OA
ENDBRANCH  21  22
ENDBRANCH  20  21
ENDBRANCH  19  20
ENDBRANCH  18  19
ENDBRANCH  17  18
ENDBRANCH  16  17
ENDBRANCH  15  16
ENDBRANCH  14  15
ENDBRANCH  13  14
ENDBRANCH   1  13
TORSDOF 20
ENDMDL
