MODEL 1
REMARK VINA RESULT:    -3.831      0.000      0.000
REMARK INTER + INTRA:          -6.321
REMARK INTER:                  -5.847
REMARK INTRA:                  -0.474
REMARK UNBOUND:                -0.474
REMARK SMILES O=C([O-])CCCCCCCCC(=O)[O-]
REMARK SMILES IDX 7 1 6 2 5 3 4 4 2 5 1 6 3 7 8 8 9 9 10 10 11 11 12 12 13 13
REMARK SMILES IDX 14 14
REMARK H PARENT
REMARK Flexibility Score: inf
ROOT
ATOM      1  C   UNL     1      16.358 128.845  56.989  1.00  0.00     0.000 C 
ENDROOT
BRANCH   1   2
ATOM      2  C   UNL     1      15.744 128.006  55.854  1.00  0.00     0.000 C 
BRANCH   2   3
ATOM      3  C   UNL     1      16.789 127.567  54.815  1.00  0.00     0.006 C 
BRANCH   3   4
ATOM      4  C   UNL     1      16.253 127.614  53.379  1.00  0.00     0.053 C 
BRANCH   4   5
ATOM      5  C   UNL     1      17.127 128.475  52.522  1.00  0.00     0.041 C 
ATOM      6  O   UNL     1      17.023 128.436  51.269  1.00  0.00    -0.550 OA
ATOM      7  O   UNL     1      18.093 129.285  53.108  1.00  0.00    -0.550 OA
ENDBRANCH   4   5
ENDBRANCH   3   4
ENDBRANCH   2   3
ENDBRANCH   1   2
BRANCH   1   8
ATOM      8  C   UNL     1      17.805 129.270  56.692  1.00  0.00     0.000 C 
BRANCH   8   9
ATOM      9  C   UNL     1      18.449 130.039  57.856  1.00  0.00     0.000 C 
BRANCH   9  10
ATOM     10  C   UNL     1      17.759 129.700  59.186  1.00  0.00     0.006 C 
BRANCH  10  11
ATOM     11  C   UNL     1      18.509 130.278  60.393  1.00  0.00     0.053 C 
BRANCH  11  12
ATOM     12  C   UNL     1      19.472 129.291  60.977  1.00  0.00     0.041 C 
ATOM     13  O   UNL     1      20.626 129.168  60.488  1.00  0.00    -0.550 OA
ATOM     14  O   UNL     1      19.084 128.484  62.038  1.00  0.00    -0.550 OA
ENDBRANCH  11  12
ENDBRANCH  10  11
ENDBRANCH   9  10
ENDBRANCH   8   9
ENDBRANCH   1   8
TORSDOF 9
ENDMDL
MODEL 2
REMARK VINA RESULT:    -3.774      0.809      7.304
REMARK INTER + INTRA:          -6.234
REMARK INTER:                  -5.761
REMARK INTRA:                  -0.473
REMARK UNBOUND:                -0.474
REMARK SMILES O=C([O-])CCCCCCCCC(=O)[O-]
REMARK SMILES IDX 7 1 6 2 5 3 4 4 2 5 1 6 3 7 8 8 9 9 10 10 11 11 12 12 13 13
REMARK SMILES IDX 14 14
REMARK H PARENT
REMARK Flexibility Score: inf
ROOT
ATOM      1  C   UNL     1      18.036 129.208  56.232  1.00  0.00     0.000 C 
ENDROOT
BRANCH   1   2
ATOM      2  C   UNL     1      18.875 129.852  57.350  1.00  0.00     0.000 C 
BRANCH   2   3
ATOM      3  C   UNL     1      18.155 129.838  58.709  1.00  0.00     0.006 C 
BRANCH   3   4
ATOM      4  C   UNL     1      19.092 130.161  59.879  1.00  0.00     0.053 C 
BRANCH   4   5
ATOM      5  C   UNL     1      18.589 129.530  61.140  1.00  0.00     0.041 C 
ATOM      6  O   UNL     1      17.454 129.833  61.591  1.00  0.00    -0.550 OA
ATOM      7  O   UNL     1      19.395 128.643  61.843  1.00  0.00    -0.550 OA
ENDBRANCH   4   5
ENDBRANCH   3   4
ENDBRANCH   2   3
ENDBRANCH   1   2
BRANCH   1   8
ATOM      8  C   UNL     1      16.696 128.653  56.744  1.00  0.00     0.000 C 
BRANCH   8   9
ATOM      9  C   UNL     1      15.974 127.789  55.700  1.00  0.00     0.000 C 
BRANCH   9  10
ATOM     10  C   UNL     1      16.896 127.477  54.512  1.00  0.00     0.006 C 
BRANCH  10  11
ATOM     11  C   UNL     1      16.217 127.747  53.163  1.00  0.00     0.053 C 
BRANCH  11  12
ATOM     12  C   UNL     1      16.982 128.743  52.345  1.00  0.00     0.041 C 
ATOM     13  O   UNL     1      17.341 129.836  52.854  1.00  0.00    -0.550 OA
ATOM     14  O   UNL     1      17.266 128.476  51.012  1.00  0.00    -0.550 OA
ENDBRANCH  11  12
ENDBRANCH  10  11
ENDBRANCH   9  10
ENDBRANCH   8   9
ENDBRANCH   1   8
TORSDOF 9
ENDMDL
MODEL 3
REMARK VINA RESULT:    -3.774      2.701      5.992
REMARK INTER + INTRA:          -6.233
REMARK INTER:                  -5.331
REMARK INTRA:                  -0.902
REMARK UNBOUND:                -0.474
REMARK SMILES O=C([O-])CCCCCCCCC(=O)[O-]
REMARK SMILES IDX 7 1 6 2 5 3 4 4 2 5 1 6 3 7 8 8 9 9 10 10 11 11 12 12 13 13
REMARK SMILES IDX 14 14
REMARK H PARENT
REMARK Flexibility Score: inf
ROOT
ATOM      1  C   UNL     1      16.004 129.954  56.254  1.00  0.00     0.000 C 
ENDROOT
BRANCH   1   2
ATOM      2  C   UNL     1      16.822 129.512  57.480  1.00  0.00     0.000 C 
BRANCH   2   3
ATOM      3  C   UNL     1      18.326 129.789  57.315  1.00  0.00     0.006 C 
BRANCH   3   4
ATOM      4  C   UNL     1      18.636 130.679  56.106  1.00  0.00     0.053 C 
BRANCH   4   5
ATOM      5  C   UNL     1      19.977 130.338  55.537  1.00  0.00     0.041 C 
ATOM      6  O   UNL     1      20.382 129.147  55.540  1.00  0.00    -0.550 OA
ATOM      7  O   UNL     1      20.802 131.344  55.048  1.00  0.00    -0.550 OA
ENDBRANCH   4   5
ENDBRANCH   3   4
ENDBRANCH   2   3
ENDBRANCH   1   2
BRANCH   1   8
ATOM      8  C   UNL     1      15.215 128.795  55.622  1.00  0.00     0.000 C 
BRANCH   8   9
ATOM      9  C   UNL     1      16.026 127.493  55.550  1.00  0.00     0.000 C 
BRANCH   9  10
ATOM     10  C   UNL     1      17.005 127.522  54.367  1.00  0.00     0.006 C 
BRANCH  10  11
ATOM     11  C   UNL     1      16.303 127.828  53.038  1.00  0.00     0.053 C 
BRANCH  11  12
ATOM     12  C   UNL     1      17.059 128.837  52.228  1.00  0.00     0.041 C 
ATOM     13  O   UNL     1      17.413 128.565  51.051  1.00  0.00    -0.550 OA
ATOM     14  O   UNL     1      17.401 130.061  52.786  1.00  0.00    -0.550 OA
ENDBRANCH  11  12
ENDBRANCH  10  11
ENDBRANCH   9  10
ENDBRANCH   8   9
ENDBRANCH   1   8
TORSDOF 9
ENDMDL
MODEL 4
REMARK VINA RESULT:    -3.749      3.405      4.217
REMARK INTER + INTRA:          -6.196
REMARK INTER:                  -5.397
REMARK INTRA:                  -0.799
REMARK UNBOUND:                -0.474
REMARK SMILES O=C([O-])CCCCCCCCC(=O)[O-]
REMARK SMILES IDX 7 1 6 2 5 3 4 4 2 5 1 6 3 7 8 8 9 9 10 10 11 11 12 12 13 13
REMARK SMILES IDX 14 14
REMARK H PARENT
REMARK Flexibility Score: inf
ROOT
ATOM      1  C   UNL     1      16.532 127.518  53.874  1.00  0.00     0.000 C 
ENDROOT
BRANCH   1   2
ATOM      2  C   UNL     1      15.521 128.563  53.372  1.00  0.00     0.000 C 
BRANCH   2   3
ATOM      3  C   UNL     1      16.069 129.400  52.205  1.00  0.00     0.006 C 
BRANCH   3   4
ATOM      4  C   UNL     1      17.154 128.667  51.407  1.00  0.00     0.053 C 
BRANCH   4   5
ATOM      5  C   UNL     1      17.194 129.168  49.997  1.00  0.00     0.041 C 
ATOM      6  O   UNL     1      17.035 130.392  49.755  1.00  0.00    -0.550 OA
ATOM      7  O   UNL     1      17.357 128.274  48.946  1.00  0.00    -0.550 OA
ENDBRANCH   4   5
ENDBRANCH   3   4
ENDBRANCH   2   3
ENDBRANCH   1   2
BRANCH   1   8
ATOM      8  C   UNL     1      16.676 127.522  55.405  1.00  0.00     0.000 C 
BRANCH   8   9
ATOM      9  C   UNL     1      17.378 128.782  55.932  1.00  0.00     0.000 C 
BRANCH   9  10
ATOM     10  C   UNL     1      18.767 128.942  55.296  1.00  0.00     0.006 C 
BRANCH  10  11
ATOM     11  C   UNL     1      18.889 130.240  54.486  1.00  0.00     0.053 C 
BRANCH  11  12
ATOM     12  C   UNL     1      19.668 131.286  55.223  1.00  0.00     0.041 C 
ATOM     13  O   UNL     1      20.706 131.780  54.711  1.00  0.00    -0.550 OA
ATOM     14  O   UNL     1      19.266 131.689  56.489  1.00  0.00    -0.550 OA
ENDBRANCH  11  12
ENDBRANCH  10  11
ENDBRANCH   9  10
ENDBRANCH   8   9
ENDBRANCH   1   8
TORSDOF 9
ENDMDL
MODEL 5
REMARK VINA RESULT:    -3.692      3.348      7.242
REMARK INTER + INTRA:          -6.109
REMARK INTER:                  -5.481
REMARK INTRA:                  -0.628
REMARK UNBOUND:                -0.474
REMARK SMILES O=C([O-])CCCCCCCCC(=O)[O-]
REMARK SMILES IDX 7 1 6 2 5 3 4 4 2 5 1 6 3 7 8 8 9 9 10 10 11 11 12 12 13 13
REMARK SMILES IDX 14 14
REMARK H PARENT
REMARK Flexibility Score: inf
ROOT
ATOM      1  C   UNL     1      16.540 127.502  55.222  1.00  0.00     0.000 C 
ENDROOT
BRANCH   1   2
ATOM      2  C   UNL     1      17.449 128.610  55.780  1.00  0.00     0.000 C 
BRANCH   2   3
ATOM      3  C   UNL     1      18.814 128.664  55.074  1.00  0.00     0.006 C 
BRANCH   3   4
ATOM      4  C   UNL     1      19.844 129.504  55.838  1.00  0.00     0.053 C 
BRANCH   4   5
ATOM      5  C   UNL     1      19.593 130.964  55.621  1.00  0.00     0.041 C 
ATOM      6  O   UNL     1      19.093 131.663  56.540  1.00  0.00    -0.550 OA
ATOM      7  O   UNL     1      19.864 131.540  54.387  1.00  0.00    -0.550 OA
ENDBRANCH   4   5
ENDBRANCH   3   4
ENDBRANCH   2   3
ENDBRANCH   1   2
BRANCH   1   8
ATOM      8  C   UNL     1      16.366 127.593  53.696  1.00  0.00     0.000 C 
BRANCH   8   9
ATOM      9  C   UNL     1      15.571 128.832  53.261  1.00  0.00     0.000 C 
BRANCH   9  10
ATOM     10  C   UNL     1      16.276 129.560  52.107  1.00  0.00     0.006 C 
BRANCH  10  11
ATOM     11  C   UNL     1      17.131 128.611  51.257  1.00  0.00     0.053 C 
BRANCH  11  12
ATOM     12  C   UNL     1      17.264 129.094  49.845  1.00  0.00     0.041 C 
ATOM     13  O   UNL     1      17.065 130.306  49.570  1.00  0.00    -0.550 OA
ATOM     14  O   UNL     1      17.574 128.198  48.830  1.00  0.00    -0.550 OA
ENDBRANCH  11  12
ENDBRANCH  10  11
ENDBRANCH   9  10
ENDBRANCH   8   9
ENDBRANCH   1   8
TORSDOF 9
ENDMDL
MODEL 6
REMARK VINA RESULT:    -3.682      3.047      3.807
REMARK INTER + INTRA:          -6.093
REMARK INTER:                  -5.556
REMARK INTRA:                  -0.537
REMARK UNBOUND:                -0.474
REMARK SMILES O=C([O-])CCCCCCCCC(=O)[O-]
REMARK SMILES IDX 7 1 6 2 5 3 4 4 2 5 1 6 3 7 8 8 9 9 10 10 11 11 12 12 13 13
REMARK SMILES IDX 14 14
REMARK H PARENT
REMARK Flexibility Score: inf
ROOT
ATOM      1  C   UNL     1      15.752 128.384  54.350  1.00  0.00     0.000 C 
ENDROOT
BRANCH   1   2
ATOM      2  C   UNL     1      16.217 127.851  52.983  1.00  0.00     0.000 C 
BRANCH   2   3
ATOM      3  C   UNL     1      17.268 128.758  52.323  1.00  0.00     0.006 C 
BRANCH   3   4
ATOM      4  C   UNL     1      17.255 128.666  50.793  1.00  0.00     0.053 C 
BRANCH   4   5
ATOM      5  C   UNL     1      16.654 129.902  50.201  1.00  0.00     0.041 C 
ATOM      6  O   UNL     1      15.652 130.440  50.739  1.00  0.00    -0.550 OA
ATOM      7  O   UNL     1      17.171 130.432  49.025  1.00  0.00    -0.550 OA
ENDBRANCH   4   5
ENDBRANCH   3   4
ENDBRANCH   2   3
ENDBRANCH   1   2
BRANCH   1   8
ATOM      8  C   UNL     1      16.262 127.529  55.522  1.00  0.00     0.000 C 
BRANCH   8   9
ATOM      9  C   UNL     1      16.887 128.371  56.644  1.00  0.00     0.000 C 
BRANCH   9  10
ATOM     10  C   UNL     1      17.427 129.701  56.097  1.00  0.00     0.006 C 
BRANCH  10  11
ATOM     11  C   UNL     1      18.752 130.106  56.758  1.00  0.00     0.053 C 
BRANCH  11  12
ATOM     12  C   UNL     1      19.915 129.925  55.831  1.00  0.00     0.041 C 
ATOM     13  O   UNL     1      20.442 130.925  55.276  1.00  0.00    -0.550 OA
ATOM     14  O   UNL     1      20.393 128.651  55.556  1.00  0.00    -0.550 OA
ENDBRANCH  11  12
ENDBRANCH  10  11
ENDBRANCH   9  10
ENDBRANCH   8   9
ENDBRANCH   1   8
TORSDOF 9
ENDMDL
MODEL 7
REMARK VINA RESULT:    -3.668      2.617      3.238
REMARK INTER + INTRA:          -6.072
REMARK INTER:                  -5.261
REMARK INTRA:                  -0.811
REMARK UNBOUND:                -0.474
REMARK SMILES O=C([O-])CCCCCCCCC(=O)[O-]
REMARK SMILES IDX 7 1 6 2 5 3 4 4 2 5 1 6 3 7 8 8 9 9 10 10 11 11 12 12 13 13
REMARK SMILES IDX 14 14
REMARK H PARENT
REMARK Flexibility Score: inf
ROOT
ATOM      1  C   UNL     1      15.381 129.169  55.856  1.00  0.00     0.000 C 
ENDROOT
BRANCH   1   2
ATOM      2  C   UNL     1      16.078 127.800  55.952  1.00  0.00     0.000 C 
BRANCH   2   3
ATOM      3  C   UNL     1      16.654 127.337  54.604  1.00  0.00     0.006 C 
BRANCH   3   4
ATOM      4  C   UNL     1      16.039 128.077  53.411  1.00  0.00     0.053 C 
BRANCH   4   5
ATOM      5  C   UNL     1      17.114 128.628  52.527  1.00  0.00     0.041 C 
ATOM      6  O   UNL     1      18.039 129.327  53.017  1.00  0.00    -0.550 OA
ATOM      7  O   UNL     1      17.067 128.412  51.156  1.00  0.00    -0.550 OA
ENDBRANCH   4   5
ENDBRANCH   3   4
ENDBRANCH   2   3
ENDBRANCH   1   2
BRANCH   1   8
ATOM      8  C   UNL     1      16.120 130.263  56.645  1.00  0.00     0.000 C 
BRANCH   8   9
ATOM      9  C   UNL     1      16.967 129.699  57.794  1.00  0.00     0.000 C 
BRANCH   9  10
ATOM     10  C   UNL     1      18.459 129.988  57.570  1.00  0.00     0.006 C 
BRANCH  10  11
ATOM     11  C   UNL     1      18.714 130.744  56.259  1.00  0.00     0.053 C 
BRANCH  11  12
ATOM     12  C   UNL     1      20.015 130.347  55.631  1.00  0.00     0.041 C 
ATOM     13  O   UNL     1      20.767 131.222  55.127  1.00  0.00    -0.550 OA
ATOM     14  O   UNL     1      20.380 129.009  55.574  1.00  0.00    -0.550 OA
ENDBRANCH  11  12
ENDBRANCH  10  11
ENDBRANCH   9  10
ENDBRANCH   8   9
ENDBRANCH   1   8
TORSDOF 9
ENDMDL
MODEL 8
REMARK VINA RESULT:    -3.633      2.904      7.684
REMARK INTER + INTRA:          -6.019
REMARK INTER:                  -5.388
REMARK INTRA:                  -0.631
REMARK UNBOUND:                -0.474
REMARK SMILES O=C([O-])CCCCCCCCC(=O)[O-]
REMARK SMILES IDX 7 1 6 2 5 3 4 4 2 5 1 6 3 7 8 8 9 9 10 10 11 11 12 12 13 13
REMARK SMILES IDX 14 14
REMARK H PARENT
REMARK Flexibility Score: inf
ROOT
ATOM      1  C   UNL     1      15.778 128.172  53.810  1.00  0.00     0.000 C 
ENDROOT
BRANCH   1   2
ATOM      2  C   UNL     1      16.406 127.394  54.981  1.00  0.00     0.000 C 
BRANCH   2   3
ATOM      3  C   UNL     1      16.588 128.263  56.235  1.00  0.00     0.006 C 
BRANCH   3   4
ATOM      4  C   UNL     1      17.280 129.599  55.936  1.00  0.00     0.053 C 
BRANCH   4   5
ATOM      5  C   UNL     1      18.764 129.417  55.881  1.00  0.00     0.041 C 
ATOM      6  O   UNL     1      19.326 129.114  54.797  1.00  0.00    -0.550 OA
ATOM      7  O   UNL     1      19.523 129.533  57.040  1.00  0.00    -0.550 OA
ENDBRANCH   4   5
ENDBRANCH   3   4
ENDBRANCH   2   3
ENDBRANCH   1   2
BRANCH   1   8
ATOM      8  C   UNL     1      16.627 128.099  52.530  1.00  0.00     0.000 C 
BRANCH   8   9
ATOM      9  C   UNL     1      17.118 129.478  52.064  1.00  0.00     0.000 C 
BRANCH   9  10
ATOM     10  C   UNL     1      16.237 130.019  50.928  1.00  0.00     0.006 C 
BRANCH  10  11
ATOM     11  C   UNL     1      17.015 130.181  49.615  1.00  0.00     0.053 C 
BRANCH  11  12
ATOM     12  C   UNL     1      17.013 128.920  48.807  1.00  0.00     0.041 C 
ATOM     13  O   UNL     1      18.027 128.173  48.797  1.00  0.00    -0.550 OA
ATOM     14  O   UNL     1      15.905 128.588  48.038  1.00  0.00    -0.550 OA
ENDBRANCH  11  12
ENDBRANCH  10  11
ENDBRANCH   9  10
ENDBRANCH   8   9
ENDBRANCH   1   8
TORSDOF 9
ENDMDL
MODEL 9
REMARK VINA RESULT:    -3.626      3.169      4.700
REMARK INTER + INTRA:          -6.007
REMARK INTER:                  -5.518
REMARK INTRA:                  -0.489
REMARK UNBOUND:                -0.474
REMARK SMILES O=C([O-])CCCCCCCCC(=O)[O-]
REMARK SMILES IDX 7 1 6 2 5 3 4 4 2 5 1 6 3 7 8 8 9 9 10 10 11 11 12 12 13 13
REMARK SMILES IDX 14 14
REMARK H PARENT
REMARK Flexibility Score: inf
ROOT
ATOM      1  C   UNL     1      16.484 128.769  52.892  1.00  0.00     0.000 C 
ENDROOT
BRANCH   1   2
ATOM      2  C   UNL     1      17.105 128.633  51.491  1.00  0.00     0.000 C 
BRANCH   2   3
ATOM      3  C   UNL     1      16.664 129.758  50.540  1.00  0.00     0.006 C 
BRANCH   3   4
ATOM      4  C   UNL     1      17.427 129.743  49.210  1.00  0.00     0.053 C 
BRANCH   4   5
ATOM      5  C   UNL     1      16.923 128.640  48.332  1.00  0.00     0.041 C 
ATOM      6  O   UNL     1      17.686 127.697  47.999  1.00  0.00    -0.550 OA
ATOM      7  O   UNL     1      15.624 128.682  47.840  1.00  0.00    -0.550 OA
ENDBRANCH   4   5
ENDBRANCH   3   4
ENDBRANCH   2   3
ENDBRANCH   1   2
BRANCH   1   8
ATOM      8  C   UNL     1      16.549 127.460  53.697  1.00  0.00     0.000 C 
BRANCH   8   9
ATOM      9  C   UNL     1      16.421 127.685  55.210  1.00  0.00     0.000 C 
BRANCH   9  10
ATOM     10  C   UNL     1      16.764 129.136  55.580  1.00  0.00     0.006 C 
BRANCH  10  11
ATOM     11  C   UNL     1      17.958 129.225  56.541  1.00  0.00     0.053 C 
BRANCH  11  12
ATOM     12  C   UNL     1      19.237 129.507  55.816  1.00  0.00     0.041 C 
ATOM     13  O   UNL     1      19.725 130.668  55.822  1.00  0.00    -0.550 OA
ATOM     14  O   UNL     1      19.872 128.497  55.105  1.00  0.00    -0.550 OA
ENDBRANCH  11  12
ENDBRANCH  10  11
ENDBRANCH   9  10
ENDBRANCH   8   9
ENDBRANCH   1   8
TORSDOF 9
ENDMDL
