MODEL 1
REMARK VINA RESULT:    -3.039      0.000      0.000
REMARK INTER + INTRA:          -3.401
REMARK INTER:                  -3.394
REMARK INTRA:                  -0.007
REMARK UNBOUND:                -0.007
REMARK SMILES CCCC(=O)[O-]
REMARK SMILES IDX 3 1 4 2 5 3 6 4 2 5 1 6
REMARK H PARENT
REMARK Flexibility Score: inf
ROOT
ATOM      1  C   UNL     1      -6.293   7.110  -5.071  1.00  0.00     0.052 C 
ENDROOT
BRANCH   1   2
ATOM      2  C   UNL     1      -7.362   7.373  -4.055  1.00  0.00     0.041 C 
ATOM      3  O   UNL     1      -8.162   8.332  -4.208  1.00  0.00    -0.550 OA
ATOM      4  O   UNL     1      -7.453   6.575  -2.920  1.00  0.00    -0.550 OA
ENDBRANCH   1   2
BRANCH   1   5
ATOM      5  C   UNL     1      -4.893   7.377  -4.504  1.00  0.00     0.003 C 
ATOM      6  C   UNL     1      -3.977   8.065  -5.516  1.00  0.00     0.004 C 
ENDBRANCH   1   5
TORSDOF 2
ENDMDL
MODEL 2
REMARK VINA RESULT:    -3.008     11.664     12.429
REMARK INTER + INTRA:          -3.366
REMARK INTER:                  -3.328
REMARK INTRA:                  -0.039
REMARK UNBOUND:                -0.007
REMARK SMILES CCCC(=O)[O-]
REMARK SMILES IDX 3 1 4 2 5 3 6 4 2 5 1 6
REMARK H PARENT
REMARK Flexibility Score: inf
ROOT
ATOM      1  C   UNL     1      -2.314   2.654   6.687  1.00  0.00     0.052 C 
ENDROOT
BRANCH   1   2
ATOM      2  C   UNL     1      -1.201   2.629   5.684  1.00  0.00     0.041 C 
ATOM      3  O   UNL     1      -1.418   2.945   4.486  1.00  0.00    -0.550 OA
ATOM      4  O   UNL     1       0.072   2.223   6.069  1.00  0.00    -0.550 OA
ENDBRANCH   1   2
BRANCH   1   5
ATOM      5  C   UNL     1      -3.681   2.452   6.023  1.00  0.00     0.003 C 
ATOM      6  C   UNL     1      -4.561   3.699   6.112  1.00  0.00     0.004 C 
ENDBRANCH   1   5
TORSDOF 2
ENDMDL
MODEL 3
REMARK VINA RESULT:    -2.999     11.035     11.703
REMARK INTER + INTRA:          -3.356
REMARK INTER:                  -3.304
REMARK INTRA:                  -0.052
REMARK UNBOUND:                -0.007
REMARK SMILES CCCC(=O)[O-]
REMARK SMILES IDX 3 1 4 2 5 3 6 4 2 5 1 6
REMARK H PARENT
REMARK Flexibility Score: inf
ROOT
ATOM      1  C   UNL     1      -2.151   3.058   6.541  1.00  0.00     0.052 C 
ENDROOT
BRANCH   1   2
ATOM      2  C   UNL     1      -3.524   2.750   6.024  1.00  0.00     0.041 C 
ATOM      3  O   UNL     1      -3.762   1.643   5.476  1.00  0.00    -0.550 OA
ATOM      4  O   UNL     1      -4.532   3.702   6.121  1.00  0.00    -0.550 OA
ENDBRANCH   1   2
BRANCH   1   5
ATOM      5  C   UNL     1      -1.089   2.928   5.443  1.00  0.00     0.003 C 
ATOM      6  C   UNL     1      -0.977   4.192   4.589  1.00  0.00     0.004 C 
ENDBRANCH   1   5
TORSDOF 2
ENDMDL
MODEL 4
REMARK VINA RESULT:    -2.965     11.229     11.733
REMARK INTER + INTRA:          -3.319
REMARK INTER:                  -3.282
REMARK INTRA:                  -0.037
REMARK UNBOUND:                -0.007
REMARK SMILES CCCC(=O)[O-]
REMARK SMILES IDX 3 1 4 2 5 3 6 4 2 5 1 6
REMARK H PARENT
REMARK Flexibility Score: inf
ROOT
ATOM      1  C   UNL     1      -1.421   2.735   5.340  1.00  0.00     0.052 C 
ENDROOT
BRANCH   1   2
ATOM      2  C   UNL     1      -2.778   2.749   5.976  1.00  0.00     0.041 C 
ATOM      3  O   UNL     1      -3.047   3.584   6.878  1.00  0.00    -0.550 OA
ATOM      4  O   UNL     1      -3.734   1.816   5.593  1.00  0.00    -0.550 OA
ENDBRANCH   1   2
BRANCH   1   5
ATOM      5  C   UNL     1      -1.126   4.047   4.604  1.00  0.00     0.003 C 
ATOM      6  C   UNL     1      -0.117   4.919   5.351  1.00  0.00     0.004 C 
ENDBRANCH   1   5
TORSDOF 2
ENDMDL
MODEL 5
REMARK VINA RESULT:    -2.935     12.021     12.726
REMARK INTER + INTRA:          -3.285
REMARK INTER:                  -3.247
REMARK INTRA:                  -0.038
REMARK UNBOUND:                -0.007
REMARK SMILES CCCC(=O)[O-]
REMARK SMILES IDX 3 1 4 2 5 3 6 4 2 5 1 6
REMARK H PARENT
REMARK Flexibility Score: inf
ROOT
ATOM      1  C   UNL     1      -0.819   3.141   6.547  1.00  0.00     0.052 C 
ENDROOT
BRANCH   1   2
ATOM      2  C   UNL     1      -1.519   2.809   5.265  1.00  0.00     0.041 C 
ATOM      3  O   UNL     1      -1.100   3.273   4.174  1.00  0.00    -0.550 OA
ATOM      4  O   UNL     1      -2.657   2.011   5.282  1.00  0.00    -0.550 OA
ENDBRANCH   1   2
BRANCH   1   5
ATOM      5  C   UNL     1       0.699   2.947   6.432  1.00  0.00     0.003 C 
ATOM      6  C   UNL     1       1.140   1.547   6.857  1.00  0.00     0.004 C 
ENDBRANCH   1   5
TORSDOF 2
ENDMDL
MODEL 6
REMARK VINA RESULT:    -2.843      2.547      3.566
REMARK INTER + INTRA:          -3.182
REMARK INTER:                  -3.215
REMARK INTRA:                   0.033
REMARK UNBOUND:                -0.007
REMARK SMILES CCCC(=O)[O-]
REMARK SMILES IDX 3 1 4 2 5 3 6 4 2 5 1 6
REMARK H PARENT
REMARK Flexibility Score: inf
ROOT
ATOM      1  C   UNL     1      -6.086   8.088  -5.439  1.00  0.00     0.052 C 
ENDROOT
BRANCH   1   2
ATOM      2  C   UNL     1      -4.630   7.784  -5.262  1.00  0.00     0.041 C 
ATOM      3  O   UNL     1      -4.227   7.181  -4.234  1.00  0.00    -0.550 OA
ATOM      4  O   UNL     1      -3.713   8.197  -6.222  1.00  0.00    -0.550 OA
ENDBRANCH   1   2
BRANCH   1   5
ATOM      5  C   UNL     1      -6.971   6.939  -4.940  1.00  0.00     0.003 C 
ATOM      6  C   UNL     1      -7.479   7.172  -3.517  1.00  0.00     0.004 C 
ENDBRANCH   1   5
TORSDOF 2
ENDMDL
MODEL 7
REMARK VINA RESULT:    -2.832     10.867     11.642
REMARK INTER + INTRA:          -3.170
REMARK INTER:                  -3.142
REMARK INTRA:                  -0.029
REMARK UNBOUND:                -0.007
REMARK SMILES CCCC(=O)[O-]
REMARK SMILES IDX 3 1 4 2 5 3 6 4 2 5 1 6
REMARK H PARENT
REMARK Flexibility Score: inf
ROOT
ATOM      1  C   UNL     1      -3.408   3.930   6.579  1.00  0.00     0.052 C 
ENDROOT
BRANCH   1   2
ATOM      2  C   UNL     1      -3.054   2.756   5.718  1.00  0.00     0.041 C 
ATOM      3  O   UNL     1      -3.813   1.754   5.666  1.00  0.00    -0.550 OA
ATOM      4  O   UNL     1      -1.866   2.758   4.996  1.00  0.00    -0.550 OA
ENDBRANCH   1   2
BRANCH   1   5
ATOM      5  C   UNL     1      -4.870   4.353   6.389  1.00  0.00     0.003 C 
ATOM      6  C   UNL     1      -5.010   5.554   5.454  1.00  0.00     0.004 C 
ENDBRANCH   1   5
TORSDOF 2
ENDMDL
MODEL 8
REMARK VINA RESULT:    -2.776     14.538     15.375
REMARK INTER + INTRA:          -3.107
REMARK INTER:                  -3.094
REMARK INTRA:                  -0.014
REMARK UNBOUND:                -0.007
REMARK SMILES CCCC(=O)[O-]
REMARK SMILES IDX 3 1 4 2 5 3 6 4 2 5 1 6
REMARK H PARENT
REMARK Flexibility Score: inf
ROOT
ATOM      1  C   UNL     1       1.481   0.813   7.134  1.00  0.00     0.052 C 
ENDROOT
BRANCH   1   2
ATOM      2  C   UNL     1       2.607   0.207   6.353  1.00  0.00     0.041 C 
ATOM      3  O   UNL     1       3.710   0.805   6.260  1.00  0.00    -0.550 OA
ATOM      4  O   UNL     1       2.424  -1.006   5.700  1.00  0.00    -0.550 OA
ENDBRANCH   1   2
BRANCH   1   5
ATOM      5  C   UNL     1       1.277   2.292   6.782  1.00  0.00     0.003 C 
ATOM      6  C   UNL     1      -0.108   2.564   6.194  1.00  0.00     0.004 C 
ENDBRANCH   1   5
TORSDOF 2
ENDMDL
MODEL 9
REMARK VINA RESULT:    -2.758     10.130     10.738
REMARK INTER + INTRA:          -3.088
REMARK INTER:                  -3.081
REMARK INTRA:                  -0.007
REMARK UNBOUND:                -0.007
REMARK SMILES CCCC(=O)[O-]
REMARK SMILES IDX 3 1 4 2 5 3 6 4 2 5 1 6
REMARK H PARENT
REMARK Flexibility Score: inf
ROOT
ATOM      1  C   UNL     1      -1.894  -1.694  -5.811  1.00  0.00     0.052 C 
ENDROOT
BRANCH   1   2
ATOM      2  C   UNL     1      -1.720  -2.922  -4.971  1.00  0.00     0.041 C 
ATOM      3  O   UNL     1      -2.590  -3.831  -4.988  1.00  0.00    -0.550 OA
ATOM      4  O   UNL     1      -0.611  -3.046  -4.143  1.00  0.00    -0.550 OA
ENDBRANCH   1   2
BRANCH   1   5
ATOM      5  C   UNL     1      -3.298  -1.096  -5.660  1.00  0.00     0.003 C 
ATOM      6  C   UNL     1      -3.341   0.387  -6.027  1.00  0.00     0.004 C 
ENDBRANCH   1   5
TORSDOF 2
ENDMDL
