MODEL 1
REMARK VINA RESULT:    -5.593      0.000      0.000
REMARK INTER + INTRA:          -8.199
REMARK INTER:                  -7.555
REMARK INTRA:                  -0.644
REMARK UNBOUND:                -0.644
REMARK SMILES COc1ccc(-c2cc(=O)c3c(OC)c(OC)c(OC)c(OC)c3o2)cc1
REMARK SMILES IDX 7 1 8 2 9 3 10 4 11 5 24 6 25 7 21 8 18 9 15 10 12 11 6 12
REMARK SMILES IDX 3 13 4 14 27 15 5 16 26 17 2 18 1 19 22 20 23 21 13 22 14 23
REMARK SMILES IDX 19 24 20 25 16 26 17 27
REMARK H PARENT
REMARK Flexibility Score: inf
ROOT
ATOM      1  C   UNL     1      27.867   2.037  22.311  1.00  0.00     0.138 A 
ATOM      2  C   UNL     1      28.448   0.803  22.633  1.00  0.00     0.100 A 
ATOM      3  C   UNL     1      28.725  -0.109  21.616  1.00  0.00     0.197 A 
ATOM      4  O   UNL     1      29.248  -1.215  21.924  1.00  0.00    -0.289 OA
ATOM      5  C   UNL     1      28.423   0.219  20.273  1.00  0.00     0.115 A 
ATOM      6  C   UNL     1      27.856   1.488  20.032  1.00  0.00     0.188 A 
ATOM      7  O   UNL     1      27.607   2.321  21.039  1.00  0.00    -0.452 OA
ATOM      8  C   UNL     1      27.535   1.887  18.737  1.00  0.00     0.209 A 
ATOM      9  C   UNL     1      27.829   1.054  17.642  1.00  0.00     0.211 A 
ATOM     10  C   UNL     1      28.346  -0.249  17.863  1.00  0.00     0.208 A 
ATOM     11  C   UNL     1      28.651  -0.667  19.189  1.00  0.00     0.179 A 
ENDROOT
BRANCH   1  12
ATOM     12  C   UNL     1      27.546   3.050  23.348  1.00  0.00     0.018 A 
ATOM     13  C   UNL     1      26.975   5.025  25.286  1.00  0.00     0.118 A 
ATOM     14  C   UNL     1      26.103   3.935  25.101  1.00  0.00     0.047 A 
ATOM     15  C   UNL     1      28.121   5.121  24.491  1.00  0.00     0.047 A 
ATOM     16  C   UNL     1      26.385   2.961  24.139  1.00  0.00     0.016 A 
ATOM     17  C   UNL     1      28.404   4.149  23.528  1.00  0.00     0.016 A 
BRANCH  13  18
ATOM     18  O   UNL     1      26.737   6.025  26.239  1.00  0.00    -0.497 OA
ATOM     19  C   UNL     1      27.743   6.616  27.053  1.00  0.00     0.278 C 
ENDBRANCH  13  18
ENDBRANCH   1  12
BRANCH   8  20
ATOM     20  O   UNL     1      26.899   3.118  18.561  1.00  0.00    -0.490 OA
ATOM     21  C   UNL     1      25.514   3.207  18.248  1.00  0.00     0.278 C 
ENDBRANCH   8  20
BRANCH  11  22
ATOM     22  O   UNL     1      29.180  -1.942  19.487  1.00  0.00    -0.492 OA
ATOM     23  C   UNL     1      28.532  -3.204  19.352  1.00  0.00     0.278 C 
ENDBRANCH  11  22
BRANCH   9  24
ATOM     24  O   UNL     1      27.621   1.513  16.336  1.00  0.00    -0.490 OA
ATOM     25  C   UNL     1      28.582   2.273  15.609  1.00  0.00     0.279 C 
ENDBRANCH   9  24
BRANCH  10  26
ATOM     26  O   UNL     1      28.588  -1.148  16.806  1.00  0.00    -0.490 OA
ATOM     27  C   UNL     1      29.769  -1.264  16.020  1.00  0.00     0.278 C 
ENDBRANCH  10  26
TORSDOF 6
ENDMDL
MODEL 2
REMARK VINA RESULT:    -5.319      2.372      8.239
REMARK INTER + INTRA:          -7.829
REMARK INTER:                  -7.250
REMARK INTRA:                  -0.579
REMARK UNBOUND:                -0.644
REMARK SMILES COc1ccc(-c2cc(=O)c3c(OC)c(OC)c(OC)c(OC)c3o2)cc1
REMARK SMILES IDX 7 1 8 2 9 3 10 4 11 5 24 6 25 7 21 8 18 9 15 10 12 11 6 12
REMARK SMILES IDX 3 13 4 14 27 15 5 16 26 17 2 18 1 19 22 20 23 21 13 22 14 23
REMARK SMILES IDX 19 24 20 25 16 26 17 27
REMARK H PARENT
REMARK Flexibility Score: inf
ROOT
ATOM      1  C   UNL     1      27.518   1.805  22.628  1.00  0.00     0.138 A 
ATOM      2  C   UNL     1      26.324   1.956  23.348  1.00  0.00     0.100 A 
ATOM      3  C   UNL     1      26.208   2.991  24.274  1.00  0.00     0.197 A 
ATOM      4  O   UNL     1      25.127   3.112  24.912  1.00  0.00    -0.289 OA
ATOM      5  C   UNL     1      27.290   3.880  24.475  1.00  0.00     0.115 A 
ATOM      6  C   UNL     1      28.450   3.671  23.698  1.00  0.00     0.188 A 
ATOM      7  O   UNL     1      28.511   2.664  22.830  1.00  0.00    -0.452 OA
ATOM      8  C   UNL     1      29.556   4.506  23.835  1.00  0.00     0.209 A 
ATOM      9  C   UNL     1      29.511   5.610  24.706  1.00  0.00     0.211 A 
ATOM     10  C   UNL     1      28.379   5.809  25.539  1.00  0.00     0.208 A 
ATOM     11  C   UNL     1      27.258   4.940  25.418  1.00  0.00     0.179 A 
ENDROOT
BRANCH   1  12
ATOM     12  C   UNL     1      27.702   0.722  21.630  1.00  0.00     0.018 A 
ATOM     13  C   UNL     1      28.077  -1.381  19.782  1.00  0.00     0.118 A 
ATOM     14  C   UNL     1      27.136  -0.367  19.525  1.00  0.00     0.047 A 
ATOM     15  C   UNL     1      28.816  -1.339  20.968  1.00  0.00     0.047 A 
ATOM     16  C   UNL     1      26.949   0.671  20.442  1.00  0.00     0.016 A 
ATOM     17  C   UNL     1      28.629  -0.303  21.886  1.00  0.00     0.016 A 
BRANCH  13  18
ATOM     18  O   UNL     1      28.303  -2.442  18.892  1.00  0.00    -0.497 OA
ATOM     19  C   UNL     1      28.819  -3.712  19.269  1.00  0.00     0.278 C 
ENDBRANCH  13  18
ENDBRANCH   1  12
BRANCH   8  20
ATOM     20  O   UNL     1      30.708   4.205  23.104  1.00  0.00    -0.490 OA
ATOM     21  C   UNL     1      30.920   4.723  21.797  1.00  0.00     0.278 C 
ENDBRANCH   8  20
BRANCH  11  22
ATOM     22  O   UNL     1      26.091   5.081  26.202  1.00  0.00    -0.492 OA
ATOM     23  C   UNL     1      25.105   6.105  26.114  1.00  0.00     0.278 C 
ENDBRANCH  11  22
BRANCH   9  24
ATOM     24  O   UNL     1      30.576   6.517  24.743  1.00  0.00    -0.490 OA
ATOM     25  C   UNL     1      30.624   7.705  23.957  1.00  0.00     0.279 C 
ENDBRANCH   9  24
BRANCH  10  26
ATOM     26  O   UNL     1      28.315   6.855  26.480  1.00  0.00    -0.490 OA
ATOM     27  C   UNL     1      28.621   6.790  27.869  1.00  0.00     0.278 C 
ENDBRANCH  10  26
TORSDOF 6
ENDMDL
MODEL 3
REMARK VINA RESULT:    -5.294     10.010     13.190
REMARK INTER + INTRA:          -7.796
REMARK INTER:                  -7.228
REMARK INTRA:                  -0.567
REMARK UNBOUND:                -0.644
REMARK SMILES COc1ccc(-c2cc(=O)c3c(OC)c(OC)c(OC)c(OC)c3o2)cc1
REMARK SMILES IDX 7 1 8 2 9 3 10 4 11 5 24 6 25 7 21 8 18 9 15 10 12 11 6 12
REMARK SMILES IDX 3 13 4 14 27 15 5 16 26 17 2 18 1 19 22 20 23 21 13 22 14 23
REMARK SMILES IDX 19 24 20 25 16 26 17 27
REMARK H PARENT
REMARK Flexibility Score: inf
ROOT
ATOM      1  C   UNL     1      25.445   8.014  29.984  1.00  0.00     0.138 A 
ATOM      2  C   UNL     1      25.306   7.687  31.341  1.00  0.00     0.100 A 
ATOM      3  C   UNL     1      24.030   7.576  31.891  1.00  0.00     0.197 A 
ATOM      4  O   UNL     1      23.924   7.282  33.112  1.00  0.00    -0.289 OA
ATOM      5  C   UNL     1      22.892   7.787  31.078  1.00  0.00     0.115 A 
ATOM      6  C   UNL     1      23.118   8.094  29.719  1.00  0.00     0.188 A 
ATOM      7  O   UNL     1      24.357   8.194  29.244  1.00  0.00    -0.452 OA
ATOM      8  C   UNL     1      22.049   8.312  28.853  1.00  0.00     0.209 A 
ATOM      9  C   UNL     1      20.725   8.167  29.307  1.00  0.00     0.211 A 
ATOM     10  C   UNL     1      20.471   7.916  30.680  1.00  0.00     0.208 A 
ATOM     11  C   UNL     1      21.563   7.718  31.571  1.00  0.00     0.179 A 
ENDROOT
BRANCH   1  12
ATOM     12  C   UNL     1      26.776   8.148  29.341  1.00  0.00     0.018 A 
ATOM     13  C   UNL     1      29.336   8.426  28.178  1.00  0.00     0.118 A 
ATOM     14  C   UNL     1      28.401   7.525  27.635  1.00  0.00     0.047 A 
ATOM     15  C   UNL     1      28.984   9.174  29.305  1.00  0.00     0.047 A 
ATOM     16  C   UNL     1      27.137   7.385  28.214  1.00  0.00     0.016 A 
ATOM     17  C   UNL     1      27.720   9.035  29.886  1.00  0.00     0.016 A 
BRANCH  13  18
ATOM     18  O   UNL     1      30.616   8.603  27.632  1.00  0.00    -0.497 OA
ATOM     19  C   UNL     1      31.125   7.871  26.523  1.00  0.00     0.278 C 
ENDBRANCH  13  18
ENDBRANCH   1  12
BRANCH   8  20
ATOM     20  O   UNL     1      22.327   8.695  27.539  1.00  0.00    -0.490 OA
ATOM     21  C   UNL     1      22.404  10.064  27.159  1.00  0.00     0.278 C 
ENDBRANCH   8  20
BRANCH  11  22
ATOM     22  O   UNL     1      21.391   7.451  32.947  1.00  0.00    -0.492 OA
ATOM     23  C   UNL     1      20.896   6.256  33.545  1.00  0.00     0.278 C 
ENDBRANCH  11  22
BRANCH   9  24
ATOM     24  O   UNL     1      19.660   8.262  28.403  1.00  0.00    -0.490 OA
ATOM     25  C   UNL     1      18.938   9.466  28.164  1.00  0.00     0.279 C 
ENDBRANCH   9  24
BRANCH  10  26
ATOM     26  O   UNL     1      19.163   7.836  31.198  1.00  0.00    -0.490 OA
ATOM     27  C   UNL     1      18.261   6.739  31.106  1.00  0.00     0.278 C 
ENDBRANCH  10  26
TORSDOF 6
ENDMDL
MODEL 4
REMARK VINA RESULT:    -5.266      3.937      6.297
REMARK INTER + INTRA:          -7.758
REMARK INTER:                  -7.208
REMARK INTRA:                  -0.550
REMARK UNBOUND:                -0.644
REMARK SMILES COc1ccc(-c2cc(=O)c3c(OC)c(OC)c(OC)c(OC)c3o2)cc1
REMARK SMILES IDX 7 1 8 2 9 3 10 4 11 5 24 6 25 7 21 8 18 9 15 10 12 11 6 12
REMARK SMILES IDX 3 13 4 14 27 15 5 16 26 17 2 18 1 19 22 20 23 21 13 22 14 23
REMARK SMILES IDX 19 24 20 25 16 26 17 27
REMARK H PARENT
REMARK Flexibility Score: inf
ROOT
ATOM      1  C   UNL     1      28.102  -0.846  18.757  1.00  0.00     0.138 A 
ATOM      2  C   UNL     1      27.419  -1.500  17.722  1.00  0.00     0.100 A 
ATOM      3  C   UNL     1      26.685  -0.750  16.805  1.00  0.00     0.197 A 
ATOM      4  O   UNL     1      26.076  -1.354  15.881  1.00  0.00    -0.289 OA
ATOM      5  C   UNL     1      26.640   0.660  16.923  1.00  0.00     0.115 A 
ATOM      6  C   UNL     1      27.371   1.241  17.981  1.00  0.00     0.188 A 
ATOM      7  O   UNL     1      28.052   0.479  18.833  1.00  0.00    -0.452 OA
ATOM      8  C   UNL     1      27.381   2.622  18.161  1.00  0.00     0.209 A 
ATOM      9  C   UNL     1      26.713   3.463  17.253  1.00  0.00     0.211 A 
ATOM     10  C   UNL     1      25.926   2.901  16.215  1.00  0.00     0.208 A 
ATOM     11  C   UNL     1      25.894   1.488  16.045  1.00  0.00     0.179 A 
ENDROOT
BRANCH   1  12
ATOM     12  C   UNL     1      28.900  -1.589  19.765  1.00  0.00     0.018 A 
ATOM     13  C   UNL     1      30.370  -2.984  21.733  1.00  0.00     0.118 A 
ATOM     14  C   UNL     1      30.447  -3.368  20.381  1.00  0.00     0.047 A 
ATOM     15  C   UNL     1      29.549  -1.910  22.089  1.00  0.00     0.047 A 
ATOM     16  C   UNL     1      29.715  -2.680  19.409  1.00  0.00     0.016 A 
ATOM     17  C   UNL     1      28.817  -1.221  21.119  1.00  0.00     0.016 A 
BRANCH  13  18
ATOM     18  O   UNL     1      31.086  -3.642  22.744  1.00  0.00    -0.497 OA
ATOM     19  C   UNL     1      31.114  -3.231  24.106  1.00  0.00     0.278 C 
ENDBRANCH  13  18
ENDBRANCH   1  12
BRANCH   8  20
ATOM     20  O   UNL     1      28.050   3.141  19.272  1.00  0.00    -0.490 OA
ATOM     21  C   UNL     1      29.403   3.574  19.196  1.00  0.00     0.278 C 
ENDBRANCH   8  20
BRANCH  11  22
ATOM     22  O   UNL     1      25.145   0.855  15.029  1.00  0.00    -0.492 OA
ATOM     23  C   UNL     1      23.729   0.838  14.876  1.00  0.00     0.278 C 
ENDBRANCH  11  22
BRANCH   9  24
ATOM     24  O   UNL     1      26.833   4.854  17.366  1.00  0.00    -0.490 OA
ATOM     25  C   UNL     1      27.653   5.643  16.508  1.00  0.00     0.279 C 
ENDBRANCH   9  24
BRANCH  10  26
ATOM     26  O   UNL     1      25.179   3.697  15.325  1.00  0.00    -0.490 OA
ATOM     27  C   UNL     1      24.028   4.481  15.621  1.00  0.00     0.278 C 
ENDBRANCH  10  26
TORSDOF 6
ENDMDL
MODEL 5
REMARK VINA RESULT:    -5.125      2.521      5.308
REMARK INTER + INTRA:          -7.567
REMARK INTER:                  -6.953
REMARK INTRA:                  -0.614
REMARK UNBOUND:                -0.644
REMARK SMILES COc1ccc(-c2cc(=O)c3c(OC)c(OC)c(OC)c(OC)c3o2)cc1
REMARK SMILES IDX 7 1 8 2 9 3 10 4 11 5 24 6 25 7 21 8 18 9 15 10 12 11 6 12
REMARK SMILES IDX 3 13 4 14 27 15 5 16 26 17 2 18 1 19 22 20 23 21 13 22 14 23
REMARK SMILES IDX 19 24 20 25 16 26 17 27
REMARK H PARENT
REMARK Flexibility Score: inf
ROOT
ATOM      1  C   UNL     1      29.093   5.716  24.603  1.00  0.00     0.138 A 
ATOM      2  C   UNL     1      29.616   6.416  23.506  1.00  0.00     0.100 A 
ATOM      3  C   UNL     1      29.520   5.862  22.231  1.00  0.00     0.197 A 
ATOM      4  O   UNL     1      29.995   6.505  21.256  1.00  0.00    -0.289 OA
ATOM      5  C   UNL     1      28.894   4.605  22.055  1.00  0.00     0.115 A 
ATOM      6  C   UNL     1      28.378   3.975  23.207  1.00  0.00     0.188 A 
ATOM      7  O   UNL     1      28.500   4.544  24.403  1.00  0.00    -0.452 OA
ATOM      8  C   UNL     1      27.744   2.738  23.115  1.00  0.00     0.209 A 
ATOM      9  C   UNL     1      27.553   2.127  21.862  1.00  0.00     0.211 A 
ATOM     10  C   UNL     1      28.111   2.713  20.697  1.00  0.00     0.208 A 
ATOM     11  C   UNL     1      28.782   3.965  20.793  1.00  0.00     0.179 A 
ENDROOT
BRANCH   1  12
ATOM     12  C   UNL     1      29.166   6.253  25.985  1.00  0.00     0.018 A 
ATOM     13  C   UNL     1      29.368   7.303  28.600  1.00  0.00     0.118 A 
ATOM     14  C   UNL     1      28.107   7.042  28.033  1.00  0.00     0.047 A 
ATOM     15  C   UNL     1      30.518   7.044  27.849  1.00  0.00     0.047 A 
ATOM     16  C   UNL     1      28.008   6.527  26.737  1.00  0.00     0.016 A 
ATOM     17  C   UNL     1      30.422   6.529  26.553  1.00  0.00     0.016 A 
BRANCH  13  18
ATOM     18  O   UNL     1      29.518   7.817  29.896  1.00  0.00    -0.497 OA
ATOM     19  C   UNL     1      30.119   7.112  30.976  1.00  0.00     0.278 C 
ENDBRANCH  13  18
ENDBRANCH   1  12
BRANCH   8  20
ATOM     20  O   UNL     1      27.327   2.118  24.295  1.00  0.00    -0.490 OA
ATOM     21  C   UNL     1      26.001   2.267  24.790  1.00  0.00     0.278 C 
ENDBRANCH   8  20
BRANCH  11  22
ATOM     22  O   UNL     1      29.352   4.617  19.678  1.00  0.00    -0.492 OA
ATOM     23  C   UNL     1      30.478   4.200  18.911  1.00  0.00     0.278 C 
ENDBRANCH  11  22
BRANCH   9  24
ATOM     24  O   UNL     1      26.803   0.949  21.764  1.00  0.00    -0.490 OA
ATOM     25  C   UNL     1      27.370  -0.353  21.881  1.00  0.00     0.279 C 
ENDBRANCH   9  24
BRANCH  10  26
ATOM     26  O   UNL     1      28.011   2.105  19.431  1.00  0.00    -0.490 OA
ATOM     27  C   UNL     1      26.963   2.253  18.479  1.00  0.00     0.278 C 
ENDBRANCH  10  26
TORSDOF 6
ENDMDL
MODEL 6
REMARK VINA RESULT:    -5.125      2.035      8.033
REMARK INTER + INTRA:          -7.567
REMARK INTER:                  -6.985
REMARK INTRA:                  -0.581
REMARK UNBOUND:                -0.644
REMARK SMILES COc1ccc(-c2cc(=O)c3c(OC)c(OC)c(OC)c(OC)c3o2)cc1
REMARK SMILES IDX 7 1 8 2 9 3 10 4 11 5 24 6 25 7 21 8 18 9 15 10 12 11 6 12
REMARK SMILES IDX 3 13 4 14 27 15 5 16 26 17 2 18 1 19 22 20 23 21 13 22 14 23
REMARK SMILES IDX 19 24 20 25 16 26 17 27
REMARK H PARENT
REMARK Flexibility Score: inf
ROOT
ATOM      1  C   UNL     1      28.225   1.680  21.611  1.00  0.00     0.138 A 
ATOM      2  C   UNL     1      27.184   1.305  22.471  1.00  0.00     0.100 A 
ATOM      3  C   UNL     1      26.824   2.151  23.518  1.00  0.00     0.197 A 
ATOM      4  O   UNL     1      25.885   1.798  24.283  1.00  0.00    -0.289 OA
ATOM      5  C   UNL     1      27.505   3.378  23.699  1.00  0.00     0.115 A 
ATOM      6  C   UNL     1      28.528   3.689  22.778  1.00  0.00     0.188 A 
ATOM      7  O   UNL     1      28.837   2.844  21.798  1.00  0.00    -0.452 OA
ATOM      8  C   UNL     1      29.242   4.880  22.887  1.00  0.00     0.209 A 
ATOM      9  C   UNL     1      28.912   5.820  23.880  1.00  0.00     0.211 A 
ATOM     10  C   UNL     1      27.926   5.507  24.851  1.00  0.00     0.208 A 
ATOM     11  C   UNL     1      27.213   4.278  24.757  1.00  0.00     0.179 A 
ENDROOT
BRANCH   1  12
ATOM     12  C   UNL     1      28.657   0.821  20.479  1.00  0.00     0.018 A 
ATOM     13  C   UNL     1      29.420  -0.792  18.289  1.00  0.00     0.118 A 
ATOM     14  C   UNL     1      30.389  -0.302  19.184  1.00  0.00     0.047 A 
ATOM     15  C   UNL     1      28.077  -0.463  18.493  1.00  0.00     0.047 A 
ATOM     16  C   UNL     1      30.011   0.500  20.264  1.00  0.00     0.016 A 
ATOM     17  C   UNL     1      27.697   0.339  19.572  1.00  0.00     0.016 A 
BRANCH  13  18
ATOM     18  O   UNL     1      29.750  -1.602  17.192  1.00  0.00    -0.497 OA
ATOM     19  C   UNL     1      29.734  -1.166  15.838  1.00  0.00     0.278 C 
ENDBRANCH  13  18
ENDBRANCH   1  12
BRANCH   8  20
ATOM     20  O   UNL     1      30.300   5.101  22.002  1.00  0.00    -0.490 OA
ATOM     21  C   UNL     1      30.129   5.847  20.803  1.00  0.00     0.278 C 
ENDBRANCH   8  20
BRANCH  11  22
ATOM     22  O   UNL     1      26.210   3.902  25.677  1.00  0.00    -0.492 OA
ATOM     23  C   UNL     1      24.887   4.419  25.779  1.00  0.00     0.278 C 
ENDBRANCH  11  22
BRANCH   9  24
ATOM     24  O   UNL     1      29.547   7.068  23.903  1.00  0.00    -0.490 OA
ATOM     25  C   UNL     1      30.770   7.312  24.590  1.00  0.00     0.279 C 
ENDBRANCH   9  24
BRANCH  10  26
ATOM     26  O   UNL     1      27.611   6.382  25.908  1.00  0.00    -0.490 OA
ATOM     27  C   UNL     1      28.227   6.450  27.190  1.00  0.00     0.278 C 
ENDBRANCH  10  26
TORSDOF 6
ENDMDL
MODEL 7
REMARK VINA RESULT:    -5.044      1.995      4.090
REMARK INTER + INTRA:          -7.458
REMARK INTER:                  -7.052
REMARK INTRA:                  -0.406
REMARK UNBOUND:                -0.644
REMARK SMILES COc1ccc(-c2cc(=O)c3c(OC)c(OC)c(OC)c(OC)c3o2)cc1
REMARK SMILES IDX 7 1 8 2 9 3 10 4 11 5 24 6 25 7 21 8 18 9 15 10 12 11 6 12
REMARK SMILES IDX 3 13 4 14 27 15 5 16 26 17 2 18 1 19 22 20 23 21 13 22 14 23
REMARK SMILES IDX 19 24 20 25 16 26 17 27
REMARK H PARENT
REMARK Flexibility Score: inf
ROOT
ATOM      1  C   UNL     1      27.713   2.197  22.747  1.00  0.00     0.138 A 
ATOM      2  C   UNL     1      26.701   2.012  21.796  1.00  0.00     0.100 A 
ATOM      3  C   UNL     1      26.780   0.937  20.912  1.00  0.00     0.197 A 
ATOM      4  O   UNL     1      25.861   0.785  20.062  1.00  0.00    -0.289 OA
ATOM      5  C   UNL     1      27.875   0.043  20.986  1.00  0.00     0.115 A 
ATOM      6  C   UNL     1      28.841   0.290  21.985  1.00  0.00     0.188 A 
ATOM      7  O   UNL     1      28.721   1.334  22.801  1.00  0.00    -0.452 OA
ATOM      8  C   UNL     1      29.946  -0.547  22.125  1.00  0.00     0.209 A 
ATOM      9  C   UNL     1      30.082  -1.688  21.313  1.00  0.00     0.211 A 
ATOM     10  C   UNL     1      29.154  -1.927  20.266  1.00  0.00     0.208 A 
ATOM     11  C   UNL     1      28.039  -1.057  20.105  1.00  0.00     0.179 A 
ENDROOT
BRANCH   1  12
ATOM     12  C   UNL     1      27.686   3.323  23.715  1.00  0.00     0.018 A 
ATOM     13  C   UNL     1      27.587   5.430  25.594  1.00  0.00     0.118 A 
ATOM     14  C   UNL     1      28.731   5.242  24.795  1.00  0.00     0.047 A 
ATOM     15  C   UNL     1      26.506   4.556  25.451  1.00  0.00     0.047 A 
ATOM     16  C   UNL     1      28.780   4.196  23.869  1.00  0.00     0.016 A 
ATOM     17  C   UNL     1      26.554   3.510  24.526  1.00  0.00     0.016 A 
BRANCH  13  18
ATOM     18  O   UNL     1      27.489   6.466  26.535  1.00  0.00    -0.497 OA
ATOM     19  C   UNL     1      28.574   6.941  27.324  1.00  0.00     0.278 C 
ENDBRANCH  13  18
ENDBRANCH   1  12
BRANCH   8  20
ATOM     20  O   UNL     1      30.916  -0.211  23.073  1.00  0.00    -0.490 OA
ATOM     21  C   UNL     1      31.034  -0.915  24.303  1.00  0.00     0.278 C 
ENDBRANCH   8  20
BRANCH  11  22
ATOM     22  O   UNL     1      27.067  -1.236  19.096  1.00  0.00    -0.492 OA
ATOM     23  C   UNL     1      27.215  -1.006  17.698  1.00  0.00     0.278 C 
ENDBRANCH  11  22
BRANCH   9  24
ATOM     24  O   UNL     1      31.125  -2.593  21.545  1.00  0.00    -0.490 OA
ATOM     25  C   UNL     1      31.002  -3.732  22.392  1.00  0.00     0.279 C 
ENDBRANCH   9  24
BRANCH  10  26
ATOM     26  O   UNL     1      29.288  -3.013  19.380  1.00  0.00    -0.490 OA
ATOM     27  C   UNL     1      28.528  -4.217  19.365  1.00  0.00     0.278 C 
ENDBRANCH  10  26
TORSDOF 6
ENDMDL
MODEL 8
REMARK VINA RESULT:    -4.924      3.370      6.525
REMARK INTER + INTRA:          -7.296
REMARK INTER:                  -6.704
REMARK INTRA:                  -0.592
REMARK UNBOUND:                -0.644
REMARK SMILES COc1ccc(-c2cc(=O)c3c(OC)c(OC)c(OC)c(OC)c3o2)cc1
REMARK SMILES IDX 7 1 8 2 9 3 10 4 11 5 24 6 25 7 21 8 18 9 15 10 12 11 6 12
REMARK SMILES IDX 3 13 4 14 27 15 5 16 26 17 2 18 1 19 22 20 23 21 13 22 14 23
REMARK SMILES IDX 19 24 20 25 16 26 17 27
REMARK H PARENT
REMARK Flexibility Score: inf
ROOT
ATOM      1  C   UNL     1      28.967   6.449  26.326  1.00  0.00     0.138 A 
ATOM      2  C   UNL     1      29.972   6.951  25.487  1.00  0.00     0.100 A 
ATOM      3  C   UNL     1      30.196   6.348  24.250  1.00  0.00     0.197 A 
ATOM      4  O   UNL     1      31.103   6.813  23.508  1.00  0.00    -0.289 OA
ATOM      5  C   UNL     1      29.407   5.242  23.853  1.00  0.00     0.115 A 
ATOM      6  C   UNL     1      28.406   4.810  24.748  1.00  0.00     0.188 A 
ATOM      7  O   UNL     1      28.236   5.417  25.920  1.00  0.00    -0.452 OA
ATOM      8  C   UNL     1      27.586   3.730  24.428  1.00  0.00     0.209 A 
ATOM      9  C   UNL     1      27.703   3.094  23.178  1.00  0.00     0.211 A 
ATOM     10  C   UNL     1      28.738   3.473  22.285  1.00  0.00     0.208 A 
ATOM     11  C   UNL     1      29.594   4.559  22.623  1.00  0.00     0.179 A 
ENDROOT
BRANCH   1  12
ATOM     12  C   UNL     1      28.682   7.046  27.655  1.00  0.00     0.018 A 
ATOM     13  C   UNL     1      28.206   8.205  30.187  1.00  0.00     0.118 A 
ATOM     14  C   UNL     1      27.151   8.040  29.270  1.00  0.00     0.047 A 
ATOM     15  C   UNL     1      29.493   7.797  29.824  1.00  0.00     0.047 A 
ATOM     16  C   UNL     1      27.389   7.471  28.016  1.00  0.00     0.016 A 
ATOM     17  C   UNL     1      29.732   7.228  28.571  1.00  0.00     0.016 A 
BRANCH  13  18
ATOM     18  O   UNL     1      28.017   8.769  31.458  1.00  0.00    -0.497 OA
ATOM     19  C   UNL     1      27.905   8.018  32.661  1.00  0.00     0.278 C 
ENDBRANCH  13  18
ENDBRANCH   1  12
BRANCH   8  20
ATOM     20  O   UNL     1      26.667   3.290  25.383  1.00  0.00    -0.490 OA
ATOM     21  C   UNL     1      25.306   3.703  25.357  1.00  0.00     0.278 C 
ENDBRANCH   8  20
BRANCH  11  22
ATOM     22  O   UNL     1      30.637   5.003  21.781  1.00  0.00    -0.492 OA
ATOM     23  C   UNL     1      30.519   5.653  20.520  1.00  0.00     0.278 C 
ENDBRANCH  11  22
BRANCH   9  24
ATOM     24  O   UNL     1      26.792   2.095  22.812  1.00  0.00    -0.490 OA
ATOM     25  C   UNL     1      27.015   0.707  23.043  1.00  0.00     0.279 C 
ENDBRANCH   9  24
BRANCH  10  26
ATOM     26  O   UNL     1      28.944   2.818  21.055  1.00  0.00    -0.490 OA
ATOM     27  C   UNL     1      29.798   1.709  20.797  1.00  0.00     0.278 C 
ENDBRANCH  10  26
TORSDOF 6
ENDMDL
MODEL 9
REMARK VINA RESULT:    -4.895      1.477      3.724
REMARK INTER + INTRA:          -7.256
REMARK INTER:                  -6.639
REMARK INTRA:                  -0.617
REMARK UNBOUND:                -0.644
REMARK SMILES COc1ccc(-c2cc(=O)c3c(OC)c(OC)c(OC)c(OC)c3o2)cc1
REMARK SMILES IDX 7 1 8 2 9 3 10 4 11 5 24 6 25 7 21 8 18 9 15 10 12 11 6 12
REMARK SMILES IDX 3 13 4 14 27 15 5 16 26 17 2 18 1 19 22 20 23 21 13 22 14 23
REMARK SMILES IDX 19 24 20 25 16 26 17 27
REMARK H PARENT
REMARK Flexibility Score: inf
ROOT
ATOM      1  C   UNL     1      28.611   3.725  22.170  1.00  0.00     0.138 A 
ATOM      2  C   UNL     1      28.794   4.422  20.968  1.00  0.00     0.100 A 
ATOM      3  C   UNL     1      28.866   3.712  19.770  1.00  0.00     0.197 A 
ATOM      4  O   UNL     1      29.031   4.355  18.698  1.00  0.00    -0.289 OA
ATOM      5  C   UNL     1      28.750   2.302  19.778  1.00  0.00     0.115 A 
ATOM      6  C   UNL     1      28.549   1.680  21.028  1.00  0.00     0.188 A 
ATOM      7  O   UNL     1      28.492   2.402  22.144  1.00  0.00    -0.452 OA
ATOM      8  C   UNL     1      28.421   0.295  21.119  1.00  0.00     0.209 A 
ATOM      9  C   UNL     1      28.426  -0.497  19.957  1.00  0.00     0.211 A 
ATOM     10  C   UNL     1      28.683   0.098  18.695  1.00  0.00     0.208 A 
ATOM     11  C   UNL     1      28.840   1.511  18.604  1.00  0.00     0.179 A 
ENDROOT
BRANCH   1  12
ATOM     12  C   UNL     1      28.527   4.423  23.478  1.00  0.00     0.018 A 
ATOM     13  C   UNL     1      28.324   5.701  25.989  1.00  0.00     0.118 A 
ATOM     14  C   UNL     1      29.476   5.865  25.198  1.00  0.00     0.047 A 
ATOM     15  C   UNL     1      27.286   4.890  25.520  1.00  0.00     0.047 A 
ATOM     16  C   UNL     1      29.577   5.228  23.958  1.00  0.00     0.016 A 
ATOM     17  C   UNL     1      27.386   4.252  24.280  1.00  0.00     0.016 A 
BRANCH  13  18
ATOM     18  O   UNL     1      28.174   6.321  27.239  1.00  0.00    -0.497 OA
ATOM     19  C   UNL     1      29.255   6.717  28.074  1.00  0.00     0.278 C 
ENDBRANCH  13  18
ENDBRANCH   1  12
BRANCH   8  20
ATOM     20  O   UNL     1      28.308  -0.278  22.387  1.00  0.00    -0.490 OA
ATOM     21  C   UNL     1      29.444  -0.768  23.090  1.00  0.00     0.278 C 
ENDBRANCH   8  20
BRANCH  11  22
ATOM     22  O   UNL     1      29.085   2.177  17.384  1.00  0.00    -0.492 OA
ATOM     23  C   UNL     1      28.207   2.297  16.268  1.00  0.00     0.278 C 
ENDBRANCH  11  22
BRANCH   9  24
ATOM     24  O   UNL     1      28.169  -1.871  20.044  1.00  0.00    -0.490 OA
ATOM     25  C   UNL     1      29.194  -2.859  20.103  1.00  0.00     0.279 C 
ENDBRANCH   9  24
BRANCH  10  26
ATOM     26  O   UNL     1      28.773  -0.661  17.512  1.00  0.00    -0.490 OA
ATOM     27  C   UNL     1      29.955  -1.118  16.863  1.00  0.00     0.278 C 
ENDBRANCH  10  26
TORSDOF 6
ENDMDL
