MODEL 1
REMARK VINA RESULT:    -3.468      0.000      0.000
REMARK INTER + INTRA:          -3.695
REMARK INTER:                  -3.671
REMARK INTRA:                  -0.024
REMARK UNBOUND:                -0.024
REMARK SMILES O=C([O-])c1cccnc1
REMARK SMILES IDX 4 1 5 2 9 3 6 4 8 5 7 6 2 7 1 8 3 9
REMARK H PARENT
REMARK Flexibility Score: inf
ROOT
ATOM      1  C   UNL     1     -15.242  16.941 -24.289  1.00  0.00     0.016 A 
ATOM      2  C   UNL     1     -14.909  18.136 -24.948  1.00  0.00     0.013 A 
ATOM      3  C   UNL     1     -16.124  16.050 -24.926  1.00  0.00     0.120 A 
ATOM      4  C   UNL     1     -15.448  18.417 -26.205  1.00  0.00     0.021 A 
ATOM      5  N   UNL     1     -16.634  16.348 -26.151  1.00  0.00    -0.264 NA
ATOM      6  C   UNL     1     -16.318  17.501 -26.797  1.00  0.00     0.111 A 
ENDROOT
BRANCH   1   7
ATOM      7  C   UNL     1     -14.679  16.633 -22.957  1.00  0.00     0.073 C 
ATOM      8  O   UNL     1     -14.114  17.530 -22.277  1.00  0.00    -0.545 OA
ATOM      9  O   UNL     1     -14.767  15.347 -22.436  1.00  0.00    -0.545 OA
ENDBRANCH   1   7
TORSDOF 1
ENDMDL
MODEL 2
REMARK VINA RESULT:    -3.404      0.962      1.610
REMARK INTER + INTRA:          -3.627
REMARK INTER:                  -3.604
REMARK INTRA:                  -0.022
REMARK UNBOUND:                -0.024
REMARK SMILES O=C([O-])c1cccnc1
REMARK SMILES IDX 4 1 5 2 9 3 6 4 8 5 7 6 2 7 1 8 3 9
REMARK H PARENT
REMARK Flexibility Score: inf
ROOT
ATOM      1  C   UNL     1     -15.161  16.940 -24.225  1.00  0.00     0.016 A 
ATOM      2  C   UNL     1     -16.079  16.134 -24.918  1.00  0.00     0.013 A 
ATOM      3  C   UNL     1     -14.704  18.117 -24.845  1.00  0.00     0.120 A 
ATOM      4  C   UNL     1     -16.519  16.506 -26.190  1.00  0.00     0.021 A 
ATOM      5  N   UNL     1     -15.150  18.457 -26.085  1.00  0.00    -0.264 NA
ATOM      6  C   UNL     1     -16.038  17.684 -26.763  1.00  0.00     0.111 A 
ENDROOT
BRANCH   1   7
ATOM      7  C   UNL     1     -14.687  16.557 -22.878  1.00  0.00     0.073 C 
ATOM      8  O   UNL     1     -14.233  17.426 -22.087  1.00  0.00    -0.545 OA
ATOM      9  O   UNL     1     -14.737  15.229 -22.466  1.00  0.00    -0.545 OA
ENDBRANCH   1   7
TORSDOF 1
ENDMDL
MODEL 3
REMARK VINA RESULT:    -3.325      2.637      3.530
REMARK INTER + INTRA:          -3.543
REMARK INTER:                  -3.521
REMARK INTRA:                  -0.022
REMARK UNBOUND:                -0.024
REMARK SMILES O=C([O-])c1cccnc1
REMARK SMILES IDX 4 1 5 2 9 3 6 4 8 5 7 6 2 7 1 8 3 9
REMARK H PARENT
REMARK Flexibility Score: inf
ROOT
ATOM      1  C   UNL     1     -15.104  17.431 -24.973  1.00  0.00     0.016 A 
ATOM      2  C   UNL     1     -14.252  17.890 -23.955  1.00  0.00     0.013 A 
ATOM      3  C   UNL     1     -15.562  16.103 -24.913  1.00  0.00     0.120 A 
ATOM      4  C   UNL     1     -13.880  17.037 -22.914  1.00  0.00     0.021 A 
ATOM      5  N   UNL     1     -15.185  15.293 -23.887  1.00  0.00    -0.264 NA
ATOM      6  C   UNL     1     -14.362  15.728 -22.897  1.00  0.00     0.111 A 
ENDROOT
BRANCH   1   7
ATOM      7  C   UNL     1     -15.504  18.325 -26.081  1.00  0.00     0.073 C 
ATOM      8  O   UNL     1     -15.604  19.567 -25.898  1.00  0.00    -0.545 OA
ATOM      9  O   UNL     1     -15.775  17.804 -27.342  1.00  0.00    -0.545 OA
ENDBRANCH   1   7
TORSDOF 1
ENDMDL
MODEL 4
REMARK VINA RESULT:    -3.241      2.815      3.566
REMARK INTER + INTRA:          -3.454
REMARK INTER:                  -3.432
REMARK INTRA:                  -0.022
REMARK UNBOUND:                -0.024
REMARK SMILES O=C([O-])c1cccnc1
REMARK SMILES IDX 4 1 5 2 9 3 6 4 8 5 7 6 2 7 1 8 3 9
REMARK H PARENT
REMARK Flexibility Score: inf
ROOT
ATOM      1  C   UNL     1     -15.417  16.987 -25.158  1.00  0.00     0.016 A 
ATOM      2  C   UNL     1     -14.591  18.035 -24.719  1.00  0.00     0.013 A 
ATOM      3  C   UNL     1     -15.512  15.833 -24.361  1.00  0.00     0.120 A 
ATOM      4  C   UNL     1     -13.889  17.918 -23.518  1.00  0.00     0.021 A 
ATOM      5  N   UNL     1     -14.818  15.745 -23.194  1.00  0.00    -0.264 NA
ATOM      6  C   UNL     1     -14.017  16.754 -22.761  1.00  0.00     0.111 A 
ENDROOT
BRANCH   1   7
ATOM      7  C   UNL     1     -16.164  17.099 -26.429  1.00  0.00     0.073 C 
ATOM      8  O   UNL     1     -15.727  17.814 -27.369  1.00  0.00    -0.545 OA
ATOM      9  O   UNL     1     -17.361  16.413 -26.604  1.00  0.00    -0.545 OA
ENDBRANCH   1   7
TORSDOF 1
ENDMDL
MODEL 5
REMARK VINA RESULT:    -3.229     20.800     21.797
REMARK INTER + INTRA:          -3.441
REMARK INTER:                  -3.420
REMARK INTRA:                  -0.021
REMARK UNBOUND:                -0.024
REMARK SMILES O=C([O-])c1cccnc1
REMARK SMILES IDX 4 1 5 2 9 3 6 4 8 5 7 6 2 7 1 8 3 9
REMARK H PARENT
REMARK Flexibility Score: inf
ROOT
ATOM      1  C   UNL     1     -32.656   4.241 -22.128  1.00  0.00     0.016 A 
ATOM      2  C   UNL     1     -31.746   5.284 -21.889  1.00  0.00     0.013 A 
ATOM      3  C   UNL     1     -33.859   4.225 -21.401  1.00  0.00     0.120 A 
ATOM      4  C   UNL     1     -32.044   6.273 -20.950  1.00  0.00     0.021 A 
ATOM      5  N   UNL     1     -34.125   5.201 -20.492  1.00  0.00    -0.264 NA
ATOM      6  C   UNL     1     -33.251   6.214 -20.254  1.00  0.00     0.111 A 
ENDROOT
BRANCH   1   7
ATOM      7  C   UNL     1     -32.352   3.187 -23.120  1.00  0.00     0.073 C 
ATOM      8  O   UNL     1     -31.173   2.767 -23.266  1.00  0.00    -0.545 OA
ATOM      9  O   UNL     1     -33.364   2.645 -23.904  1.00  0.00    -0.545 OA
ENDBRANCH   1   7
TORSDOF 1
ENDMDL
MODEL 6
REMARK VINA RESULT:    -3.228      2.913      3.896
REMARK INTER + INTRA:          -3.440
REMARK INTER:                  -3.418
REMARK INTRA:                  -0.022
REMARK UNBOUND:                -0.024
REMARK SMILES O=C([O-])c1cccnc1
REMARK SMILES IDX 4 1 5 2 9 3 6 4 8 5 7 6 2 7 1 8 3 9
REMARK H PARENT
REMARK Flexibility Score: inf
ROOT
ATOM      1  C   UNL     1     -15.443  17.060 -25.203  1.00  0.00     0.016 A 
ATOM      2  C   UNL     1     -15.531  15.961 -24.333  1.00  0.00     0.013 A 
ATOM      3  C   UNL     1     -14.609  18.133 -24.841  1.00  0.00     0.120 A 
ATOM      4  C   UNL     1     -14.803  15.948 -23.142  1.00  0.00     0.021 A 
ATOM      5  N   UNL     1     -13.910  18.095 -23.675  1.00  0.00    -0.264 NA
ATOM      6  C   UNL     1     -13.989  17.036 -22.827  1.00  0.00     0.111 A 
ENDROOT
BRANCH   1   7
ATOM      7  C   UNL     1     -16.210  17.085 -26.467  1.00  0.00     0.073 C 
ATOM      8  O   UNL     1     -15.797  17.751 -27.453  1.00  0.00    -0.545 OA
ATOM      9  O   UNL     1     -17.398  16.372 -26.584  1.00  0.00    -0.545 OA
ENDBRANCH   1   7
TORSDOF 1
ENDMDL
MODEL 7
REMARK VINA RESULT:    -3.056     21.185     22.162
REMARK INTER + INTRA:          -3.259
REMARK INTER:                  -3.238
REMARK INTRA:                  -0.020
REMARK UNBOUND:                -0.024
REMARK SMILES O=C([O-])c1cccnc1
REMARK SMILES IDX 4 1 5 2 9 3 6 4 8 5 7 6 2 7 1 8 3 9
REMARK H PARENT
REMARK Flexibility Score: inf
ROOT
ATOM      1  C   UNL     1     -33.562   5.208 -19.698  1.00  0.00     0.016 A 
ATOM      2  C   UNL     1     -32.623   6.101 -20.242  1.00  0.00     0.013 A 
ATOM      3  C   UNL     1     -34.124   4.234 -20.543  1.00  0.00     0.120 A 
ATOM      4  C   UNL     1     -32.266   6.009 -21.588  1.00  0.00     0.021 A 
ATOM      5  N   UNL     1     -33.758   4.166 -21.851  1.00  0.00    -0.264 NA
ATOM      6  C   UNL     1     -32.850   5.025 -22.385  1.00  0.00     0.111 A 
ENDROOT
BRANCH   1   7
ATOM      7  C   UNL     1     -33.950   5.296 -18.274  1.00  0.00     0.073 C 
ATOM      8  O   UNL     1     -34.124   4.251 -17.592  1.00  0.00    -0.545 OA
ATOM      9  O   UNL     1     -34.125   6.535 -17.667  1.00  0.00    -0.545 OA
ENDBRANCH   1   7
TORSDOF 1
ENDMDL
MODEL 8
REMARK VINA RESULT:    -3.044      3.257      3.749
REMARK INTER + INTRA:          -3.245
REMARK INTER:                  -3.227
REMARK INTRA:                  -0.018
REMARK UNBOUND:                -0.024
REMARK SMILES O=C([O-])c1cccnc1
REMARK SMILES IDX 4 1 5 2 9 3 6 4 8 5 7 6 2 7 1 8 3 9
REMARK H PARENT
REMARK Flexibility Score: inf
ROOT
ATOM      1  C   UNL     1     -15.337  17.229 -27.001  1.00  0.00     0.016 A 
ATOM      2  C   UNL     1     -15.460  18.114 -25.918  1.00  0.00     0.013 A 
ATOM      3  C   UNL     1     -14.576  17.634 -28.112  1.00  0.00     0.120 A 
ATOM      4  C   UNL     1     -14.836  19.362 -25.958  1.00  0.00     0.021 A 
ATOM      5  N   UNL     1     -13.978  18.855 -28.125  1.00  0.00    -0.264 NA
ATOM      6  C   UNL     1     -14.091  19.719 -27.082  1.00  0.00     0.111 A 
ENDROOT
BRANCH   1   7
ATOM      7  C   UNL     1     -15.994  15.904 -26.971  1.00  0.00     0.073 C 
ATOM      8  O   UNL     1     -17.234  15.809 -26.772  1.00  0.00    -0.545 OA
ATOM      9  O   UNL     1     -15.251  14.745 -27.164  1.00  0.00    -0.545 OA
ENDBRANCH   1   7
TORSDOF 1
ENDMDL
