MODEL 1
REMARK VINA RESULT:    -4.755      0.000      0.000
REMARK INTER + INTRA:          -6.113
REMARK INTER:                  -5.867
REMARK INTRA:                  -0.246
REMARK UNBOUND:                -0.246
REMARK SMILES O=c1c(O)c(-c2cc(O)c(O)c(O)c2)oc2cc(O)cc(O)c12
REMARK SMILES IDX 5 1 3 2 2 3 1 4 23 5 21 6 20 7 18 8 17 9 16 10 15 11 6 12
REMARK SMILES IDX 7 13 8 14 14 15 10 16 12 17 9 18 11 20 13 22 4 24 22 26
REMARK SMILES IDX 19 28
REMARK H PARENT 9 19 11 21 13 23 4 25 22 27 19 29
REMARK Flexibility Score: inf
ROOT
ATOM      1  C   UNL     1      98.597 110.079 108.404  1.00  0.00     0.180 A 
ATOM      2  C   UNL     1      99.787 109.868 109.122  1.00  0.00     0.208 A 
ATOM      3  C   UNL     1     100.029 108.605 109.685  1.00  0.00     0.238 A 
ATOM      4  O   UNL     1     101.070 108.439 110.373  1.00  0.00    -0.285 OA
ATOM      5  C   UNL     1      99.087 107.563 109.509  1.00  0.00     0.111 A 
ATOM      6  C   UNL     1      99.248 106.233 110.000  1.00  0.00     0.134 A 
ATOM      7  C   UNL     1      98.193 105.320 109.881  1.00  0.00     0.093 A 
ATOM      8  C   UNL     1      97.008 105.669 109.227  1.00  0.00     0.123 A 
ATOM      9  C   UNL     1      96.865 106.946 108.692  1.00  0.00     0.094 A 
ATOM     10  C   UNL     1      97.885 107.891 108.828  1.00  0.00     0.146 A 
ATOM     11  O   UNL     1      97.703 109.101 108.312  1.00  0.00    -0.452 OA
ENDROOT
BRANCH   1  12
ATOM     12  C   UNL     1      98.283 111.375 107.761  1.00  0.00     0.029 A 
ATOM     13  C   UNL     1      99.037 111.854 106.675  1.00  0.00     0.062 A 
ATOM     14  C   UNL     1      98.710 113.072 106.065  1.00  0.00     0.162 A 
ATOM     15  C   UNL     1      97.177 112.115 108.204  1.00  0.00     0.062 A 
ATOM     16  C   UNL     1      97.615 113.819 106.530  1.00  0.00     0.200 A 
ATOM     17  C   UNL     1      96.846 113.333 107.602  1.00  0.00     0.162 A 
BRANCH  14  18
ATOM     18  O   UNL     1      99.468 113.541 104.993  1.00  0.00    -0.504 OA
ATOM     19  H   UNL     1      99.079 113.619 104.061  1.00  0.00     0.293 HD
ENDBRANCH  14  18
BRANCH  16  20
ATOM     20  O   UNL     1      97.279 115.036 105.937  1.00  0.00    -0.502 OA
ATOM     21  H   UNL     1      97.929 115.550 105.355  1.00  0.00     0.293 HD
ENDBRANCH  16  20
BRANCH  17  22
ATOM     22  O   UNL     1      95.747 114.047 108.081  1.00  0.00    -0.504 OA
ATOM     23  H   UNL     1      95.684 115.055 108.006  1.00  0.00     0.293 HD
ENDBRANCH  17  22
ENDBRANCH   1  12
BRANCH   2  24
ATOM     24  O   UNL     1     100.693 110.917 109.303  1.00  0.00    -0.502 OA
ATOM     25  H   UNL     1     101.289 110.986 110.119  1.00  0.00     0.293 HD
ENDBRANCH   2  24
BRANCH   6  26
ATOM     26  O   UNL     1     100.424 105.755 110.586  1.00  0.00    -0.507 OA
ATOM     27  H   UNL     1     101.088 105.148 110.130  1.00  0.00     0.293 HD
ENDBRANCH   6  26
BRANCH   8  28
ATOM     28  O   UNL     1      95.970 104.749 109.098  1.00  0.00    -0.508 OA
ATOM     29  H   UNL     1      95.236 104.873 108.411  1.00  0.00     0.293 HD
ENDBRANCH   8  28
TORSDOF 7
ENDMDL
MODEL 2
REMARK VINA RESULT:    -4.737      0.418      1.804
REMARK INTER + INTRA:          -6.091
REMARK INTER:                  -5.809
REMARK INTRA:                  -0.282
REMARK UNBOUND:                -0.246
REMARK SMILES O=c1c(O)c(-c2cc(O)c(O)c(O)c2)oc2cc(O)cc(O)c12
REMARK SMILES IDX 5 1 3 2 2 3 1 4 23 5 21 6 20 7 18 8 17 9 16 10 15 11 6 12
REMARK SMILES IDX 7 13 8 14 14 15 10 16 12 17 9 18 11 20 13 22 4 24 22 26
REMARK SMILES IDX 19 28
REMARK H PARENT 9 19 11 21 13 23 4 25 22 27 19 29
REMARK Flexibility Score: inf
ROOT
ATOM      1  C   UNL     1      98.726 110.148 108.543  1.00  0.00     0.180 A 
ATOM      2  C   UNL     1      99.856 110.090 109.376  1.00  0.00     0.208 A 
ATOM      3  C   UNL     1     100.208 108.863 109.962  1.00  0.00     0.238 A 
ATOM      4  O   UNL     1     101.189 108.830 110.751  1.00  0.00    -0.285 OA
ATOM      5  C   UNL     1      99.437 107.707 109.694  1.00  0.00     0.111 A 
ATOM      6  C   UNL     1      99.725 106.404 110.200  1.00  0.00     0.134 A 
ATOM      7  C   UNL     1      98.820 105.360 109.977  1.00  0.00     0.093 A 
ATOM      8  C   UNL     1      97.670 105.556 109.208  1.00  0.00     0.123 A 
ATOM      9  C   UNL     1      97.410 106.809 108.659  1.00  0.00     0.094 A 
ATOM     10  C   UNL     1      98.276 107.880 108.896  1.00  0.00     0.146 A 
ATOM     11  O   UNL     1      97.985 109.061 108.363  1.00  0.00    -0.452 OA
ENDROOT
BRANCH   1  12
ATOM     12  C   UNL     1      98.306 111.398 107.870  1.00  0.00     0.029 A 
ATOM     13  C   UNL     1      97.201 112.138 108.326  1.00  0.00     0.062 A 
ATOM     14  C   UNL     1      96.832 113.331 107.691  1.00  0.00     0.162 A 
ATOM     15  C   UNL     1      99.057 111.888 106.792  1.00  0.00     0.062 A 
ATOM     16  C   UNL     1      97.576 113.803 106.596  1.00  0.00     0.200 A 
ATOM     17  C   UNL     1      98.695 113.077 106.151  1.00  0.00     0.162 A 
BRANCH  14  18
ATOM     18  O   UNL     1      95.730 114.053 108.147  1.00  0.00    -0.504 OA
ATOM     19  H   UNL     1      95.047 114.440 107.507  1.00  0.00     0.293 HD
ENDBRANCH  14  18
BRANCH  16  20
ATOM     20  O   UNL     1      97.220 114.986 105.949  1.00  0.00    -0.502 OA
ATOM     21  H   UNL     1      97.664 115.286 105.089  1.00  0.00     0.293 HD
ENDBRANCH  16  20
BRANCH  17  22
ATOM     22  O   UNL     1      99.459 113.523 105.072  1.00  0.00    -0.504 OA
ATOM     23  H   UNL     1      99.041 113.798 104.192  1.00  0.00     0.293 HD
ENDBRANCH  17  22
ENDBRANCH   1  12
BRANCH   2  24
ATOM     24  O   UNL     1     100.591 111.248 109.646  1.00  0.00    -0.502 OA
ATOM     25  H   UNL     1     100.866 111.899 108.920  1.00  0.00     0.293 HD
ENDBRANCH   2  24
BRANCH   6  26
ATOM     26  O   UNL     1     100.892 106.081 110.901  1.00  0.00    -0.507 OA
ATOM     27  H   UNL     1     100.914 105.700 111.835  1.00  0.00     0.293 HD
ENDBRANCH   6  26
BRANCH   8  28
ATOM     28  O   UNL     1      96.782 104.507 108.977  1.00  0.00    -0.508 OA
ATOM     29  H   UNL     1      95.800 104.583 109.212  1.00  0.00     0.293 HD
ENDBRANCH   8  28
TORSDOF 7
ENDMDL
MODEL 3
REMARK VINA RESULT:    -4.727      1.691      7.240
REMARK INTER + INTRA:          -6.079
REMARK INTER:                  -5.715
REMARK INTRA:                  -0.364
REMARK UNBOUND:                -0.246
REMARK SMILES O=c1c(O)c(-c2cc(O)c(O)c(O)c2)oc2cc(O)cc(O)c12
REMARK SMILES IDX 5 1 3 2 2 3 1 4 23 5 21 6 20 7 18 8 17 9 16 10 15 11 6 12
REMARK SMILES IDX 7 13 8 14 14 15 10 16 12 17 9 18 11 20 13 22 4 24 22 26
REMARK SMILES IDX 19 28
REMARK H PARENT 9 19 11 21 13 23 4 25 22 27 19 29
REMARK Flexibility Score: inf
ROOT
ATOM      1  C   UNL     1      98.058 109.497 108.656  1.00  0.00     0.180 A 
ATOM      2  C   UNL     1      96.861 110.197 108.428  1.00  0.00     0.208 A 
ATOM      3  C   UNL     1      96.905 111.412 107.726  1.00  0.00     0.238 A 
ATOM      4  O   UNL     1      95.837 112.061 107.573  1.00  0.00    -0.285 OA
ATOM      5  C   UNL     1      98.142 111.904 107.246  1.00  0.00     0.111 A 
ATOM      6  C   UNL     1      98.300 113.102 106.488  1.00  0.00     0.134 A 
ATOM      7  C   UNL     1      99.586 113.561 106.179  1.00  0.00     0.093 A 
ATOM      8  C   UNL     1     100.719 112.828 106.542  1.00  0.00     0.123 A 
ATOM      9  C   UNL     1     100.573 111.626 107.230  1.00  0.00     0.094 A 
ATOM     10  C   UNL     1      99.304 111.162 107.586  1.00  0.00     0.146 A 
ATOM     11  O   UNL     1      99.211 110.017 108.251  1.00  0.00    -0.452 OA
ENDROOT
BRANCH   1  12
ATOM     12  C   UNL     1      98.089 108.198 109.366  1.00  0.00     0.029 A 
ATOM     13  C   UNL     1      97.991 106.981 108.669  1.00  0.00     0.062 A 
ATOM     14  C   UNL     1      98.045 105.761 109.355  1.00  0.00     0.162 A 
ATOM     15  C   UNL     1      98.276 108.175 110.756  1.00  0.00     0.062 A 
ATOM     16  C   UNL     1      98.210 105.747 110.751  1.00  0.00     0.200 A 
ATOM     17  C   UNL     1      98.329 106.962 111.449  1.00  0.00     0.162 A 
BRANCH  14  18
ATOM     18  O   UNL     1      97.941 104.561 108.655  1.00  0.00    -0.504 OA
ATOM     19  H   UNL     1      97.145 104.359 108.062  1.00  0.00     0.293 HD
ENDBRANCH  14  18
BRANCH  16  20
ATOM     20  O   UNL     1      98.261 104.542 111.451  1.00  0.00    -0.502 OA
ATOM     21  H   UNL     1      98.243 103.644 110.981  1.00  0.00     0.293 HD
ENDBRANCH  16  20
BRANCH  17  22
ATOM     22  O   UNL     1      98.502 106.982 112.833  1.00  0.00    -0.504 OA
ATOM     23  H   UNL     1      98.059 107.676 113.423  1.00  0.00     0.293 HD
ENDBRANCH  17  22
ENDBRANCH   1  12
BRANCH   2  24
ATOM     24  O   UNL     1      95.653 109.704 108.929  1.00  0.00    -0.502 OA
ATOM     25  H   UNL     1      95.240 110.047 109.789  1.00  0.00     0.293 HD
ENDBRANCH   2  24
BRANCH   6  26
ATOM     26  O   UNL     1      97.232 113.860 105.996  1.00  0.00    -0.507 OA
ATOM     27  H   UNL     1      96.640 113.588 105.226  1.00  0.00     0.293 HD
ENDBRANCH   6  26
BRANCH   8  28
ATOM     28  O   UNL     1     101.995 113.283 106.216  1.00  0.00    -0.508 OA
ATOM     29  H   UNL     1     102.454 114.005 106.758  1.00  0.00     0.293 HD
ENDBRANCH   8  28
TORSDOF 7
ENDMDL
MODEL 4
REMARK VINA RESULT:    -4.679     13.397     15.321
REMARK INTER + INTRA:          -6.019
REMARK INTER:                  -5.801
REMARK INTRA:                  -0.217
REMARK UNBOUND:                -0.246
REMARK SMILES O=c1c(O)c(-c2cc(O)c(O)c(O)c2)oc2cc(O)cc(O)c12
REMARK SMILES IDX 5 1 3 2 2 3 1 4 23 5 21 6 20 7 18 8 17 9 16 10 15 11 6 12
REMARK SMILES IDX 7 13 8 14 14 15 10 16 12 17 9 18 11 20 13 22 4 24 22 26
REMARK SMILES IDX 19 28
REMARK H PARENT 9 19 11 21 13 23 4 25 22 27 19 29
REMARK Flexibility Score: inf
ROOT
ATOM      1  C   UNL     1     108.608 101.273 102.836  1.00  0.00     0.180 A 
ATOM      2  C   UNL     1     109.558 102.196 103.306  1.00  0.00     0.208 A 
ATOM      3  C   UNL     1     110.921 101.868 103.233  1.00  0.00     0.238 A 
ATOM      4  O   UNL     1     111.763 102.676 103.706  1.00  0.00    -0.285 OA
ATOM      5  C   UNL     1     111.319 100.630 102.675  1.00  0.00     0.111 A 
ATOM      6  C   UNL     1     112.673 100.211 102.513  1.00  0.00     0.134 A 
ATOM      7  C   UNL     1     112.947  98.911 102.070  1.00  0.00     0.093 A 
ATOM      8  C   UNL     1     111.914  98.038 101.719  1.00  0.00     0.123 A 
ATOM      9  C   UNL     1     110.590  98.458 101.816  1.00  0.00     0.094 A 
ATOM     10  C   UNL     1     110.285  99.736 102.291  1.00  0.00     0.146 A 
ATOM     11  O   UNL     1     109.009 100.093 102.378  1.00  0.00    -0.452 OA
ENDROOT
BRANCH   1  12
ATOM     12  C   UNL     1     107.155 101.557 102.857  1.00  0.00     0.029 A 
ATOM     13  C   UNL     1     106.603 102.603 102.096  1.00  0.00     0.062 A 
ATOM     14  C   UNL     1     105.223 102.842 102.110  1.00  0.00     0.162 A 
ATOM     15  C   UNL     1     106.301 100.734 103.605  1.00  0.00     0.062 A 
ATOM     16  C   UNL     1     104.377 102.026 102.881  1.00  0.00     0.200 A 
ATOM     17  C   UNL     1     104.923 100.967 103.627  1.00  0.00     0.162 A 
BRANCH  14  18
ATOM     18  O   UNL     1     104.688 103.885 101.356  1.00  0.00    -0.504 OA
ATOM     19  H   UNL     1     104.949 104.850 101.524  1.00  0.00     0.293 HD
ENDBRANCH  14  18
BRANCH  16  20
ATOM     20  O   UNL     1     103.001 102.254 102.910  1.00  0.00    -0.502 OA
ATOM     21  H   UNL     1     102.535 102.832 102.222  1.00  0.00     0.293 HD
ENDBRANCH  16  20
BRANCH  17  22
ATOM     22  O   UNL     1     104.109 100.134 104.395  1.00  0.00    -0.504 OA
ATOM     23  H   UNL     1     104.284  99.141 104.484  1.00  0.00     0.293 HD
ENDBRANCH  17  22
ENDBRANCH   1  12
BRANCH   2  24
ATOM     24  O   UNL     1     109.142 103.404 103.874  1.00  0.00    -0.502 OA
ATOM     25  H   UNL     1     109.797 104.109 104.192  1.00  0.00     0.293 HD
ENDBRANCH   2  24
BRANCH   6  26
ATOM     26  O   UNL     1     113.778 101.036 102.748  1.00  0.00    -0.507 OA
ATOM     27  H   UNL     1     114.494 100.856 103.435  1.00  0.00     0.293 HD
ENDBRANCH   6  26
BRANCH   8  28
ATOM     28  O   UNL     1     112.195  96.751 101.263  1.00  0.00    -0.508 OA
ATOM     29  H   UNL     1     113.144  96.397 101.229  1.00  0.00     0.293 HD
ENDBRANCH   8  28
TORSDOF 7
ENDMDL
MODEL 5
REMARK VINA RESULT:    -4.611     13.428     15.385
REMARK INTER + INTRA:          -5.935
REMARK INTER:                  -5.756
REMARK INTRA:                  -0.179
REMARK UNBOUND:                -0.246
REMARK SMILES O=c1c(O)c(-c2cc(O)c(O)c(O)c2)oc2cc(O)cc(O)c12
REMARK SMILES IDX 5 1 3 2 2 3 1 4 23 5 21 6 20 7 18 8 17 9 16 10 15 11 6 12
REMARK SMILES IDX 7 13 8 14 14 15 10 16 12 17 9 18 11 20 13 22 4 24 22 26
REMARK SMILES IDX 19 28
REMARK H PARENT 9 19 11 21 13 23 4 25 22 27 19 29
REMARK Flexibility Score: inf
ROOT
ATOM      1  C   UNL     1     108.658 101.286 102.811  1.00  0.00     0.180 A 
ATOM      2  C   UNL     1     109.576 102.228 103.306  1.00  0.00     0.208 A 
ATOM      3  C   UNL     1     110.949 101.936 103.249  1.00  0.00     0.238 A 
ATOM      4  O   UNL     1     111.763 102.759 103.744  1.00  0.00    -0.285 OA
ATOM      5  C   UNL     1     111.387 100.716 102.681  1.00  0.00     0.111 A 
ATOM      6  C   UNL     1     112.754 100.334 102.533  1.00  0.00     0.134 A 
ATOM      7  C   UNL     1     113.067  99.048 102.078  1.00  0.00     0.093 A 
ATOM      8  C   UNL     1     112.063  98.153 101.701  1.00  0.00     0.123 A 
ATOM      9  C   UNL     1     110.727  98.537 101.785  1.00  0.00     0.094 A 
ATOM     10  C   UNL     1     110.382  99.801 102.271  1.00  0.00     0.146 A 
ATOM     11  O   UNL     1     109.096 100.123 102.344  1.00  0.00    -0.452 OA
ENDROOT
BRANCH   1  12
ATOM     12  C   UNL     1     107.197 101.532 102.814  1.00  0.00     0.029 A 
ATOM     13  C   UNL     1     106.327 100.753 103.596  1.00  0.00     0.062 A 
ATOM     14  C   UNL     1     104.951 101.015 103.604  1.00  0.00     0.162 A 
ATOM     15  C   UNL     1     106.675 102.598 102.068  1.00  0.00     0.062 A 
ATOM     16  C   UNL     1     104.432 102.071 102.835  1.00  0.00     0.200 A 
ATOM     17  C   UNL     1     105.302 102.865 102.069  1.00  0.00     0.162 A 
BRANCH  14  18
ATOM     18  O   UNL     1     104.096 100.232 104.379  1.00  0.00    -0.504 OA
ATOM     19  H   UNL     1     103.534 100.633 105.120  1.00  0.00     0.293 HD
ENDBRANCH  14  18
BRANCH  16  20
ATOM     20  O   UNL     1     103.064 102.342 102.828  1.00  0.00    -0.502 OA
ATOM     21  H   UNL     1     102.387 101.689 102.453  1.00  0.00     0.293 HD
ENDBRANCH  16  20
BRANCH  17  22
ATOM     22  O   UNL     1     104.820 103.926 101.301  1.00  0.00    -0.504 OA
ATOM     23  H   UNL     1     105.363 104.344 100.556  1.00  0.00     0.293 HD
ENDBRANCH  17  22
ENDBRANCH   1  12
BRANCH   2  24
ATOM     24  O   UNL     1     109.121 103.417 103.883  1.00  0.00    -0.502 OA
ATOM     25  H   UNL     1     108.558 104.088 103.374  1.00  0.00     0.293 HD
ENDBRANCH   2  24
BRANCH   6  26
ATOM     26  O   UNL     1     113.833 101.185 102.794  1.00  0.00    -0.507 OA
ATOM     27  H   UNL     1     113.848 102.173 102.593  1.00  0.00     0.293 HD
ENDBRANCH   6  26
BRANCH   8  28
ATOM     28  O   UNL     1     112.384  96.880 101.233  1.00  0.00    -0.508 OA
ATOM     29  H   UNL     1     112.057  96.549 100.333  1.00  0.00     0.293 HD
ENDBRANCH   8  28
TORSDOF 7
ENDMDL
MODEL 6
REMARK VINA RESULT:    -4.571     12.943     15.125
REMARK INTER + INTRA:          -5.886
REMARK INTER:                  -5.655
REMARK INTRA:                  -0.230
REMARK UNBOUND:                -0.246
REMARK SMILES O=c1c(O)c(-c2cc(O)c(O)c(O)c2)oc2cc(O)cc(O)c12
REMARK SMILES IDX 5 1 3 2 2 3 1 4 23 5 21 6 20 7 18 8 17 9 16 10 15 11 6 12
REMARK SMILES IDX 7 13 8 14 14 15 10 16 12 17 9 18 11 20 13 22 4 24 22 26
REMARK SMILES IDX 19 28
REMARK H PARENT 9 19 11 21 13 23 4 25 22 27 19 29
REMARK Flexibility Score: inf
ROOT
ATOM      1  C   UNL     1     108.381 101.454 102.714  1.00  0.00     0.180 A 
ATOM      2  C   UNL     1     108.974 100.301 102.173  1.00  0.00     0.208 A 
ATOM      3  C   UNL     1     110.374 100.188 102.179  1.00  0.00     0.238 A 
ATOM      4  O   UNL     1     110.901  99.178 101.643  1.00  0.00    -0.285 OA
ATOM      5  C   UNL     1     111.162 101.220 102.742  1.00  0.00     0.111 A 
ATOM      6  C   UNL     1     112.585 101.193 102.840  1.00  0.00     0.134 A 
ATOM      7  C   UNL     1     113.269 102.326 103.296  1.00  0.00     0.093 A 
ATOM      8  C   UNL     1     112.576 103.462 103.722  1.00  0.00     0.123 A 
ATOM      9  C   UNL     1     111.184 103.477 103.687  1.00  0.00     0.094 A 
ATOM     10  C   UNL     1     110.475 102.375 103.201  1.00  0.00     0.146 A 
ATOM     11  O   UNL     1     109.149 102.434 103.175  1.00  0.00    -0.452 OA
ENDROOT
BRANCH   1  12
ATOM     12  C   UNL     1     106.912 101.635 102.766  1.00  0.00     0.029 A 
ATOM     13  C   UNL     1     106.101 100.805 103.559  1.00  0.00     0.062 A 
ATOM     14  C   UNL     1     104.715 101.006 103.613  1.00  0.00     0.162 A 
ATOM     15  C   UNL     1     106.321 102.690 102.056  1.00  0.00     0.062 A 
ATOM     16  C   UNL     1     104.128 102.051 102.880  1.00  0.00     0.200 A 
ATOM     17  C   UNL     1     104.939 102.897 102.103  1.00  0.00     0.162 A 
BRANCH  14  18
ATOM     18  O   UNL     1     103.919 100.173 104.398  1.00  0.00    -0.504 OA
ATOM     19  H   UNL     1     103.598  99.273 104.060  1.00  0.00     0.293 HD
ENDBRANCH  14  18
BRANCH  16  20
ATOM     20  O   UNL     1     102.750 102.262 102.919  1.00  0.00    -0.502 OA
ATOM     21  H   UNL     1     102.238 102.328 103.791  1.00  0.00     0.293 HD
ENDBRANCH  16  20
BRANCH  17  22
ATOM     22  O   UNL     1     104.388 103.948 101.370  1.00  0.00    -0.504 OA
ATOM     23  H   UNL     1     103.629 103.810 100.714  1.00  0.00     0.293 HD
ENDBRANCH  17  22
ENDBRANCH   1  12
BRANCH   2  24
ATOM     24  O   UNL     1     108.179  99.304 101.602  1.00  0.00    -0.502 OA
ATOM     25  H   UNL     1     108.547  98.397 101.340  1.00  0.00     0.293 HD
ENDBRANCH   2  24
BRANCH   6  26
ATOM     26  O   UNL     1     113.367 100.076 102.527  1.00  0.00    -0.507 OA
ATOM     27  H   UNL     1     114.357 100.000 102.702  1.00  0.00     0.293 HD
ENDBRANCH   6  26
BRANCH   8  28
ATOM     28  O   UNL     1     113.263 104.580 104.190  1.00  0.00    -0.508 OA
ATOM     29  H   UNL     1     114.096 104.922 103.726  1.00  0.00     0.293 HD
ENDBRANCH   8  28
TORSDOF 7
ENDMDL
MODEL 7
REMARK VINA RESULT:    -4.565      1.776      6.739
REMARK INTER + INTRA:          -5.878
REMARK INTER:                  -5.556
REMARK INTRA:                  -0.322
REMARK UNBOUND:                -0.246
REMARK SMILES O=c1c(O)c(-c2cc(O)c(O)c(O)c2)oc2cc(O)cc(O)c12
REMARK SMILES IDX 5 1 3 2 2 3 1 4 23 5 21 6 20 7 18 8 17 9 16 10 15 11 6 12
REMARK SMILES IDX 7 13 8 14 14 15 10 16 12 17 9 18 11 20 13 22 4 24 22 26
REMARK SMILES IDX 19 28
REMARK H PARENT 9 19 11 21 13 23 4 25 22 27 19 29
REMARK Flexibility Score: inf
ROOT
ATOM      1  C   UNL     1      98.954 108.709 109.024  1.00  0.00     0.180 A 
ATOM      2  C   UNL     1     100.355 108.808 109.005  1.00  0.00     0.208 A 
ATOM      3  C   UNL     1     100.951 109.928 108.403  1.00  0.00     0.238 A 
ATOM      4  O   UNL     1     102.208 109.984 108.341  1.00  0.00    -0.285 OA
ATOM      5  C   UNL     1     100.139 110.942 107.842  1.00  0.00     0.111 A 
ATOM      6  C   UNL     1     100.633 112.139 107.243  1.00  0.00     0.134 A 
ATOM      7  C   UNL     1      99.744 113.011 106.603  1.00  0.00     0.093 A 
ATOM      8  C   UNL     1      98.369 112.762 106.600  1.00  0.00     0.123 A 
ATOM      9  C   UNL     1      97.870 111.627 107.234  1.00  0.00     0.094 A 
ATOM     10  C   UNL     1      98.737 110.719 107.848  1.00  0.00     0.146 A 
ATOM     11  O   UNL     1      98.220 109.644 108.431  1.00  0.00    -0.452 OA
ENDROOT
BRANCH   1  12
ATOM     12  C   UNL     1      98.252 107.571 109.662  1.00  0.00     0.029 A 
ATOM     13  C   UNL     1      98.142 106.326 109.018  1.00  0.00     0.062 A 
ATOM     14  C   UNL     1      97.495 105.255 109.646  1.00  0.00     0.162 A 
ATOM     15  C   UNL     1      97.736 107.718 110.957  1.00  0.00     0.062 A 
ATOM     16  C   UNL     1      96.959 105.417 110.936  1.00  0.00     0.200 A 
ATOM     17  C   UNL     1      97.086 106.654 111.591  1.00  0.00     0.162 A 
BRANCH  14  18
ATOM     18  O   UNL     1      97.386 104.027 108.996  1.00  0.00    -0.504 OA
ATOM     19  H   UNL     1      96.579 103.795 108.428  1.00  0.00     0.293 HD
ENDBRANCH  14  18
BRANCH  16  20
ATOM     20  O   UNL     1      96.307 104.362 111.574  1.00  0.00    -0.502 OA
ATOM     21  H   UNL     1      95.555 104.513 112.235  1.00  0.00     0.293 HD
ENDBRANCH  16  20
BRANCH  17  22
ATOM     22  O   UNL     1      96.573 106.844 112.874  1.00  0.00    -0.504 OA
ATOM     23  H   UNL     1      95.666 106.488 113.151  1.00  0.00     0.293 HD
ENDBRANCH  17  22
ENDBRANCH   1  12
BRANCH   2  24
ATOM     24  O   UNL     1     101.139 107.784 109.545  1.00  0.00    -0.502 OA
ATOM     25  H   UNL     1     101.112 107.538 110.527  1.00  0.00     0.293 HD
ENDBRANCH   2  24
BRANCH   6  26
ATOM     26  O   UNL     1     101.977 112.528 107.271  1.00  0.00    -0.507 OA
ATOM     27  H   UNL     1     102.736 111.949 107.597  1.00  0.00     0.293 HD
ENDBRANCH   6  26
BRANCH   8  28
ATOM     28  O   UNL     1      97.489 113.643 105.975  1.00  0.00    -0.508 OA
ATOM     29  H   UNL     1      97.382 114.599 106.293  1.00  0.00     0.293 HD
ENDBRANCH   8  28
TORSDOF 7
ENDMDL
MODEL 8
REMARK VINA RESULT:    -4.535     12.890     15.030
REMARK INTER + INTRA:          -5.841
REMARK INTER:                  -5.666
REMARK INTRA:                  -0.175
REMARK UNBOUND:                -0.246
REMARK SMILES O=c1c(O)c(-c2cc(O)c(O)c(O)c2)oc2cc(O)cc(O)c12
REMARK SMILES IDX 5 1 3 2 2 3 1 4 23 5 21 6 20 7 18 8 17 9 16 10 15 11 6 12
REMARK SMILES IDX 7 13 8 14 14 15 10 16 12 17 9 18 11 20 13 22 4 24 22 26
REMARK SMILES IDX 19 28
REMARK H PARENT 9 19 11 21 13 23 4 25 22 27 19 29
REMARK Flexibility Score: inf
ROOT
ATOM      1  C   UNL     1     108.342 101.538 102.749  1.00  0.00     0.180 A 
ATOM      2  C   UNL     1     108.916 100.368 102.224  1.00  0.00     0.208 A 
ATOM      3  C   UNL     1     110.314 100.230 102.236  1.00  0.00     0.238 A 
ATOM      4  O   UNL     1     110.824  99.204 101.714  1.00  0.00    -0.285 OA
ATOM      5  C   UNL     1     111.118 101.256 102.787  1.00  0.00     0.111 A 
ATOM      6  C   UNL     1     112.540 101.204 102.889  1.00  0.00     0.134 A 
ATOM      7  C   UNL     1     113.243 102.331 103.332  1.00  0.00     0.093 A 
ATOM      8  C   UNL     1     112.569 103.485 103.742  1.00  0.00     0.123 A 
ATOM      9  C   UNL     1     111.178 103.523 103.704  1.00  0.00     0.094 A 
ATOM     10  C   UNL     1     110.451 102.428 103.230  1.00  0.00     0.146 A 
ATOM     11  O   UNL     1     109.126 102.510 103.200  1.00  0.00    -0.452 OA
ENDROOT
BRANCH   1  12
ATOM     12  C   UNL     1     106.876 101.746 102.795  1.00  0.00     0.029 A 
ATOM     13  C   UNL     1     106.259 102.763 102.046  1.00  0.00     0.062 A 
ATOM     14  C   UNL     1     104.868 102.929 102.084  1.00  0.00     0.162 A 
ATOM     15  C   UNL     1     106.079 100.877 103.554  1.00  0.00     0.062 A 
ATOM     16  C   UNL     1     104.079 102.069 102.865  1.00  0.00     0.200 A 
ATOM     17  C   UNL     1     104.691 101.037 103.599  1.00  0.00     0.162 A 
BRANCH  14  18
ATOM     18  O   UNL     1     104.267 103.945 101.342  1.00  0.00    -0.504 OA
ATOM     19  H   UNL     1     103.452 104.442 101.684  1.00  0.00     0.293 HD
ENDBRANCH  14  18
BRANCH  16  20
ATOM     20  O   UNL     1     102.694 102.224 102.918  1.00  0.00    -0.502 OA
ATOM     21  H   UNL     1     102.250 102.911 103.515  1.00  0.00     0.293 HD
ENDBRANCH  16  20
BRANCH  17  22
ATOM     22  O   UNL     1     103.934 100.161 104.378  1.00  0.00    -0.504 OA
ATOM     23  H   UNL     1     103.971 100.170 105.390  1.00  0.00     0.293 HD
ENDBRANCH  17  22
ENDBRANCH   1  12
BRANCH   2  24
ATOM     24  O   UNL     1     108.104  99.378 101.664  1.00  0.00    -0.502 OA
ATOM     25  H   UNL     1     108.479  98.513 101.292  1.00  0.00     0.293 HD
ENDBRANCH   2  24
BRANCH   6  26
ATOM     26  O   UNL     1     113.303 100.070 102.593  1.00  0.00    -0.507 OA
ATOM     27  H   UNL     1     113.641  99.410 103.277  1.00  0.00     0.293 HD
ENDBRANCH   6  26
BRANCH   8  28
ATOM     28  O   UNL     1     113.275 104.596 104.198  1.00  0.00    -0.508 OA
ATOM     29  H   UNL     1     113.359 104.802 105.186  1.00  0.00     0.293 HD
ENDBRANCH   8  28
TORSDOF 7
ENDMDL
MODEL 9
REMARK VINA RESULT:    -4.526      3.768      5.223
REMARK INTER + INTRA:          -5.830
REMARK INTER:                  -5.482
REMARK INTRA:                  -0.349
REMARK UNBOUND:                -0.246
REMARK SMILES O=c1c(O)c(-c2cc(O)c(O)c(O)c2)oc2cc(O)cc(O)c12
REMARK SMILES IDX 5 1 3 2 2 3 1 4 23 5 21 6 20 7 18 8 17 9 16 10 15 11 6 12
REMARK SMILES IDX 7 13 8 14 14 15 10 16 12 17 9 18 11 20 13 22 4 24 22 26
REMARK SMILES IDX 19 28
REMARK H PARENT 9 19 11 21 13 23 4 25 22 27 19 29
REMARK Flexibility Score: inf
ROOT
ATOM      1  C   UNL     1     102.123 111.394 108.345  1.00  0.00     0.180 A 
ATOM      2  C   UNL     1     103.162 112.203 108.836  1.00  0.00     0.208 A 
ATOM      3  C   UNL     1     104.311 111.591 109.363  1.00  0.00     0.238 A 
ATOM      4  O   UNL     1     105.214 112.320 109.851  1.00  0.00    -0.285 OA
ATOM      5  C   UNL     1     104.414 110.179 109.377  1.00  0.00     0.111 A 
ATOM      6  C   UNL     1     105.548 109.453 109.849  1.00  0.00     0.134 A 
ATOM      7  C   UNL     1     105.488 108.058 109.939  1.00  0.00     0.093 A 
ATOM      8  C   UNL     1     104.358 107.357 109.509  1.00  0.00     0.123 A 
ATOM      9  C   UNL     1     103.269 108.052 108.990  1.00  0.00     0.094 A 
ATOM     10  C   UNL     1     103.285 109.448 108.924  1.00  0.00     0.146 A 
ATOM     11  O   UNL     1     102.221 110.072 108.433  1.00  0.00    -0.452 OA
ENDROOT
BRANCH   1  12
ATOM     12  C   UNL     1     100.892 111.965 107.752  1.00  0.00     0.029 A 
ATOM     13  C   UNL     1      99.738 112.176 108.526  1.00  0.00     0.062 A 
ATOM     14  C   UNL     1      98.590 112.739 107.953  1.00  0.00     0.162 A 
ATOM     15  C   UNL     1     100.893 112.357 106.406  1.00  0.00     0.062 A 
ATOM     16  C   UNL     1      98.591 113.107 106.597  1.00  0.00     0.200 A 
ATOM     17  C   UNL     1      99.750 112.917 105.825  1.00  0.00     0.162 A 
BRANCH  14  18
ATOM     18  O   UNL     1      97.449 112.938 108.728  1.00  0.00    -0.504 OA
ATOM     19  H   UNL     1      97.414 113.649 109.449  1.00  0.00     0.293 HD
ENDBRANCH  14  18
BRANCH  16  20
ATOM     20  O   UNL     1      97.455 113.664 106.009  1.00  0.00    -0.502 OA
ATOM     21  H   UNL     1      97.311 114.665 105.955  1.00  0.00     0.293 HD
ENDBRANCH  16  20
BRANCH  17  22
ATOM     22  O   UNL     1      99.786 113.281 104.479  1.00  0.00    -0.504 OA
ATOM     23  H   UNL     1     100.246 112.712 103.778  1.00  0.00     0.293 HD
ENDBRANCH  17  22
ENDBRANCH   1  12
BRANCH   2  24
ATOM     24  O   UNL     1     103.031 113.594 108.832  1.00  0.00    -0.502 OA
ATOM     25  H   UNL     1     102.129 114.055 108.845  1.00  0.00     0.293 HD
ENDBRANCH   2  24
BRANCH   6  26
ATOM     26  O   UNL     1     106.759 110.051 110.217  1.00  0.00    -0.507 OA
ATOM     27  H   UNL     1     107.389 109.690 110.916  1.00  0.00     0.293 HD
ENDBRANCH   6  26
BRANCH   8  28
ATOM     28  O   UNL     1     104.312 105.966 109.585  1.00  0.00    -0.508 OA
ATOM     29  H   UNL     1     104.805 105.459 110.311  1.00  0.00     0.293 HD
ENDBRANCH   8  28
TORSDOF 7
ENDMDL
