MODEL 1
REMARK VINA RESULT:    -3.613      0.000      0.000
REMARK INTER + INTRA:         -15.368
REMARK INTER:                  -9.528
REMARK INTRA:                  -5.840
REMARK UNBOUND:                -5.840
REMARK SMILES CCCCCCCCCCCCCCCCCCCCCCCCCCCCCC(=O)[O-]
REMARK SMILES IDX 16 1 17 2 18 3 19 4 20 5 21 6 22 7 23 8 24 9 25 10 26 11
REMARK SMILES IDX 27 12 28 13 29 14 30 15 31 16 32 17 15 18 14 19 13 20 12 21
REMARK SMILES IDX 11 22 10 23 9 24 8 25 7 26 6 27 5 28 4 29 3 30 2 31 1 32
REMARK H PARENT
REMARK Flexibility Score: inf
ROOT
ATOM      1  C   UNL     1       9.359  29.648   7.322  1.00  0.00     0.000 C 
ENDROOT
BRANCH   1   2
ATOM      2  C   UNL     1       9.423  29.574   8.859  1.00  0.00     0.000 C 
BRANCH   2   3
ATOM      3  C   UNL     1       8.127  30.077   9.521  1.00  0.00     0.000 C 
BRANCH   3   4
ATOM      4  C   UNL     1       7.116  28.944   9.775  1.00  0.00     0.000 C 
BRANCH   4   5
ATOM      5  C   UNL     1       5.685  29.317   9.329  1.00  0.00     0.000 C 
BRANCH   5   6
ATOM      6  C   UNL     1       5.517  30.807   8.970  1.00  0.00     0.000 C 
BRANCH   6   7
ATOM      7  C   UNL     1       4.493  31.093   7.858  1.00  0.00     0.000 C 
BRANCH   7   8
ATOM      8  C   UNL     1       4.921  30.655   6.442  1.00  0.00     0.000 C 
BRANCH   8   9
ATOM      9  C   UNL     1       6.323  31.118   6.003  1.00  0.00     0.000 C 
BRANCH   9  10
ATOM     10  C   UNL     1       6.787  30.462   4.693  1.00  0.00     0.000 C 
BRANCH  10  11
ATOM     11  C   UNL     1       7.921  31.241   4.003  1.00  0.00     0.000 C 
BRANCH  11  12
ATOM     12  C   UNL     1       8.964  30.338   3.310  1.00  0.00     0.000 C 
BRANCH  12  13
ATOM     13  C   UNL     1       8.578  28.850   3.383  1.00  0.00     0.006 C 
BRANCH  13  14
ATOM     14  C   UNL     1       8.280  28.260   1.999  1.00  0.00     0.053 C 
BRANCH  14  15
ATOM     15  C   UNL     1       9.392  27.378   1.517  1.00  0.00     0.041 C 
ATOM     16  O   UNL     1      10.372  27.876   0.905  1.00  0.00    -0.550 OA
ATOM     17  O   UNL     1       9.330  26.004   1.718  1.00  0.00    -0.550 OA
ENDBRANCH  14  15
ENDBRANCH  13  14
ENDBRANCH  12  13
ENDBRANCH  11  12
ENDBRANCH  10  11
ENDBRANCH   9  10
ENDBRANCH   8   9
ENDBRANCH   7   8
ENDBRANCH   6   7
ENDBRANCH   5   6
ENDBRANCH   4   5
ENDBRANCH   3   4
ENDBRANCH   2   3
ENDBRANCH   1   2
BRANCH   1  18
ATOM     18  C   UNL     1      10.549  30.412   6.717  1.00  0.00     0.000 C 
BRANCH  18  19
ATOM     19  C   UNL     1      10.206  31.874   6.379  1.00  0.00     0.000 C 
BRANCH  19  20
ATOM     20  C   UNL     1      10.948  32.871   7.296  1.00  0.00     0.000 C 
BRANCH  20  21
ATOM     21  C   UNL     1      10.034  33.945   7.911  1.00  0.00     0.000 C 
BRANCH  21  22
ATOM     22  C   UNL     1       8.541  33.637   7.714  1.00  0.00     0.000 C 
BRANCH  22  23
ATOM     23  C   UNL     1       7.740  33.661   9.031  1.00  0.00     0.000 C 
BRANCH  23  24
ATOM     24  C   UNL     1       6.456  34.512   9.012  1.00  0.00    -0.000 C 
BRANCH  24  25
ATOM     25  C   UNL     1       5.974  34.844   7.589  1.00  0.00    -0.000 C 
BRANCH  25  26
ATOM     26  C   UNL     1       4.467  34.602   7.402  1.00  0.00    -0.000 C 
BRANCH  26  27
ATOM     27  C   UNL     1       4.084  34.345   5.934  1.00  0.00    -0.000 C 
BRANCH  27  28
ATOM     28  C   UNL     1       5.259  34.580   4.969  1.00  0.00    -0.000 C 
BRANCH  28  29
ATOM     29  C   UNL     1       5.157  33.720   3.697  1.00  0.00    -0.000 C 
BRANCH  29  30
ATOM     30  C   UNL     1       5.819  34.388   2.480  1.00  0.00    -0.000 C 
BRANCH  30  31
ATOM     31  C   UNL     1       6.331  33.370   1.449  1.00  0.00    -0.003 C 
ATOM     32  C   UNL     1       5.422  32.145   1.390  1.00  0.00     0.004 C 
ENDBRANCH  30  31
ENDBRANCH  29  30
ENDBRANCH  28  29
ENDBRANCH  27  28
ENDBRANCH  26  27
ENDBRANCH  25  26
ENDBRANCH  24  25
ENDBRANCH  23  24
ENDBRANCH  22  23
ENDBRANCH  21  22
ENDBRANCH  20  21
ENDBRANCH  19  20
ENDBRANCH  18  19
ENDBRANCH   1  18
TORSDOF 28
ENDMDL
MODEL 2
REMARK VINA RESULT:    -3.575      1.467      5.246
REMARK INTER + INTRA:         -15.266
REMARK INTER:                  -9.481
REMARK INTRA:                  -5.785
REMARK UNBOUND:                -5.840
REMARK SMILES CCCCCCCCCCCCCCCCCCCCCCCCCCCCCC(=O)[O-]
REMARK SMILES IDX 16 1 17 2 18 3 19 4 20 5 21 6 22 7 23 8 24 9 25 10 26 11
REMARK SMILES IDX 27 12 28 13 29 14 30 15 31 16 32 17 15 18 14 19 13 20 12 21
REMARK SMILES IDX 11 22 10 23 9 24 8 25 7 26 6 27 5 28 4 29 3 30 2 31 1 32
REMARK H PARENT
REMARK Flexibility Score: inf
ROOT
ATOM      1  C   UNL     1       5.765  32.943   8.459  1.00  0.00     0.000 C 
ENDROOT
BRANCH   1   2
ATOM      2  C   UNL     1       7.139  32.716   7.803  1.00  0.00     0.000 C 
BRANCH   2   3
ATOM      3  C   UNL     1       7.966  34.011   7.716  1.00  0.00     0.000 C 
BRANCH   3   4
ATOM      4  C   UNL     1       9.195  33.990   8.643  1.00  0.00     0.000 C 
BRANCH   4   5
ATOM      5  C   UNL     1      10.515  34.244   7.881  1.00  0.00     0.000 C 
BRANCH   5   6
ATOM      6  C   UNL     1      11.446  33.016   7.830  1.00  0.00     0.000 C 
BRANCH   6   7
ATOM      7  C   UNL     1      10.735  31.660   7.978  1.00  0.00     0.000 C 
BRANCH   7   8
ATOM      8  C   UNL     1      10.532  30.878   6.663  1.00  0.00     0.000 C 
BRANCH   8   9
ATOM      9  C   UNL     1      10.116  31.727   5.447  1.00  0.00     0.000 C 
BRANCH   9  10
ATOM     10  C   UNL     1       8.791  31.265   4.820  1.00  0.00     0.000 C 
BRANCH  10  11
ATOM     11  C   UNL     1       8.980  30.601   3.445  1.00  0.00     0.000 C 
BRANCH  11  12
ATOM     12  C   UNL     1       8.887  29.061   3.480  1.00  0.00     0.000 C 
BRANCH  12  13
ATOM     13  C   UNL     1       8.768  28.456   2.071  1.00  0.00     0.006 C 
BRANCH  13  14
ATOM     14  C   UNL     1       8.671  26.926   2.102  1.00  0.00     0.053 C 
BRANCH  14  15
ATOM     15  C   UNL     1       9.621  26.287   1.134  1.00  0.00     0.041 C 
ATOM     16  O   UNL     1      10.337  25.318   1.499  1.00  0.00    -0.550 OA
ATOM     17  O   UNL     1       9.739  26.782  -0.160  1.00  0.00    -0.550 OA
ENDBRANCH  14  15
ENDBRANCH  13  14
ENDBRANCH  12  13
ENDBRANCH  11  12
ENDBRANCH  10  11
ENDBRANCH   9  10
ENDBRANCH   8   9
ENDBRANCH   7   8
ENDBRANCH   6   7
ENDBRANCH   5   6
ENDBRANCH   4   5
ENDBRANCH   3   4
ENDBRANCH   2   3
ENDBRANCH   1   2
BRANCH   1  18
ATOM     18  C   UNL     1       5.220  34.360   8.216  1.00  0.00     0.000 C 
BRANCH  18  19
ATOM     19  C   UNL     1       3.785  34.358   7.660  1.00  0.00     0.000 C 
BRANCH  19  20
ATOM     20  C   UNL     1       3.740  33.953   6.170  1.00  0.00     0.000 C 
BRANCH  20  21
ATOM     21  C   UNL     1       4.521  34.902   5.246  1.00  0.00     0.000 C 
BRANCH  21  22
ATOM     22  C   UNL     1       5.652  34.191   4.485  1.00  0.00     0.000 C 
BRANCH  22  23
ATOM     23  C   UNL     1       5.517  34.307   2.954  1.00  0.00     0.000 C 
BRANCH  23  24
ATOM     24  C   UNL     1       6.162  33.168   2.143  1.00  0.00    -0.000 C 
BRANCH  24  25
ATOM     25  C   UNL     1       5.173  32.045   1.789  1.00  0.00    -0.000 C 
BRANCH  25  26
ATOM     26  C   UNL     1       5.817  30.649   1.841  1.00  0.00    -0.000 C 
BRANCH  26  27
ATOM     27  C   UNL     1       5.298  29.798   3.013  1.00  0.00    -0.000 C 
BRANCH  27  28
ATOM     28  C   UNL     1       4.563  30.639   4.071  1.00  0.00    -0.000 C 
BRANCH  28  29
ATOM     29  C   UNL     1       5.223  30.546   5.459  1.00  0.00    -0.000 C 
BRANCH  29  30
ATOM     30  C   UNL     1       5.889  29.182   5.704  1.00  0.00    -0.000 C 
BRANCH  30  31
ATOM     31  C   UNL     1       6.745  29.159   6.979  1.00  0.00    -0.003 C 
ATOM     32  C   UNL     1       7.857  28.118   6.874  1.00  0.00     0.004 C 
ENDBRANCH  30  31
ENDBRANCH  29  30
ENDBRANCH  28  29
ENDBRANCH  27  28
ENDBRANCH  26  27
ENDBRANCH  25  26
ENDBRANCH  24  25
ENDBRANCH  23  24
ENDBRANCH  22  23
ENDBRANCH  21  22
ENDBRANCH  20  21
ENDBRANCH  19  20
ENDBRANCH  18  19
ENDBRANCH   1  18
TORSDOF 28
ENDMDL
MODEL 3
REMARK VINA RESULT:    -3.574      2.336      4.840
REMARK INTER + INTRA:         -15.264
REMARK INTER:                  -9.265
REMARK INTRA:                  -5.999
REMARK UNBOUND:                -5.840
REMARK SMILES CCCCCCCCCCCCCCCCCCCCCCCCCCCCCC(=O)[O-]
REMARK SMILES IDX 16 1 17 2 18 3 19 4 20 5 21 6 22 7 23 8 24 9 25 10 26 11
REMARK SMILES IDX 27 12 28 13 29 14 30 15 31 16 32 17 15 18 14 19 13 20 12 21
REMARK SMILES IDX 11 22 10 23 9 24 8 25 7 26 6 27 5 28 4 29 3 30 2 31 1 32
REMARK H PARENT
REMARK Flexibility Score: inf
ROOT
ATOM      1  C   UNL     1       9.633  32.480   6.977  1.00  0.00     0.000 C 
ENDROOT
BRANCH   1   2
ATOM      2  C   UNL     1      10.312  31.413   6.100  1.00  0.00     0.000 C 
BRANCH   2   3
ATOM      3  C   UNL     1      10.168  29.997   6.687  1.00  0.00     0.000 C 
BRANCH   3   4
ATOM      4  C   UNL     1       8.939  29.251   6.134  1.00  0.00     0.000 C 
BRANCH   4   5
ATOM      5  C   UNL     1       7.998  28.752   7.253  1.00  0.00     0.000 C 
BRANCH   5   6
ATOM      6  C   UNL     1       6.680  29.545   7.353  1.00  0.00     0.000 C 
BRANCH   6   7
ATOM      7  C   UNL     1       6.238  30.231   6.048  1.00  0.00     0.000 C 
BRANCH   7   8
ATOM      8  C   UNL     1       6.093  31.766   6.130  1.00  0.00     0.000 C 
BRANCH   8   9
ATOM      9  C   UNL     1       4.727  32.275   6.626  1.00  0.00     0.000 C 
BRANCH   9  10
ATOM     10  C   UNL     1       4.046  33.227   5.629  1.00  0.00     0.000 C 
BRANCH  10  11
ATOM     11  C   UNL     1       4.794  34.563   5.473  1.00  0.00     0.000 C 
BRANCH  11  12
ATOM     12  C   UNL     1       4.756  35.132   4.038  1.00  0.00     0.000 C 
BRANCH  12  13
ATOM     13  C   UNL     1       4.584  34.026   2.983  1.00  0.00     0.006 C 
BRANCH  13  14
ATOM     14  C   UNL     1       5.928  33.439   2.534  1.00  0.00     0.053 C 
BRANCH  14  15
ATOM     15  C   UNL     1       5.951  31.945   2.648  1.00  0.00     0.041 C 
ATOM     16  O   UNL     1       4.871  31.299   2.689  1.00  0.00    -0.550 OA
ATOM     17  O   UNL     1       7.162  31.269   2.740  1.00  0.00    -0.550 OA
ENDBRANCH  14  15
ENDBRANCH  13  14
ENDBRANCH  12  13
ENDBRANCH  11  12
ENDBRANCH  10  11
ENDBRANCH   9  10
ENDBRANCH   8   9
ENDBRANCH   7   8
ENDBRANCH   6   7
ENDBRANCH   5   6
ENDBRANCH   4   5
ENDBRANCH   3   4
ENDBRANCH   2   3
ENDBRANCH   1   2
BRANCH   1  18
ATOM     18  C   UNL     1      10.507  33.731   7.170  1.00  0.00     0.000 C 
BRANCH  18  19
ATOM     19  C   UNL     1      11.031  33.875   8.610  1.00  0.00     0.000 C 
BRANCH  19  20
ATOM     20  C   UNL     1      12.282  33.005   8.861  1.00  0.00     0.000 C 
BRANCH  20  21
ATOM     21  C   UNL     1      12.168  32.096  10.096  1.00  0.00     0.000 C 
BRANCH  21  22
ATOM     22  C   UNL     1      10.749  32.076  10.689  1.00  0.00     0.000 C 
BRANCH  22  23
ATOM     23  C   UNL     1       9.966  30.795  10.340  1.00  0.00     0.000 C 
BRANCH  23  24
ATOM     24  C   UNL     1       8.437  30.956  10.246  1.00  0.00    -0.000 C 
BRANCH  24  25
ATOM     25  C   UNL     1       7.967  32.400  10.490  1.00  0.00    -0.000 C 
BRANCH  25  26
ATOM     26  C   UNL     1       6.892  32.851   9.487  1.00  0.00    -0.000 C 
BRANCH  26  27
ATOM     27  C   UNL     1       7.201  34.222   8.860  1.00  0.00    -0.000 C 
BRANCH  27  28
ATOM     28  C   UNL     1       5.961  35.130   8.789  1.00  0.00    -0.000 C 
BRANCH  28  29
ATOM     29  C   UNL     1       5.303  35.335  10.165  1.00  0.00    -0.000 C 
BRANCH  29  30
ATOM     30  C   UNL     1       3.793  35.608  10.059  1.00  0.00    -0.000 C 
BRANCH  30  31
ATOM     31  C   UNL     1       3.116  34.785   8.953  1.00  0.00    -0.003 C 
ATOM     32  C   UNL     1       2.711  33.405   9.466  1.00  0.00     0.004 C 
ENDBRANCH  30  31
ENDBRANCH  29  30
ENDBRANCH  28  29
ENDBRANCH  27  28
ENDBRANCH  26  27
ENDBRANCH  25  26
ENDBRANCH  24  25
ENDBRANCH  23  24
ENDBRANCH  22  23
ENDBRANCH  21  22
ENDBRANCH  20  21
ENDBRANCH  19  20
ENDBRANCH  18  19
ENDBRANCH   1  18
TORSDOF 28
ENDMDL
MODEL 4
REMARK VINA RESULT:    -3.560      2.073      5.494
REMARK INTER + INTRA:         -15.229
REMARK INTER:                  -8.887
REMARK INTRA:                  -6.342
REMARK UNBOUND:                -5.840
REMARK SMILES CCCCCCCCCCCCCCCCCCCCCCCCCCCCCC(=O)[O-]
REMARK SMILES IDX 16 1 17 2 18 3 19 4 20 5 21 6 22 7 23 8 24 9 25 10 26 11
REMARK SMILES IDX 27 12 28 13 29 14 30 15 31 16 32 17 15 18 14 19 13 20 12 21
REMARK SMILES IDX 11 22 10 23 9 24 8 25 7 26 6 27 5 28 4 29 3 30 2 31 1 32
REMARK H PARENT
REMARK Flexibility Score: inf
ROOT
ATOM      1  C   UNL     1       3.547  34.554   8.529  1.00  0.00     0.000 C 
ENDROOT
BRANCH   1   2
ATOM      2  C   UNL     1       3.462  33.067   8.137  1.00  0.00     0.000 C 
BRANCH   2   3
ATOM      3  C   UNL     1       3.472  32.864   6.612  1.00  0.00     0.000 C 
BRANCH   3   4
ATOM      4  C   UNL     1       2.479  33.792   5.887  1.00  0.00     0.000 C 
BRANCH   4   5
ATOM      5  C   UNL     1       3.051  34.352   4.565  1.00  0.00     0.000 C 
BRANCH   5   6
ATOM      6  C   UNL     1       4.319  35.208   4.753  1.00  0.00     0.000 C 
BRANCH   6   7
ATOM      7  C   UNL     1       5.563  34.693   4.009  1.00  0.00     0.000 C 
BRANCH   7   8
ATOM      8  C   UNL     1       5.280  33.994   2.662  1.00  0.00     0.000 C 
BRANCH   8   9
ATOM      9  C   UNL     1       5.601  32.488   2.620  1.00  0.00     0.000 C 
BRANCH   9  10
ATOM     10  C   UNL     1       6.548  32.047   3.748  1.00  0.00     0.000 C 
BRANCH  10  11
ATOM     11  C   UNL     1       5.912  31.010   4.690  1.00  0.00     0.000 C 
BRANCH  11  12
ATOM     12  C   UNL     1       4.629  30.363   4.126  1.00  0.00     0.000 C 
BRANCH  12  13
ATOM     13  C   UNL     1       4.781  28.842   3.945  1.00  0.00     0.006 C 
BRANCH  13  14
ATOM     14  C   UNL     1       5.936  28.482   3.004  1.00  0.00     0.053 C 
BRANCH  14  15
ATOM     15  C   UNL     1       5.536  28.589   1.563  1.00  0.00     0.041 C 
ATOM     16  O   UNL     1       6.205  29.307   0.774  1.00  0.00    -0.550 OA
ATOM     17  O   UNL     1       4.409  27.921   1.100  1.00  0.00    -0.550 OA
ENDBRANCH  14  15
ENDBRANCH  13  14
ENDBRANCH  12  13
ENDBRANCH  11  12
ENDBRANCH  10  11
ENDBRANCH   9  10
ENDBRANCH   8   9
ENDBRANCH   7   8
ENDBRANCH   6   7
ENDBRANCH   5   6
ENDBRANCH   4   5
ENDBRANCH   3   4
ENDBRANCH   2   3
ENDBRANCH   1   2
BRANCH   1  18
ATOM     18  C   UNL     1       4.920  34.936   9.107  1.00  0.00     0.000 C 
BRANCH  18  19
ATOM     19  C   UNL     1       5.988  35.141   8.018  1.00  0.00     0.000 C 
BRANCH  19  20
ATOM     20  C   UNL     1       7.232  34.255   8.252  1.00  0.00     0.000 C 
BRANCH  20  21
ATOM     21  C   UNL     1       7.235  32.961   7.422  1.00  0.00     0.000 C 
BRANCH  21  22
ATOM     22  C   UNL     1       6.958  31.710   8.272  1.00  0.00     0.000 C 
BRANCH  22  23
ATOM     23  C   UNL     1       7.404  31.866   9.739  1.00  0.00     0.000 C 
BRANCH  23  24
ATOM     24  C   UNL     1       8.821  31.355  10.061  1.00  0.00    -0.000 C 
BRANCH  24  25
ATOM     25  C   UNL     1       9.784  32.477  10.482  1.00  0.00    -0.000 C 
BRANCH  25  26
ATOM     26  C   UNL     1      10.995  32.604   9.542  1.00  0.00    -0.000 C 
BRANCH  26  27
ATOM     27  C   UNL     1      10.949  33.878   8.681  1.00  0.00    -0.000 C 
BRANCH  27  28
ATOM     28  C   UNL     1      10.751  33.572   7.186  1.00  0.00    -0.000 C 
BRANCH  28  29
ATOM     29  C   UNL     1      10.814  32.065   6.881  1.00  0.00    -0.000 C 
BRANCH  29  30
ATOM     30  C   UNL     1      10.058  31.692   5.595  1.00  0.00    -0.000 C 
BRANCH  30  31
ATOM     31  C   UNL     1       9.432  30.290   5.658  1.00  0.00    -0.003 C 
ATOM     32  C   UNL     1       9.741  29.612   6.991  1.00  0.00     0.004 C 
ENDBRANCH  30  31
ENDBRANCH  29  30
ENDBRANCH  28  29
ENDBRANCH  27  28
ENDBRANCH  26  27
ENDBRANCH  25  26
ENDBRANCH  24  25
ENDBRANCH  23  24
ENDBRANCH  22  23
ENDBRANCH  21  22
ENDBRANCH  20  21
ENDBRANCH  19  20
ENDBRANCH  18  19
ENDBRANCH   1  18
TORSDOF 28
ENDMDL
MODEL 5
REMARK VINA RESULT:    -3.559      1.466      2.481
REMARK INTER + INTRA:         -15.225
REMARK INTER:                  -9.175
REMARK INTRA:                  -6.049
REMARK UNBOUND:                -5.840
REMARK SMILES CCCCCCCCCCCCCCCCCCCCCCCCCCCCCC(=O)[O-]
REMARK SMILES IDX 16 1 17 2 18 3 19 4 20 5 21 6 22 7 23 8 24 9 25 10 26 11
REMARK SMILES IDX 27 12 28 13 29 14 30 15 31 16 32 17 15 18 14 19 13 20 12 21
REMARK SMILES IDX 11 22 10 23 9 24 8 25 7 26 6 27 5 28 4 29 3 30 2 31 1 32
REMARK H PARENT
REMARK Flexibility Score: inf
ROOT
ATOM      1  C   UNL     1      10.850  31.989   6.681  1.00  0.00     0.000 C 
ENDROOT
BRANCH   1   2
ATOM      2  C   UNL     1       9.829  31.417   5.680  1.00  0.00     0.000 C 
BRANCH   2   3
ATOM      3  C   UNL     1       9.535  29.928   5.933  1.00  0.00     0.000 C 
BRANCH   3   4
ATOM      4  C   UNL     1       9.366  29.605   7.430  1.00  0.00     0.000 C 
BRANCH   4   5
ATOM      5  C   UNL     1       8.234  28.587   7.691  1.00  0.00     0.000 C 
BRANCH   5   6
ATOM      6  C   UNL     1       7.689  27.925   6.409  1.00  0.00     0.000 C 
BRANCH   6   7
ATOM      7  C   UNL     1       6.160  27.989   6.249  1.00  0.00     0.000 C 
BRANCH   7   8
ATOM      8  C   UNL     1       5.460  29.093   7.070  1.00  0.00     0.000 C 
BRANCH   8   9
ATOM      9  C   UNL     1       5.157  30.394   6.304  1.00  0.00     0.000 C 
BRANCH   9  10
ATOM     10  C   UNL     1       5.436  30.279   4.797  1.00  0.00     0.000 C 
BRANCH  10  11
ATOM     11  C   UNL     1       6.464  31.311   4.300  1.00  0.00     0.000 C 
BRANCH  11  12
ATOM     12  C   UNL     1       7.226  30.867   3.033  1.00  0.00     0.000 C 
BRANCH  12  13
ATOM     13  C   UNL     1       7.503  29.354   3.025  1.00  0.00     0.006 C 
BRANCH  13  14
ATOM     14  C   UNL     1       7.170  28.710   1.674  1.00  0.00     0.053 C 
BRANCH  14  15
ATOM     15  C   UNL     1       8.277  27.821   1.192  1.00  0.00     0.041 C 
ATOM     16  O   UNL     1       8.008  26.762   0.567  1.00  0.00    -0.550 OA
ATOM     17  O   UNL     1       9.601  28.146   1.460  1.00  0.00    -0.550 OA
ENDBRANCH  14  15
ENDBRANCH  13  14
ENDBRANCH  12  13
ENDBRANCH  11  12
ENDBRANCH  10  11
ENDBRANCH   9  10
ENDBRANCH   8   9
ENDBRANCH   7   8
ENDBRANCH   6   7
ENDBRANCH   5   6
ENDBRANCH   4   5
ENDBRANCH   3   4
ENDBRANCH   2   3
ENDBRANCH   1   2
BRANCH   1  18
ATOM     18  C   UNL     1      10.574  33.461   7.032  1.00  0.00     0.000 C 
BRANCH  18  19
ATOM     19  C   UNL     1      11.092  33.847   8.429  1.00  0.00     0.000 C 
BRANCH  19  20
ATOM     20  C   UNL     1      11.303  32.611   9.332  1.00  0.00     0.000 C 
BRANCH  20  21
ATOM     21  C   UNL     1      10.334  32.543  10.524  1.00  0.00     0.000 C 
BRANCH  21  22
ATOM     22  C   UNL     1       9.018  31.826  10.179  1.00  0.00     0.000 C 
BRANCH  22  23
ATOM     23  C   UNL     1       7.908  32.790   9.718  1.00  0.00     0.000 C 
BRANCH  23  24
ATOM     24  C   UNL     1       7.078  32.319   8.508  1.00  0.00    -0.000 C 
BRANCH  24  25
ATOM     25  C   UNL     1       7.068  33.333   7.353  1.00  0.00    -0.000 C 
BRANCH  25  26
ATOM     26  C   UNL     1       6.259  34.599   7.681  1.00  0.00    -0.000 C 
BRANCH  26  27
ATOM     27  C   UNL     1       4.744  34.400   7.502  1.00  0.00    -0.000 C 
BRANCH  27  28
ATOM     28  C   UNL     1       4.340  34.248   6.026  1.00  0.00    -0.000 C 
BRANCH  28  29
ATOM     29  C   UNL     1       4.964  35.334   5.131  1.00  0.00    -0.000 C 
BRANCH  29  30
ATOM     30  C   UNL     1       5.339  34.804   3.737  1.00  0.00    -0.000 C 
BRANCH  30  31
ATOM     31  C   UNL     1       4.286  33.844   3.163  1.00  0.00    -0.003 C 
ATOM     32  C   UNL     1       4.607  33.479   1.715  1.00  0.00     0.004 C 
ENDBRANCH  30  31
ENDBRANCH  29  30
ENDBRANCH  28  29
ENDBRANCH  27  28
ENDBRANCH  26  27
ENDBRANCH  25  26
ENDBRANCH  24  25
ENDBRANCH  23  24
ENDBRANCH  22  23
ENDBRANCH  21  22
ENDBRANCH  20  21
ENDBRANCH  19  20
ENDBRANCH  18  19
ENDBRANCH   1  18
TORSDOF 28
ENDMDL
MODEL 6
REMARK VINA RESULT:    -3.554      2.551      5.770
REMARK INTER + INTRA:         -15.211
REMARK INTER:                  -9.031
REMARK INTRA:                  -6.180
REMARK UNBOUND:                -5.840
REMARK SMILES CCCCCCCCCCCCCCCCCCCCCCCCCCCCCC(=O)[O-]
REMARK SMILES IDX 16 1 17 2 18 3 19 4 20 5 21 6 22 7 23 8 24 9 25 10 26 11
REMARK SMILES IDX 27 12 28 13 29 14 30 15 31 16 32 17 15 18 14 19 13 20 12 21
REMARK SMILES IDX 11 22 10 23 9 24 8 25 7 26 6 27 5 28 4 29 3 30 2 31 1 32
REMARK H PARENT
REMARK Flexibility Score: inf
ROOT
ATOM      1  C   UNL     1       9.851  30.242   5.601  1.00  0.00     0.000 C 
ENDROOT
BRANCH   1   2
ATOM      2  C   UNL     1       9.266  31.001   4.396  1.00  0.00     0.000 C 
BRANCH   2   3
ATOM      3  C   UNL     1       8.376  30.103   3.518  1.00  0.00     0.000 C 
BRANCH   3   4
ATOM      4  C   UNL     1       6.900  30.541   3.530  1.00  0.00     0.000 C 
BRANCH   4   5
ATOM      5  C   UNL     1       6.733  32.062   3.320  1.00  0.00     0.000 C 
BRANCH   5   6
ATOM      6  C   UNL     1       5.664  32.428   2.271  1.00  0.00     0.000 C 
BRANCH   6   7
ATOM      7  C   UNL     1       5.146  33.875   2.353  1.00  0.00     0.000 C 
BRANCH   7   8
ATOM      8  C   UNL     1       5.791  34.742   3.456  1.00  0.00     0.000 C 
BRANCH   8   9
ATOM      9  C   UNL     1       4.840  35.199   4.578  1.00  0.00     0.000 C 
BRANCH   9  10
ATOM     10  C   UNL     1       3.357  35.066   4.194  1.00  0.00     0.000 C 
BRANCH  10  11
ATOM     11  C   UNL     1       2.611  34.024   5.046  1.00  0.00     0.000 C 
BRANCH  11  12
ATOM     12  C   UNL     1       2.960  34.086   6.549  1.00  0.00     0.000 C 
BRANCH  12  13
ATOM     13  C   UNL     1       3.252  32.692   7.132  1.00  0.00     0.006 C 
BRANCH  13  14
ATOM     14  C   UNL     1       3.309  31.610   6.047  1.00  0.00     0.053 C 
BRANCH  14  15
ATOM     15  C   UNL     1       3.752  30.289   6.600  1.00  0.00     0.041 C 
ATOM     16  O   UNL     1       4.650  29.628   6.015  1.00  0.00    -0.550 OA
ATOM     17  O   UNL     1       3.153  29.774   7.744  1.00  0.00    -0.550 OA
ENDBRANCH  14  15
ENDBRANCH  13  14
ENDBRANCH  12  13
ENDBRANCH  11  12
ENDBRANCH  10  11
ENDBRANCH   9  10
ENDBRANCH   8   9
ENDBRANCH   7   8
ENDBRANCH   6   7
ENDBRANCH   5   6
ENDBRANCH   4   5
ENDBRANCH   3   4
ENDBRANCH   2   3
ENDBRANCH   1   2
BRANCH   1  18
ATOM     18  C   UNL     1      10.657  31.156   6.540  1.00  0.00     0.000 C 
BRANCH  18  19
ATOM     19  C   UNL     1      10.460  32.650   6.230  1.00  0.00     0.000 C 
BRANCH  19  20
ATOM     20  C   UNL     1      10.742  33.540   7.460  1.00  0.00     0.000 C 
BRANCH  20  21
ATOM     21  C   UNL     1      11.228  32.759   8.692  1.00  0.00     0.000 C 
BRANCH  21  22
ATOM     22  C   UNL     1      10.174  32.698   9.810  1.00  0.00     0.000 C 
BRANCH  22  23
ATOM     23  C   UNL     1       9.848  31.259  10.254  1.00  0.00     0.000 C 
BRANCH  23  24
ATOM     24  C   UNL     1       8.653  30.598   9.541  1.00  0.00    -0.000 C 
BRANCH  24  25
ATOM     25  C   UNL     1       7.297  31.184   9.968  1.00  0.00    -0.000 C 
BRANCH  25  26
ATOM     26  C   UNL     1       6.364  31.452   8.775  1.00  0.00    -0.000 C 
BRANCH  26  27
ATOM     27  C   UNL     1       7.131  31.735   7.471  1.00  0.00    -0.000 C 
BRANCH  27  28
ATOM     28  C   UNL     1       6.890  33.161   6.945  1.00  0.00    -0.000 C 
BRANCH  28  29
ATOM     29  C   UNL     1       7.173  34.236   8.010  1.00  0.00    -0.000 C 
BRANCH  29  30
ATOM     30  C   UNL     1       5.937  35.098   8.318  1.00  0.00    -0.000 C 
BRANCH  30  31
ATOM     31  C   UNL     1       5.372  34.845   9.724  1.00  0.00    -0.003 C 
ATOM     32  C   UNL     1       4.226  35.805  10.035  1.00  0.00     0.004 C 
ENDBRANCH  30  31
ENDBRANCH  29  30
ENDBRANCH  28  29
ENDBRANCH  27  28
ENDBRANCH  26  27
ENDBRANCH  25  26
ENDBRANCH  24  25
ENDBRANCH  23  24
ENDBRANCH  22  23
ENDBRANCH  21  22
ENDBRANCH  20  21
ENDBRANCH  19  20
ENDBRANCH  18  19
ENDBRANCH   1  18
TORSDOF 28
ENDMDL
MODEL 7
REMARK VINA RESULT:    -3.546      2.672      5.471
REMARK INTER + INTRA:         -15.191
REMARK INTER:                  -8.901
REMARK INTRA:                  -6.290
REMARK UNBOUND:                -5.840
REMARK SMILES CCCCCCCCCCCCCCCCCCCCCCCCCCCCCC(=O)[O-]
REMARK SMILES IDX 16 1 17 2 18 3 19 4 20 5 21 6 22 7 23 8 24 9 25 10 26 11
REMARK SMILES IDX 27 12 28 13 29 14 30 15 31 16 32 17 15 18 14 19 13 20 12 21
REMARK SMILES IDX 11 22 10 23 9 24 8 25 7 26 6 27 5 28 4 29 3 30 2 31 1 32
REMARK H PARENT
REMARK Flexibility Score: inf
ROOT
ATOM      1  C   UNL     1       9.872  31.335   5.255  1.00  0.00     0.000 C 
ENDROOT
BRANCH   1   2
ATOM      2  C   UNL     1      10.184  30.171   6.213  1.00  0.00     0.000 C 
BRANCH   2   3
ATOM      3  C   UNL     1       8.960  29.763   7.052  1.00  0.00     0.000 C 
BRANCH   3   4
ATOM      4  C   UNL     1       9.353  29.074   8.372  1.00  0.00     0.000 C 
BRANCH   4   5
ATOM      5  C   UNL     1       8.738  29.769   9.607  1.00  0.00     0.000 C 
BRANCH   5   6
ATOM      6  C   UNL     1       7.197  29.737   9.632  1.00  0.00     0.000 C 
BRANCH   6   7
ATOM      7  C   UNL     1       6.530  31.051  10.075  1.00  0.00     0.000 C 
BRANCH   7   8
ATOM      8  C   UNL     1       5.463  31.605   9.106  1.00  0.00     0.000 C 
BRANCH   8   9
ATOM      9  C   UNL     1       5.414  30.929   7.722  1.00  0.00     0.000 C 
BRANCH   9  10
ATOM     10  C   UNL     1       5.942  31.834   6.596  1.00  0.00     0.000 C 
BRANCH  10  11
ATOM     11  C   UNL     1       6.393  33.215   7.103  1.00  0.00     0.000 C 
BRANCH  11  12
ATOM     12  C   UNL     1       7.921  33.429   7.046  1.00  0.00     0.000 C 
BRANCH  12  13
ATOM     13  C   UNL     1       8.481  33.952   8.380  1.00  0.00     0.006 C 
BRANCH  13  14
ATOM     14  C   UNL     1       9.684  33.134   8.865  1.00  0.00     0.053 C 
BRANCH  14  15
ATOM     15  C   UNL     1      10.964  33.597   8.238  1.00  0.00     0.041 C 
ATOM     16  O   UNL     1      11.101  34.802   7.900  1.00  0.00    -0.550 OA
ATOM     17  O   UNL     1      11.992  32.693   7.998  1.00  0.00    -0.550 OA
ENDBRANCH  14  15
ENDBRANCH  13  14
ENDBRANCH  12  13
ENDBRANCH  11  12
ENDBRANCH  10  11
ENDBRANCH   9  10
ENDBRANCH   8   9
ENDBRANCH   7   8
ENDBRANCH   6   7
ENDBRANCH   5   6
ENDBRANCH   4   5
ENDBRANCH   3   4
ENDBRANCH   2   3
ENDBRANCH   1   2
BRANCH   1  18
ATOM     18  C   UNL     1       8.726  31.010   4.282  1.00  0.00     0.000 C 
BRANCH  18  19
ATOM     19  C   UNL     1       9.013  29.770   3.417  1.00  0.00     0.000 C 
BRANCH  19  20
ATOM     20  C   UNL     1       7.738  28.939   3.153  1.00  0.00     0.000 C 
BRANCH  20  21
ATOM     21  C   UNL     1       6.459  29.564   3.736  1.00  0.00     0.000 C 
BRANCH  21  22
ATOM     22  C   UNL     1       5.547  30.166   2.654  1.00  0.00     0.000 C 
BRANCH  22  23
ATOM     23  C   UNL     1       5.051  31.583   3.002  1.00  0.00     0.000 C 
BRANCH  23  24
ATOM     24  C   UNL     1       5.987  32.734   2.587  1.00  0.00    -0.000 C 
BRANCH  24  25
ATOM     25  C   UNL     1       5.294  34.108   2.600  1.00  0.00    -0.000 C 
BRANCH  25  26
ATOM     26  C   UNL     1       5.614  34.922   3.865  1.00  0.00    -0.000 C 
BRANCH  26  27
ATOM     27  C   UNL     1       4.357  35.273   4.680  1.00  0.00    -0.000 C 
BRANCH  27  28
ATOM     28  C   UNL     1       3.057  34.890   3.951  1.00  0.00    -0.000 C 
BRANCH  28  29
ATOM     29  C   UNL     1       2.121  34.038   4.826  1.00  0.00    -0.000 C 
BRANCH  29  30
ATOM     30  C   UNL     1       2.846  33.415   6.031  1.00  0.00    -0.000 C 
BRANCH  30  31
ATOM     31  C   UNL     1       2.177  33.759   7.370  1.00  0.00    -0.003 C 
ATOM     32  C   UNL     1       3.166  34.431   8.320  1.00  0.00     0.004 C 
ENDBRANCH  30  31
ENDBRANCH  29  30
ENDBRANCH  28  29
ENDBRANCH  27  28
ENDBRANCH  26  27
ENDBRANCH  25  26
ENDBRANCH  24  25
ENDBRANCH  23  24
ENDBRANCH  22  23
ENDBRANCH  21  22
ENDBRANCH  20  21
ENDBRANCH  19  20
ENDBRANCH  18  19
ENDBRANCH   1  18
TORSDOF 28
ENDMDL
MODEL 8
REMARK VINA RESULT:    -3.524      2.398      5.500
REMARK INTER + INTRA:         -15.133
REMARK INTER:                  -8.616
REMARK INTRA:                  -6.517
REMARK UNBOUND:                -5.840
REMARK SMILES CCCCCCCCCCCCCCCCCCCCCCCCCCCCCC(=O)[O-]
REMARK SMILES IDX 16 1 17 2 18 3 19 4 20 5 21 6 22 7 23 8 24 9 25 10 26 11
REMARK SMILES IDX 27 12 28 13 29 14 30 15 31 16 32 17 15 18 14 19 13 20 12 21
REMARK SMILES IDX 11 22 10 23 9 24 8 25 7 26 6 27 5 28 4 29 3 30 2 31 1 32
REMARK H PARENT
REMARK Flexibility Score: inf
ROOT
ATOM      1  C   UNL     1      10.450  32.199   6.535  1.00  0.00     0.000 C 
ENDROOT
BRANCH   1   2
ATOM      2  C   UNL     1      10.978  33.066   7.693  1.00  0.00     0.000 C 
BRANCH   2   3
ATOM      3  C   UNL     1       9.994  34.185   8.078  1.00  0.00     0.000 C 
BRANCH   3   4
ATOM      4  C   UNL     1       8.523  33.744   7.965  1.00  0.00     0.000 C 
BRANCH   4   5
ATOM      5  C   UNL     1       7.966  33.196   9.298  1.00  0.00     0.000 C 
BRANCH   5   6
ATOM      6  C   UNL     1       6.495  33.580   9.558  1.00  0.00     0.000 C 
BRANCH   6   7
ATOM      7  C   UNL     1       5.974  34.754   8.710  1.00  0.00     0.000 C 
BRANCH   7   8
ATOM      8  C   UNL     1       4.500  34.639   8.265  1.00  0.00     0.000 C 
BRANCH   8   9
ATOM      9  C   UNL     1       4.282  34.375   6.764  1.00  0.00     0.000 C 
BRANCH   9  10
ATOM     10  C   UNL     1       5.526  34.686   5.915  1.00  0.00     0.000 C 
BRANCH  10  11
ATOM     11  C   UNL     1       5.175  35.199   4.507  1.00  0.00     0.000 C 
BRANCH  11  12
ATOM     12  C   UNL     1       3.751  34.822   4.046  1.00  0.00     0.000 C 
BRANCH  12  13
ATOM     13  C   UNL     1       3.768  33.781   2.914  1.00  0.00     0.006 C 
BRANCH  13  14
ATOM     14  C   UNL     1       2.596  32.796   3.013  1.00  0.00     0.053 C 
BRANCH  14  15
ATOM     15  C   UNL     1       2.891  31.505   2.311  1.00  0.00     0.041 C 
ATOM     16  O   UNL     1       2.376  30.432   2.722  1.00  0.00    -0.550 OA
ATOM     17  O   UNL     1       3.757  31.483   1.224  1.00  0.00    -0.550 OA
ENDBRANCH  14  15
ENDBRANCH  13  14
ENDBRANCH  12  13
ENDBRANCH  11  12
ENDBRANCH  10  11
ENDBRANCH   9  10
ENDBRANCH   8   9
ENDBRANCH   7   8
ENDBRANCH   6   7
ENDBRANCH   5   6
ENDBRANCH   4   5
ENDBRANCH   3   4
ENDBRANCH   2   3
ENDBRANCH   1   2
BRANCH   1  18
ATOM     18  C   UNL     1      10.637  30.694   6.791  1.00  0.00     0.000 C 
BRANCH  18  19
ATOM     19  C   UNL     1       9.748  30.170   7.934  1.00  0.00     0.000 C 
BRANCH  19  20
ATOM     20  C   UNL     1       8.431  29.557   7.410  1.00  0.00     0.000 C 
BRANCH  20  21
ATOM     21  C   UNL     1       7.218  29.829   8.315  1.00  0.00     0.000 C 
BRANCH  21  22
ATOM     22  C   UNL     1       5.939  30.133   7.518  1.00  0.00     0.000 C 
BRANCH  22  23
ATOM     23  C   UNL     1       6.160  31.164   6.393  1.00  0.00     0.000 C 
BRANCH  23  24
ATOM     24  C   UNL     1       5.441  30.862   5.065  1.00  0.00    -0.000 C 
BRANCH  24  25
ATOM     25  C   UNL     1       6.288  31.209   3.829  1.00  0.00    -0.000 C 
BRANCH  25  26
ATOM     26  C   UNL     1       7.684  31.740   4.196  1.00  0.00    -0.000 C 
BRANCH  26  27
ATOM     27  C   UNL     1       8.813  31.012   3.445  1.00  0.00    -0.000 C 
BRANCH  27  28
ATOM     28  C   UNL     1       8.943  29.537   3.862  1.00  0.00    -0.000 C 
BRANCH  28  29
ATOM     29  C   UNL     1       8.623  28.569   2.709  1.00  0.00    -0.000 C 
BRANCH  29  30
ATOM     30  C   UNL     1       7.648  27.456   3.129  1.00  0.00    -0.000 C 
BRANCH  30  31
ATOM     31  C   UNL     1       7.332  27.478   4.632  1.00  0.00    -0.003 C 
ATOM     32  C   UNL     1       5.870  27.121   4.891  1.00  0.00     0.004 C 
ENDBRANCH  30  31
ENDBRANCH  29  30
ENDBRANCH  28  29
ENDBRANCH  27  28
ENDBRANCH  26  27
ENDBRANCH  25  26
ENDBRANCH  24  25
ENDBRANCH  23  24
ENDBRANCH  22  23
ENDBRANCH  21  22
ENDBRANCH  20  21
ENDBRANCH  19  20
ENDBRANCH  18  19
ENDBRANCH   1  18
TORSDOF 28
ENDMDL
MODEL 9
REMARK VINA RESULT:    -3.484      1.644      5.097
REMARK INTER + INTRA:         -15.028
REMARK INTER:                  -8.914
REMARK INTRA:                  -6.114
REMARK UNBOUND:                -5.840
REMARK SMILES CCCCCCCCCCCCCCCCCCCCCCCCCCCCCC(=O)[O-]
REMARK SMILES IDX 16 1 17 2 18 3 19 4 20 5 21 6 22 7 23 8 24 9 25 10 26 11
REMARK SMILES IDX 27 12 28 13 29 14 30 15 31 16 32 17 15 18 14 19 13 20 12 21
REMARK SMILES IDX 11 22 10 23 9 24 8 25 7 26 6 27 5 28 4 29 3 30 2 31 1 32
REMARK H PARENT
REMARK Flexibility Score: inf
ROOT
ATOM      1  C   UNL     1       7.042  32.773   9.786  1.00  0.00     0.000 C 
ENDROOT
BRANCH   1   2
ATOM      2  C   UNL     1       7.457  33.967   8.907  1.00  0.00     0.000 C 
BRANCH   2   3
ATOM      3  C   UNL     1       6.404  35.090   8.914  1.00  0.00     0.000 C 
BRANCH   3   4
ATOM      4  C   UNL     1       4.999  34.580   9.285  1.00  0.00     0.000 C 
BRANCH   4   5
ATOM      5  C   UNL     1       4.070  34.460   8.056  1.00  0.00     0.000 C 
BRANCH   5   6
ATOM      6  C   UNL     1       4.090  33.066   7.398  1.00  0.00     0.000 C 
BRANCH   6   7
ATOM      7  C   UNL     1       4.598  33.045   5.945  1.00  0.00     0.000 C 
BRANCH   7   8
ATOM      8  C   UNL     1       5.627  34.141   5.593  1.00  0.00     0.000 C 
BRANCH   8   9
ATOM      9  C   UNL     1       5.254  35.037   4.398  1.00  0.00     0.000 C 
BRANCH   9  10
ATOM     10  C   UNL     1       4.728  34.238   3.193  1.00  0.00     0.000 C 
BRANCH  10  11
ATOM     11  C   UNL     1       5.783  34.063   2.087  1.00  0.00     0.000 C 
BRANCH  11  12
ATOM     12  C   UNL     1       6.161  32.590   1.817  1.00  0.00     0.000 C 
BRANCH  12  13
ATOM     13  C   UNL     1       6.895  31.955   3.011  1.00  0.00     0.006 C 
BRANCH  13  14
ATOM     14  C   UNL     1       6.753  30.428   3.033  1.00  0.00     0.053 C 
BRANCH  14  15
ATOM     15  C   UNL     1       8.071  29.749   3.256  1.00  0.00     0.041 C 
ATOM     16  O   UNL     1       9.136  30.418   3.244  1.00  0.00    -0.550 OA
ATOM     17  O   UNL     1       8.123  28.373   3.448  1.00  0.00    -0.550 OA
ENDBRANCH  14  15
ENDBRANCH  13  14
ENDBRANCH  12  13
ENDBRANCH  11  12
ENDBRANCH  10  11
ENDBRANCH   9  10
ENDBRANCH   8   9
ENDBRANCH   7   8
ENDBRANCH   6   7
ENDBRANCH   5   6
ENDBRANCH   4   5
ENDBRANCH   3   4
ENDBRANCH   2   3
ENDBRANCH   1   2
BRANCH   1  18
ATOM     18  C   UNL     1       8.238  31.894  10.191  1.00  0.00     0.000 C 
BRANCH  18  19
ATOM     19  C   UNL     1       9.506  32.715  10.489  1.00  0.00     0.000 C 
BRANCH  19  20
ATOM     20  C   UNL     1      10.795  31.902  10.238  1.00  0.00     0.000 C 
BRANCH  20  21
ATOM     21  C   UNL     1      11.749  32.553   9.223  1.00  0.00     0.000 C 
BRANCH  21  22
ATOM     22  C   UNL     1      11.274  33.943   8.769  1.00  0.00     0.000 C 
BRANCH  22  23
ATOM     23  C   UNL     1      10.675  33.943   7.348  1.00  0.00     0.000 C 
BRANCH  23  24
ATOM     24  C   UNL     1      10.583  32.564   6.667  1.00  0.00    -0.000 C 
BRANCH  24  25
ATOM     25  C   UNL     1       9.156  32.208   6.217  1.00  0.00    -0.000 C 
BRANCH  25  26
ATOM     26  C   UNL     1       8.704  30.826   6.717  1.00  0.00    -0.000 C 
BRANCH  26  27
ATOM     27  C   UNL     1       7.173  30.670   6.734  1.00  0.00    -0.000 C 
BRANCH  27  28
ATOM     28  C   UNL     1       6.729  29.266   7.179  1.00  0.00    -0.000 C 
BRANCH  28  29
ATOM     29  C   UNL     1       6.225  29.242   8.633  1.00  0.00    -0.000 C 
BRANCH  29  30
ATOM     30  C   UNL     1       6.988  28.229   9.504  1.00  0.00    -0.000 C 
BRANCH  30  31
ATOM     31  C   UNL     1       8.353  27.846   8.911  1.00  0.00    -0.003 C 
ATOM     32  C   UNL     1       9.493  28.456   9.723  1.00  0.00     0.004 C 
ENDBRANCH  30  31
ENDBRANCH  29  30
ENDBRANCH  28  29
ENDBRANCH  27  28
ENDBRANCH  26  27
ENDBRANCH  25  26
ENDBRANCH  24  25
ENDBRANCH  23  24
ENDBRANCH  22  23
ENDBRANCH  21  22
ENDBRANCH  20  21
ENDBRANCH  19  20
ENDBRANCH  18  19
ENDBRANCH   1  18
TORSDOF 28
ENDMDL
