MODEL 1
REMARK VINA RESULT:    -3.198      0.000      0.000
REMARK INTER + INTRA:          -3.857
REMARK INTER:                  -3.759
REMARK INTRA:                  -0.098
REMARK UNBOUND:                -0.098
REMARK SMILES CCCCC(=O)[O-]
REMARK SMILES IDX 4 1 5 2 6 3 7 4 3 5 2 6 1 7
REMARK H PARENT
REMARK Flexibility Score: inf
ROOT
ATOM      1  C   UNL     1      44.739   7.473 128.329  1.00  0.00     0.053 C 
ENDROOT
BRANCH   1   2
ATOM      2  C   UNL     1      45.891   6.878 129.080  1.00  0.00     0.041 C 
ATOM      3  O   UNL     1      45.779   5.745 129.620  1.00  0.00    -0.550 OA
ATOM      4  O   UNL     1      47.098   7.561 129.156  1.00  0.00    -0.550 OA
ENDBRANCH   1   2
BRANCH   1   5
ATOM      5  C   UNL     1      43.386   6.999 128.885  1.00  0.00     0.006 C 
BRANCH   5   6
ATOM      6  C   UNL     1      42.501   6.276 127.854  1.00  0.00    -0.003 C 
ATOM      7  C   UNL     1      43.311   5.510 126.809  1.00  0.00     0.004 C 
ENDBRANCH   5   6
ENDBRANCH   1   5
TORSDOF 3
ENDMDL
MODEL 2
REMARK VINA RESULT:    -3.183      1.711      2.246
REMARK INTER + INTRA:          -3.840
REMARK INTER:                  -3.752
REMARK INTRA:                  -0.087
REMARK UNBOUND:                -0.098
REMARK SMILES CCCCC(=O)[O-]
REMARK SMILES IDX 4 1 5 2 6 3 7 4 3 5 2 6 1 7
REMARK H PARENT
REMARK Flexibility Score: inf
ROOT
ATOM      1  C   UNL     1      44.820   4.609 127.735  1.00  0.00     0.053 C 
ENDROOT
BRANCH   1   2
ATOM      2  C   UNL     1      46.129   5.325 127.867  1.00  0.00     0.041 C 
ATOM      3  O   UNL     1      47.039   4.853 128.600  1.00  0.00    -0.550 OA
ATOM      4  O   UNL     1      46.356   6.496 127.156  1.00  0.00    -0.550 OA
ENDBRANCH   1   2
BRANCH   1   5
ATOM      5  C   UNL     1      43.970   5.175 126.585  1.00  0.00     0.006 C 
BRANCH   5   6
ATOM      6  C   UNL     1      42.586   5.688 127.020  1.00  0.00    -0.003 C 
ATOM      7  C   UNL     1      42.630   6.488 128.321  1.00  0.00     0.004 C 
ENDBRANCH   5   6
ENDBRANCH   1   5
TORSDOF 3
ENDMDL
MODEL 3
REMARK VINA RESULT:    -3.098      1.500      2.006
REMARK INTER + INTRA:          -3.740
REMARK INTER:                  -3.627
REMARK INTRA:                  -0.112
REMARK UNBOUND:                -0.098
REMARK SMILES CCCCC(=O)[O-]
REMARK SMILES IDX 4 1 5 2 6 3 7 4 3 5 2 6 1 7
REMARK H PARENT
REMARK Flexibility Score: inf
ROOT
ATOM      1  C   UNL     1      45.822   4.841 127.810  1.00  0.00     0.053 C 
ENDROOT
BRANCH   1   2
ATOM      2  C   UNL     1      45.824   5.255 129.250  1.00  0.00     0.041 C 
ATOM      3  O   UNL     1      44.880   4.912 130.010  1.00  0.00    -0.550 OA
ATOM      4  O   UNL     1      46.886   5.991 129.760  1.00  0.00    -0.550 OA
ENDBRANCH   1   2
BRANCH   1   5
ATOM      5  C   UNL     1      44.963   5.778 126.945  1.00  0.00     0.006 C 
BRANCH   5   6
ATOM      6  C   UNL     1      43.535   5.265 126.688  1.00  0.00    -0.003 C 
ATOM      7  C   UNL     1      42.476   6.033 127.480  1.00  0.00     0.004 C 
ENDBRANCH   5   6
ENDBRANCH   1   5
TORSDOF 3
ENDMDL
MODEL 4
REMARK VINA RESULT:    -3.012      6.311      7.302
REMARK INTER + INTRA:          -3.638
REMARK INTER:                  -3.545
REMARK INTRA:                  -0.093
REMARK UNBOUND:                -0.098
REMARK SMILES CCCCC(=O)[O-]
REMARK SMILES IDX 4 1 5 2 6 3 7 4 3 5 2 6 1 7
REMARK H PARENT
REMARK Flexibility Score: inf
ROOT
ATOM      1  C   UNL     1      43.734   2.130 132.891  1.00  0.00     0.053 C 
ENDROOT
BRANCH   1   2
ATOM      2  C   UNL     1      43.839   0.790 132.230  1.00  0.00     0.041 C 
ATOM      3  O   UNL     1      44.894   0.110 132.337  1.00  0.00    -0.550 OA
ATOM      4  O   UNL     1      42.758   0.277 131.524  1.00  0.00    -0.550 OA
ENDBRANCH   1   2
BRANCH   1   5
ATOM      5  C   UNL     1      44.838   3.091 132.418  1.00  0.00     0.006 C 
BRANCH   5   6
ATOM      6  C   UNL     1      45.570   3.820 133.559  1.00  0.00    -0.003 C 
ATOM      7  C   UNL     1      45.852   2.914 134.757  1.00  0.00     0.004 C 
ENDBRANCH   5   6
ENDBRANCH   1   5
TORSDOF 3
ENDMDL
MODEL 5
REMARK VINA RESULT:    -2.961      2.654      4.047
REMARK INTER + INTRA:          -3.579
REMARK INTER:                  -3.498
REMARK INTRA:                  -0.080
REMARK UNBOUND:                -0.098
REMARK SMILES CCCCC(=O)[O-]
REMARK SMILES IDX 4 1 5 2 6 3 7 4 3 5 2 6 1 7
REMARK H PARENT
REMARK Flexibility Score: inf
ROOT
ATOM      1  C   UNL     1      44.736   4.872 128.132  1.00  0.00     0.053 C 
ENDROOT
BRANCH   1   2
ATOM      2  C   UNL     1      43.920   5.537 127.066  1.00  0.00     0.041 C 
ATOM      3  O   UNL     1      44.459   5.897 125.986  1.00  0.00    -0.550 OA
ATOM      4  O   UNL     1      42.557   5.731 127.254  1.00  0.00    -0.550 OA
ENDBRANCH   1   2
BRANCH   1   5
ATOM      5  C   UNL     1      46.235   4.872 127.790  1.00  0.00     0.006 C 
BRANCH   5   6
ATOM      6  C   UNL     1      47.120   5.566 128.841  1.00  0.00    -0.003 C 
ATOM      7  C   UNL     1      46.646   6.980 129.176  1.00  0.00     0.004 C 
ENDBRANCH   5   6
ENDBRANCH   1   5
TORSDOF 3
ENDMDL
MODEL 6
REMARK VINA RESULT:    -2.942      6.467      6.983
REMARK INTER + INTRA:          -3.556
REMARK INTER:                  -3.432
REMARK INTRA:                  -0.124
REMARK UNBOUND:                -0.098
REMARK SMILES CCCCC(=O)[O-]
REMARK SMILES IDX 4 1 5 2 6 3 7 4 3 5 2 6 1 7
REMARK H PARENT
REMARK Flexibility Score: inf
ROOT
ATOM      1  C   UNL     1      46.516  11.591 124.096  1.00  0.00     0.053 C 
ENDROOT
BRANCH   1   2
ATOM      2  C   UNL     1      46.888  10.173 123.791  1.00  0.00     0.041 C 
ATOM      3  O   UNL     1      46.541   9.244 124.570  1.00  0.00    -0.550 OA
ATOM      4  O   UNL     1      47.591   9.872 122.632  1.00  0.00    -0.550 OA
ENDBRANCH   1   2
BRANCH   1   5
ATOM      5  C   UNL     1      44.991  11.788 124.139  1.00  0.00     0.006 C 
BRANCH   5   6
ATOM      6  C   UNL     1      44.268  11.385 122.841  1.00  0.00    -0.003 C 
ATOM      7  C   UNL     1      44.501  12.373 121.699  1.00  0.00     0.004 C 
ENDBRANCH   5   6
ENDBRANCH   1   5
TORSDOF 3
ENDMDL
MODEL 7
REMARK VINA RESULT:    -2.915      5.736      6.400
REMARK INTER + INTRA:          -3.524
REMARK INTER:                  -3.413
REMARK INTRA:                  -0.111
REMARK UNBOUND:                -0.098
REMARK SMILES CCCCC(=O)[O-]
REMARK SMILES IDX 4 1 5 2 6 3 7 4 3 5 2 6 1 7
REMARK H PARENT
REMARK Flexibility Score: inf
ROOT
ATOM      1  C   UNL     1      46.952  10.066 123.191  1.00  0.00     0.053 C 
ENDROOT
BRANCH   1   2
ATOM      2  C   UNL     1      46.856   8.846 124.054  1.00  0.00     0.041 C 
ATOM      3  O   UNL     1      47.685   8.660 124.985  1.00  0.00    -0.550 OA
ATOM      4  O   UNL     1      45.832   7.929 123.851  1.00  0.00    -0.550 OA
ENDBRANCH   1   2
BRANCH   1   5
ATOM      5  C   UNL     1      46.618  11.348 123.970  1.00  0.00     0.006 C 
BRANCH   5   6
ATOM      6  C   UNL     1      45.110  11.607 124.141  1.00  0.00    -0.003 C 
ATOM      7  C   UNL     1      44.334  11.483 122.830  1.00  0.00     0.004 C 
ENDBRANCH   5   6
ENDBRANCH   1   5
TORSDOF 3
ENDMDL
MODEL 8
REMARK VINA RESULT:    -2.912      2.170      3.526
REMARK INTER + INTRA:          -3.520
REMARK INTER:                  -3.411
REMARK INTRA:                  -0.110
REMARK UNBOUND:                -0.098
REMARK SMILES CCCCC(=O)[O-]
REMARK SMILES IDX 4 1 5 2 6 3 7 4 3 5 2 6 1 7
REMARK H PARENT
REMARK Flexibility Score: inf
ROOT
ATOM      1  C   UNL     1      44.049   6.329 128.906  1.00  0.00     0.053 C 
ENDROOT
BRANCH   1   2
ATOM      2  C   UNL     1      43.607   5.703 127.619  1.00  0.00     0.041 C 
ATOM      3  O   UNL     1      42.471   5.967 127.142  1.00  0.00    -0.550 OA
ATOM      4  O   UNL     1      44.463   4.854 126.929  1.00  0.00    -0.550 OA
ENDBRANCH   1   2
BRANCH   1   5
ATOM      5  C   UNL     1      45.039   7.483 128.673  1.00  0.00     0.006 C 
BRANCH   5   6
ATOM      6  C   UNL     1      46.498   7.140 129.022  1.00  0.00    -0.003 C 
ATOM      7  C   UNL     1      47.332   6.773 127.794  1.00  0.00     0.004 C 
ENDBRANCH   5   6
ENDBRANCH   1   5
TORSDOF 3
ENDMDL
MODEL 9
REMARK VINA RESULT:    -2.905      1.979      3.534
REMARK INTER + INTRA:          -3.513
REMARK INTER:                  -3.409
REMARK INTRA:                  -0.104
REMARK UNBOUND:                -0.098
REMARK SMILES CCCCC(=O)[O-]
REMARK SMILES IDX 4 1 5 2 6 3 7 4 3 5 2 6 1 7
REMARK H PARENT
REMARK Flexibility Score: inf
ROOT
ATOM      1  C   UNL     1      45.078   7.351 128.069  1.00  0.00     0.053 C 
ENDROOT
BRANCH   1   2
ATOM      2  C   UNL     1      43.818   6.662 128.494  1.00  0.00     0.041 C 
ATOM      3  O   UNL     1      43.559   6.511 129.718  1.00  0.00    -0.550 OA
ATOM      4  O   UNL     1      42.913   6.217 127.539  1.00  0.00    -0.550 OA
ENDBRANCH   1   2
BRANCH   1   5
ATOM      5  C   UNL     1      46.210   7.160 129.093  1.00  0.00     0.006 C 
BRANCH   5   6
ATOM      6  C   UNL     1      46.928   5.803 128.992  1.00  0.00    -0.003 C 
ATOM      7  C   UNL     1      46.967   5.051 130.321  1.00  0.00     0.004 C 
ENDBRANCH   5   6
ENDBRANCH   1   5
TORSDOF 3
ENDMDL
