MODEL 1
REMARK VINA RESULT:    -2.377      0.000      0.000
REMARK INTER + INTRA:          -5.889
REMARK INTER:                  -4.183
REMARK INTRA:                  -1.706
REMARK UNBOUND:                -1.706
REMARK SMILES CCCCCCCCCCCCCCC(=O)[O-]
REMARK SMILES IDX 9 1 10 2 11 3 12 4 13 5 14 6 15 7 16 8 17 9 8 10 7 11 6 12
REMARK SMILES IDX 5 13 4 14 3 15 2 16 1 17
REMARK H PARENT
REMARK Flexibility Score: inf
ROOT
ATOM      1  C   UNL     1      18.859 -16.249  11.636  1.00  0.00     0.000 C 
ENDROOT
BRANCH   1   2
ATOM      2  C   UNL     1      19.079 -16.693  13.090  1.00  0.00     0.000 C 
BRANCH   2   3
ATOM      3  C   UNL     1      18.964 -15.522  14.085  1.00  0.00     0.000 C 
BRANCH   3   4
ATOM      4  C   UNL     1      19.019 -15.986  15.548  1.00  0.00     0.000 C 
BRANCH   4   5
ATOM      5  C   UNL     1      18.710 -17.486  15.704  1.00  0.00     0.006 C 
BRANCH   5   6
ATOM      6  C   UNL     1      17.504 -17.736  16.619  1.00  0.00     0.053 C 
BRANCH   6   7
ATOM      7  C   UNL     1      16.232 -17.870  15.839  1.00  0.00     0.041 C 
ATOM      8  O   UNL     1      16.269 -18.099  14.602  1.00  0.00    -0.550 OA
ATOM      9  O   UNL     1      15.006 -17.782  16.486  1.00  0.00    -0.550 OA
ENDBRANCH   6   7
ENDBRANCH   5   6
ENDBRANCH   4   5
ENDBRANCH   3   4
ENDBRANCH   2   3
ENDBRANCH   1   2
BRANCH   1  10
ATOM     10  C   UNL     1      19.365 -17.288  10.618  1.00  0.00     0.000 C 
BRANCH  10  11
ATOM     11  C   UNL     1      20.543 -18.118  11.172  1.00  0.00    -0.000 C 
BRANCH  11  12
ATOM     12  C   UNL     1      21.845 -17.970  10.358  1.00  0.00    -0.000 C 
BRANCH  12  13
ATOM     13  C   UNL     1      23.120 -17.777  11.196  1.00  0.00    -0.000 C 
BRANCH  13  14
ATOM     14  C   UNL     1      22.836 -17.716  12.708  1.00  0.00    -0.000 C 
BRANCH  14  15
ATOM     15  C   UNL     1      22.975 -16.295  13.282  1.00  0.00    -0.000 C 
BRANCH  15  16
ATOM     16  C   UNL     1      22.677 -16.173  14.788  1.00  0.00    -0.003 C 
ATOM     17  C   UNL     1      22.516 -14.726  15.250  1.00  0.00     0.004 C 
ENDBRANCH  15  16
ENDBRANCH  14  15
ENDBRANCH  13  14
ENDBRANCH  12  13
ENDBRANCH  11  12
ENDBRANCH  10  11
ENDBRANCH   1  10
TORSDOF 13
ENDMDL
MODEL 2
REMARK VINA RESULT:    -2.266      1.893      2.397
REMARK INTER + INTRA:          -5.695
REMARK INTER:                  -4.205
REMARK INTRA:                  -1.490
REMARK UNBOUND:                -1.706
REMARK SMILES CCCCCCCCCCCCCCC(=O)[O-]
REMARK SMILES IDX 9 1 10 2 11 3 12 4 13 5 14 6 15 7 16 8 17 9 8 10 7 11 6 12
REMARK SMILES IDX 5 13 4 14 3 15 2 16 1 17
REMARK H PARENT
REMARK Flexibility Score: inf
ROOT
ATOM      1  C   UNL     1      18.245 -16.905  10.692  1.00  0.00     0.000 C 
ENDROOT
BRANCH   1   2
ATOM      2  C   UNL     1      17.622 -18.119  11.397  1.00  0.00     0.000 C 
BRANCH   2   3
ATOM      3  C   UNL     1      16.235 -17.806  11.990  1.00  0.00     0.000 C 
BRANCH   3   4
ATOM      4  C   UNL     1      16.151 -18.125  13.491  1.00  0.00     0.000 C 
BRANCH   4   5
ATOM      5  C   UNL     1      17.450 -17.783  14.240  1.00  0.00     0.006 C 
BRANCH   5   6
ATOM      6  C   UNL     1      17.498 -16.312  14.674  1.00  0.00     0.053 C 
BRANCH   6   7
ATOM      7  C   UNL     1      17.378 -16.165  16.159  1.00  0.00     0.041 C 
ATOM      8  O   UNL     1      17.801 -15.125  16.730  1.00  0.00    -0.550 OA
ATOM      9  O   UNL     1      16.765 -17.161  16.910  1.00  0.00    -0.550 OA
ENDBRANCH   6   7
ENDBRANCH   5   6
ENDBRANCH   4   5
ENDBRANCH   3   4
ENDBRANCH   2   3
ENDBRANCH   1   2
BRANCH   1  10
ATOM     10  C   UNL     1      19.749 -16.757  10.988  1.00  0.00     0.000 C 
BRANCH  10  11
ATOM     11  C   UNL     1      20.241 -17.790  12.024  1.00  0.00    -0.000 C 
BRANCH  11  12
ATOM     12  C   UNL     1      21.772 -17.983  12.029  1.00  0.00    -0.000 C 
BRANCH  12  13
ATOM     13  C   UNL     1      22.462 -17.682  13.370  1.00  0.00    -0.000 C 
BRANCH  13  14
ATOM     14  C   UNL     1      22.802 -16.191  13.544  1.00  0.00    -0.000 C 
BRANCH  14  15
ATOM     15  C   UNL     1      21.611 -15.366  14.063  1.00  0.00    -0.000 C 
BRANCH  15  16
ATOM     16  C   UNL     1      21.066 -15.805  15.435  1.00  0.00    -0.003 C 
ATOM     17  C   UNL     1      22.024 -15.497  16.584  1.00  0.00     0.004 C 
ENDBRANCH  15  16
ENDBRANCH  14  15
ENDBRANCH  13  14
ENDBRANCH  12  13
ENDBRANCH  11  12
ENDBRANCH  10  11
ENDBRANCH   1  10
TORSDOF 13
ENDMDL
MODEL 3
REMARK VINA RESULT:    -2.115      2.818      4.830
REMARK INTER + INTRA:          -5.428
REMARK INTER:                  -4.576
REMARK INTRA:                  -0.852
REMARK UNBOUND:                -1.706
REMARK SMILES CCCCCCCCCCCCCCC(=O)[O-]
REMARK SMILES IDX 9 1 10 2 11 3 12 4 13 5 14 6 15 7 16 8 17 9 8 10 7 11 6 12
REMARK SMILES IDX 5 13 4 14 3 15 2 16 1 17
REMARK H PARENT
REMARK Flexibility Score: inf
ROOT
ATOM      1  C   UNL     1      17.973 -16.069  14.161  1.00  0.00     0.000 C 
ENDROOT
BRANCH   1   2
ATOM      2  C   UNL     1      16.809 -16.958  14.624  1.00  0.00     0.000 C 
BRANCH   2   3
ATOM      3  C   UNL     1      16.310 -17.898  13.511  1.00  0.00     0.000 C 
BRANCH   3   4
ATOM      4  C   UNL     1      17.325 -18.046  12.366  1.00  0.00     0.000 C 
BRANCH   4   5
ATOM      5  C   UNL     1      16.650 -18.120  10.985  1.00  0.00     0.006 C 
BRANCH   5   6
ATOM      6  C   UNL     1      17.592 -17.683   9.857  1.00  0.00     0.053 C 
BRANCH   6   7
ATOM      7  C   UNL     1      18.888 -17.153  10.387  1.00  0.00     0.041 C 
ATOM      8  O   UNL     1      18.973 -15.958  10.776  1.00  0.00    -0.550 OA
ATOM      9  O   UNL     1      19.994 -17.989  10.489  1.00  0.00    -0.550 OA
ENDBRANCH   6   7
ENDBRANCH   5   6
ENDBRANCH   4   5
ENDBRANCH   3   4
ENDBRANCH   2   3
ENDBRANCH   1   2
BRANCH   1  10
ATOM     10  C   UNL     1      18.898 -15.655  15.321  1.00  0.00     0.000 C 
BRANCH  10  11
ATOM     11  C   UNL     1      19.056 -16.779  16.366  1.00  0.00    -0.000 C 
BRANCH  11  12
ATOM     12  C   UNL     1      19.956 -17.941  15.899  1.00  0.00    -0.000 C 
BRANCH  12  13
ATOM     13  C   UNL     1      21.466 -17.709  16.080  1.00  0.00    -0.000 C 
BRANCH  13  14
ATOM     14  C   UNL     1      21.782 -16.625  17.124  1.00  0.00    -0.000 C 
BRANCH  14  15
ATOM     15  C   UNL     1      22.675 -15.502  16.565  1.00  0.00    -0.000 C 
BRANCH  15  16
ATOM     16  C   UNL     1      22.167 -14.860  15.261  1.00  0.00    -0.003 C 
ATOM     17  C   UNL     1      23.125 -15.055  14.088  1.00  0.00     0.004 C 
ENDBRANCH  15  16
ENDBRANCH  14  15
ENDBRANCH  13  14
ENDBRANCH  12  13
ENDBRANCH  11  12
ENDBRANCH  10  11
ENDBRANCH   1  10
TORSDOF 13
ENDMDL
MODEL 4
REMARK VINA RESULT:    -2.048      2.892      4.457
REMARK INTER + INTRA:          -5.309
REMARK INTER:                  -4.620
REMARK INTRA:                  -0.689
REMARK UNBOUND:                -1.706
REMARK SMILES CCCCCCCCCCCCCCC(=O)[O-]
REMARK SMILES IDX 9 1 10 2 11 3 12 4 13 5 14 6 15 7 16 8 17 9 8 10 7 11 6 12
REMARK SMILES IDX 5 13 4 14 3 15 2 16 1 17
REMARK H PARENT
REMARK Flexibility Score: inf
ROOT
ATOM      1  C   UNL     1      19.758 -16.051  13.101  1.00  0.00     0.000 C 
ENDROOT
BRANCH   1   2
ATOM      2  C   UNL     1      18.495 -15.888  13.959  1.00  0.00     0.000 C 
BRANCH   2   3
ATOM      3  C   UNL     1      17.674 -17.189  14.049  1.00  0.00     0.000 C 
BRANCH   3   4
ATOM      4  C   UNL     1      17.911 -18.118  12.848  1.00  0.00     0.000 C 
BRANCH   4   5
ATOM      5  C   UNL     1      17.038 -17.748  11.636  1.00  0.00     0.006 C 
BRANCH   5   6
ATOM      6  C   UNL     1      17.739 -18.053  10.305  1.00  0.00     0.053 C 
BRANCH   6   7
ATOM      7  C   UNL     1      18.816 -17.058  10.003  1.00  0.00     0.041 C 
ATOM      8  O   UNL     1      18.517 -15.888   9.648  1.00  0.00    -0.550 OA
ATOM      9  O   UNL     1      20.152 -17.412  10.150  1.00  0.00    -0.550 OA
ENDBRANCH   6   7
ENDBRANCH   5   6
ENDBRANCH   4   5
ENDBRANCH   3   4
ENDBRANCH   2   3
ENDBRANCH   1   2
BRANCH   1  10
ATOM     10  C   UNL     1      20.762 -17.048  13.710  1.00  0.00     0.000 C 
BRANCH  10  11
ATOM     11  C   UNL     1      22.143 -16.971  13.027  1.00  0.00    -0.000 C 
BRANCH  11  12
ATOM     12  C   UNL     1      23.089 -15.925  13.653  1.00  0.00    -0.000 C 
BRANCH  12  13
ATOM     13  C   UNL     1      22.429 -14.973  14.665  1.00  0.00    -0.000 C 
BRANCH  13  14
ATOM     14  C   UNL     1      22.987 -15.137  16.090  1.00  0.00    -0.000 C 
BRANCH  14  15
ATOM     15  C   UNL     1      21.895 -15.466  17.123  1.00  0.00    -0.000 C 
BRANCH  15  16
ATOM     16  C   UNL     1      21.188 -16.817  16.911  1.00  0.00    -0.003 C 
ATOM     17  C   UNL     1      19.678 -16.741  17.123  1.00  0.00     0.004 C 
ENDBRANCH  15  16
ENDBRANCH  14  15
ENDBRANCH  13  14
ENDBRANCH  12  13
ENDBRANCH  11  12
ENDBRANCH  10  11
ENDBRANCH   1  10
TORSDOF 13
ENDMDL
MODEL 5
REMARK VINA RESULT:    -2.009      1.138      3.271
REMARK INTER + INTRA:          -5.241
REMARK INTER:                  -4.165
REMARK INTRA:                  -1.076
REMARK UNBOUND:                -1.706
REMARK SMILES CCCCCCCCCCCCCCC(=O)[O-]
REMARK SMILES IDX 9 1 10 2 11 3 12 4 13 5 14 6 15 7 16 8 17 9 8 10 7 11 6 12
REMARK SMILES IDX 5 13 4 14 3 15 2 16 1 17
REMARK H PARENT
REMARK Flexibility Score: inf
ROOT
ATOM      1  C   UNL     1      20.761 -15.681  14.364  1.00  0.00     0.000 C 
ENDROOT
BRANCH   1   2
ATOM      2  C   UNL     1      19.609 -15.773  13.353  1.00  0.00     0.000 C 
BRANCH   2   3
ATOM      3  C   UNL     1      18.230 -15.594  14.015  1.00  0.00     0.000 C 
BRANCH   3   4
ATOM      4  C   UNL     1      17.505 -16.931  14.234  1.00  0.00     0.000 C 
BRANCH   4   5
ATOM      5  C   UNL     1      18.270 -17.868  15.184  1.00  0.00     0.006 C 
BRANCH   5   6
ATOM      6  C   UNL     1      17.816 -17.710  16.641  1.00  0.00     0.053 C 
BRANCH   6   7
ATOM      7  C   UNL     1      16.440 -17.126  16.736  1.00  0.00     0.041 C 
ATOM      8  O   UNL     1      16.288 -15.899  16.977  1.00  0.00    -0.550 OA
ATOM      9  O   UNL     1      15.326 -17.927  16.519  1.00  0.00    -0.550 OA
ENDBRANCH   6   7
ENDBRANCH   5   6
ENDBRANCH   4   5
ENDBRANCH   3   4
ENDBRANCH   2   3
ENDBRANCH   1   2
BRANCH   1  10
ATOM     10  C   UNL     1      22.137 -15.564  13.684  1.00  0.00     0.000 C 
BRANCH  10  11
ATOM     11  C   UNL     1      22.935 -16.883  13.756  1.00  0.00    -0.000 C 
BRANCH  11  12
ATOM     12  C   UNL     1      22.449 -17.957  12.761  1.00  0.00    -0.000 C 
BRANCH  12  13
ATOM     13  C   UNL     1      22.747 -17.659  11.282  1.00  0.00    -0.000 C 
BRANCH  13  14
ATOM     14  C   UNL     1      21.622 -18.125  10.341  1.00  0.00    -0.000 C 
BRANCH  14  15
ATOM     15  C   UNL     1      20.239 -18.114  11.016  1.00  0.00    -0.000 C 
BRANCH  15  16
ATOM     16  C   UNL     1      19.145 -17.359  10.238  1.00  0.00    -0.003 C 
ATOM     17  C   UNL     1      17.731 -17.752  10.662  1.00  0.00     0.004 C 
ENDBRANCH  15  16
ENDBRANCH  14  15
ENDBRANCH  13  14
ENDBRANCH  12  13
ENDBRANCH  11  12
ENDBRANCH  10  11
ENDBRANCH   1  10
TORSDOF 13
ENDMDL
MODEL 6
REMARK VINA RESULT:    -1.856      2.846      4.770
REMARK INTER + INTRA:          -4.973
REMARK INTER:                  -3.735
REMARK INTRA:                  -1.239
REMARK UNBOUND:                -1.706
REMARK SMILES CCCCCCCCCCCCCCC(=O)[O-]
REMARK SMILES IDX 9 1 10 2 11 3 12 4 13 5 14 6 15 7 16 8 17 9 8 10 7 11 6 12
REMARK SMILES IDX 5 13 4 14 3 15 2 16 1 17
REMARK H PARENT
REMARK Flexibility Score: inf
ROOT
ATOM      1  C   UNL     1      17.532 -16.285  14.337  1.00  0.00     0.000 C 
ENDROOT
BRANCH   1   2
ATOM      2  C   UNL     1      17.687 -16.132  15.857  1.00  0.00     0.000 C 
BRANCH   2   3
ATOM      3  C   UNL     1      18.566 -17.238  16.471  1.00  0.00     0.000 C 
BRANCH   3   4
ATOM      4  C   UNL     1      19.820 -17.528  15.631  1.00  0.00     0.000 C 
BRANCH   4   5
ATOM      5  C   UNL     1      21.106 -17.536  16.476  1.00  0.00     0.006 C 
BRANCH   5   6
ATOM      6  C   UNL     1      22.350 -17.212  15.638  1.00  0.00     0.053 C 
BRANCH   6   7
ATOM      7  C   UNL     1      22.332 -15.800  15.140  1.00  0.00     0.041 C 
ATOM      8  O   UNL     1      22.465 -15.560  13.911  1.00  0.00    -0.550 OA
ATOM      9  O   UNL     1      22.130 -14.750  16.027  1.00  0.00    -0.550 OA
ENDBRANCH   6   7
ENDBRANCH   5   6
ENDBRANCH   4   5
ENDBRANCH   3   4
ENDBRANCH   2   3
ENDBRANCH   1   2
BRANCH   1  10
ATOM     10  C   UNL     1      16.873 -17.620  13.941  1.00  0.00     0.000 C 
BRANCH  10  11
ATOM     11  C   UNL     1      15.878 -17.453  12.775  1.00  0.00    -0.000 C 
BRANCH  11  12
ATOM     12  C   UNL     1      16.371 -18.060  11.445  1.00  0.00    -0.000 C 
BRANCH  12  13
ATOM     13  C   UNL     1      17.899 -18.125  11.285  1.00  0.00    -0.000 C 
BRANCH  13  14
ATOM     14  C   UNL     1      18.521 -16.762  10.932  1.00  0.00    -0.000 C 
BRANCH  14  15
ATOM     15  C   UNL     1      19.817 -16.479  11.713  1.00  0.00    -0.000 C 
BRANCH  15  16
ATOM     16  C   UNL     1      20.726 -17.703  11.923  1.00  0.00    -0.003 C 
ATOM     17  C   UNL     1      21.945 -17.707  11.002  1.00  0.00     0.004 C 
ENDBRANCH  15  16
ENDBRANCH  14  15
ENDBRANCH  13  14
ENDBRANCH  12  13
ENDBRANCH  11  12
ENDBRANCH  10  11
ENDBRANCH   1  10
TORSDOF 13
ENDMDL
MODEL 7
REMARK VINA RESULT:    -1.796      2.703      6.168
REMARK INTER + INTRA:          -4.866
REMARK INTER:                  -3.664
REMARK INTRA:                  -1.202
REMARK UNBOUND:                -1.706
REMARK SMILES CCCCCCCCCCCCCCC(=O)[O-]
REMARK SMILES IDX 9 1 10 2 11 3 12 4 13 5 14 6 15 7 16 8 17 9 8 10 7 11 6 12
REMARK SMILES IDX 5 13 4 14 3 15 2 16 1 17
REMARK H PARENT
REMARK Flexibility Score: inf
ROOT
ATOM      1  C   UNL     1      18.489 -16.891  11.662  1.00  0.00     0.000 C 
ENDROOT
BRANCH   1   2
ATOM      2  C   UNL     1      20.001 -17.006  11.415  1.00  0.00     0.000 C 
BRANCH   2   3
ATOM      3  C   UNL     1      20.687 -17.959  12.411  1.00  0.00     0.000 C 
BRANCH   3   4
ATOM      4  C   UNL     1      22.183 -17.654  12.582  1.00  0.00     0.000 C 
BRANCH   4   5
ATOM      5  C   UNL     1      22.546 -17.277  14.029  1.00  0.00     0.006 C 
BRANCH   5   6
ATOM      6  C   UNL     1      22.099 -15.853  14.385  1.00  0.00     0.053 C 
BRANCH   6   7
ATOM      7  C   UNL     1      22.162 -15.602  15.860  1.00  0.00     0.041 C 
ATOM      8  O   UNL     1      21.366 -16.191  16.637  1.00  0.00    -0.550 OA
ATOM      9  O   UNL     1      23.125 -14.746  16.380  1.00  0.00    -0.550 OA
ENDBRANCH   6   7
ENDBRANCH   5   6
ENDBRANCH   4   5
ENDBRANCH   3   4
ENDBRANCH   2   3
ENDBRANCH   1   2
BRANCH   1  10
ATOM     10  C   UNL     1      18.065 -17.489  13.016  1.00  0.00     0.000 C 
BRANCH  10  11
ATOM     11  C   UNL     1      17.461 -16.425  13.957  1.00  0.00    -0.000 C 
BRANCH  11  12
ATOM     12  C   UNL     1      18.175 -16.323  15.320  1.00  0.00    -0.000 C 
BRANCH  12  13
ATOM     13  C   UNL     1      17.981 -17.531  16.251  1.00  0.00    -0.000 C 
BRANCH  13  14
ATOM     14  C   UNL     1      16.522 -18.019  16.299  1.00  0.00    -0.000 C 
BRANCH  14  15
ATOM     15  C   UNL     1      15.611 -17.093  17.125  1.00  0.00    -0.000 C 
BRANCH  15  16
ATOM     16  C   UNL     1      14.116 -17.458  17.092  1.00  0.00    -0.003 C 
ATOM     17  C   UNL     1      13.673 -18.042  15.753  1.00  0.00     0.004 C 
ENDBRANCH  15  16
ENDBRANCH  14  15
ENDBRANCH  13  14
ENDBRANCH  12  13
ENDBRANCH  11  12
ENDBRANCH  10  11
ENDBRANCH   1  10
TORSDOF 13
ENDMDL
MODEL 8
REMARK VINA RESULT:    -0.371      2.593      5.350
REMARK INTER + INTRA:          -2.358
REMARK INTER:                  -1.332
REMARK INTRA:                  -1.026
REMARK UNBOUND:                -1.706
REMARK SMILES CCCCCCCCCCCCCCC(=O)[O-]
REMARK SMILES IDX 9 1 10 2 11 3 12 4 13 5 14 6 15 7 16 8 17 9 8 10 7 11 6 12
REMARK SMILES IDX 5 13 4 14 3 15 2 16 1 17
REMARK H PARENT
REMARK Flexibility Score: inf
ROOT
ATOM      1  C   UNL     1      19.195 -17.031  10.269  1.00  0.00     0.000 C 
ENDROOT
BRANCH   1   2
ATOM      2  C   UNL     1      20.092 -18.125  10.866  1.00  0.00     0.000 C 
BRANCH   2   3
ATOM      3  C   UNL     1      21.588 -17.859  10.616  1.00  0.00     0.000 C 
BRANCH   3   4
ATOM      4  C   UNL     1      22.449 -18.116  11.862  1.00  0.00     0.000 C 
BRANCH   4   5
ATOM      5  C   UNL     1      22.697 -16.838  12.681  1.00  0.00     0.006 C 
BRANCH   5   6
ATOM      6  C   UNL     1      21.968 -16.864  14.031  1.00  0.00     0.053 C 
BRANCH   6   7
ATOM      7  C   UNL     1      21.687 -15.484  14.539  1.00  0.00     0.041 C 
ATOM      8  O   UNL     1      22.610 -14.629  14.592  1.00  0.00    -0.550 OA
ATOM      9  O   UNL     1      20.398 -15.130  14.919  1.00  0.00    -0.550 OA
ENDBRANCH   6   7
ENDBRANCH   5   6
ENDBRANCH   4   5
ENDBRANCH   3   4
ENDBRANCH   2   3
ENDBRANCH   1   2
BRANCH   1  10
ATOM     10  C   UNL     1      17.885 -16.845  11.058  1.00  0.00     0.000 C 
BRANCH  10  11
ATOM     11  C   UNL     1      17.542 -18.082  11.913  1.00  0.00    -0.000 C 
BRANCH  11  12
ATOM     12  C   UNL     1      16.148 -18.016  12.571  1.00  0.00    -0.000 C 
BRANCH  12  13
ATOM     13  C   UNL     1      16.155 -17.933  14.107  1.00  0.00    -0.000 C 
BRANCH  13  14
ATOM     14  C   UNL     1      17.182 -16.921  14.644  1.00  0.00    -0.000 C 
BRANCH  14  15
ATOM     15  C   UNL     1      18.025 -17.485  15.802  1.00  0.00    -0.000 C 
BRANCH  15  16
ATOM     16  C   UNL     1      17.913 -16.706  17.125  1.00  0.00    -0.003 C 
ATOM     17  C   UNL     1      16.777 -15.684  17.122  1.00  0.00     0.004 C 
ENDBRANCH  15  16
ENDBRANCH  14  15
ENDBRANCH  13  14
ENDBRANCH  12  13
ENDBRANCH  11  12
ENDBRANCH  10  11
ENDBRANCH   1  10
TORSDOF 13
ENDMDL
