MODEL 1
REMARK VINA RESULT:    -3.236      0.000      0.000
REMARK INTER + INTRA:          -3.623
REMARK INTER:                  -3.614
REMARK INTRA:                  -0.008
REMARK UNBOUND:                -0.008
REMARK SMILES CCCC(=O)[O-]
REMARK SMILES IDX 3 1 4 2 5 3 6 4 2 5 1 6
REMARK H PARENT
REMARK Flexibility Score: inf
ROOT
ATOM      1  C   UNL     1     -20.464  -6.809 -12.995  1.00  0.00     0.052 C 
ENDROOT
BRANCH   1   2
ATOM      2  C   UNL     1     -19.993  -5.471 -13.478  1.00  0.00     0.041 C 
ATOM      3  O   UNL     1     -20.073  -4.462 -12.730  1.00  0.00    -0.550 OA
ATOM      4  O   UNL     1     -19.497  -5.332 -14.769  1.00  0.00    -0.550 OA
ENDBRANCH   1   2
BRANCH   1   5
ATOM      5  C   UNL     1     -19.937  -7.949 -13.877  1.00  0.00     0.003 C 
ATOM      6  C   UNL     1     -20.286  -9.327 -13.315  1.00  0.00     0.004 C 
ENDBRANCH   1   5
TORSDOF 2
ENDMDL
MODEL 2
REMARK VINA RESULT:    -3.103     17.496     17.803
REMARK INTER + INTRA:          -3.474
REMARK INTER:                  -3.453
REMARK INTRA:                  -0.022
REMARK UNBOUND:                -0.008
REMARK SMILES CCCC(=O)[O-]
REMARK SMILES IDX 3 1 4 2 5 3 6 4 2 5 1 6
REMARK H PARENT
REMARK Flexibility Score: inf
ROOT
ATOM      1  C   UNL     1      -9.398  -8.426   0.057  1.00  0.00     0.052 C 
ENDROOT
BRANCH   1   2
ATOM      2  C   UNL     1      -7.924  -8.387  -0.210  1.00  0.00     0.041 C 
ATOM      3  O   UNL     1      -7.312  -7.288  -0.229  1.00  0.00    -0.550 OA
ATOM      4  O   UNL     1      -7.233  -9.564  -0.472  1.00  0.00    -0.550 OA
ENDBRANCH   1   2
BRANCH   1   5
ATOM      5  C   UNL     1      -9.914  -7.085   0.596  1.00  0.00     0.003 C 
ATOM      6  C   UNL     1     -11.274  -6.707   0.011  1.00  0.00     0.004 C 
ENDBRANCH   1   5
TORSDOF 2
ENDMDL
MODEL 3
REMARK VINA RESULT:    -3.085     17.301     17.571
REMARK INTER + INTRA:          -3.454
REMARK INTER:                  -3.444
REMARK INTRA:                  -0.009
REMARK UNBOUND:                -0.008
REMARK SMILES CCCC(=O)[O-]
REMARK SMILES IDX 3 1 4 2 5 3 6 4 2 5 1 6
REMARK H PARENT
REMARK Flexibility Score: inf
ROOT
ATOM      1  C   UNL     1      -9.379  -8.515   0.099  1.00  0.00     0.052 C 
ENDROOT
BRANCH   1   2
ATOM      2  C   UNL     1     -10.058  -7.203   0.350  1.00  0.00     0.041 C 
ATOM      3  O   UNL     1      -9.505  -6.330   1.067  1.00  0.00    -0.550 OA
ATOM      4  O   UNL     1     -11.319  -6.958  -0.181  1.00  0.00    -0.550 OA
ENDBRANCH   1   2
BRANCH   1   5
ATOM      5  C   UNL     1      -7.901  -8.329  -0.269  1.00  0.00     0.003 C 
ATOM      6  C   UNL     1      -7.125  -9.645  -0.242  1.00  0.00     0.004 C 
ENDBRANCH   1   5
TORSDOF 2
ENDMDL
MODEL 4
REMARK VINA RESULT:    -2.851     18.396     18.715
REMARK INTER + INTRA:          -3.193
REMARK INTER:                  -3.180
REMARK INTRA:                  -0.013
REMARK UNBOUND:                -0.008
REMARK SMILES CCCC(=O)[O-]
REMARK SMILES IDX 3 1 4 2 5 3 6 4 2 5 1 6
REMARK H PARENT
REMARK Flexibility Score: inf
ROOT
ATOM      1  C   UNL     1      -7.825  -8.574  -0.293  1.00  0.00     0.052 C 
ENDROOT
BRANCH   1   2
ATOM      2  C   UNL     1      -7.081  -9.814   0.100  1.00  0.00     0.041 C 
ATOM      3  O   UNL     1      -6.443 -10.471  -0.763  1.00  0.00    -0.550 OA
ATOM      4  O   UNL     1      -7.121 -10.262   1.415  1.00  0.00    -0.550 OA
ENDBRANCH   1   2
BRANCH   1   5
ATOM      5  C   UNL     1      -9.330  -8.704  -0.023  1.00  0.00     0.003 C 
ATOM      6  C   UNL     1      -9.966  -7.373   0.377  1.00  0.00     0.004 C 
ENDBRANCH   1   5
TORSDOF 2
ENDMDL
MODEL 5
REMARK VINA RESULT:    -2.779      1.968      3.152
REMARK INTER + INTRA:          -3.112
REMARK INTER:                  -3.085
REMARK INTRA:                  -0.027
REMARK UNBOUND:                -0.008
REMARK SMILES CCCC(=O)[O-]
REMARK SMILES IDX 3 1 4 2 5 3 6 4 2 5 1 6
REMARK H PARENT
REMARK Flexibility Score: inf
ROOT
ATOM      1  C   UNL     1     -20.654  -7.042 -12.690  1.00  0.00     0.052 C 
ENDROOT
BRANCH   1   2
ATOM      2  C   UNL     1     -19.878  -7.732 -13.770  1.00  0.00     0.041 C 
ATOM      3  O   UNL     1     -19.696  -8.976 -13.724  1.00  0.00    -0.550 OA
ATOM      4  O   UNL     1     -19.326  -6.994 -14.810  1.00  0.00    -0.550 OA
ENDBRANCH   1   2
BRANCH   1   5
ATOM      5  C   UNL     1     -20.672  -5.520 -12.886  1.00  0.00     0.003 C 
ATOM      6  C   UNL     1     -22.093  -4.958 -12.942  1.00  0.00     0.004 C 
ENDBRANCH   1   5
TORSDOF 2
ENDMDL
MODEL 6
REMARK VINA RESULT:    -2.771      2.653      3.480
REMARK INTER + INTRA:          -3.103
REMARK INTER:                  -3.082
REMARK INTRA:                  -0.021
REMARK UNBOUND:                -0.008
REMARK SMILES CCCC(=O)[O-]
REMARK SMILES IDX 3 1 4 2 5 3 6 4 2 5 1 6
REMARK H PARENT
REMARK Flexibility Score: inf
ROOT
ATOM      1  C   UNL     1     -19.785  -7.539 -14.027  1.00  0.00     0.052 C 
ENDROOT
BRANCH   1   2
ATOM      2  C   UNL     1     -20.410  -8.650 -13.241  1.00  0.00     0.041 C 
ATOM      3  O   UNL     1     -20.686  -8.489 -12.023  1.00  0.00    -0.550 OA
ATOM      4  O   UNL     1     -20.659  -9.877 -13.845  1.00  0.00    -0.550 OA
ENDBRANCH   1   2
BRANCH   1   5
ATOM      5  C   UNL     1     -20.640  -6.266 -13.991  1.00  0.00     0.003 C 
ATOM      6  C   UNL     1     -20.089  -5.222 -13.019  1.00  0.00     0.004 C 
ENDBRANCH   1   5
TORSDOF 2
ENDMDL
MODEL 7
REMARK VINA RESULT:    -2.718      2.122      2.241
REMARK INTER + INTRA:          -3.044
REMARK INTER:                  -3.002
REMARK INTRA:                  -0.042
REMARK UNBOUND:                -0.008
REMARK SMILES CCCC(=O)[O-]
REMARK SMILES IDX 3 1 4 2 5 3 6 4 2 5 1 6
REMARK H PARENT
REMARK Flexibility Score: inf
ROOT
ATOM      1  C   UNL     1     -20.214  -7.031 -14.393  1.00  0.00     0.052 C 
ENDROOT
BRANCH   1   2
ATOM      2  C   UNL     1     -21.557  -6.659 -14.945  1.00  0.00     0.041 C 
ATOM      3  O   UNL     1     -22.252  -5.775 -14.379  1.00  0.00    -0.550 OA
ATOM      4  O   UNL     1     -22.054  -7.312 -16.066  1.00  0.00    -0.550 OA
ENDBRANCH   1   2
BRANCH   1   5
ATOM      5  C   UNL     1     -20.338  -7.913 -13.143  1.00  0.00     0.003 C 
ATOM      6  C   UNL     1     -20.315  -9.404 -13.479  1.00  0.00     0.004 C 
ENDBRANCH   1   5
TORSDOF 2
ENDMDL
MODEL 8
REMARK VINA RESULT:    -2.664     18.347     18.585
REMARK INTER + INTRA:          -2.983
REMARK INTER:                  -2.949
REMARK INTRA:                  -0.034
REMARK UNBOUND:                -0.008
REMARK SMILES CCCC(=O)[O-]
REMARK SMILES IDX 3 1 4 2 5 3 6 4 2 5 1 6
REMARK H PARENT
REMARK Flexibility Score: inf
ROOT
ATOM      1  C   UNL     1      -8.172  -9.039  -0.215  1.00  0.00     0.052 C 
ENDROOT
BRANCH   1   2
ATOM      2  C   UNL     1      -7.925  -7.581   0.024  1.00  0.00     0.041 C 
ATOM      3  O   UNL     1      -8.854  -6.839   0.435  1.00  0.00    -0.550 OA
ATOM      4  O   UNL     1      -6.674  -7.035  -0.238  1.00  0.00    -0.550 OA
ENDBRANCH   1   2
BRANCH   1   5
ATOM      5  C   UNL     1      -7.153  -9.918   0.522  1.00  0.00     0.003 C 
ATOM      6  C   UNL     1      -6.340 -10.792  -0.434  1.00  0.00     0.004 C 
ENDBRANCH   1   5
TORSDOF 2
ENDMDL
MODEL 9
REMARK VINA RESULT:    -2.660     17.304     17.609
REMARK INTER + INTRA:          -2.980
REMARK INTER:                  -2.913
REMARK INTRA:                  -0.067
REMARK UNBOUND:                -0.008
REMARK SMILES CCCC(=O)[O-]
REMARK SMILES IDX 3 1 4 2 5 3 6 4 2 5 1 6
REMARK H PARENT
REMARK Flexibility Score: inf
ROOT
ATOM      1  C   UNL     1      -9.243  -6.468   1.199  1.00  0.00     0.052 C 
ENDROOT
BRANCH   1   2
ATOM      2  C   UNL     1     -10.717  -6.202   1.147  1.00  0.00     0.041 C 
ATOM      3  O   UNL     1     -11.445  -6.466   2.140  1.00  0.00    -0.550 OA
ATOM      4  O   UNL     1     -11.292  -5.693  -0.011  1.00  0.00    -0.550 OA
ENDBRANCH   1   2
BRANCH   1   5
ATOM      5  C   UNL     1      -8.939  -7.971   1.257  1.00  0.00     0.003 C 
ATOM      6  C   UNL     1      -9.259  -8.680  -0.059  1.00  0.00     0.004 C 
ENDBRANCH   1   5
TORSDOF 2
ENDMDL
