MODEL 1
REMARK VINA RESULT:    -4.172      0.000      0.000
REMARK INTER + INTRA:          -4.992
REMARK INTER:                  -4.903
REMARK INTRA:                  -0.089
REMARK UNBOUND:                -0.089
REMARK SMILES O=C([O-])CCC(=O)[O-]
REMARK SMILES IDX 4 1 2 2 1 3 3 4 5 5 6 6 7 7 8 8
REMARK H PARENT
REMARK Flexibility Score: inf
ROOT
ATOM      1  C   UNL     1      -1.941  29.359  41.275  1.00  0.00     0.059 C 
ENDROOT
BRANCH   1   2
ATOM      2  C   UNL     1      -1.000  30.469  40.919  1.00  0.00     0.042 C 
ATOM      3  O   UNL     1      -0.030  30.253  40.146  1.00  0.00    -0.550 OA
ATOM      4  O   UNL     1      -1.218  31.750  41.409  1.00  0.00    -0.550 OA
ENDBRANCH   1   2
BRANCH   1   5
ATOM      5  C   UNL     1      -2.596  29.590  42.641  1.00  0.00     0.059 C 
BRANCH   5   6
ATOM      6  C   UNL     1      -1.886  28.843  43.728  1.00  0.00     0.042 C 
ATOM      7  O   UNL     1      -0.983  28.015  43.441  1.00  0.00    -0.550 OA
ATOM      8  O   UNL     1      -2.194  29.092  45.060  1.00  0.00    -0.550 OA
ENDBRANCH   5   6
ENDBRANCH   1   5
TORSDOF 3
ENDMDL
MODEL 2
REMARK VINA RESULT:    -4.147     21.416     22.418
REMARK INTER + INTRA:          -4.962
REMARK INTER:                  -4.867
REMARK INTRA:                  -0.095
REMARK UNBOUND:                -0.089
REMARK SMILES O=C([O-])CCC(=O)[O-]
REMARK SMILES IDX 4 1 2 2 1 3 3 4 5 5 6 6 7 7 8 8
REMARK H PARENT
REMARK Flexibility Score: inf
ROOT
ATOM      1  C   UNL     1      15.750  15.228  44.946  1.00  0.00     0.059 C 
ENDROOT
BRANCH   1   2
ATOM      2  C   UNL     1      14.964  14.080  44.390  1.00  0.00     0.042 C 
ATOM      3  O   UNL     1      14.882  13.000  45.031  1.00  0.00    -0.550 OA
ATOM      4  O   UNL     1      14.290  14.217  43.184  1.00  0.00    -0.550 OA
ENDBRANCH   1   2
BRANCH   1   5
ATOM      5  C   UNL     1      15.896  15.128  46.468  1.00  0.00     0.059 C 
BRANCH   5   6
ATOM      6  C   UNL     1      14.790  15.848  47.178  1.00  0.00     0.042 C 
ATOM      7  O   UNL     1      14.121  16.729  46.579  1.00  0.00    -0.550 OA
ATOM      8  O   UNL     1      14.474  15.517  48.490  1.00  0.00    -0.550 OA
ENDBRANCH   5   6
ENDBRANCH   1   5
TORSDOF 3
ENDMDL
MODEL 3
REMARK VINA RESULT:    -4.134     21.401     22.607
REMARK INTER + INTRA:          -4.947
REMARK INTER:                  -4.865
REMARK INTRA:                  -0.083
REMARK UNBOUND:                -0.089
REMARK SMILES O=C([O-])CCC(=O)[O-]
REMARK SMILES IDX 4 1 2 2 1 3 3 4 5 5 6 6 7 7 8 8
REMARK H PARENT
REMARK Flexibility Score: inf
ROOT
ATOM      1  C   UNL     1      14.001  13.780  47.016  1.00  0.00     0.059 C 
ENDROOT
BRANCH   1   2
ATOM      2  C   UNL     1      14.931  14.775  47.639  1.00  0.00     0.042 C 
ATOM      3  O   UNL     1      14.514  15.562  48.529  1.00  0.00    -0.550 OA
ATOM      4  O   UNL     1      16.269  14.806  47.266  1.00  0.00    -0.550 OA
ENDBRANCH   1   2
BRANCH   1   5
ATOM      5  C   UNL     1      14.470  13.367  45.617  1.00  0.00     0.059 C 
BRANCH   5   6
ATOM      6  C   UNL     1      13.840  14.210  44.551  1.00  0.00     0.042 C 
ATOM      7  O   UNL     1      12.907  15.004  44.841  1.00  0.00    -0.550 OA
ATOM      8  O   UNL     1      14.310  14.147  43.245  1.00  0.00    -0.550 OA
ENDBRANCH   5   6
ENDBRANCH   1   5
TORSDOF 3
ENDMDL
MODEL 4
REMARK VINA RESULT:    -4.129     21.350     22.380
REMARK INTER + INTRA:          -4.942
REMARK INTER:                  -4.859
REMARK INTRA:                  -0.082
REMARK UNBOUND:                -0.089
REMARK SMILES O=C([O-])CCC(=O)[O-]
REMARK SMILES IDX 4 1 2 2 1 3 3 4 5 5 6 6 7 7 8 8
REMARK H PARENT
REMARK Flexibility Score: inf
ROOT
ATOM      1  C   UNL     1      14.357  13.386  45.621  1.00  0.00     0.059 C 
ENDROOT
BRANCH   1   2
ATOM      2  C   UNL     1      13.827  14.249  44.517  1.00  0.00     0.042 C 
ATOM      3  O   UNL     1      12.938  15.107  44.756  1.00  0.00    -0.550 OA
ATOM      4  O   UNL     1      14.344  14.132  43.233  1.00  0.00    -0.550 OA
ENDBRANCH   1   2
BRANCH   1   5
ATOM      5  C   UNL     1      13.896  13.882  46.997  1.00  0.00     0.059 C 
BRANCH   5   6
ATOM      6  C   UNL     1      14.884  14.834  47.599  1.00  0.00     0.042 C 
ATOM      7  O   UNL     1      14.521  15.642  48.493  1.00  0.00    -0.550 OA
ATOM      8  O   UNL     1      16.215  14.803  47.199  1.00  0.00    -0.550 OA
ENDBRANCH   5   6
ENDBRANCH   1   5
TORSDOF 3
ENDMDL
MODEL 5
REMARK VINA RESULT:    -4.113     21.348     22.479
REMARK INTER + INTRA:          -4.923
REMARK INTER:                  -4.829
REMARK INTRA:                  -0.093
REMARK UNBOUND:                -0.089
REMARK SMILES O=C([O-])CCC(=O)[O-]
REMARK SMILES IDX 4 1 2 2 1 3 3 4 5 5 6 6 7 7 8 8
REMARK H PARENT
REMARK Flexibility Score: inf
ROOT
ATOM      1  C   UNL     1      15.810  15.060  46.570  1.00  0.00     0.059 C 
ENDROOT
BRANCH   1   2
ATOM      2  C   UNL     1      14.728  15.829  47.265  1.00  0.00     0.042 C 
ATOM      3  O   UNL     1      14.488  15.623  48.484  1.00  0.00    -0.550 OA
ATOM      4  O   UNL     1      14.013  16.800  46.577  1.00  0.00    -0.550 OA
ENDBRANCH   1   2
BRANCH   1   5
ATOM      5  C   UNL     1      15.691  15.168  45.046  1.00  0.00     0.059 C 
BRANCH   5   6
ATOM      6  C   UNL     1      14.857  14.060  44.478  1.00  0.00     0.042 C 
ATOM      7  O   UNL     1      14.655  13.013  45.146  1.00  0.00    -0.550 OA
ATOM      8  O   UNL     1      14.272  14.201  43.226  1.00  0.00    -0.550 OA
ENDBRANCH   5   6
ENDBRANCH   1   5
TORSDOF 3
ENDMDL
MODEL 6
REMARK VINA RESULT:    -4.011     21.901     23.002
REMARK INTER + INTRA:          -4.803
REMARK INTER:                  -4.712
REMARK INTRA:                  -0.090
REMARK UNBOUND:                -0.089
REMARK SMILES O=C([O-])CCC(=O)[O-]
REMARK SMILES IDX 4 1 2 2 1 3 3 4 5 5 6 6 7 7 8 8
REMARK H PARENT
REMARK Flexibility Score: inf
ROOT
ATOM      1  C   UNL     1      15.713  14.875  47.445  1.00  0.00     0.059 C 
ENDROOT
BRANCH   1   2
ATOM      2  C   UNL     1      14.373  15.209  48.026  1.00  0.00     0.042 C 
ATOM      3  O   UNL     1      14.136  16.372  48.445  1.00  0.00    -0.550 OA
ATOM      4  O   UNL     1      13.373  14.245  48.069  1.00  0.00    -0.550 OA
ENDBRANCH   1   2
BRANCH   1   5
ATOM      5  C   UNL     1      15.641  13.650  46.526  1.00  0.00     0.059 C 
BRANCH   5   6
ATOM      6  C   UNL     1      15.578  14.046  45.082  1.00  0.00     0.042 C 
ATOM      7  O   UNL     1      14.975  13.319  44.252  1.00  0.00    -0.550 OA
ATOM      8  O   UNL     1      16.154  15.239  44.662  1.00  0.00    -0.550 OA
ENDBRANCH   5   6
ENDBRANCH   1   5
TORSDOF 3
ENDMDL
MODEL 7
REMARK VINA RESULT:    -3.983     21.855     22.850
REMARK INTER + INTRA:          -4.770
REMARK INTER:                  -4.644
REMARK INTRA:                  -0.126
REMARK UNBOUND:                -0.089
REMARK SMILES O=C([O-])CCC(=O)[O-]
REMARK SMILES IDX 4 1 2 2 1 3 3 4 5 5 6 6 7 7 8 8
REMARK H PARENT
REMARK Flexibility Score: inf
ROOT
ATOM      1  C   UNL     1      15.845  13.783  45.664  1.00  0.00     0.059 C 
ENDROOT
BRANCH   1   2
ATOM      2  C   UNL     1      15.106  14.385  46.821  1.00  0.00     0.042 C 
ATOM      3  O   UNL     1      15.401  15.539  47.229  1.00  0.00    -0.550 OA
ATOM      4  O   UNL     1      14.066  13.687  47.421  1.00  0.00    -0.550 OA
ENDBRANCH   1   2
BRANCH   1   5
ATOM      5  C   UNL     1      14.889  13.333  44.555  1.00  0.00     0.059 C 
BRANCH   5   6
ATOM      6  C   UNL     1      14.577  14.452  43.607  1.00  0.00     0.042 C 
ATOM      7  O   UNL     1      13.473  14.483  43.006  1.00  0.00    -0.550 OA
ATOM      8  O   UNL     1      15.493  15.480  43.419  1.00  0.00    -0.550 OA
ENDBRANCH   5   6
ENDBRANCH   1   5
TORSDOF 3
ENDMDL
MODEL 8
REMARK VINA RESULT:    -3.945     21.007     21.965
REMARK INTER + INTRA:          -4.725
REMARK INTER:                  -4.603
REMARK INTRA:                  -0.122
REMARK UNBOUND:                -0.089
REMARK SMILES O=C([O-])CCC(=O)[O-]
REMARK SMILES IDX 4 1 2 2 1 3 3 4 5 5 6 6 7 7 8 8
REMARK H PARENT
REMARK Flexibility Score: inf
ROOT
ATOM      1  C   UNL     1      14.773  14.231  44.479  1.00  0.00     0.059 C 
ENDROOT
BRANCH   1   2
ATOM      2  C   UNL     1      13.605  14.937  43.861  1.00  0.00     0.042 C 
ATOM      3  O   UNL     1      13.519  15.041  42.609  1.00  0.00    -0.550 OA
ATOM      4  O   UNL     1      12.593  15.443  44.665  1.00  0.00    -0.550 OA
ENDBRANCH   1   2
BRANCH   1   5
ATOM      5  C   UNL     1      15.785  15.221  45.068  1.00  0.00     0.059 C 
BRANCH   5   6
ATOM      6  C   UNL     1      15.605  15.380  46.547  1.00  0.00     0.042 C 
ATOM      7  O   UNL     1      16.195  14.605  47.344  1.00  0.00    -0.550 OA
ATOM      8  O   UNL     1      14.816  16.410  47.046  1.00  0.00    -0.550 OA
ENDBRANCH   5   6
ENDBRANCH   1   5
TORSDOF 3
ENDMDL
MODEL 9
REMARK VINA RESULT:    -3.854     20.060     21.295
REMARK INTER + INTRA:          -4.618
REMARK INTER:                  -4.443
REMARK INTRA:                  -0.175
REMARK UNBOUND:                -0.089
REMARK SMILES O=C([O-])CCC(=O)[O-]
REMARK SMILES IDX 4 1 2 2 1 3 3 4 5 5 6 6 7 7 8 8
REMARK H PARENT
REMARK Flexibility Score: inf
ROOT
ATOM      1  C   UNL     1      14.150  16.149  48.165  1.00  0.00     0.059 C 
ENDROOT
BRANCH   1   2
ATOM      2  C   UNL     1      14.902  15.075  47.440  1.00  0.00     0.042 C 
ATOM      3  O   UNL     1      16.013  15.330  46.905  1.00  0.00    -0.550 OA
ATOM      4  O   UNL     1      14.395  13.783  47.390  1.00  0.00    -0.550 OA
ENDBRANCH   1   2
BRANCH   1   5
ATOM      5  C   UNL     1      12.701  16.253  47.676  1.00  0.00     0.059 C 
BRANCH   5   6
ATOM      6  C   UNL     1      12.631  16.719  46.254  1.00  0.00     0.042 C 
ATOM      7  O   UNL     1      13.203  17.785  45.908  1.00  0.00    -0.550 OA
ATOM      8  O   UNL     1      11.966  15.954  45.303  1.00  0.00    -0.550 OA
ENDBRANCH   5   6
ENDBRANCH   1   5
TORSDOF 3
ENDMDL
