MODEL 1
REMARK VINA RESULT:    -0.398      0.000      0.000
REMARK INTER + INTRA:          -0.432
REMARK INTER:                  -0.432
REMARK INTRA:                   0.000
REMARK UNBOUND:                 0.000
REMARK SMILES Cc1cc(O)c2c(c1)C(=O)c1cc(O)cc(O)c1C2=O
REMARK SMILES IDX 1 1 2 2 8 3 7 4 6 5 4 6 3 7 19 8 20 9 18 10 11 11 9 12 10 13
REMARK SMILES IDX 12 14 13 15 15 16 16 17 5 18 17 20 14 22
REMARK H PARENT 5 19 17 21 14 23
REMARK Flexibility Score: inf
ROOT
ATOM      1  C   UNL     1      27.125  31.789  21.038  1.00  0.00     0.044 C 
ATOM      2  C   UNL     1      26.916  33.254  21.283  1.00  0.00    -0.047 A 
ATOM      3  C   UNL     1      26.952  33.762  22.586  1.00  0.00     0.016 A 
ATOM      4  C   UNL     1      26.730  35.128  22.830  1.00  0.00     0.038 A 
ATOM      5  C   UNL     1      26.468  36.000  21.749  1.00  0.00     0.076 A 
ATOM      6  C   UNL     1      26.350  35.465  20.441  1.00  0.00     0.127 A 
ATOM      7  C   UNL     1      26.595  34.107  20.221  1.00  0.00     0.050 A 
ATOM      8  C   UNL     1      26.387  37.458  22.028  1.00  0.00     0.201 C 
ATOM      9  O   UNL     1      26.725  38.285  21.139  1.00  0.00    -0.288 OA
ATOM     10  C   UNL     1      26.088  37.931  23.404  1.00  0.00     0.076 A 
ATOM     11  C   UNL     1      26.349  37.055  24.482  1.00  0.00     0.041 A 
ATOM     12  C   UNL     1      26.761  35.656  24.213  1.00  0.00     0.194 C 
ATOM     13  O   UNL     1      27.116  34.909  25.167  1.00  0.00    -0.289 OA
ATOM     14  C   UNL     1      26.210  37.512  25.803  1.00  0.00     0.059 A 
ATOM     15  C   UNL     1      25.803  38.823  26.061  1.00  0.00     0.120 A 
ATOM     16  C   UNL     1      25.506  39.678  25.001  1.00  0.00     0.093 A 
ATOM     17  C   UNL     1      25.616  39.241  23.677  1.00  0.00     0.131 A 
ENDROOT
BRANCH   6  18
ATOM     18  O   UNL     1      25.958  36.235  19.343  1.00  0.00    -0.507 OA
ATOM     19  H   UNL     1      25.008  36.280  19.003  1.00  0.00     0.293 HD
ENDBRANCH   6  18
BRANCH  17  20
ATOM     20  O   UNL     1      25.214  40.124  22.672  1.00  0.00    -0.507 OA
ATOM     21  H   UNL     1      25.703  40.232  21.793  1.00  0.00     0.293 HD
ENDBRANCH  17  20
BRANCH  15  22
ATOM     22  O   UNL     1      25.676  39.283  27.371  1.00  0.00    -0.508 OA
ATOM     23  H   UNL     1      25.845  40.253  27.609  1.00  0.00     0.293 HD
ENDBRANCH  15  22
TORSDOF 3
ENDMDL
MODEL 2
REMARK VINA RESULT:    -0.329     13.065     15.296
REMARK INTER + INTRA:          -0.358
REMARK INTER:                  -0.358
REMARK INTRA:                   0.000
REMARK UNBOUND:                 0.000
REMARK SMILES Cc1cc(O)c2c(c1)C(=O)c1cc(O)cc(O)c1C2=O
REMARK SMILES IDX 1 1 2 2 8 3 7 4 6 5 4 6 3 7 19 8 20 9 18 10 11 11 9 12 10 13
REMARK SMILES IDX 12 14 13 15 15 16 16 17 5 18 17 20 14 22
REMARK H PARENT 5 19 17 21 14 23
REMARK Flexibility Score: inf
ROOT
ATOM      1  C   UNL     1       8.850  38.195  31.034  1.00  0.00     0.044 C 
ATOM      2  C   UNL     1      10.225  38.197  30.431  1.00  0.00    -0.047 A 
ATOM      3  C   UNL     1      10.450  38.813  29.195  1.00  0.00     0.016 A 
ATOM      4  C   UNL     1      11.726  38.796  28.607  1.00  0.00     0.038 A 
ATOM      5  C   UNL     1      12.796  38.153  29.271  1.00  0.00     0.076 A 
ATOM      6  C   UNL     1      12.542  37.460  30.482  1.00  0.00     0.127 A 
ATOM      7  C   UNL     1      11.269  37.507  31.056  1.00  0.00     0.050 A 
ATOM      8  C   UNL     1      14.160  38.284  28.694  1.00  0.00     0.201 C 
ATOM      9  O   UNL     1      15.165  38.262  29.453  1.00  0.00    -0.288 OA
ATOM     10  C   UNL     1      14.324  38.627  27.258  1.00  0.00     0.076 A 
ATOM     11  C   UNL     1      13.251  39.268  26.598  1.00  0.00     0.041 A 
ATOM     12  C   UNL     1      11.955  39.443  27.294  1.00  0.00     0.194 C 
ATOM     13  O   UNL     1      11.037  40.125  26.758  1.00  0.00    -0.289 OA
ATOM     14  C   UNL     1      13.417  39.730  25.281  1.00  0.00     0.059 A 
ATOM     15  C   UNL     1      14.630  39.549  24.614  1.00  0.00     0.120 A 
ATOM     16  C   UNL     1      15.678  38.882  25.247  1.00  0.00     0.093 A 
ATOM     17  C   UNL     1      15.532  38.393  26.550  1.00  0.00     0.131 A 
ENDROOT
BRANCH   6  18
ATOM     18  O   UNL     1      13.511  36.685  31.125  1.00  0.00    -0.507 OA
ATOM     19  H   UNL     1      13.747  35.742  30.848  1.00  0.00     0.293 HD
ENDBRANCH   6  18
BRANCH  17  20
ATOM     20  O   UNL     1      16.591  37.656  27.084  1.00  0.00    -0.507 OA
ATOM     21  H   UNL     1      17.042  36.893  26.597  1.00  0.00     0.293 HD
ENDBRANCH  17  20
BRANCH  15  22
ATOM     22  O   UNL     1      14.803  40.018  23.312  1.00  0.00    -0.508 OA
ATOM     23  H   UNL     1      15.585  40.612  23.063  1.00  0.00     0.293 HD
ENDBRANCH  15  22
TORSDOF 3
ENDMDL
MODEL 3
REMARK VINA RESULT:     1.887      1.610      5.539
REMARK INTER + INTRA:           2.053
REMARK INTER:                   2.053
REMARK INTRA:                   0.000
REMARK UNBOUND:                 0.000
REMARK SMILES Cc1cc(O)c2c(c1)C(=O)c1cc(O)cc(O)c1C2=O
REMARK SMILES IDX 1 1 2 2 8 3 7 4 6 5 4 6 3 7 19 8 20 9 18 10 11 11 9 12 10 13
REMARK SMILES IDX 12 14 13 15 15 16 16 17 5 18 17 20 14 22
REMARK H PARENT 5 19 17 21 14 23
REMARK Flexibility Score: inf
ROOT
ATOM      1  C   UNL     1      27.125  38.680  27.645  1.00  0.00     0.044 C 
ATOM      2  C   UNL     1      26.735  38.151  26.296  1.00  0.00    -0.047 A 
ATOM      3  C   UNL     1      26.912  36.796  25.993  1.00  0.00     0.016 A 
ATOM      4  C   UNL     1      26.576  36.295  24.724  1.00  0.00     0.038 A 
ATOM      5  C   UNL     1      26.053  37.166  23.742  1.00  0.00     0.076 A 
ATOM      6  C   UNL     1      25.955  38.552  24.027  1.00  0.00     0.127 A 
ATOM      7  C   UNL     1      26.276  39.023  25.303  1.00  0.00     0.050 A 
ATOM      8  C   UNL     1      25.571  36.576  22.465  1.00  0.00     0.201 C 
ATOM      9  O   UNL     1      24.631  37.130  21.835  1.00  0.00    -0.288 OA
ATOM     10  C   UNL     1      26.066  35.243  22.035  1.00  0.00     0.076 A 
ATOM     11  C   UNL     1      26.591  34.376  23.020  1.00  0.00     0.041 A 
ATOM     12  C   UNL     1      26.774  34.861  24.409  1.00  0.00     0.194 C 
ATOM     13  O   UNL     1      27.121  34.057  25.318  1.00  0.00    -0.289 OA
ATOM     14  C   UNL     1      26.942  33.059  22.677  1.00  0.00     0.059 A 
ATOM     15  C   UNL     1      26.789  32.604  21.366  1.00  0.00     0.120 A 
ATOM     16  C   UNL     1      26.310  33.468  20.382  1.00  0.00     0.093 A 
ATOM     17  C   UNL     1      25.973  34.790  20.693  1.00  0.00     0.131 A 
ENDROOT
BRANCH   6  18
ATOM     18  O   UNL     1      25.581  39.496  23.067  1.00  0.00    -0.507 OA
ATOM     19  H   UNL     1      25.932  40.443  23.048  1.00  0.00     0.293 HD
ENDBRANCH   6  18
BRANCH  17  20
ATOM     20  O   UNL     1      25.588  35.622  19.639  1.00  0.00    -0.507 OA
ATOM     21  H   UNL     1      24.666  35.607  19.224  1.00  0.00     0.293 HD
ENDBRANCH  17  20
BRANCH  15  22
ATOM     22  O   UNL     1      27.125  31.295  21.024  1.00  0.00    -0.508 OA
ATOM     23  H   UNL     1      27.925  31.089  20.437  1.00  0.00     0.293 HD
ENDBRANCH  15  22
TORSDOF 3
ENDMDL
MODEL 4
REMARK VINA RESULT:     2.348      2.727      6.237
REMARK INTER + INTRA:           2.554
REMARK INTER:                   2.554
REMARK INTRA:                   0.000
REMARK UNBOUND:                 0.000
REMARK SMILES Cc1cc(O)c2c(c1)C(=O)c1cc(O)cc(O)c1C2=O
REMARK SMILES IDX 1 1 2 2 8 3 7 4 6 5 4 6 3 7 19 8 20 9 18 10 11 11 9 12 10 13
REMARK SMILES IDX 12 14 13 15 15 16 16 17 5 18 17 20 14 22
REMARK H PARENT 5 19 17 21 14 23
REMARK Flexibility Score: inf
ROOT
ATOM      1  C   UNL     1      23.152  40.106  28.500  1.00  0.00     0.044 C 
ATOM      2  C   UNL     1      23.812  39.511  27.291  1.00  0.00    -0.047 A 
ATOM      3  C   UNL     1      23.141  38.553  26.522  1.00  0.00     0.016 A 
ATOM      4  C   UNL     1      23.760  37.969  25.404  1.00  0.00     0.038 A 
ATOM      5  C   UNL     1      25.074  38.350  25.050  1.00  0.00     0.076 A 
ATOM      6  C   UNL     1      25.779  39.258  25.881  1.00  0.00     0.127 A 
ATOM      7  C   UNL     1      25.135  39.842  26.976  1.00  0.00     0.050 A 
ATOM      8  C   UNL     1      25.639  37.824  23.780  1.00  0.00     0.201 C 
ATOM      9  O   UNL     1      26.479  38.509  23.137  1.00  0.00    -0.288 OA
ATOM     10  C   UNL     1      25.077  36.587  23.179  1.00  0.00     0.076 A 
ATOM     11  C   UNL     1      23.764  36.207  23.538  1.00  0.00     0.041 A 
ATOM     12  C   UNL     1      23.046  36.950  24.601  1.00  0.00     0.194 C 
ATOM     13  O   UNL     1      21.832  36.697  24.836  1.00  0.00    -0.289 OA
ATOM     14  C   UNL     1      23.148  35.124  22.889  1.00  0.00     0.059 A 
ATOM     15  C   UNL     1      23.829  34.409  21.901  1.00  0.00     0.120 A 
ATOM     16  C   UNL     1      25.139  34.755  21.572  1.00  0.00     0.093 A 
ATOM     17  C   UNL     1      25.782  35.816  22.218  1.00  0.00     0.131 A 
ENDROOT
BRANCH   6  18
ATOM     18  O   UNL     1      27.124  39.579  25.679  1.00  0.00    -0.507 OA
ATOM     19  H   UNL     1      27.467  40.526  25.604  1.00  0.00     0.293 HD
ENDBRANCH   6  18
BRANCH  17  20
ATOM     20  O   UNL     1      27.123  36.045  21.901  1.00  0.00    -0.507 OA
ATOM     21  H   UNL     1      27.552  35.746  21.035  1.00  0.00     0.293 HD
ENDBRANCH  17  20
BRANCH  15  22
ATOM     22  O   UNL     1      23.216  33.341  21.247  1.00  0.00    -0.508 OA
ATOM     23  H   UNL     1      22.320  32.979  21.549  1.00  0.00     0.293 HD
ENDBRANCH  15  22
TORSDOF 3
ENDMDL
