MODEL 1
REMARK VINA RESULT:    -3.426      0.000      0.000
REMARK INTER + INTRA:          -4.085
REMARK INTER:                  -4.027
REMARK INTRA:                  -0.058
REMARK UNBOUND:                -0.058
REMARK SMILES CCCCC(=O)[O-]
REMARK SMILES IDX 4 1 5 2 6 3 7 4 3 5 2 6 1 7
REMARK H PARENT
REMARK Flexibility Score: inf
ROOT
ATOM      1  C   UNL     1     -12.621  44.484  20.951  1.00  0.00     0.053 C 
ENDROOT
BRANCH   1   2
ATOM      2  C   UNL     1     -11.172  44.378  21.312  1.00  0.00     0.041 C 
ATOM      3  O   UNL     1     -10.557  45.378  21.766  1.00  0.00    -0.550 OA
ATOM      4  O   UNL     1     -10.508  43.164  21.179  1.00  0.00    -0.550 OA
ENDBRANCH   1   2
BRANCH   1   5
ATOM      5  C   UNL     1     -13.520  43.809  21.995  1.00  0.00     0.006 C 
BRANCH   5   6
ATOM      6  C   UNL     1     -13.768  44.707  23.216  1.00  0.00    -0.003 C 
ATOM      7  C   UNL     1     -15.004  44.257  23.989  1.00  0.00     0.004 C 
ENDBRANCH   5   6
ENDBRANCH   1   5
TORSDOF 3
ENDMDL
MODEL 2
REMARK VINA RESULT:    -3.385      0.792      1.517
REMARK INTER + INTRA:          -4.037
REMARK INTER:                  -3.994
REMARK INTRA:                  -0.043
REMARK UNBOUND:                -0.058
REMARK SMILES CCCCC(=O)[O-]
REMARK SMILES IDX 4 1 5 2 6 3 7 4 3 5 2 6 1 7
REMARK H PARENT
REMARK Flexibility Score: inf
ROOT
ATOM      1  C   UNL     1     -12.834  44.346  21.572  1.00  0.00     0.053 C 
ENDROOT
BRANCH   1   2
ATOM      2  C   UNL     1     -11.417  44.061  21.181  1.00  0.00     0.041 C 
ATOM      3  O   UNL     1     -11.036  42.875  21.000  1.00  0.00    -0.550 OA
ATOM      4  O   UNL     1     -10.525  45.109  20.984  1.00  0.00    -0.550 OA
ENDBRANCH   1   2
BRANCH   1   5
ATOM      5  C   UNL     1     -12.916  45.132  22.888  1.00  0.00     0.006 C 
BRANCH   5   6
ATOM      6  C   UNL     1     -14.174  44.784  23.695  1.00  0.00    -0.003 C 
ATOM      7  C   UNL     1     -14.906  43.591  23.089  1.00  0.00     0.004 C 
ENDBRANCH   5   6
ENDBRANCH   1   5
TORSDOF 3
ENDMDL
MODEL 3
REMARK VINA RESULT:    -3.271      3.205      4.164
REMARK INTER + INTRA:          -3.903
REMARK INTER:                  -3.869
REMARK INTRA:                  -0.034
REMARK UNBOUND:                -0.058
REMARK SMILES CCCCC(=O)[O-]
REMARK SMILES IDX 4 1 5 2 6 3 7 4 3 5 2 6 1 7
REMARK H PARENT
REMARK Flexibility Score: inf
ROOT
ATOM      1  C   UNL     1     -12.707  45.777  23.837  1.00  0.00     0.053 C 
ENDROOT
BRANCH   1   2
ATOM      2  C   UNL     1     -13.421  46.611  24.855  1.00  0.00     0.041 C 
ATOM      3  O   UNL     1     -13.410  47.867  24.767  1.00  0.00    -0.550 OA
ATOM      4  O   UNL     1     -14.128  46.000  25.885  1.00  0.00    -0.550 OA
ENDBRANCH   1   2
BRANCH   1   5
ATOM      5  C   UNL     1     -13.656  44.794  23.139  1.00  0.00     0.006 C 
BRANCH   5   6
ATOM      6  C   UNL     1     -13.027  44.170  21.885  1.00  0.00    -0.003 C 
ATOM      7  C   UNL     1     -11.953  45.079  21.297  1.00  0.00     0.004 C 
ENDBRANCH   5   6
ENDBRANCH   1   5
TORSDOF 3
ENDMDL
MODEL 4
REMARK VINA RESULT:    -3.179     20.404     21.489
REMARK INTER + INTRA:          -3.794
REMARK INTER:                  -3.743
REMARK INTRA:                  -0.052
REMARK UNBOUND:                -0.058
REMARK SMILES CCCCC(=O)[O-]
REMARK SMILES IDX 4 1 5 2 6 3 7 4 3 5 2 6 1 7
REMARK H PARENT
REMARK Flexibility Score: inf
ROOT
ATOM      1  C   UNL     1     -22.500  61.151  29.034  1.00  0.00     0.053 C 
ENDROOT
BRANCH   1   2
ATOM      2  C   UNL     1     -21.430  61.645  28.109  1.00  0.00     0.041 C 
ATOM      3  O   UNL     1     -21.727  62.044  26.953  1.00  0.00    -0.550 OA
ATOM      4  O   UNL     1     -20.109  61.696  28.538  1.00  0.00    -0.550 OA
ENDBRANCH   1   2
BRANCH   1   5
ATOM      5  C   UNL     1     -22.482  61.895  30.376  1.00  0.00     0.006 C 
BRANCH   5   6
ATOM      6  C   UNL     1     -23.896  62.216  30.881  1.00  0.00    -0.003 C 
ATOM      7  C   UNL     1     -24.710  62.943  29.816  1.00  0.00     0.004 C 
ENDBRANCH   5   6
ENDBRANCH   1   5
TORSDOF 3
ENDMDL
MODEL 5
REMARK VINA RESULT:    -3.110     21.716     22.991
REMARK INTER + INTRA:          -3.713
REMARK INTER:                  -3.672
REMARK INTRA:                  -0.041
REMARK UNBOUND:                -0.058
REMARK SMILES CCCCC(=O)[O-]
REMARK SMILES IDX 4 1 5 2 6 3 7 4 3 5 2 6 1 7
REMARK H PARENT
REMARK Flexibility Score: inf
ROOT
ATOM      1  C   UNL     1     -24.834  62.649  30.359  1.00  0.00     0.053 C 
ENDROOT
BRANCH   1   2
ATOM      2  C   UNL     1     -25.693  61.671  31.100  1.00  0.00     0.041 C 
ATOM      3  O   UNL     1     -26.223  61.995  32.194  1.00  0.00    -0.550 OA
ATOM      4  O   UNL     1     -25.934  60.411  30.564  1.00  0.00    -0.550 OA
ENDBRANCH   1   2
BRANCH   1   5
ATOM      5  C   UNL     1     -23.538  62.001  29.853  1.00  0.00     0.006 C 
BRANCH   5   6
ATOM      6  C   UNL     1     -23.565  61.753  28.338  1.00  0.00    -0.003 C 
ATOM      7  C   UNL     1     -22.153  61.628  27.775  1.00  0.00     0.004 C 
ENDBRANCH   5   6
ENDBRANCH   1   5
TORSDOF 3
ENDMDL
MODEL 6
REMARK VINA RESULT:    -3.094     20.566     21.736
REMARK INTER + INTRA:          -3.695
REMARK INTER:                  -3.591
REMARK INTRA:                  -0.103
REMARK UNBOUND:                -0.058
REMARK SMILES CCCCC(=O)[O-]
REMARK SMILES IDX 4 1 5 2 6 3 7 4 3 5 2 6 1 7
REMARK H PARENT
REMARK Flexibility Score: inf
ROOT
ATOM      1  C   UNL     1     -23.270  61.691  28.342  1.00  0.00     0.053 C 
ENDROOT
BRANCH   1   2
ATOM      2  C   UNL     1     -23.673  60.279  28.048  1.00  0.00     0.041 C 
ATOM      3  O   UNL     1     -22.904  59.522  27.400  1.00  0.00    -0.550 OA
ATOM      4  O   UNL     1     -24.886  59.788  28.519  1.00  0.00    -0.550 OA
ENDBRANCH   1   2
BRANCH   1   5
ATOM      5  C   UNL     1     -23.325  61.998  29.845  1.00  0.00     0.006 C 
BRANCH   5   6
ATOM      6  C   UNL     1     -24.506  62.909  30.209  1.00  0.00    -0.003 C 
ATOM      7  C   UNL     1     -25.462  62.212  31.172  1.00  0.00     0.004 C 
ENDBRANCH   5   6
ENDBRANCH   1   5
TORSDOF 3
ENDMDL
MODEL 7
REMARK VINA RESULT:    -3.093     22.065     23.004
REMARK INTER + INTRA:          -3.694
REMARK INTER:                  -3.576
REMARK INTRA:                  -0.118
REMARK UNBOUND:                -0.058
REMARK SMILES CCCCC(=O)[O-]
REMARK SMILES IDX 4 1 5 2 6 3 7 4 3 5 2 6 1 7
REMARK H PARENT
REMARK Flexibility Score: inf
ROOT
ATOM      1  C   UNL     1     -25.472  59.539  30.319  1.00  0.00     0.053 C 
ENDROOT
BRANCH   1   2
ATOM      2  C   UNL     1     -26.161  59.795  31.624  1.00  0.00     0.041 C 
ATOM      3  O   UNL     1     -25.868  59.111  32.640  1.00  0.00    -0.550 OA
ATOM      4  O   UNL     1     -27.103  60.811  31.727  1.00  0.00    -0.550 OA
ENDBRANCH   1   2
BRANCH   1   5
ATOM      5  C   UNL     1     -25.478  60.782  29.419  1.00  0.00     0.006 C 
BRANCH   5   6
ATOM      6  C   UNL     1     -24.294  61.716  29.709  1.00  0.00    -0.003 C 
ATOM      7  C   UNL     1     -24.776  63.099  30.135  1.00  0.00     0.004 C 
ENDBRANCH   5   6
ENDBRANCH   1   5
TORSDOF 3
ENDMDL
MODEL 8
REMARK VINA RESULT:    -1.479     11.271     11.900
REMARK INTER + INTRA:          -1.796
REMARK INTER:                  -1.759
REMARK INTRA:                  -0.037
REMARK UNBOUND:                -0.058
REMARK SMILES CCCCC(=O)[O-]
REMARK SMILES IDX 4 1 5 2 6 3 7 4 3 5 2 6 1 7
REMARK H PARENT
REMARK Flexibility Score: inf
ROOT
ATOM      1  C   UNL     1     -11.982  55.622  21.939  1.00  0.00     0.053 C 
ENDROOT
BRANCH   1   2
ATOM      2  C   UNL     1     -12.341  55.577  23.392  1.00  0.00     0.041 C 
ATOM      3  O   UNL     1     -11.447  55.402  24.261  1.00  0.00    -0.550 OA
ATOM      4  O   UNL     1     -13.660  55.762  23.789  1.00  0.00    -0.550 OA
ENDBRANCH   1   2
BRANCH   1   5
ATOM      5  C   UNL     1     -13.178  55.269  21.045  1.00  0.00     0.006 C 
BRANCH   5   6
ATOM      6  C   UNL     1     -13.213  56.112  19.762  1.00  0.00    -0.003 C 
ATOM      7  C   UNL     1     -11.822  56.241  19.150  1.00  0.00     0.004 C 
ENDBRANCH   5   6
ENDBRANCH   1   5
TORSDOF 3
ENDMDL
