MODEL 1
REMARK VINA RESULT:    -3.269      0.000      0.000
REMARK INTER + INTRA:          -4.274
REMARK INTER:                  -4.033
REMARK INTRA:                  -0.241
REMARK UNBOUND:                -0.241
REMARK SMILES CCCCCC(=O)[O-]
REMARK SMILES IDX 4 1 5 2 6 3 7 4 8 5 3 6 2 7 1 8
REMARK H PARENT
REMARK Flexibility Score: inf
ROOT
ATOM      1  C   UNL     1      10.772 -27.442 -29.990  1.00  0.00     0.006 C 
ENDROOT
BRANCH   1   2
ATOM      2  C   UNL     1       9.352 -27.827 -29.566  1.00  0.00     0.053 C 
BRANCH   2   3
ATOM      3  C   UNL     1       8.950 -27.080 -28.334  1.00  0.00     0.041 C 
ATOM      4  O   UNL     1       7.901 -27.399 -27.714  1.00  0.00    -0.550 OA
ATOM      5  O   UNL     1       9.707 -26.001 -27.898  1.00  0.00    -0.550 OA
ENDBRANCH   2   3
ENDBRANCH   1   2
BRANCH   1   6
ATOM      6  C   UNL     1      10.768 -26.750 -31.362  1.00  0.00     0.000 C 
BRANCH   6   7
ATOM      7  C   UNL     1      10.916 -25.225 -31.255  1.00  0.00    -0.003 C 
ATOM      8  C   UNL     1       9.570 -24.506 -31.162  1.00  0.00     0.004 C 
ENDBRANCH   6   7
ENDBRANCH   1   6
TORSDOF 4
ENDMDL
MODEL 2
REMARK VINA RESULT:    -3.219      1.789      3.479
REMARK INTER + INTRA:          -4.212
REMARK INTER:                  -3.966
REMARK INTRA:                  -0.246
REMARK UNBOUND:                -0.241
REMARK SMILES CCCCCC(=O)[O-]
REMARK SMILES IDX 4 1 5 2 6 3 7 4 8 5 3 6 2 7 1 8
REMARK H PARENT
REMARK Flexibility Score: inf
ROOT
ATOM      1  C   UNL     1      10.224 -27.643 -29.303  1.00  0.00     0.006 C 
ENDROOT
BRANCH   1   2
ATOM      2  C   UNL     1      10.399 -26.815 -30.579  1.00  0.00     0.053 C 
BRANCH   2   3
ATOM      3  C   UNL     1      10.025 -25.388 -30.334  1.00  0.00     0.041 C 
ATOM      4  O   UNL     1       9.397 -24.737 -31.212  1.00  0.00    -0.550 OA
ATOM      5  O   UNL     1      10.414 -24.759 -29.158  1.00  0.00    -0.550 OA
ENDBRANCH   2   3
ENDBRANCH   1   2
BRANCH   1   6
ATOM      6  C   UNL     1       8.777 -28.138 -29.162  1.00  0.00     0.000 C 
BRANCH   6   7
ATOM      7  C   UNL     1       8.041 -27.484 -27.983  1.00  0.00    -0.003 C 
ATOM      8  C   UNL     1       8.990 -27.003 -26.886  1.00  0.00     0.004 C 
ENDBRANCH   6   7
ENDBRANCH   1   6
TORSDOF 4
ENDMDL
MODEL 3
REMARK VINA RESULT:    -3.205      2.638      4.052
REMARK INTER + INTRA:          -4.196
REMARK INTER:                  -4.034
REMARK INTRA:                  -0.162
REMARK UNBOUND:                -0.241
REMARK SMILES CCCCCC(=O)[O-]
REMARK SMILES IDX 4 1 5 2 6 3 7 4 8 5 3 6 2 7 1 8
REMARK H PARENT
REMARK Flexibility Score: inf
ROOT
ATOM      1  C   UNL     1      10.763 -27.195 -30.153  1.00  0.00     0.006 C 
ENDROOT
BRANCH   1   2
ATOM      2  C   UNL     1      10.874 -26.799 -31.629  1.00  0.00     0.053 C 
BRANCH   2   3
ATOM      3  C   UNL     1      10.835 -25.312 -31.778  1.00  0.00     0.041 C 
ATOM      4  O   UNL     1      11.707 -24.596 -31.217  1.00  0.00    -0.550 OA
ATOM      5  O   UNL     1       9.809 -24.711 -32.495  1.00  0.00    -0.550 OA
ENDBRANCH   2   3
ENDBRANCH   1   2
BRANCH   1   6
ATOM      6  C   UNL     1       9.421 -26.740 -29.561  1.00  0.00     0.000 C 
BRANCH   6   7
ATOM      7  C   UNL     1       8.715 -27.853 -28.773  1.00  0.00    -0.003 C 
ATOM      8  C   UNL     1       8.424 -29.089 -29.625  1.00  0.00     0.004 C 
ENDBRANCH   6   7
ENDBRANCH   1   6
TORSDOF 4
ENDMDL
MODEL 4
REMARK VINA RESULT:    -3.148      2.237      2.709
REMARK INTER + INTRA:          -4.125
REMARK INTER:                  -4.029
REMARK INTRA:                  -0.096
REMARK UNBOUND:                -0.241
REMARK SMILES CCCCCC(=O)[O-]
REMARK SMILES IDX 4 1 5 2 6 3 7 4 8 5 3 6 2 7 1 8
REMARK H PARENT
REMARK Flexibility Score: inf
ROOT
ATOM      1  C   UNL     1       9.749 -27.585 -29.418  1.00  0.00     0.006 C 
ENDROOT
BRANCH   1   2
ATOM      2  C   UNL     1       8.363 -28.148 -29.090  1.00  0.00     0.053 C 
BRANCH   2   3
ATOM      3  C   UNL     1       8.288 -29.599 -29.442  1.00  0.00     0.041 C 
ATOM      4  O   UNL     1       7.498 -29.993 -30.341  1.00  0.00    -0.550 OA
ATOM      5  O   UNL     1       9.053 -30.525 -28.745  1.00  0.00    -0.550 OA
ENDBRANCH   2   3
ENDBRANCH   1   2
BRANCH   1   6
ATOM      6  C   UNL     1       9.694 -26.062 -29.604  1.00  0.00     0.000 C 
BRANCH   6   7
ATOM      7  C   UNL     1      10.233 -25.614 -30.971  1.00  0.00    -0.003 C 
ATOM      8  C   UNL     1      10.916 -26.746 -31.738  1.00  0.00     0.004 C 
ENDBRANCH   6   7
ENDBRANCH   1   6
TORSDOF 4
ENDMDL
MODEL 5
REMARK VINA RESULT:    -3.137      1.285      1.730
REMARK INTER + INTRA:          -4.111
REMARK INTER:                  -3.963
REMARK INTRA:                  -0.149
REMARK UNBOUND:                -0.241
REMARK SMILES CCCCCC(=O)[O-]
REMARK SMILES IDX 4 1 5 2 6 3 7 4 8 5 3 6 2 7 1 8
REMARK H PARENT
REMARK Flexibility Score: inf
ROOT
ATOM      1  C   UNL     1      10.608 -26.880 -29.650  1.00  0.00     0.006 C 
ENDROOT
BRANCH   1   2
ATOM      2  C   UNL     1      10.198 -28.243 -29.085  1.00  0.00     0.053 C 
BRANCH   2   3
ATOM      3  C   UNL     1       8.716 -28.427 -29.180  1.00  0.00     0.041 C 
ATOM      4  O   UNL     1       7.943 -27.697 -28.505  1.00  0.00    -0.550 OA
ATOM      5  O   UNL     1       8.191 -29.437 -29.975  1.00  0.00    -0.550 OA
ENDBRANCH   2   3
ENDBRANCH   1   2
BRANCH   1   6
ATOM      6  C   UNL     1      10.763 -26.943 -31.177  1.00  0.00     0.000 C 
BRANCH   6   7
ATOM      7  C   UNL     1      10.626 -25.565 -31.842  1.00  0.00    -0.003 C 
ATOM      8  C   UNL     1       9.580 -24.681 -31.163  1.00  0.00     0.004 C 
ENDBRANCH   6   7
ENDBRANCH   1   6
TORSDOF 4
ENDMDL
MODEL 6
REMARK VINA RESULT:    -3.085      2.218      3.879
REMARK INTER + INTRA:          -4.047
REMARK INTER:                  -3.992
REMARK INTRA:                  -0.055
REMARK UNBOUND:                -0.241
REMARK SMILES CCCCCC(=O)[O-]
REMARK SMILES IDX 4 1 5 2 6 3 7 4 8 5 3 6 2 7 1 8
REMARK H PARENT
REMARK Flexibility Score: inf
ROOT
ATOM      1  C   UNL     1       9.564 -27.679 -29.488  1.00  0.00     0.006 C 
ENDROOT
BRANCH   1   2
ATOM      2  C   UNL     1       9.625 -26.352 -28.727  1.00  0.00     0.053 C 
BRANCH   2   3
ATOM      3  C   UNL     1      10.089 -25.251 -29.626  1.00  0.00     0.041 C 
ATOM      4  O   UNL     1       9.278 -24.685 -30.406  1.00  0.00    -0.550 OA
ATOM      5  O   UNL     1      11.429 -24.883 -29.640  1.00  0.00    -0.550 OA
ENDBRANCH   2   3
ENDBRANCH   1   2
BRANCH   1   6
ATOM      6  C   UNL     1       8.255 -28.425 -29.188  1.00  0.00     0.000 C 
BRANCH   6   7
ATOM      7  C   UNL     1       8.265 -29.869 -29.712  1.00  0.00    -0.003 C 
ATOM      8  C   UNL     1       6.942 -30.270 -30.366  1.00  0.00     0.004 C 
ENDBRANCH   6   7
ENDBRANCH   1   6
TORSDOF 4
ENDMDL
MODEL 7
REMARK VINA RESULT:    -3.027      3.153      4.288
REMARK INTER + INTRA:          -3.976
REMARK INTER:                  -3.898
REMARK INTRA:                  -0.078
REMARK UNBOUND:                -0.241
REMARK SMILES CCCCCC(=O)[O-]
REMARK SMILES IDX 4 1 5 2 6 3 7 4 8 5 3 6 2 7 1 8
REMARK H PARENT
REMARK Flexibility Score: inf
ROOT
ATOM      1  C   UNL     1       8.387 -27.356 -27.301  1.00  0.00     0.006 C 
ENDROOT
BRANCH   1   2
ATOM      2  C   UNL     1       8.459 -27.638 -28.804  1.00  0.00     0.053 C 
BRANCH   2   3
ATOM      3  C   UNL     1       8.704 -29.092 -29.055  1.00  0.00     0.041 C 
ATOM      4  O   UNL     1       8.095 -29.687 -29.983  1.00  0.00    -0.550 OA
ATOM      5  O   UNL     1       9.568 -29.803 -28.232  1.00  0.00    -0.550 OA
ENDBRANCH   2   3
ENDBRANCH   1   2
BRANCH   1   6
ATOM      6  C   UNL     1       9.477 -26.361 -26.875  1.00  0.00     0.000 C 
BRANCH   6   7
ATOM      7  C   UNL     1       9.837 -26.480 -25.387  1.00  0.00    -0.003 C 
ATOM      8  C   UNL     1       9.417 -25.255 -24.576  1.00  0.00     0.004 C 
ENDBRANCH   6   7
ENDBRANCH   1   6
TORSDOF 4
ENDMDL
MODEL 8
REMARK VINA RESULT:    -2.938     10.182     11.068
REMARK INTER + INTRA:          -3.866
REMARK INTER:                  -3.601
REMARK INTRA:                  -0.265
REMARK UNBOUND:                -0.241
REMARK SMILES CCCCCC(=O)[O-]
REMARK SMILES IDX 4 1 5 2 6 3 7 4 8 5 3 6 2 7 1 8
REMARK H PARENT
REMARK Flexibility Score: inf
ROOT
ATOM      1  C   UNL     1      21.191 -24.285 -28.248  1.00  0.00     0.006 C 
ENDROOT
BRANCH   1   2
ATOM      2  C   UNL     1      21.768 -25.652 -28.630  1.00  0.00     0.053 C 
BRANCH   2   3
ATOM      3  C   UNL     1      20.679 -26.576 -29.074  1.00  0.00     0.041 C 
ATOM      4  O   UNL     1      20.059 -26.355 -30.148  1.00  0.00    -0.550 OA
ATOM      5  O   UNL     1      20.314 -27.653 -28.277  1.00  0.00    -0.550 OA
ENDBRANCH   2   3
ENDBRANCH   1   2
BRANCH   1   6
ATOM      6  C   UNL     1      20.349 -24.383 -26.967  1.00  0.00     0.000 C 
BRANCH   6   7
ATOM      7  C   UNL     1      18.955 -23.759 -27.127  1.00  0.00    -0.003 C 
ATOM      8  C   UNL     1      18.617 -23.430 -28.581  1.00  0.00     0.004 C 
ENDBRANCH   6   7
ENDBRANCH   1   6
TORSDOF 4
ENDMDL
MODEL 9
REMARK VINA RESULT:    -2.843      1.366      2.111
REMARK INTER + INTRA:          -3.749
REMARK INTER:                  -3.546
REMARK INTRA:                  -0.202
REMARK UNBOUND:                -0.241
REMARK SMILES CCCCCC(=O)[O-]
REMARK SMILES IDX 4 1 5 2 6 3 7 4 8 5 3 6 2 7 1 8
REMARK H PARENT
REMARK Flexibility Score: inf
ROOT
ATOM      1  C   UNL     1       9.588 -28.199 -28.355  1.00  0.00     0.006 C 
ENDROOT
BRANCH   1   2
ATOM      2  C   UNL     1       8.669 -27.345 -27.477  1.00  0.00     0.053 C 
BRANCH   2   3
ATOM      3  C   UNL     1       9.463 -26.334 -26.713  1.00  0.00     0.041 C 
ATOM      4  O   UNL     1       9.252 -26.161 -25.483  1.00  0.00    -0.550 OA
ATOM      5  O   UNL     1      10.400 -25.546 -27.368  1.00  0.00    -0.550 OA
ENDBRANCH   2   3
ENDBRANCH   1   2
BRANCH   1   6
ATOM      6  C   UNL     1       9.392 -27.869 -29.842  1.00  0.00     0.000 C 
BRANCH   6   7
ATOM      7  C   UNL     1      10.664 -27.310 -30.496  1.00  0.00    -0.003 C 
ATOM      8  C   UNL     1      10.487 -25.880 -31.009  1.00  0.00     0.004 C 
ENDBRANCH   6   7
ENDBRANCH   1   6
TORSDOF 4
ENDMDL
