MODEL 1
REMARK VINA RESULT:    -7.333      0.000      0.000
REMARK INTER + INTRA:          -8.755
REMARK INTER:                  -8.619
REMARK INTRA:                  -0.137
REMARK UNBOUND:                -0.137
REMARK SMILES O=c1c(O)c(-c2ccc(O)cc2)oc2cc(O)cc(O)c12
REMARK SMILES IDX 5 1 3 2 2 3 1 4 21 5 19 6 18 7 16 8 15 9 14 10 13 11 6 12
REMARK SMILES IDX 7 13 8 14 9 15 12 16 11 17 10 18 4 20 20 22 17 24
REMARK H PARENT 10 19 4 21 20 23 17 25
REMARK Flexibility Score: inf
ROOT
ATOM      1  C   UNL     1      -5.319  -5.253   6.455  1.00  0.00     0.180 A 
ATOM      2  C   UNL     1      -5.031  -4.574   7.652  1.00  0.00     0.208 A 
ATOM      3  C   UNL     1      -5.694  -3.368   7.928  1.00  0.00     0.238 A 
ATOM      4  O   UNL     1      -5.473  -2.794   9.026  1.00  0.00    -0.285 OA
ATOM      5  C   UNL     1      -6.625  -2.848   6.997  1.00  0.00     0.111 A 
ATOM      6  C   UNL     1      -7.326  -1.614   7.155  1.00  0.00     0.134 A 
ATOM      7  C   UNL     1      -8.320  -1.261   6.234  1.00  0.00     0.093 A 
ATOM      8  C   UNL     1      -8.592  -2.066   5.125  1.00  0.00     0.123 A 
ATOM      9  C   UNL     1      -7.872  -3.242   4.930  1.00  0.00     0.094 A 
ATOM     10  C   UNL     1      -6.900  -3.638   5.852  1.00  0.00     0.146 A 
ATOM     11  O   UNL     1      -6.245  -4.772   5.633  1.00  0.00    -0.452 OA
ENDROOT
BRANCH   1  12
ATOM     12  C   UNL     1      -4.641  -6.516   6.083  1.00  0.00     0.021 A 
ATOM     13  C   UNL     1      -3.251  -6.569   5.876  1.00  0.00     0.016 A 
ATOM     14  C   UNL     1      -2.637  -7.768   5.500  1.00  0.00     0.047 A 
ATOM     15  C   UNL     1      -3.406  -8.925   5.315  1.00  0.00     0.115 A 
ATOM     16  C   UNL     1      -5.407  -7.675   5.874  1.00  0.00     0.016 A 
ATOM     17  C   UNL     1      -4.791  -8.874   5.500  1.00  0.00     0.047 A 
BRANCH  15  18
ATOM     18  O   UNL     1      -2.805 -10.125   4.943  1.00  0.00    -0.508 OA
ATOM     19  H   UNL     1      -2.803 -10.439   3.980  1.00  0.00     0.293 HD
ENDBRANCH  15  18
ENDBRANCH   1  12
BRANCH   2  20
ATOM     20  O   UNL     1      -4.125  -5.118   8.567  1.00  0.00    -0.502 OA
ATOM     21  H   UNL     1      -3.129  -5.155   8.389  1.00  0.00     0.293 HD
ENDBRANCH   2  20
BRANCH   6  22
ATOM     22  O   UNL     1      -7.066  -0.694   8.176  1.00  0.00    -0.507 OA
ATOM     23  H   UNL     1      -6.146  -0.452   8.510  1.00  0.00     0.293 HD
ENDBRANCH   6  22
BRANCH   8  24
ATOM     24  O   UNL     1      -9.572  -1.699   4.206  1.00  0.00    -0.508 OA
ATOM     25  H   UNL     1     -10.174  -0.900   4.362  1.00  0.00     0.293 HD
ENDBRANCH   8  24
TORSDOF 5
ENDMDL
MODEL 2
REMARK VINA RESULT:    -7.074      2.515      7.096
REMARK INTER + INTRA:          -8.451
REMARK INTER:                  -8.163
REMARK INTRA:                  -0.288
REMARK UNBOUND:                -0.137
REMARK SMILES O=c1c(O)c(-c2ccc(O)cc2)oc2cc(O)cc(O)c12
REMARK SMILES IDX 5 1 3 2 2 3 1 4 21 5 19 6 18 7 16 8 15 9 14 10 13 11 6 12
REMARK SMILES IDX 7 13 8 14 9 15 12 16 11 17 10 18 4 20 20 22 17 24
REMARK H PARENT 10 19 4 21 20 23 17 25
REMARK Flexibility Score: inf
ROOT
ATOM      1  C   UNL     1      -5.145  -6.454   6.716  1.00  0.00     0.180 A 
ATOM      2  C   UNL     1      -6.204  -7.225   6.204  1.00  0.00     0.208 A 
ATOM      3  C   UNL     1      -5.925  -8.221   5.256  1.00  0.00     0.238 A 
ATOM      4  O   UNL     1      -6.868  -8.944   4.843  1.00  0.00    -0.285 OA
ATOM      5  C   UNL     1      -4.593  -8.424   4.819  1.00  0.00     0.111 A 
ATOM      6  C   UNL     1      -4.201  -9.378   3.831  1.00  0.00     0.134 A 
ATOM      7  C   UNL     1      -2.840  -9.583   3.572  1.00  0.00     0.093 A 
ATOM      8  C   UNL     1      -1.862  -8.821   4.215  1.00  0.00     0.123 A 
ATOM      9  C   UNL     1      -2.237  -7.847   5.136  1.00  0.00     0.094 A 
ATOM     10  C   UNL     1      -3.585  -7.645   5.443  1.00  0.00     0.146 A 
ATOM     11  O   UNL     1      -3.899  -6.712   6.334  1.00  0.00    -0.452 OA
ENDROOT
BRANCH   1  12
ATOM     12  C   UNL     1      -5.364  -5.369   7.699  1.00  0.00     0.021 A 
ATOM     13  C   UNL     1      -5.375  -5.624   9.083  1.00  0.00     0.016 A 
ATOM     14  C   UNL     1      -5.608  -4.586   9.991  1.00  0.00     0.047 A 
ATOM     15  C   UNL     1      -5.846  -3.285   9.528  1.00  0.00     0.115 A 
ATOM     16  C   UNL     1      -5.624  -4.066   7.243  1.00  0.00     0.016 A 
ATOM     17  C   UNL     1      -5.856  -3.029   8.153  1.00  0.00     0.047 A 
BRANCH  15  18
ATOM     18  O   UNL     1      -6.078  -2.244  10.423  1.00  0.00    -0.508 OA
ATOM     19  H   UNL     1      -6.025  -1.275  10.133  1.00  0.00     0.293 HD
ENDBRANCH  15  18
ENDBRANCH   1  12
BRANCH   2  20
ATOM     20  O   UNL     1      -7.507  -7.023   6.667  1.00  0.00    -0.502 OA
ATOM     21  H   UNL     1      -7.705  -6.594   7.563  1.00  0.00     0.293 HD
ENDBRANCH   2  20
BRANCH   6  22
ATOM     22  O   UNL     1      -5.102 -10.124   3.066  1.00  0.00    -0.507 OA
ATOM     23  H   UNL     1      -5.195 -11.128   3.105  1.00  0.00     0.293 HD
ENDBRANCH   6  22
BRANCH   8  24
ATOM     24  O   UNL     1      -0.511  -9.021   3.938  1.00  0.00    -0.508 OA
ATOM     25  H   UNL     1       0.055  -9.655   4.490  1.00  0.00     0.293 HD
ENDBRANCH   8  24
TORSDOF 5
ENDMDL
MODEL 3
REMARK VINA RESULT:    -6.972      1.348      3.212
REMARK INTER + INTRA:          -8.331
REMARK INTER:                  -8.089
REMARK INTRA:                  -0.242
REMARK UNBOUND:                -0.137
REMARK SMILES O=c1c(O)c(-c2ccc(O)cc2)oc2cc(O)cc(O)c12
REMARK SMILES IDX 5 1 3 2 2 3 1 4 21 5 19 6 18 7 16 8 15 9 14 10 13 11 6 12
REMARK SMILES IDX 7 13 8 14 9 15 12 16 11 17 10 18 4 20 20 22 17 24
REMARK H PARENT 10 19 4 21 20 23 17 25
REMARK Flexibility Score: inf
ROOT
ATOM      1  C   UNL     1      -5.454  -5.573   6.252  1.00  0.00     0.180 A 
ATOM      2  C   UNL     1      -6.230  -4.878   5.308  1.00  0.00     0.208 A 
ATOM      3  C   UNL     1      -6.983  -3.770   5.728  1.00  0.00     0.238 A 
ATOM      4  O   UNL     1      -7.631  -3.119   4.868  1.00  0.00    -0.285 OA
ATOM      5  C   UNL     1      -6.964  -3.381   7.089  1.00  0.00     0.111 A 
ATOM      6  C   UNL     1      -7.720  -2.299   7.633  1.00  0.00     0.134 A 
ATOM      7  C   UNL     1      -7.524  -1.921   8.968  1.00  0.00     0.093 A 
ATOM      8  C   UNL     1      -6.648  -2.629   9.794  1.00  0.00     0.123 A 
ATOM      9  C   UNL     1      -5.951  -3.723   9.289  1.00  0.00     0.094 A 
ATOM     10  C   UNL     1      -6.098  -4.101   7.952  1.00  0.00     0.146 A 
ATOM     11  O   UNL     1      -5.406  -5.143   7.509  1.00  0.00    -0.452 OA
ENDROOT
BRANCH   1  12
ATOM     12  C   UNL     1      -4.654  -6.765   5.891  1.00  0.00     0.021 A 
ATOM     13  C   UNL     1      -5.263  -8.010   5.645  1.00  0.00     0.016 A 
ATOM     14  C   UNL     1      -4.484  -9.128   5.329  1.00  0.00     0.047 A 
ATOM     15  C   UNL     1      -3.089  -9.019   5.268  1.00  0.00     0.115 A 
ATOM     16  C   UNL     1      -3.253  -6.671   5.847  1.00  0.00     0.016 A 
ATOM     17  C   UNL     1      -2.477  -7.789   5.530  1.00  0.00     0.047 A 
BRANCH  15  18
ATOM     18  O   UNL     1      -2.303 -10.125   4.952  1.00  0.00    -0.508 OA
ATOM     19  H   UNL     1      -2.684 -11.064   4.961  1.00  0.00     0.293 HD
ENDBRANCH  15  18
ENDBRANCH   1  12
BRANCH   2  20
ATOM     20  O   UNL     1      -6.216  -5.266   3.965  1.00  0.00    -0.502 OA
ATOM     21  H   UNL     1      -7.065  -5.436   3.441  1.00  0.00     0.293 HD
ENDBRANCH   2  20
BRANCH   6  22
ATOM     22  O   UNL     1      -8.687  -1.586   6.919  1.00  0.00    -0.507 OA
ATOM     23  H   UNL     1      -8.576  -1.256   5.972  1.00  0.00     0.293 HD
ENDBRANCH   6  22
BRANCH   8  24
ATOM     24  O   UNL     1      -6.471  -2.255  11.125  1.00  0.00    -0.508 OA
ATOM     25  H   UNL     1      -5.829  -2.749  11.733  1.00  0.00     0.293 HD
ENDBRANCH   8  24
TORSDOF 5
ENDMDL
MODEL 4
REMARK VINA RESULT:    -6.859      2.368      6.477
REMARK INTER + INTRA:          -8.198
REMARK INTER:                  -7.946
REMARK INTRA:                  -0.252
REMARK UNBOUND:                -0.137
REMARK SMILES O=c1c(O)c(-c2ccc(O)cc2)oc2cc(O)cc(O)c12
REMARK SMILES IDX 5 1 3 2 2 3 1 4 21 5 19 6 18 7 16 8 15 9 14 10 13 11 6 12
REMARK SMILES IDX 7 13 8 14 9 15 12 16 11 17 10 18 4 20 20 22 17 24
REMARK H PARENT 10 19 4 21 20 23 17 25
REMARK Flexibility Score: inf
ROOT
ATOM      1  C   UNL     1      -5.645  -5.670   7.270  1.00  0.00     0.180 A 
ATOM      2  C   UNL     1      -4.289  -5.693   6.900  1.00  0.00     0.208 A 
ATOM      3  C   UNL     1      -3.847  -6.668   5.992  1.00  0.00     0.238 A 
ATOM      4  O   UNL     1      -2.644  -6.648   5.623  1.00  0.00    -0.285 OA
ATOM      5  C   UNL     1      -4.762  -7.617   5.477  1.00  0.00     0.111 A 
ATOM      6  C   UNL     1      -4.415  -8.674   4.582  1.00  0.00     0.134 A 
ATOM      7  C   UNL     1      -5.425  -9.475   4.034  1.00  0.00     0.093 A 
ATOM      8  C   UNL     1      -6.761  -9.299   4.402  1.00  0.00     0.123 A 
ATOM      9  C   UNL     1      -7.103  -8.310   5.320  1.00  0.00     0.094 A 
ATOM     10  C   UNL     1      -6.121  -7.471   5.855  1.00  0.00     0.146 A 
ATOM     11  O   UNL     1      -6.492  -6.534   6.719  1.00  0.00    -0.452 OA
ENDROOT
BRANCH   1  12
ATOM     12  C   UNL     1      -6.181  -4.690   8.241  1.00  0.00     0.021 A 
ATOM     13  C   UNL     1      -6.869  -3.538   7.817  1.00  0.00     0.016 A 
ATOM     14  C   UNL     1      -7.345  -2.614   8.753  1.00  0.00     0.047 A 
ATOM     15  C   UNL     1      -7.127  -2.822  10.122  1.00  0.00     0.115 A 
ATOM     16  C   UNL     1      -5.949  -4.880   9.614  1.00  0.00     0.016 A 
ATOM     17  C   UNL     1      -6.426  -3.955  10.548  1.00  0.00     0.047 A 
BRANCH  15  18
ATOM     18  O   UNL     1      -7.597  -1.909  11.063  1.00  0.00    -0.508 OA
ATOM     19  H   UNL     1      -7.230  -1.885  12.006  1.00  0.00     0.293 HD
ENDBRANCH  15  18
ENDBRANCH   1  12
BRANCH   2  20
ATOM     20  O   UNL     1      -3.408  -4.732   7.403  1.00  0.00    -0.502 OA
ATOM     21  H   UNL     1      -3.287  -4.573   8.396  1.00  0.00     0.293 HD
ENDBRANCH   2  20
BRANCH   6  22
ATOM     22  O   UNL     1      -3.102  -8.993   4.222  1.00  0.00    -0.507 OA
ATOM     23  H   UNL     1      -2.656  -9.879   4.403  1.00  0.00     0.293 HD
ENDBRANCH   6  22
BRANCH   8  24
ATOM     24  O   UNL     1      -7.758 -10.111   3.864  1.00  0.00    -0.508 OA
ATOM     25  H   UNL     1      -8.039 -10.033   2.894  1.00  0.00     0.293 HD
ENDBRANCH   8  24
TORSDOF 5
ENDMDL
MODEL 5
REMARK VINA RESULT:    -6.744     12.281     13.688
REMARK INTER + INTRA:          -8.063
REMARK INTER:                  -7.947
REMARK INTRA:                  -0.116
REMARK UNBOUND:                -0.137
REMARK SMILES O=c1c(O)c(-c2ccc(O)cc2)oc2cc(O)cc(O)c12
REMARK SMILES IDX 5 1 3 2 2 3 1 4 21 5 19 6 18 7 16 8 15 9 14 10 13 11 6 12
REMARK SMILES IDX 7 13 8 14 9 15 12 16 11 17 10 18 4 20 20 22 17 24
REMARK H PARENT 10 19 4 21 20 23 17 25
REMARK Flexibility Score: inf
ROOT
ATOM      1  C   UNL     1      -1.013  -5.005  -6.268  1.00  0.00     0.180 A 
ATOM      2  C   UNL     1      -1.588  -4.104  -7.182  1.00  0.00     0.208 A 
ATOM      3  C   UNL     1      -2.984  -3.962  -7.211  1.00  0.00     0.238 A 
ATOM      4  O   UNL     1      -3.489  -3.114  -7.992  1.00  0.00    -0.285 OA
ATOM      5  C   UNL     1      -3.789  -4.733  -6.338  1.00  0.00     0.111 A 
ATOM      6  C   UNL     1      -5.216  -4.700  -6.309  1.00  0.00     0.134 A 
ATOM      7  C   UNL     1      -5.904  -5.407  -5.316  1.00  0.00     0.093 A 
ATOM      8  C   UNL     1      -5.219  -6.200  -4.392  1.00  0.00     0.123 A 
ATOM      9  C   UNL     1      -3.831  -6.287  -4.449  1.00  0.00     0.094 A 
ATOM     10  C   UNL     1      -3.115  -5.563  -5.405  1.00  0.00     0.146 A 
ATOM     11  O   UNL     1      -1.791  -5.666  -5.417  1.00  0.00    -0.452 OA
ENDROOT
BRANCH   1  12
ATOM     12  C   UNL     1       0.449  -5.229  -6.196  1.00  0.00     0.021 A 
ATOM     13  C   UNL     1       1.191  -4.867  -5.056  1.00  0.00     0.016 A 
ATOM     14  C   UNL     1       2.575  -5.066  -5.021  1.00  0.00     0.047 A 
ATOM     15  C   UNL     1       3.235  -5.615  -6.128  1.00  0.00     0.115 A 
ATOM     16  C   UNL     1       1.123  -5.759  -7.308  1.00  0.00     0.016 A 
ATOM     17  C   UNL     1       2.506  -5.958  -7.271  1.00  0.00     0.047 A 
BRANCH  15  18
ATOM     18  O   UNL     1       4.613  -5.819  -6.104  1.00  0.00    -0.508 OA
ATOM     19  H   UNL     1       5.227  -5.218  -5.568  1.00  0.00     0.293 HD
ENDBRANCH  15  18
ENDBRANCH   1  12
BRANCH   2  20
ATOM     20  O   UNL     1      -0.773  -3.337  -8.018  1.00  0.00    -0.502 OA
ATOM     21  H   UNL     1       0.185  -3.591  -8.225  1.00  0.00     0.293 HD
ENDBRANCH   2  20
BRANCH   6  22
ATOM     22  O   UNL     1      -5.999  -4.014  -7.243  1.00  0.00    -0.507 OA
ATOM     23  H   UNL     1      -7.005  -3.943  -7.208  1.00  0.00     0.293 HD
ENDBRANCH   6  22
BRANCH   8  24
ATOM     24  O   UNL     1      -5.913  -6.913  -3.416  1.00  0.00    -0.508 OA
ATOM     25  H   UNL     1      -5.711  -6.798  -2.431  1.00  0.00     0.293 HD
ENDBRANCH   8  24
TORSDOF 5
ENDMDL
MODEL 6
REMARK VINA RESULT:    -6.728      1.776      7.087
REMARK INTER + INTRA:          -8.044
REMARK INTER:                  -8.098
REMARK INTRA:                   0.054
REMARK UNBOUND:                -0.137
REMARK SMILES O=c1c(O)c(-c2ccc(O)cc2)oc2cc(O)cc(O)c12
REMARK SMILES IDX 5 1 3 2 2 3 1 4 21 5 19 6 18 7 16 8 15 9 14 10 13 11 6 12
REMARK SMILES IDX 7 13 8 14 9 15 12 16 11 17 10 18 4 20 20 22 17 24
REMARK H PARENT 10 19 4 21 20 23 17 25
REMARK Flexibility Score: inf
ROOT
ATOM      1  C   UNL     1      -6.606  -4.703   5.633  1.00  0.00     0.180 A 
ATOM      2  C   UNL     1      -7.478  -5.657   5.081  1.00  0.00     0.208 A 
ATOM      3  C   UNL     1      -6.968  -6.910   4.706  1.00  0.00     0.238 A 
ATOM      4  O   UNL     1      -7.763  -7.779   4.264  1.00  0.00    -0.285 OA
ATOM      5  C   UNL     1      -5.589  -7.188   4.874  1.00  0.00     0.111 A 
ATOM      6  C   UNL     1      -4.956  -8.409   4.491  1.00  0.00     0.134 A 
ATOM      7  C   UNL     1      -3.613  -8.625   4.824  1.00  0.00     0.093 A 
ATOM      8  C   UNL     1      -2.863  -7.636   5.465  1.00  0.00     0.123 A 
ATOM      9  C   UNL     1      -3.455  -6.418   5.789  1.00  0.00     0.094 A 
ATOM     10  C   UNL     1      -4.804  -6.188   5.503  1.00  0.00     0.146 A 
ATOM     11  O   UNL     1      -5.331  -5.017   5.838  1.00  0.00    -0.452 OA
ENDROOT
BRANCH   1  12
ATOM     12  C   UNL     1      -7.064  -3.351   6.028  1.00  0.00     0.021 A 
ATOM     13  C   UNL     1      -7.875  -2.575   5.180  1.00  0.00     0.016 A 
ATOM     14  C   UNL     1      -8.276  -1.291   5.565  1.00  0.00     0.047 A 
ATOM     15  C   UNL     1      -7.860  -0.763   6.794  1.00  0.00     0.115 A 
ATOM     16  C   UNL     1      -6.636  -2.806   7.250  1.00  0.00     0.016 A 
ATOM     17  C   UNL     1      -7.038  -1.522   7.633  1.00  0.00     0.047 A 
BRANCH  15  18
ATOM     18  O   UNL     1      -8.255   0.513   7.189  1.00  0.00    -0.508 OA
ATOM     19  H   UNL     1      -9.185   0.864   6.992  1.00  0.00     0.293 HD
ENDBRANCH  15  18
ENDBRANCH   1  12
BRANCH   2  20
ATOM     20  O   UNL     1      -8.839  -5.370   4.945  1.00  0.00    -0.502 OA
ATOM     21  H   UNL     1      -9.480  -5.399   5.728  1.00  0.00     0.293 HD
ENDBRANCH   2  20
BRANCH   6  22
ATOM     22  O   UNL     1      -5.590  -9.423   3.767  1.00  0.00    -0.507 OA
ATOM     23  H   UNL     1      -5.918 -10.292   4.160  1.00  0.00     0.293 HD
ENDBRANCH   6  22
BRANCH   8  24
ATOM     24  O   UNL     1      -1.523  -7.853   5.778  1.00  0.00    -0.508 OA
ATOM     25  H   UNL     1      -1.166  -8.781   5.969  1.00  0.00     0.293 HD
ENDBRANCH   8  24
TORSDOF 5
ENDMDL
MODEL 7
REMARK VINA RESULT:    -6.423      2.283      6.715
REMARK INTER + INTRA:          -7.686
REMARK INTER:                  -7.444
REMARK INTRA:                  -0.242
REMARK UNBOUND:                -0.137
REMARK SMILES O=c1c(O)c(-c2ccc(O)cc2)oc2cc(O)cc(O)c12
REMARK SMILES IDX 5 1 3 2 2 3 1 4 21 5 19 6 18 7 16 8 15 9 14 10 13 11 6 12
REMARK SMILES IDX 7 13 8 14 9 15 12 16 11 17 10 18 4 20 20 22 17 24
REMARK H PARENT 10 19 4 21 20 23 17 25
REMARK Flexibility Score: inf
ROOT
ATOM      1  C   UNL     1      -7.339  -3.075   6.116  1.00  0.00     0.180 A 
ATOM      2  C   UNL     1      -6.103  -3.475   6.654  1.00  0.00     0.208 A 
ATOM      3  C   UNL     1      -5.707  -4.816   6.526  1.00  0.00     0.238 A 
ATOM      4  O   UNL     1      -4.576  -5.155   6.960  1.00  0.00    -0.285 OA
ATOM      5  C   UNL     1      -6.557  -5.742   5.875  1.00  0.00     0.111 A 
ATOM      6  C   UNL     1      -6.274  -7.134   5.724  1.00  0.00     0.134 A 
ATOM      7  C   UNL     1      -7.125  -7.931   4.948  1.00  0.00     0.093 A 
ATOM      8  C   UNL     1      -8.284  -7.401   4.376  1.00  0.00     0.123 A 
ATOM      9  C   UNL     1      -8.600  -6.059   4.568  1.00  0.00     0.094 A 
ATOM     10  C   UNL     1      -7.751  -5.230   5.305  1.00  0.00     0.146 A 
ATOM     11  O   UNL     1      -8.085  -3.954   5.455  1.00  0.00    -0.452 OA
ENDROOT
BRANCH   1  12
ATOM     12  C   UNL     1      -7.837  -1.686   6.235  1.00  0.00     0.021 A 
ATOM     13  C   UNL     1      -8.340  -1.188   7.451  1.00  0.00     0.016 A 
ATOM     14  C   UNL     1      -8.828   0.121   7.532  1.00  0.00     0.047 A 
ATOM     15  C   UNL     1      -8.831   0.942   6.397  1.00  0.00     0.115 A 
ATOM     16  C   UNL     1      -7.864  -0.862   5.097  1.00  0.00     0.016 A 
ATOM     17  C   UNL     1      -8.351   0.446   5.180  1.00  0.00     0.047 A 
BRANCH  15  18
ATOM     18  O   UNL     1      -9.312   2.247   6.466  1.00  0.00    -0.508 OA
ATOM     19  H   UNL     1     -10.242   2.486   6.142  1.00  0.00     0.293 HD
ENDBRANCH  15  18
ENDBRANCH   1  12
BRANCH   2  20
ATOM     20  O   UNL     1      -5.270  -2.539   7.272  1.00  0.00    -0.502 OA
ATOM     21  H   UNL     1      -4.263  -2.553   7.164  1.00  0.00     0.293 HD
ENDBRANCH   2  20
BRANCH   6  22
ATOM     22  O   UNL     1      -5.194  -7.781   6.331  1.00  0.00    -0.507 OA
ATOM     23  H   UNL     1      -4.740  -8.605   5.968  1.00  0.00     0.293 HD
ENDBRANCH   6  22
BRANCH   8  24
ATOM     24  O   UNL     1      -9.134  -8.206   3.619  1.00  0.00    -0.508 OA
ATOM     25  H   UNL     1      -8.951  -8.397   2.641  1.00  0.00     0.293 HD
ENDBRANCH   8  24
TORSDOF 5
ENDMDL
MODEL 8
REMARK VINA RESULT:    -6.369      2.525      6.770
REMARK INTER + INTRA:          -7.623
REMARK INTER:                  -7.352
REMARK INTRA:                  -0.271
REMARK UNBOUND:                -0.137
REMARK SMILES O=c1c(O)c(-c2ccc(O)cc2)oc2cc(O)cc(O)c12
REMARK SMILES IDX 5 1 3 2 2 3 1 4 21 5 19 6 18 7 16 8 15 9 14 10 13 11 6 12
REMARK SMILES IDX 7 13 8 14 9 15 12 16 11 17 10 18 4 20 20 22 17 24
REMARK H PARENT 10 19 4 21 20 23 17 25
REMARK Flexibility Score: inf
ROOT
ATOM      1  C   UNL     1      -7.300  -2.236   7.428  1.00  0.00     0.180 A 
ATOM      2  C   UNL     1      -6.059  -2.872   7.607  1.00  0.00     0.208 A 
ATOM      3  C   UNL     1      -5.737  -3.978   6.805  1.00  0.00     0.238 A 
ATOM      4  O   UNL     1      -4.603  -4.508   6.933  1.00  0.00    -0.285 OA
ATOM      5  C   UNL     1      -6.667  -4.444   5.844  1.00  0.00     0.111 A 
ATOM      6  C   UNL     1      -6.463  -5.581   5.005  1.00  0.00     0.134 A 
ATOM      7  C   UNL     1      -7.394  -5.874   4.000  1.00  0.00     0.093 A 
ATOM      8  C   UNL     1      -8.553  -5.110   3.849  1.00  0.00     0.123 A 
ATOM      9  C   UNL     1      -8.790  -4.035   4.701  1.00  0.00     0.094 A 
ATOM     10  C   UNL     1      -7.862  -3.696   5.689  1.00  0.00     0.146 A 
ATOM     11  O   UNL     1      -8.123  -2.658   6.473  1.00  0.00    -0.452 OA
ENDROOT
BRANCH   1  12
ATOM     12  C   UNL     1      -7.720  -1.081   8.253  1.00  0.00     0.021 A 
ATOM     13  C   UNL     1      -8.215  -1.253   9.558  1.00  0.00     0.016 A 
ATOM     14  C   UNL     1      -8.629  -0.148  10.310  1.00  0.00     0.047 A 
ATOM     15  C   UNL     1      -8.566   1.139   9.761  1.00  0.00     0.115 A 
ATOM     16  C   UNL     1      -7.680   0.212   7.703  1.00  0.00     0.016 A 
ATOM     17  C   UNL     1      -8.094   1.315   8.457  1.00  0.00     0.047 A 
BRANCH  15  18
ATOM     18  O   UNL     1      -8.974   2.247  10.500  1.00  0.00    -0.508 OA
ATOM     19  H   UNL     1      -8.431   2.588  11.285  1.00  0.00     0.293 HD
ENDBRANCH  15  18
ENDBRANCH   1  12
BRANCH   2  20
ATOM     20  O   UNL     1      -5.147  -2.380   8.546  1.00  0.00    -0.502 OA
ATOM     21  H   UNL     1      -5.027  -2.802   9.459  1.00  0.00     0.293 HD
ENDBRANCH   2  20
BRANCH   6  22
ATOM     22  O   UNL     1      -5.385  -6.463   5.133  1.00  0.00    -0.507 OA
ATOM     23  H   UNL     1      -4.896  -6.889   4.361  1.00  0.00     0.293 HD
ENDBRANCH   6  22
BRANCH   8  24
ATOM     24  O   UNL     1      -9.482  -5.418   2.856  1.00  0.00    -0.508 OA
ATOM     25  H   UNL     1      -9.532  -4.888   1.995  1.00  0.00     0.293 HD
ENDBRANCH   8  24
TORSDOF 5
ENDMDL
MODEL 9
REMARK VINA RESULT:    -6.310      1.262      1.400
REMARK INTER + INTRA:          -7.553
REMARK INTER:                  -7.428
REMARK INTRA:                  -0.126
REMARK UNBOUND:                -0.137
REMARK SMILES O=c1c(O)c(-c2ccc(O)cc2)oc2cc(O)cc(O)c12
REMARK SMILES IDX 5 1 3 2 2 3 1 4 21 5 19 6 18 7 16 8 15 9 14 10 13 11 6 12
REMARK SMILES IDX 7 13 8 14 9 15 12 16 11 17 10 18 4 20 20 22 17 24
REMARK H PARENT 10 19 4 21 20 23 17 25
REMARK Flexibility Score: inf
ROOT
ATOM      1  C   UNL     1      -5.962  -4.525   6.763  1.00  0.00     0.180 A 
ATOM      2  C   UNL     1      -6.107  -4.336   8.149  1.00  0.00     0.208 A 
ATOM      3  C   UNL     1      -6.729  -3.167   8.616  1.00  0.00     0.238 A 
ATOM      4  O   UNL     1      -6.906  -3.030   9.854  1.00  0.00    -0.285 OA
ATOM      5  C   UNL     1      -7.183  -2.195   7.692  1.00  0.00     0.111 A 
ATOM      6  C   UNL     1      -7.791  -0.954   8.055  1.00  0.00     0.134 A 
ATOM      7  C   UNL     1      -8.320  -0.127   7.056  1.00  0.00     0.093 A 
ATOM      8  C   UNL     1      -8.203  -0.464   5.706  1.00  0.00     0.123 A 
ATOM      9  C   UNL     1      -7.559  -1.642   5.339  1.00  0.00     0.094 A 
ATOM     10  C   UNL     1      -7.054  -2.506   6.314  1.00  0.00     0.146 A 
ATOM     11  O   UNL     1      -6.457  -3.625   5.921  1.00  0.00    -0.452 OA
ENDROOT
BRANCH   1  12
ATOM     12  C   UNL     1      -5.295  -5.719   6.197  1.00  0.00     0.021 A 
ATOM     13  C   UNL     1      -3.948  -6.011   6.480  1.00  0.00     0.016 A 
ATOM     14  C   UNL     1      -3.332  -7.132   5.914  1.00  0.00     0.047 A 
ATOM     15  C   UNL     1      -4.050  -7.966   5.047  1.00  0.00     0.115 A 
ATOM     16  C   UNL     1      -6.000  -6.550   5.310  1.00  0.00     0.016 A 
ATOM     17  C   UNL     1      -5.383  -7.670   4.745  1.00  0.00     0.047 A 
BRANCH  15  18
ATOM     18  O   UNL     1      -3.448  -9.086   4.478  1.00  0.00    -0.508 OA
ATOM     19  H   UNL     1      -3.659  -9.376   3.531  1.00  0.00     0.293 HD
ENDBRANCH  15  18
ENDBRANCH   1  12
BRANCH   2  20
ATOM     20  O   UNL     1      -5.672  -5.320   9.041  1.00  0.00    -0.502 OA
ATOM     21  H   UNL     1      -5.969  -6.286   8.972  1.00  0.00     0.293 HD
ENDBRANCH   2  20
BRANCH   6  22
ATOM     22  O   UNL     1      -7.875  -0.481   9.368  1.00  0.00    -0.507 OA
ATOM     23  H   UNL     1      -8.708  -0.099   9.788  1.00  0.00     0.293 HD
ENDBRANCH   6  22
BRANCH   8  24
ATOM     24  O   UNL     1      -8.719   0.374   4.719  1.00  0.00    -0.508 OA
ATOM     25  H   UNL     1      -8.281   1.258   4.492  1.00  0.00     0.293 HD
ENDBRANCH   8  24
TORSDOF 5
ENDMDL
