MODEL 1
REMARK VINA RESULT:    -4.258      0.000      0.000
REMARK INTER + INTRA:          -9.208
REMARK INTER:                  -7.245
REMARK INTRA:                  -1.964
REMARK UNBOUND:                -1.964
REMARK SMILES CCCCCCCCCCCCCC(=O)[O-]
REMARK SMILES IDX 8 1 9 2 10 3 11 4 12 5 13 6 14 7 15 8 16 9 7 10 6 11 5 12
REMARK SMILES IDX 4 13 3 14 2 15 1 16
REMARK H PARENT
REMARK Flexibility Score: inf
ROOT
ATOM      1  C   UNL     1      50.130  36.863 -13.297  1.00  0.00     0.000 C 
ENDROOT
BRANCH   1   2
ATOM      2  C   UNL     1      49.403  35.546 -13.001  1.00  0.00     0.000 C 
BRANCH   2   3
ATOM      3  C   UNL     1      47.883  35.728 -13.070  1.00  0.00     0.000 C 
BRANCH   3   4
ATOM      4  C   UNL     1      47.172  34.377 -13.214  1.00  0.00     0.000 C 
BRANCH   4   5
ATOM      5  C   UNL     1      45.657  34.567 -13.372  1.00  0.00     0.006 C 
BRANCH   5   6
ATOM      6  C   UNL     1      45.212  35.995 -13.031  1.00  0.00     0.053 C 
BRANCH   6   7
ATOM      7  C   UNL     1      44.295  36.022 -11.846  1.00  0.00     0.041 C 
ATOM      8  O   UNL     1      43.057  36.181 -12.007  1.00  0.00    -0.550 OA
ATOM      9  O   UNL     1      44.813  35.901 -10.563  1.00  0.00    -0.550 OA
ENDBRANCH   6   7
ENDBRANCH   5   6
ENDBRANCH   4   5
ENDBRANCH   3   4
ENDBRANCH   2   3
ENDBRANCH   1   2
BRANCH   1  10
ATOM     10  C   UNL     1      49.841  37.342 -14.727  1.00  0.00     0.000 C 
BRANCH  10  11
ATOM     11  C   UNL     1      50.696  36.620 -15.784  1.00  0.00    -0.000 C 
BRANCH  11  12
ATOM     12  C   UNL     1      49.903  36.016 -16.961  1.00  0.00    -0.000 C 
BRANCH  12  13
ATOM     13  C   UNL     1      48.952  34.863 -16.584  1.00  0.00    -0.000 C 
BRANCH  13  14
ATOM     14  C   UNL     1      47.450  35.185 -16.718  1.00  0.00    -0.000 C 
BRANCH  14  15
ATOM     15  C   UNL     1      47.136  36.612 -17.204  1.00  0.00    -0.003 C 
ATOM     16  C   UNL     1      46.540  37.496 -16.109  1.00  0.00     0.004 C 
ENDBRANCH  14  15
ENDBRANCH  13  14
ENDBRANCH  12  13
ENDBRANCH  11  12
ENDBRANCH  10  11
ENDBRANCH   1  10
TORSDOF 12
ENDMDL
MODEL 2
REMARK VINA RESULT:    -4.121      0.811      1.553
REMARK INTER + INTRA:          -8.975
REMARK INTER:                  -7.540
REMARK INTRA:                  -1.435
REMARK UNBOUND:                -1.964
REMARK SMILES CCCCCCCCCCCCCC(=O)[O-]
REMARK SMILES IDX 8 1 9 2 10 3 11 4 12 5 13 6 14 7 15 8 16 9 7 10 6 11 5 12
REMARK SMILES IDX 4 13 3 14 2 15 1 16
REMARK H PARENT
REMARK Flexibility Score: inf
ROOT
ATOM      1  C   UNL     1      49.150  36.002 -12.370  1.00  0.00     0.000 C 
ENDROOT
BRANCH   1   2
ATOM      2  C   UNL     1      47.841  35.962 -13.168  1.00  0.00     0.000 C 
BRANCH   2   3
ATOM      3  C   UNL     1      47.263  34.543 -13.209  1.00  0.00     0.000 C 
BRANCH   3   4
ATOM      4  C   UNL     1      45.746  34.572 -13.429  1.00  0.00     0.000 C 
BRANCH   4   5
ATOM      5  C   UNL     1      45.059  35.478 -12.397  1.00  0.00     0.006 C 
BRANCH   5   6
ATOM      6  C   UNL     1      43.829  36.189 -12.977  1.00  0.00     0.053 C 
BRANCH   6   7
ATOM      7  C   UNL     1      42.898  36.655 -11.900  1.00  0.00     0.041 C 
ATOM      8  O   UNL     1      42.037  37.540 -12.145  1.00  0.00    -0.550 OA
ATOM      9  O   UNL     1      43.004  36.133 -10.616  1.00  0.00    -0.550 OA
ENDBRANCH   6   7
ENDBRANCH   5   6
ENDBRANCH   4   5
ENDBRANCH   3   4
ENDBRANCH   2   3
ENDBRANCH   1   2
BRANCH   1  10
ATOM     10  C   UNL     1      50.318  36.469 -13.251  1.00  0.00     0.000 C 
BRANCH  10  11
ATOM     11  C   UNL     1      49.854  37.051 -14.599  1.00  0.00    -0.000 C 
BRANCH  11  12
ATOM     12  C   UNL     1      50.697  36.622 -15.817  1.00  0.00    -0.000 C 
BRANCH  12  13
ATOM     13  C   UNL     1      49.908  35.928 -16.945  1.00  0.00    -0.000 C 
BRANCH  13  14
ATOM     14  C   UNL     1      48.897  34.863 -16.474  1.00  0.00    -0.000 C 
BRANCH  14  15
ATOM     15  C   UNL     1      47.429  35.167 -16.825  1.00  0.00    -0.003 C 
ATOM     16  C   UNL     1      47.187  36.641 -17.150  1.00  0.00     0.004 C 
ENDBRANCH  14  15
ENDBRANCH  13  14
ENDBRANCH  12  13
ENDBRANCH  11  12
ENDBRANCH  10  11
ENDBRANCH   1  10
TORSDOF 12
ENDMDL
MODEL 3
REMARK VINA RESULT:    -4.012      1.069      3.485
REMARK INTER + INTRA:          -8.790
REMARK INTER:                  -6.909
REMARK INTRA:                  -1.881
REMARK UNBOUND:                -1.964
REMARK SMILES CCCCCCCCCCCCCC(=O)[O-]
REMARK SMILES IDX 8 1 9 2 10 3 11 4 12 5 13 6 14 7 15 8 16 9 7 10 6 11 5 12
REMARK SMILES IDX 4 13 3 14 2 15 1 16
REMARK H PARENT
REMARK Flexibility Score: inf
ROOT
ATOM      1  C   UNL     1      47.501  35.174 -16.821  1.00  0.00     0.000 C 
ENDROOT
BRANCH   1   2
ATOM      2  C   UNL     1      47.207  36.618 -17.243  1.00  0.00     0.000 C 
BRANCH   2   3
ATOM      3  C   UNL     1      47.253  37.564 -16.038  1.00  0.00     0.000 C 
BRANCH   3   4
ATOM      4  C   UNL     1      45.937  37.518 -15.251  1.00  0.00     0.000 C 
BRANCH   4   5
ATOM      5  C   UNL     1      46.185  37.127 -13.787  1.00  0.00     0.006 C 
BRANCH   5   6
ATOM      6  C   UNL     1      45.955  35.630 -13.539  1.00  0.00     0.053 C 
BRANCH   6   7
ATOM      7  C   UNL     1      45.583  35.355 -12.115  1.00  0.00     0.041 C 
ATOM      8  O   UNL     1      46.343  34.669 -11.382  1.00  0.00    -0.550 OA
ATOM      9  O   UNL     1      44.380  35.830 -11.606  1.00  0.00    -0.550 OA
ENDBRANCH   6   7
ENDBRANCH   5   6
ENDBRANCH   4   5
ENDBRANCH   3   4
ENDBRANCH   2   3
ENDBRANCH   1   2
BRANCH   1  10
ATOM     10  C   UNL     1      48.913  35.051 -16.229  1.00  0.00     0.000 C 
BRANCH  10  11
ATOM     11  C   UNL     1      50.018  35.422 -17.233  1.00  0.00    -0.000 C 
BRANCH  11  12
ATOM     12  C   UNL     1      51.240  36.135 -16.622  1.00  0.00    -0.000 C 
BRANCH  12  13
ATOM     13  C   UNL     1      50.922  37.429 -15.847  1.00  0.00    -0.000 C 
BRANCH  13  14
ATOM     14  C   UNL     1      51.178  37.360 -14.328  1.00  0.00    -0.000 C 
BRANCH  14  15
ATOM     15  C   UNL     1      49.907  37.323 -13.460  1.00  0.00    -0.003 C 
ATOM     16  C   UNL     1      49.686  35.971 -12.783  1.00  0.00     0.004 C 
ENDBRANCH  14  15
ENDBRANCH  13  14
ENDBRANCH  12  13
ENDBRANCH  11  12
ENDBRANCH  10  11
ENDBRANCH   1  10
TORSDOF 12
ENDMDL
MODEL 4
REMARK VINA RESULT:    -3.963      2.640      5.404
REMARK INTER + INTRA:          -8.707
REMARK INTER:                  -6.994
REMARK INTRA:                  -1.712
REMARK UNBOUND:                -1.964
REMARK SMILES CCCCCCCCCCCCCC(=O)[O-]
REMARK SMILES IDX 8 1 9 2 10 3 11 4 12 5 13 6 14 7 15 8 16 9 7 10 6 11 5 12
REMARK SMILES IDX 4 13 3 14 2 15 1 16
REMARK H PARENT
REMARK Flexibility Score: inf
ROOT
ATOM      1  C   UNL     1      47.259  36.430 -17.215  1.00  0.00     0.000 C 
ENDROOT
BRANCH   1   2
ATOM      2  C   UNL     1      47.515  35.132 -16.441  1.00  0.00     0.000 C 
BRANCH   2   3
ATOM      3  C   UNL     1      49.014  34.814 -16.380  1.00  0.00     0.000 C 
BRANCH   3   4
ATOM      4  C   UNL     1      49.831  35.864 -17.143  1.00  0.00     0.000 C 
BRANCH   4   5
ATOM      5  C   UNL     1      51.043  36.321 -16.319  1.00  0.00     0.006 C 
BRANCH   5   6
ATOM      6  C   UNL     1      50.720  37.534 -15.436  1.00  0.00     0.053 C 
BRANCH   6   7
ATOM      7  C   UNL     1      50.957  37.243 -13.986  1.00  0.00     0.041 C 
ATOM      8  O   UNL     1      50.257  36.384 -13.389  1.00  0.00    -0.550 OA
ATOM      9  O   UNL     1      51.932  37.943 -13.286  1.00  0.00    -0.550 OA
ENDBRANCH   6   7
ENDBRANCH   5   6
ENDBRANCH   4   5
ENDBRANCH   3   4
ENDBRANCH   2   3
ENDBRANCH   1   2
BRANCH   1  10
ATOM     10  C   UNL     1      46.501  37.447 -16.349  1.00  0.00     0.000 C 
BRANCH  10  11
ATOM     11  C   UNL     1      47.204  37.733 -15.010  1.00  0.00    -0.000 C 
BRANCH  11  12
ATOM     12  C   UNL     1      46.273  37.766 -13.781  1.00  0.00    -0.000 C 
BRANCH  12  13
ATOM     13  C   UNL     1      45.017  36.879 -13.888  1.00  0.00    -0.000 C 
BRANCH  13  14
ATOM     14  C   UNL     1      44.944  35.725 -12.868  1.00  0.00    -0.000 C 
BRANCH  14  15
ATOM     15  C   UNL     1      45.606  34.414 -13.328  1.00  0.00    -0.003 C 
ATOM     16  C   UNL     1      47.100  34.356 -13.009  1.00  0.00     0.004 C 
ENDBRANCH  14  15
ENDBRANCH  13  14
ENDBRANCH  12  13
ENDBRANCH  11  12
ENDBRANCH  10  11
ENDBRANCH   1  10
TORSDOF 12
ENDMDL
MODEL 5
REMARK VINA RESULT:    -3.960      3.563      5.939
REMARK INTER + INTRA:          -8.702
REMARK INTER:                  -6.909
REMARK INTRA:                  -1.793
REMARK UNBOUND:                -1.964
REMARK SMILES CCCCCCCCCCCCCC(=O)[O-]
REMARK SMILES IDX 8 1 9 2 10 3 11 4 12 5 13 6 14 7 15 8 16 9 7 10 6 11 5 12
REMARK SMILES IDX 4 13 3 14 2 15 1 16
REMARK H PARENT
REMARK Flexibility Score: inf
ROOT
ATOM      1  C   UNL     1      48.273  34.617 -13.882  1.00  0.00     0.000 C 
ENDROOT
BRANCH   1   2
ATOM      2  C   UNL     1      47.151  35.046 -14.834  1.00  0.00     0.000 C 
BRANCH   2   3
ATOM      3  C   UNL     1      47.526  34.758 -16.293  1.00  0.00     0.000 C 
BRANCH   3   4
ATOM      4  C   UNL     1      47.498  36.041 -17.132  1.00  0.00     0.000 C 
BRANCH   4   5
ATOM      5  C   UNL     1      48.888  36.691 -17.190  1.00  0.00     0.006 C 
BRANCH   5   6
ATOM      6  C   UNL     1      50.015  35.666 -17.007  1.00  0.00     0.053 C 
BRANCH   6   7
ATOM      7  C   UNL     1      51.297  36.320 -16.591  1.00  0.00     0.041 C 
ATOM      8  O   UNL     1      52.341  36.162 -17.276  1.00  0.00    -0.550 OA
ATOM      9  O   UNL     1      51.344  37.079 -15.428  1.00  0.00    -0.550 OA
ENDBRANCH   6   7
ENDBRANCH   5   6
ENDBRANCH   4   5
ENDBRANCH   3   4
ENDBRANCH   2   3
ENDBRANCH   1   2
BRANCH   1  10
ATOM     10  C   UNL     1      48.938  35.838 -13.230  1.00  0.00     0.000 C 
BRANCH  10  11
ATOM     11  C   UNL     1      48.144  37.139 -13.447  1.00  0.00    -0.000 C 
BRANCH  11  12
ATOM     12  C   UNL     1      47.803  37.915 -12.160  1.00  0.00    -0.000 C 
BRANCH  12  13
ATOM     13  C   UNL     1      47.757  37.063 -10.876  1.00  0.00    -0.000 C 
BRANCH  13  14
ATOM     14  C   UNL     1      46.341  36.729 -10.364  1.00  0.00    -0.000 C 
BRANCH  14  15
ATOM     15  C   UNL     1      45.716  35.462 -10.975  1.00  0.00    -0.003 C 
ATOM     16  C   UNL     1      44.790  35.763 -12.153  1.00  0.00     0.004 C 
ENDBRANCH  14  15
ENDBRANCH  13  14
ENDBRANCH  12  13
ENDBRANCH  11  12
ENDBRANCH  10  11
ENDBRANCH   1  10
TORSDOF 12
ENDMDL
MODEL 6
REMARK VINA RESULT:    -3.892      1.157      3.036
REMARK INTER + INTRA:          -8.585
REMARK INTER:                  -7.230
REMARK INTRA:                  -1.355
REMARK UNBOUND:                -1.964
REMARK SMILES CCCCCCCCCCCCCC(=O)[O-]
REMARK SMILES IDX 8 1 9 2 10 3 11 4 12 5 13 6 14 7 15 8 16 9 7 10 6 11 5 12
REMARK SMILES IDX 4 13 3 14 2 15 1 16
REMARK H PARENT
REMARK Flexibility Score: inf
ROOT
ATOM      1  C   UNL     1      47.710  34.811 -16.552  1.00  0.00     0.000 C 
ENDROOT
BRANCH   1   2
ATOM      2  C   UNL     1      47.846  34.541 -15.049  1.00  0.00     0.000 C 
BRANCH   2   3
ATOM      3  C   UNL     1      46.718  35.220 -14.263  1.00  0.00     0.000 C 
BRANCH   3   4
ATOM      4  C   UNL     1      46.181  34.296 -13.162  1.00  0.00     0.000 C 
BRANCH   4   5
ATOM      5  C   UNL     1      45.855  35.090 -11.889  1.00  0.00     0.006 C 
BRANCH   5   6
ATOM      6  C   UNL     1      45.065  36.370 -12.190  1.00  0.00     0.053 C 
BRANCH   6   7
ATOM      7  C   UNL     1      43.621  36.231 -11.816  1.00  0.00     0.041 C 
ATOM      8  O   UNL     1      43.292  36.049 -10.614  1.00  0.00    -0.550 OA
ATOM      9  O   UNL     1      42.641  36.272 -12.800  1.00  0.00    -0.550 OA
ENDBRANCH   6   7
ENDBRANCH   5   6
ENDBRANCH   4   5
ENDBRANCH   3   4
ENDBRANCH   2   3
ENDBRANCH   1   2
BRANCH   1  10
ATOM     10  C   UNL     1      47.130  36.209 -16.809  1.00  0.00     0.000 C 
BRANCH  10  11
ATOM     11  C   UNL     1      48.120  37.144 -17.528  1.00  0.00    -0.000 C 
BRANCH  11  12
ATOM     12  C   UNL     1      49.138  37.846 -16.607  1.00  0.00    -0.000 C 
BRANCH  12  13
ATOM     13  C   UNL     1      50.401  37.024 -16.284  1.00  0.00    -0.000 C 
BRANCH  13  14
ATOM     14  C   UNL     1      50.964  37.226 -14.862  1.00  0.00    -0.000 C 
BRANCH  14  15
ATOM     15  C   UNL     1      49.904  37.269 -13.748  1.00  0.00    -0.003 C 
ATOM     16  C   UNL     1      50.051  36.129 -12.740  1.00  0.00     0.004 C 
ENDBRANCH  14  15
ENDBRANCH  13  14
ENDBRANCH  12  13
ENDBRANCH  11  12
ENDBRANCH  10  11
ENDBRANCH   1  10
TORSDOF 12
ENDMDL
MODEL 7
REMARK VINA RESULT:    -3.880      1.311      2.090
REMARK INTER + INTRA:          -8.566
REMARK INTER:                  -6.814
REMARK INTRA:                  -1.752
REMARK UNBOUND:                -1.964
REMARK SMILES CCCCCCCCCCCCCC(=O)[O-]
REMARK SMILES IDX 8 1 9 2 10 3 11 4 12 5 13 6 14 7 15 8 16 9 7 10 6 11 5 12
REMARK SMILES IDX 4 13 3 14 2 15 1 16
REMARK H PARENT
REMARK Flexibility Score: inf
ROOT
ATOM      1  C   UNL     1      49.026  35.802 -13.089  1.00  0.00     0.000 C 
ENDROOT
BRANCH   1   2
ATOM      2  C   UNL     1      47.794  34.911 -13.285  1.00  0.00     0.000 C 
BRANCH   2   3
ATOM      3  C   UNL     1      46.534  35.754 -13.512  1.00  0.00     0.000 C 
BRANCH   3   4
ATOM      4  C   UNL     1      45.288  35.038 -12.976  1.00  0.00     0.000 C 
BRANCH   4   5
ATOM      5  C   UNL     1      44.588  35.883 -11.902  1.00  0.00     0.006 C 
BRANCH   5   6
ATOM      6  C   UNL     1      45.583  36.510 -10.917  1.00  0.00     0.053 C 
BRANCH   6   7
ATOM      7  C   UNL     1      45.908  35.579  -9.789  1.00  0.00     0.041 C 
ATOM      8  O   UNL     1      45.071  35.377  -8.871  1.00  0.00    -0.550 OA
ATOM      9  O   UNL     1      47.150  34.956  -9.737  1.00  0.00    -0.550 OA
ENDBRANCH   6   7
ENDBRANCH   5   6
ENDBRANCH   4   5
ENDBRANCH   3   4
ENDBRANCH   2   3
ENDBRANCH   1   2
BRANCH   1  10
ATOM     10  C   UNL     1      48.727  37.251 -13.499  1.00  0.00     0.000 C 
BRANCH  10  11
ATOM     11  C   UNL     1      49.573  37.721 -14.697  1.00  0.00    -0.000 C 
BRANCH  11  12
ATOM     12  C   UNL     1      50.460  36.633 -15.333  1.00  0.00    -0.000 C 
BRANCH  12  13
ATOM     13  C   UNL     1      50.028  36.178 -16.741  1.00  0.00    -0.000 C 
BRANCH  13  14
ATOM     14  C   UNL     1      48.986  35.041 -16.768  1.00  0.00    -0.000 C 
BRANCH  14  15
ATOM     15  C   UNL     1      47.526  35.507 -16.913  1.00  0.00    -0.003 C 
ATOM     16  C   UNL     1      47.399  36.866 -17.600  1.00  0.00     0.004 C 
ENDBRANCH  14  15
ENDBRANCH  13  14
ENDBRANCH  12  13
ENDBRANCH  11  12
ENDBRANCH  10  11
ENDBRANCH   1  10
TORSDOF 12
ENDMDL
MODEL 8
REMARK VINA RESULT:    -3.868      3.383      6.532
REMARK INTER + INTRA:          -8.544
REMARK INTER:                  -6.855
REMARK INTRA:                  -1.690
REMARK UNBOUND:                -1.964
REMARK SMILES CCCCCCCCCCCCCC(=O)[O-]
REMARK SMILES IDX 8 1 9 2 10 3 11 4 12 5 13 6 14 7 15 8 16 9 7 10 6 11 5 12
REMARK SMILES IDX 4 13 3 14 2 15 1 16
REMARK H PARENT
REMARK Flexibility Score: inf
ROOT
ATOM      1  C   UNL     1      44.353  35.864 -13.122  1.00  0.00     0.000 C 
ENDROOT
BRANCH   1   2
ATOM      2  C   UNL     1      45.137  37.068 -13.657  1.00  0.00     0.000 C 
BRANCH   2   3
ATOM      3  C   UNL     1      46.554  36.661 -14.077  1.00  0.00     0.000 C 
BRANCH   3   4
ATOM      4  C   UNL     1      46.700  35.135 -14.114  1.00  0.00     0.000 C 
BRANCH   4   5
ATOM      5  C   UNL     1      48.000  34.724 -14.821  1.00  0.00     0.006 C 
BRANCH   5   6
ATOM      6  C   UNL     1      47.858  34.736 -16.348  1.00  0.00     0.053 C 
BRANCH   6   7
ATOM      7  C   UNL     1      48.798  35.714 -16.985  1.00  0.00     0.041 C 
ATOM      8  O   UNL     1      48.397  36.865 -17.299  1.00  0.00    -0.550 OA
ATOM      9  O   UNL     1      50.108  35.342 -17.258  1.00  0.00    -0.550 OA
ENDBRANCH   6   7
ENDBRANCH   5   6
ENDBRANCH   4   5
ENDBRANCH   3   4
ENDBRANCH   2   3
ENDBRANCH   1   2
BRANCH   1  10
ATOM     10  C   UNL     1      43.152  36.319 -12.281  1.00  0.00     0.000 C 
BRANCH  10  11
ATOM     11  C   UNL     1      43.566  37.092 -11.016  1.00  0.00    -0.000 C 
BRANCH  11  12
ATOM     12  C   UNL     1      43.653  36.242  -9.733  1.00  0.00    -0.000 C 
BRANCH  12  13
ATOM     13  C   UNL     1      45.069  36.092  -9.142  1.00  0.00    -0.000 C 
BRANCH  13  14
ATOM     14  C   UNL     1      45.949  35.023  -9.821  1.00  0.00    -0.000 C 
BRANCH  14  15
ATOM     15  C   UNL     1      47.234  35.563 -10.473  1.00  0.00    -0.003 C 
ATOM     16  C   UNL     1      47.316  37.089 -10.454  1.00  0.00     0.004 C 
ENDBRANCH  14  15
ENDBRANCH  13  14
ENDBRANCH  12  13
ENDBRANCH  11  12
ENDBRANCH  10  11
ENDBRANCH   1  10
TORSDOF 12
ENDMDL
MODEL 9
REMARK VINA RESULT:    -3.863      1.334      2.659
REMARK INTER + INTRA:          -8.537
REMARK INTER:                  -6.817
REMARK INTRA:                  -1.720
REMARK UNBOUND:                -1.964
REMARK SMILES CCCCCCCCCCCCCC(=O)[O-]
REMARK SMILES IDX 8 1 9 2 10 3 11 4 12 5 13 6 14 7 15 8 16 9 7 10 6 11 5 12
REMARK SMILES IDX 4 13 3 14 2 15 1 16
REMARK H PARENT
REMARK Flexibility Score: inf
ROOT
ATOM      1  C   UNL     1      48.397  35.990 -12.722  1.00  0.00     0.000 C 
ENDROOT
BRANCH   1   2
ATOM      2  C   UNL     1      47.840  34.797 -13.508  1.00  0.00     0.000 C 
BRANCH   2   3
ATOM      3  C   UNL     1      46.571  34.246 -12.847  1.00  0.00     0.000 C 
BRANCH   3   4
ATOM      4  C   UNL     1      45.325  34.994 -13.339  1.00  0.00     0.000 C 
BRANCH   4   5
ATOM      5  C   UNL     1      44.702  35.827 -12.210  1.00  0.00     0.006 C 
BRANCH   5   6
ATOM      6  C   UNL     1      43.696  36.859 -12.737  1.00  0.00     0.053 C 
BRANCH   6   7
ATOM      7  C   UNL     1      42.659  37.197 -11.711  1.00  0.00     0.041 C 
ATOM      8  O   UNL     1      42.666  36.623 -10.590  1.00  0.00    -0.550 OA
ATOM      9  O   UNL     1      41.666  38.123 -12.005  1.00  0.00    -0.550 OA
ENDBRANCH   6   7
ENDBRANCH   5   6
ENDBRANCH   4   5
ENDBRANCH   3   4
ENDBRANCH   2   3
ENDBRANCH   1   2
BRANCH   1  10
ATOM     10  C   UNL     1      48.531  37.227 -13.621  1.00  0.00     0.000 C 
BRANCH  10  11
ATOM     11  C   UNL     1      47.220  38.025 -13.739  1.00  0.00    -0.000 C 
BRANCH  11  12
ATOM     12  C   UNL     1      46.625  38.093 -15.159  1.00  0.00    -0.000 C 
BRANCH  12  13
ATOM     13  C   UNL     1      47.590  37.689 -16.292  1.00  0.00    -0.000 C 
BRANCH  13  14
ATOM     14  C   UNL     1      47.151  36.461 -17.116  1.00  0.00    -0.000 C 
BRANCH  14  15
ATOM     15  C   UNL     1      47.911  35.162 -16.794  1.00  0.00    -0.003 C 
ATOM     16  C   UNL     1      49.429  35.336 -16.826  1.00  0.00     0.004 C 
ENDBRANCH  14  15
ENDBRANCH  13  14
ENDBRANCH  12  13
ENDBRANCH  11  12
ENDBRANCH  10  11
ENDBRANCH   1  10
TORSDOF 12
ENDMDL
