MODEL 1
REMARK VINA RESULT:    -3.771      0.000      0.000
REMARK INTER + INTRA:          -4.722
REMARK INTER:                  -5.315
REMARK INTRA:                   0.593
REMARK UNBOUND:                 0.593
REMARK SMILES CC1=CCCC(C)=CCC(C)(C)C=CC1
REMARK SMILES IDX 2 1 3 2 1 3 4 4 5 5 6 6 7 7 8 8 15 10 14 11 13 12 10 13
REMARK SMILES IDX 11 14 12 15 9 16
REMARK H PARENT
REMARK Flexibility Score: 60.00
ROOT
ATOM      1  C   UNL     1      31.927   9.723  31.965  1.00  0.00    -0.074 C 
ATOM      2  C   UNL     1      31.456   8.465  32.166  1.00  0.00    -0.027 C 
ATOM      3  C   UNL     1      33.086  10.173  32.822  1.00  0.00     0.039 C 
ENDROOT
BRANCH   2   4
ATOM      4  C   UNL     1      30.328   7.778  31.425  1.00  0.00     0.032 C 
BRANCH   4   5
ATOM      5  C   UNL     1      30.775   7.350  30.009  1.00  0.00     0.034 C 
BRANCH   5   6
ATOM      6  C   UNL     1      29.764   7.735  28.941  1.00  0.00    -0.077 C 
ATOM      7  C   UNL     1      28.389   7.119  28.974  1.00  0.00     0.039 C 
ATOM      8  C   UNL     1      30.056   8.592  27.933  1.00  0.00    -0.027 CG0
ATOM      9  G   UNL     1      31.391   9.288  27.758  1.00  0.00     0.000 G0
ENDBRANCH   5   6
ENDBRANCH   4   5
ENDBRANCH   2   4
BRANCH   1  10
ATOM     10  C   UNL     1      31.326  10.732  30.998  1.00  0.00     0.057 C 
BRANCH  10  11
ATOM     11  C   UNL     1      32.365  11.349  30.086  1.00  0.00    -0.026 C 
ATOM     12  C   UNL     1      32.353  11.427  28.733  1.00  0.00    -0.024 C 
BRANCH  12  13
ATOM     13  C   UNL     1      31.309  10.873  27.751  1.00  0.00    -0.014 C 
ATOM     14  C   UNL     1      31.676  11.392  26.339  1.00  0.00     0.016 C 
ATOM     15  C   UNL     1      29.893  11.421  28.086  1.00  0.00     0.016 C 
BRANCH  13  16
ATOM     16  C   UNL     1      31.388   9.315  27.732  1.00  0.00     0.038 CG0
ATOM     17  G   UNL     1      30.054   8.627  27.945  1.00  0.00     0.000 G0
ENDBRANCH  13  16
ENDBRANCH  12  13
ENDBRANCH  10  11
ENDBRANCH   1  10
TORSDOF 0
ENDMDL
MODEL 2
REMARK VINA RESULT:    -3.447      1.410      3.940
REMARK INTER + INTRA:          -4.264
REMARK INTER:                  -4.879
REMARK INTRA:                   0.614
REMARK UNBOUND:                 0.593
REMARK SMILES CC1=CCCC(C)=CCC(C)(C)C=CC1
REMARK SMILES IDX 2 1 3 2 1 3 4 4 5 5 6 6 7 7 8 8 15 10 14 11 13 12 10 13
REMARK SMILES IDX 11 14 12 15 9 16
REMARK H PARENT
REMARK Flexibility Score: 60.00
ROOT
ATOM      1  C   UNL     1      31.549   8.675  33.289  1.00  0.00    -0.074 C 
ATOM      2  C   UNL     1      32.046   9.927  33.112  1.00  0.00    -0.027 C 
ATOM      3  C   UNL     1      30.904   8.368  34.619  1.00  0.00     0.039 C 
ENDROOT
BRANCH   2   4
ATOM      4  C   UNL     1      32.712  10.483  31.871  1.00  0.00     0.032 C 
BRANCH   4   5
ATOM      5  C   UNL     1      31.733  11.366  31.065  1.00  0.00     0.034 C 
BRANCH   5   6
ATOM      6  C   UNL     1      31.681  10.982  29.595  1.00  0.00    -0.077 C 
ATOM      7  C   UNL     1      32.590  11.683  28.619  1.00  0.00     0.039 C 
ATOM      8  C   UNL     1      30.825  10.048  29.114  1.00  0.00    -0.027 CG0
ATOM      9  G   UNL     1      29.849   9.260  29.964  1.00  0.00     0.000 G0
ENDBRANCH   5   6
ENDBRANCH   4   5
ENDBRANCH   2   4
BRANCH   1  10
ATOM     10  C   UNL     1      31.664   7.543  32.278  1.00  0.00     0.057 C 
BRANCH  10  11
ATOM     11  C   UNL     1      30.338   6.857  32.026  1.00  0.00    -0.026 C 
ATOM     12  C   UNL     1      29.565   6.910  30.913  1.00  0.00    -0.024 C 
BRANCH  12  13
ATOM     13  C   UNL     1      29.795   7.713  29.625  1.00  0.00    -0.014 C 
ATOM     14  C   UNL     1      28.583   7.460  28.696  1.00  0.00     0.016 C 
ATOM     15  C   UNL     1      31.059   7.204  28.876  1.00  0.00     0.016 C 
BRANCH  13  16
ATOM     16  C   UNL     1      29.840   9.237  29.962  1.00  0.00     0.038 CG0
ATOM     17  G   UNL     1      30.831  10.025  29.129  1.00  0.00     0.000 G0
ENDBRANCH  13  16
ENDBRANCH  12  13
ENDBRANCH  10  11
ENDBRANCH   1  10
TORSDOF 0
ENDMDL
MODEL 3
REMARK VINA RESULT:    -3.409      1.579      2.064
REMARK INTER + INTRA:          -4.211
REMARK INTER:                  -4.922
REMARK INTRA:                   0.711
REMARK UNBOUND:                 0.593
REMARK SMILES CC1=CCCC(C)=CCC(C)(C)C=CC1
REMARK SMILES IDX 2 1 3 2 1 3 4 4 5 5 6 6 7 7 8 8 15 10 14 11 13 12 10 13
REMARK SMILES IDX 11 14 12 15 9 16
REMARK H PARENT
REMARK Flexibility Score: 60.00
ROOT
ATOM      1  C   UNL     1      31.798  11.202  30.156  1.00  0.00    -0.074 C 
ATOM      2  C   UNL     1      31.492   9.947  30.576  1.00  0.00    -0.027 C 
ATOM      3  C   UNL     1      32.915  11.920  30.875  1.00  0.00     0.039 C 
ENDROOT
BRANCH   2   4
ATOM      4  C   UNL     1      30.439   9.020  30.008  1.00  0.00     0.032 C 
BRANCH   4   5
ATOM      5  C   UNL     1      30.839   8.525  28.600  1.00  0.00     0.034 C 
BRANCH   5   6
ATOM      6  C   UNL     1      29.723   8.706  27.583  1.00  0.00    -0.077 C 
ATOM      7  C   UNL     1      28.401   8.022  27.812  1.00  0.00     0.039 C 
ATOM      8  C   UNL     1      29.876   9.440  26.454  1.00  0.00    -0.027 CG0
ATOM      9  G   UNL     1      31.142  10.184  26.079  1.00  0.00     0.000 G0
ENDBRANCH   5   6
ENDBRANCH   4   5
ENDBRANCH   2   4
BRANCH   1  10
ATOM     10  C   UNL     1      31.050  11.961  29.069  1.00  0.00     0.057 C 
BRANCH  10  11
ATOM     11  C   UNL     1      31.983  12.589  28.056  1.00  0.00    -0.026 C 
ATOM     12  C   UNL     1      31.934  12.502  26.704  1.00  0.00    -0.024 C 
BRANCH  12  13
ATOM     13  C   UNL     1      30.951  11.709  25.831  1.00  0.00    -0.014 C 
ATOM     14  C   UNL     1      31.300  12.003  24.351  1.00  0.00     0.016 C 
ATOM     15  C   UNL     1      29.492  12.194  26.062  1.00  0.00     0.016 C 
BRANCH  13  16
ATOM     16  C   UNL     1      31.148  10.181  26.082  1.00  0.00     0.038 CG0
ATOM     17  G   UNL     1      29.879   9.451  26.472  1.00  0.00     0.000 G0
ENDBRANCH  13  16
ENDBRANCH  12  13
ENDBRANCH  10  11
ENDBRANCH   1  10
TORSDOF 0
ENDMDL
MODEL 4
REMARK VINA RESULT:    -3.392      2.288      4.956
REMARK INTER + INTRA:          -4.188
REMARK INTER:                  -4.835
REMARK INTRA:                   0.647
REMARK UNBOUND:                 0.593
REMARK SMILES CC1=CCCC(C)=CCC(C)(C)C=CC1
REMARK SMILES IDX 2 1 3 2 1 3 4 4 5 5 6 6 7 7 8 8 15 10 14 11 13 12 10 13
REMARK SMILES IDX 11 14 12 15 9 16
REMARK H PARENT
REMARK Flexibility Score: 60.00
ROOT
ATOM      1  C   UNL     1      31.926  10.703  27.442  1.00  0.00    -0.074 C 
ATOM      2  C   UNL     1      31.610  11.665  26.536  1.00  0.00    -0.027 C 
ATOM      3  C   UNL     1      32.432  11.160  28.789  1.00  0.00     0.039 C 
ENDROOT
BRANCH   2   4
ATOM      4  C   UNL     1      31.065  11.466  25.137  1.00  0.00     0.032 C 
BRANCH   4   5
ATOM      5  C   UNL     1      29.521  11.537  25.130  1.00  0.00     0.034 C 
BRANCH   5   6
ATOM      6  C   UNL     1      28.888  10.317  24.479  1.00  0.00    -0.077 C 
ATOM      7  C   UNL     1      28.690  10.301  22.986  1.00  0.00     0.039 C 
ATOM      8  C   UNL     1      28.463   9.247  25.192  1.00  0.00    -0.027 CG0
ATOM      9  G   UNL     1      28.587   9.114  26.696  1.00  0.00     0.000 G0
ENDBRANCH   5   6
ENDBRANCH   4   5
ENDBRANCH   2   4
BRANCH   1  10
ATOM     10  C   UNL     1      31.881   9.206  27.170  1.00  0.00     0.057 C 
BRANCH  10  11
ATOM     11  C   UNL     1      31.241   8.433  28.303  1.00  0.00    -0.026 C 
ATOM     12  C   UNL     1      30.057   7.773  28.303  1.00  0.00    -0.024 C 
BRANCH  12  13
ATOM     13  C   UNL     1      29.020   7.666  27.176  1.00  0.00    -0.014 C 
ATOM     14  C   UNL     1      27.770   6.960  27.757  1.00  0.00     0.016 C 
ATOM     15  C   UNL     1      29.553   6.773  26.019  1.00  0.00     0.016 C 
BRANCH  13  16
ATOM     16  C   UNL     1      28.600   9.097  26.717  1.00  0.00     0.038 CG0
ATOM     17  G   UNL     1      28.471   9.252  25.215  1.00  0.00     0.000 G0
ENDBRANCH  13  16
ENDBRANCH  12  13
ENDBRANCH  10  11
ENDBRANCH   1  10
TORSDOF 0
ENDMDL
MODEL 5
REMARK VINA RESULT:    -3.354      3.427      6.358
REMARK INTER + INTRA:          -4.133
REMARK INTER:                  -5.306
REMARK INTRA:                   1.173
REMARK UNBOUND:                 0.593
REMARK SMILES CC1=CCCC(C)=CCC(C)(C)C=CC1
REMARK SMILES IDX 2 1 3 2 1 3 4 4 5 5 6 6 7 7 8 8 15 10 14 11 13 12 10 13
REMARK SMILES IDX 11 14 12 15 9 16
REMARK H PARENT
REMARK Flexibility Score: 60.00
ROOT
ATOM      1  C   UNL     1      31.936  10.654  31.467  1.00  0.00    -0.074 C 
ATOM      2  C   UNL     1      32.401  11.375  32.520  1.00  0.00    -0.027 C 
ATOM      3  C   UNL     1      32.045  11.281  30.098  1.00  0.00     0.039 C 
ENDROOT
BRANCH   2   4
ATOM      4  C   UNL     1      32.426  10.960  33.977  1.00  0.00     0.032 C 
BRANCH   4   5
ATOM      5  C   UNL     1      31.056  11.213  34.647  1.00  0.00     0.034 C 
BRANCH   5   6
ATOM      6  C   UNL     1      30.783  10.246  35.789  1.00  0.00    -0.077 C 
ATOM      7  C   UNL     1      31.263  10.591  37.174  1.00  0.00     0.039 C 
ATOM      8  C   UNL     1      30.146   9.064  35.608  1.00  0.00    -0.027 CG0
ATOM      9  G   UNL     1      29.609   8.573  34.278  1.00  0.00     0.000 G0
ENDBRANCH   5   6
ENDBRANCH   4   5
ENDBRANCH   2   4
BRANCH   1  10
ATOM     10  C   UNL     1      31.248   9.301  31.576  1.00  0.00     0.057 C 
BRANCH  10  11
ATOM     11  C   UNL     1      32.062   8.301  32.368  1.00  0.00    -0.026 C 
ATOM     12  C   UNL     1      31.626   7.404  33.286  1.00  0.00    -0.024 C 
BRANCH  12  13
ATOM     13  C   UNL     1      30.199   7.187  33.810  1.00  0.00    -0.014 C 
ATOM     14  C   UNL     1      30.293   6.256  35.043  1.00  0.00     0.016 C 
ATOM     15  C   UNL     1      29.328   6.457  32.750  1.00  0.00     0.016 C 
BRANCH  13  16
ATOM     16  C   UNL     1      29.603   8.552  34.276  1.00  0.00     0.038 CG0
ATOM     17  G   UNL     1      30.150   9.045  35.600  1.00  0.00     0.000 G0
ENDBRANCH  13  16
ENDBRANCH  12  13
ENDBRANCH  10  11
ENDBRANCH   1  10
TORSDOF 0
ENDMDL
MODEL 6
REMARK VINA RESULT:    -3.308      1.496      3.752
REMARK INTER + INTRA:          -4.070
REMARK INTER:                  -4.782
REMARK INTRA:                   0.712
REMARK UNBOUND:                 0.593
REMARK SMILES CC1=CCCC(C)=CCC(C)(C)C=CC1
REMARK SMILES IDX 2 1 3 2 1 3 4 4 5 5 6 6 7 7 8 8 15 10 14 11 13 12 10 13
REMARK SMILES IDX 11 14 12 15 9 16
REMARK H PARENT
REMARK Flexibility Score: 60.00
ROOT
ATOM      1  C   UNL     1      30.496   7.624  29.073  1.00  0.00    -0.074 C 
ATOM      2  C   UNL     1      30.539   7.593  30.430  1.00  0.00    -0.027 C 
ATOM      3  C   UNL     1      29.644   6.585  28.384  1.00  0.00     0.039 C 
ENDROOT
BRANCH   2   4
ATOM      4  C   UNL     1      31.295   8.533  31.346  1.00  0.00     0.032 C 
BRANCH   4   5
ATOM      5  C   UNL     1      30.705   9.960  31.284  1.00  0.00     0.034 C 
BRANCH   5   6
ATOM      6  C   UNL     1      31.757  11.008  30.957  1.00  0.00    -0.077 C 
ATOM      7  C   UNL     1      32.937  11.178  31.878  1.00  0.00     0.039 C 
ATOM      8  C   UNL     1      31.665  11.825  29.880  1.00  0.00    -0.027 CG0
ATOM      9  G   UNL     1      30.540  11.782  28.865  1.00  0.00     0.000 G0
ENDBRANCH   5   6
ENDBRANCH   4   5
ENDBRANCH   2   4
BRANCH   1  10
ATOM     10  C   UNL     1      31.301   8.576  28.199  1.00  0.00     0.057 C 
BRANCH  10  11
ATOM     11  C   UNL     1      30.476   9.167  27.076  1.00  0.00    -0.026 C 
ATOM     12  C   UNL     1      30.361  10.468  26.715  1.00  0.00    -0.024 C 
BRANCH  12  13
ATOM     13  C   UNL     1      30.996  11.703  27.371  1.00  0.00    -0.014 C 
ATOM     14  C   UNL     1      30.463  12.952  26.626  1.00  0.00     0.016 C 
ATOM     15  C   UNL     1      32.541  11.689  27.192  1.00  0.00     0.016 C 
BRANCH  13  16
ATOM     16  C   UNL     1      30.540  11.794  28.861  1.00  0.00     0.038 CG0
ATOM     17  G   UNL     1      31.683  11.818  29.856  1.00  0.00     0.000 G0
ENDBRANCH  13  16
ENDBRANCH  12  13
ENDBRANCH  10  11
ENDBRANCH   1  10
TORSDOF 0
ENDMDL
MODEL 7
REMARK VINA RESULT:    -3.300      1.019      3.551
REMARK INTER + INTRA:          -4.057
REMARK INTER:                  -4.954
REMARK INTRA:                   0.896
REMARK UNBOUND:                 0.593
REMARK SMILES CC1=CCCC(C)=CCC(C)(C)C=CC1
REMARK SMILES IDX 2 1 3 2 1 3 4 4 5 5 6 6 7 7 8 8 15 10 14 11 13 12 10 13
REMARK SMILES IDX 11 14 12 15 9 16
REMARK H PARENT
REMARK Flexibility Score: 60.00
ROOT
ATOM      1  C   UNL     1      31.932  10.262  31.766  1.00  0.00    -0.074 C 
ATOM      2  C   UNL     1      32.499  11.212  30.977  1.00  0.00    -0.027 C 
ATOM      3  C   UNL     1      32.740   9.765  32.940  1.00  0.00     0.039 C 
ENDROOT
BRANCH   2   4
ATOM      4  C   UNL     1      31.888  11.883  29.764  1.00  0.00     0.032 C 
BRANCH   4   5
ATOM      5  C   UNL     1      32.671  11.524  28.481  1.00  0.00     0.034 C 
BRANCH   5   6
ATOM      6  C   UNL     1      31.761  11.044  27.362  1.00  0.00    -0.077 C 
ATOM      7  C   UNL     1      31.351  12.011  26.282  1.00  0.00     0.039 C 
ATOM      8  C   UNL     1      31.274   9.781  27.307  1.00  0.00    -0.027 CG0
ATOM      9  G   UNL     1      31.588   8.696  28.317  1.00  0.00     0.000 G0
ENDBRANCH   5   6
ENDBRANCH   4   5
ENDBRANCH   2   4
BRANCH   1  10
ATOM     10  C   UNL     1      30.581   9.611  31.507  1.00  0.00     0.057 C 
BRANCH  10  11
ATOM     11  C   UNL     1      30.681   8.106  31.374  1.00  0.00    -0.026 C 
ATOM     12  C   UNL     1      30.620   7.359  30.245  1.00  0.00    -0.024 C 
BRANCH  12  13
ATOM     13  C   UNL     1      30.386   7.824  28.800  1.00  0.00    -0.014 C 
ATOM     14  C   UNL     1      29.125   8.722  28.798  1.00  0.00     0.016 C 
ATOM     15  C   UNL     1      30.087   6.612  27.872  1.00  0.00     0.016 C 
BRANCH  13  16
ATOM     16  C   UNL     1      31.598   8.687  28.329  1.00  0.00     0.038 CG0
ATOM     17  G   UNL     1      31.239   9.758  27.319  1.00  0.00     0.000 G0
ENDBRANCH  13  16
ENDBRANCH  12  13
ENDBRANCH  10  11
ENDBRANCH   1  10
TORSDOF 0
ENDMDL
MODEL 8
REMARK VINA RESULT:    -3.075      2.189      4.991
REMARK INTER + INTRA:          -3.740
REMARK INTER:                  -4.376
REMARK INTRA:                   0.636
REMARK UNBOUND:                 0.593
REMARK SMILES CC1=CCCC(C)=CCC(C)(C)C=CC1
REMARK SMILES IDX 2 1 3 2 1 3 4 4 5 5 6 6 7 7 8 8 15 10 14 11 13 12 10 13
REMARK SMILES IDX 11 14 12 15 9 16
REMARK H PARENT
REMARK Flexibility Score: 60.00
ROOT
ATOM      1  C   UNL     1      29.604   8.681  26.724  1.00  0.00    -0.074 C 
ATOM      2  C   UNL     1      29.297   9.318  25.564  1.00  0.00    -0.027 C 
ATOM      3  C   UNL     1      30.104   7.260  26.621  1.00  0.00     0.039 C 
ENDROOT
BRANCH   2   4
ATOM      4  C   UNL     1      28.802  10.741  25.402  1.00  0.00     0.032 C 
BRANCH   4   5
ATOM      5  C   UNL     1      29.986  11.726  25.269  1.00  0.00     0.034 C 
BRANCH   5   6
ATOM      6  C   UNL     1      29.874  12.899  26.230  1.00  0.00    -0.077 C 
ATOM      7  C   UNL     1      28.964  14.049  25.883  1.00  0.00     0.039 C 
ATOM      8  C   UNL     1      30.585  12.971  27.381  1.00  0.00    -0.027 CG0
ATOM      9  G   UNL     1      31.543  11.902  27.866  1.00  0.00     0.000 G0
ENDBRANCH   5   6
ENDBRANCH   4   5
ENDBRANCH   2   4
BRANCH   1  10
ATOM     10  C   UNL     1      29.409   9.266  28.115  1.00  0.00     0.057 C 
BRANCH  10  11
ATOM     11  C   UNL     1      30.619   9.063  29.002  1.00  0.00    -0.026 C 
ATOM     12  C   UNL     1      31.425  10.006  29.548  1.00  0.00    -0.024 C 
BRANCH  12  13
ATOM     13  C   UNL     1      31.363  11.532  29.382  1.00  0.00    -0.014 C 
ATOM     14  C   UNL     1      32.556  12.134  30.164  1.00  0.00     0.016 C 
ATOM     15  C   UNL     1      30.064  12.103  30.017  1.00  0.00     0.016 C 
BRANCH  13  16
ATOM     16  C   UNL     1      31.535  11.899  27.875  1.00  0.00     0.038 CG0
ATOM     17  G   UNL     1      30.575  12.964  27.385  1.00  0.00     0.000 G0
ENDBRANCH  13  16
ENDBRANCH  12  13
ENDBRANCH  10  11
ENDBRANCH   1  10
TORSDOF 0
ENDMDL
MODEL 9
REMARK VINA RESULT:    -2.964      1.515      4.661
REMARK INTER + INTRA:          -3.585
REMARK INTER:                  -4.364
REMARK INTRA:                   0.779
REMARK UNBOUND:                 0.593
REMARK SMILES CC1=CCCC(C)=CCC(C)(C)C=CC1
REMARK SMILES IDX 2 1 3 2 1 3 4 4 5 5 6 6 7 7 8 8 15 10 14 11 13 12 10 13
REMARK SMILES IDX 11 14 12 15 9 16
REMARK H PARENT
REMARK Flexibility Score: 60.00
ROOT
ATOM      1  C   UNL     1      30.029   7.812  27.506  1.00  0.00    -0.074 C 
ATOM      2  C   UNL     1      30.279   8.420  26.317  1.00  0.00    -0.027 C 
ATOM      3  C   UNL     1      29.995   6.303  27.519  1.00  0.00     0.039 C 
ENDROOT
BRANCH   2   4
ATOM      4  C   UNL     1      30.386   9.906  26.050  1.00  0.00     0.032 C 
BRANCH   4   5
ATOM      5  C   UNL     1      31.558  10.528  26.844  1.00  0.00     0.034 C 
BRANCH   5   6
ATOM      6  C   UNL     1      31.121  11.716  27.687  1.00  0.00    -0.077 C 
ATOM      7  C   UNL     1      30.383  12.853  27.029  1.00  0.00     0.039 C 
ATOM      8  C   UNL     1      31.393  11.812  29.011  1.00  0.00    -0.027 CG0
ATOM      9  G   UNL     1      32.128  10.757  29.814  1.00  0.00     0.000 G0
ENDBRANCH   5   6
ENDBRANCH   4   5
ENDBRANCH   2   4
BRANCH   1  10
ATOM     10  C   UNL     1      29.705   8.541  28.803  1.00  0.00     0.057 C 
BRANCH  10  11
ATOM     11  C   UNL     1      30.487   7.999  29.980  1.00  0.00    -0.026 C 
ATOM     12  C   UNL     1      31.153   8.694  30.935  1.00  0.00    -0.024 C 
BRANCH  12  13
ATOM     13  C   UNL     1      31.337  10.213  31.061  1.00  0.00    -0.014 C 
ATOM     14  C   UNL     1      32.182  10.476  32.331  1.00  0.00     0.016 C 
ATOM     15  C   UNL     1      29.967  10.919  31.269  1.00  0.00     0.016 C 
BRANCH  13  16
ATOM     16  C   UNL     1      32.133  10.745  29.829  1.00  0.00     0.038 CG0
ATOM     17  G   UNL     1      31.398  11.800  29.027  1.00  0.00     0.000 G0
ENDBRANCH  13  16
ENDBRANCH  12  13
ENDBRANCH  10  11
ENDBRANCH   1  10
TORSDOF 0
ENDMDL
