MODEL 1
REMARK VINA RESULT:    -3.912      0.000      0.000
REMARK INTER + INTRA:          -5.004
REMARK INTER:                  -4.827
REMARK INTRA:                  -0.177
REMARK UNBOUND:                -0.177
REMARK SMILES CCCCC=CC(C)=O
REMARK SMILES IDX 4 1 3 2 2 3 1 4 5 5 6 6 7 7 9 8 8 9
REMARK H PARENT
REMARK Flexibility Score: inf
ROOT
ATOM      1  C   UNL     1      -1.806   6.139  11.634  1.00  0.00     0.027 C 
ENDROOT
BRANCH   1   2
ATOM      2  C   UNL     1      -3.025   5.593  10.882  1.00  0.00     0.004 C 
BRANCH   2   3
ATOM      3  C   UNL     1      -2.840   4.109  10.541  1.00  0.00    -0.003 C 
ATOM      4  C   UNL     1      -4.119   3.514   9.958  1.00  0.00     0.004 C 
ENDBRANCH   2   3
ENDBRANCH   1   2
BRANCH   1   5
ATOM      5  C   UNL     1      -1.292   5.141  12.633  1.00  0.00    -0.023 C 
ATOM      6  C   UNL     1      -1.310   5.396  13.947  1.00  0.00     0.042 C 
BRANCH   6   7
ATOM      7  C   UNL     1      -0.806   4.452  14.964  1.00  0.00     0.152 C 
ATOM      8  O   UNL     1      -1.038   3.223  14.815  1.00  0.00    -0.295 OA
ATOM      9  C   UNL     1      -0.030   4.903  16.165  1.00  0.00     0.093 C 
ENDBRANCH   6   7
ENDBRANCH   1   5
TORSDOF 4
ENDMDL
MODEL 2
REMARK VINA RESULT:    -3.739      0.801      0.949
REMARK INTER + INTRA:          -4.791
REMARK INTER:                  -4.636
REMARK INTRA:                  -0.155
REMARK UNBOUND:                -0.177
REMARK SMILES CCCCC=CC(C)=O
REMARK SMILES IDX 4 1 3 2 2 3 1 4 5 5 6 6 7 7 9 8 8 9
REMARK H PARENT
REMARK Flexibility Score: inf
ROOT
ATOM      1  C   UNL     1      -2.357   5.594  11.616  1.00  0.00     0.027 C 
ENDROOT
BRANCH   1   2
ATOM      2  C   UNL     1      -2.348   4.245  10.887  1.00  0.00     0.004 C 
BRANCH   2   3
ATOM      3  C   UNL     1      -3.732   3.926  10.309  1.00  0.00    -0.003 C 
ATOM      4  C   UNL     1      -3.647   3.605   8.819  1.00  0.00     0.004 C 
ENDBRANCH   2   3
ENDBRANCH   1   2
BRANCH   1   5
ATOM      5  C   UNL     1      -1.964   5.434  13.058  1.00  0.00    -0.023 C 
ATOM      6  C   UNL     1      -1.094   4.493  13.444  1.00  0.00     0.042 C 
BRANCH   6   7
ATOM      7  C   UNL     1      -0.688   4.291  14.849  1.00  0.00     0.152 C 
ATOM      8  O   UNL     1      -0.653   3.118  15.305  1.00  0.00    -0.295 OA
ATOM      9  C   UNL     1      -0.314   5.431  15.750  1.00  0.00     0.093 C 
ENDBRANCH   6   7
ENDBRANCH   1   5
TORSDOF 4
ENDMDL
MODEL 3
REMARK VINA RESULT:    -3.621      2.018      5.150
REMARK INTER + INTRA:          -4.644
REMARK INTER:                  -4.411
REMARK INTRA:                  -0.233
REMARK UNBOUND:                -0.177
REMARK SMILES CCCCC=CC(C)=O
REMARK SMILES IDX 4 1 3 2 2 3 1 4 5 5 6 6 7 7 9 8 8 9
REMARK H PARENT
REMARK Flexibility Score: inf
ROOT
ATOM      1  C   UNL     1      -0.372   4.181  15.514  1.00  0.00     0.027 C 
ENDROOT
BRANCH   1   2
ATOM      2  C   UNL     1       0.044   5.247  16.534  1.00  0.00     0.004 C 
BRANCH   2   3
ATOM      3  C   UNL     1      -0.258   6.656  16.009  1.00  0.00    -0.003 C 
ATOM      4  C   UNL     1      -0.912   7.518  17.086  1.00  0.00     0.004 C 
ENDBRANCH   2   3
ENDBRANCH   1   2
BRANCH   1   5
ATOM      5  C   UNL     1      -1.175   4.783  14.396  1.00  0.00    -0.023 C 
ATOM      6  C   UNL     1      -0.983   4.415  13.123  1.00  0.00     0.042 C 
BRANCH   6   7
ATOM      7  C   UNL     1      -1.739   4.986  11.991  1.00  0.00     0.152 C 
ATOM      8  O   UNL     1      -2.532   4.241  11.356  1.00  0.00    -0.295 OA
ATOM      9  C   UNL     1      -1.598   6.419  11.570  1.00  0.00     0.093 C 
ENDBRANCH   6   7
ENDBRANCH   1   5
TORSDOF 4
ENDMDL
MODEL 4
REMARK VINA RESULT:    -3.617      2.176      5.823
REMARK INTER + INTRA:          -4.640
REMARK INTER:                  -4.453
REMARK INTRA:                  -0.188
REMARK UNBOUND:                -0.177
REMARK SMILES CCCCC=CC(C)=O
REMARK SMILES IDX 4 1 3 2 2 3 1 4 5 5 6 6 7 7 9 8 8 9
REMARK H PARENT
REMARK Flexibility Score: inf
ROOT
ATOM      1  C   UNL     1       0.325   4.975  17.488  1.00  0.00     0.027 C 
ENDROOT
BRANCH   1   2
ATOM      2  C   UNL     1       0.439   3.782  18.443  1.00  0.00     0.004 C 
BRANCH   2   3
ATOM      3  C   UNL     1      -0.363   2.583  17.921  1.00  0.00    -0.003 C 
ATOM      4  C   UNL     1      -1.016   1.815  19.067  1.00  0.00     0.004 C 
ENDBRANCH   2   3
ENDBRANCH   1   2
BRANCH   1   5
ATOM      5  C   UNL     1      -0.105   4.536  16.117  1.00  0.00    -0.023 C 
ATOM      6  C   UNL     1      -0.760   5.362  15.292  1.00  0.00     0.042 C 
BRANCH   6   7
ATOM      7  C   UNL     1      -1.211   4.972  13.942  1.00  0.00     0.152 C 
ATOM      8  O   UNL     1      -0.905   3.829  13.510  1.00  0.00    -0.295 OA
ATOM      9  C   UNL     1      -2.020   5.885  13.069  1.00  0.00     0.093 C 
ENDBRANCH   6   7
ENDBRANCH   1   5
TORSDOF 4
ENDMDL
MODEL 5
REMARK VINA RESULT:    -3.604      1.895      5.487
REMARK INTER + INTRA:          -4.624
REMARK INTER:                  -4.479
REMARK INTRA:                  -0.145
REMARK UNBOUND:                -0.177
REMARK SMILES CCCCC=CC(C)=O
REMARK SMILES IDX 4 1 3 2 2 3 1 4 5 5 6 6 7 7 9 8 8 9
REMARK H PARENT
REMARK Flexibility Score: inf
ROOT
ATOM      1  C   UNL     1      -0.463   4.114  15.446  1.00  0.00     0.027 C 
ENDROOT
BRANCH   1   2
ATOM      2  C   UNL     1       0.003   5.154  16.472  1.00  0.00     0.004 C 
BRANCH   2   3
ATOM      3  C   UNL     1       0.353   4.488  17.808  1.00  0.00    -0.003 C 
ATOM      4  C   UNL     1      -0.174   3.057  17.865  1.00  0.00     0.004 C 
ENDBRANCH   2   3
ENDBRANCH   1   2
BRANCH   1   5
ATOM      5  C   UNL     1      -1.128   4.771  14.270  1.00  0.00    -0.023 C 
ATOM      6  C   UNL     1      -0.811   4.437  13.013  1.00  0.00     0.042 C 
BRANCH   6   7
ATOM      7  C   UNL     1      -1.430   5.061  11.826  1.00  0.00     0.152 C 
ATOM      8  O   UNL     1      -1.126   6.250  11.542  1.00  0.00    -0.295 OA
ATOM      9  C   UNL     1      -2.404   4.333  10.950  1.00  0.00     0.093 C 
ENDBRANCH   6   7
ENDBRANCH   1   5
TORSDOF 4
ENDMDL
MODEL 6
REMARK VINA RESULT:    -3.588      2.163      5.744
REMARK INTER + INTRA:          -4.604
REMARK INTER:                  -4.333
REMARK INTRA:                  -0.270
REMARK UNBOUND:                -0.177
REMARK SMILES CCCCC=CC(C)=O
REMARK SMILES IDX 4 1 3 2 2 3 1 4 5 5 6 6 7 7 9 8 8 9
REMARK H PARENT
REMARK Flexibility Score: inf
ROOT
ATOM      1  C   UNL     1       0.218   5.628  17.554  1.00  0.00     0.027 C 
ENDROOT
BRANCH   1   2
ATOM      2  C   UNL     1      -0.708   6.834  17.746  1.00  0.00     0.004 C 
BRANCH   2   3
ATOM      3  C   UNL     1       0.100   8.127  17.902  1.00  0.00    -0.003 C 
ATOM      4  C   UNL     1       0.068   8.956  16.620  1.00  0.00     0.004 C 
ENDBRANCH   2   3
ENDBRANCH   1   2
BRANCH   1   5
ATOM      5  C   UNL     1      -0.082   4.911  16.268  1.00  0.00    -0.023 C 
ATOM      6  C   UNL     1      -0.777   5.499  15.287  1.00  0.00     0.042 C 
BRANCH   6   7
ATOM      7  C   UNL     1      -1.106   4.832  14.012  1.00  0.00     0.152 C 
ATOM      8  O   UNL     1      -0.971   3.582  13.932  1.00  0.00    -0.295 OA
ATOM      9  C   UNL     1      -1.594   5.586  12.811  1.00  0.00     0.093 C 
ENDBRANCH   6   7
ENDBRANCH   1   5
TORSDOF 4
ENDMDL
MODEL 7
REMARK VINA RESULT:    -3.581      1.515      2.414
REMARK INTER + INTRA:          -4.595
REMARK INTER:                  -4.424
REMARK INTRA:                  -0.171
REMARK UNBOUND:                -0.177
REMARK SMILES CCCCC=CC(C)=O
REMARK SMILES IDX 4 1 3 2 2 3 1 4 5 5 6 6 7 7 9 8 8 9
REMARK H PARENT
REMARK Flexibility Score: inf
ROOT
ATOM      1  C   UNL     1      -3.676   5.001  10.058  1.00  0.00     0.027 C 
ENDROOT
BRANCH   1   2
ATOM      2  C   UNL     1      -4.075   3.523   9.987  1.00  0.00     0.004 C 
BRANCH   2   3
ATOM      3  C   UNL     1      -4.141   3.042   8.532  1.00  0.00    -0.003 C 
ATOM      4  C   UNL     1      -5.272   3.732   7.774  1.00  0.00     0.004 C 
ENDBRANCH   2   3
ENDBRANCH   1   2
BRANCH   1   5
ATOM      5  C   UNL     1      -2.937   5.304  11.331  1.00  0.00    -0.023 C 
ATOM      6  C   UNL     1      -1.908   4.550  11.737  1.00  0.00     0.042 C 
BRANCH   6   7
ATOM      7  C   UNL     1      -1.160   4.801  12.985  1.00  0.00     0.152 C 
ATOM      8  O   UNL     1      -0.531   3.847  13.514  1.00  0.00    -0.295 OA
ATOM      9  C   UNL     1      -1.122   6.149  13.642  1.00  0.00     0.093 C 
ENDBRANCH   6   7
ENDBRANCH   1   5
TORSDOF 4
ENDMDL
MODEL 8
REMARK VINA RESULT:    -3.580     13.043     15.908
REMARK INTER + INTRA:          -4.594
REMARK INTER:                  -4.425
REMARK INTRA:                  -0.168
REMARK UNBOUND:                -0.177
REMARK SMILES CCCCC=CC(C)=O
REMARK SMILES IDX 4 1 3 2 2 3 1 4 5 5 6 6 7 7 9 8 8 9
REMARK H PARENT
REMARK Flexibility Score: inf
ROOT
ATOM      1  C   UNL     1     -14.204  -1.920   5.087  1.00  0.00     0.027 C 
ENDROOT
BRANCH   1   2
ATOM      2  C   UNL     1     -13.437  -0.595   5.162  1.00  0.00     0.004 C 
BRANCH   2   3
ATOM      3  C   UNL     1     -12.137  -0.759   5.958  1.00  0.00    -0.003 C 
ATOM      4  C   UNL     1     -11.602   0.592   6.425  1.00  0.00     0.004 C 
ENDBRANCH   2   3
ENDBRANCH   1   2
BRANCH   1   5
ATOM      5  C   UNL     1     -14.379  -2.525   6.451  1.00  0.00    -0.023 C 
ATOM      6  C   UNL     1     -15.085  -3.649   6.631  1.00  0.00     0.042 C 
BRANCH   6   7
ATOM      7  C   UNL     1     -15.293  -4.273   7.953  1.00  0.00     0.152 C 
ATOM      8  O   UNL     1     -14.290  -4.495   8.681  1.00  0.00    -0.295 OA
ATOM      9  C   UNL     1     -16.654  -4.652   8.457  1.00  0.00     0.093 C 
ENDBRANCH   6   7
ENDBRANCH   1   5
TORSDOF 4
ENDMDL
MODEL 9
REMARK VINA RESULT:    -3.578     16.257     18.186
REMARK INTER + INTRA:          -4.592
REMARK INTER:                  -4.380
REMARK INTRA:                  -0.212
REMARK UNBOUND:                -0.177
REMARK SMILES CCCCC=CC(C)=O
REMARK SMILES IDX 4 1 3 2 2 3 1 4 5 5 6 6 7 7 9 8 8 9
REMARK H PARENT
REMARK Flexibility Score: inf
ROOT
ATOM      1  C   UNL     1     -15.282  -7.176   7.974  1.00  0.00     0.027 C 
ENDROOT
BRANCH   1   2
ATOM      2  C   UNL     1     -16.424  -7.597   8.907  1.00  0.00     0.004 C 
BRANCH   2   3
ATOM      3  C   UNL     1     -17.756  -6.990   8.451  1.00  0.00    -0.003 C 
ATOM      4  C   UNL     1     -18.339  -6.072   9.524  1.00  0.00     0.004 C 
ENDBRANCH   2   3
ENDBRANCH   1   2
BRANCH   1   5
ATOM      5  C   UNL     1     -14.970  -5.714   8.122  1.00  0.00    -0.023 C 
ATOM      6  C   UNL     1     -14.852  -4.914   7.055  1.00  0.00     0.042 C 
BRANCH   6   7
ATOM      7  C   UNL     1     -14.536  -3.475   7.150  1.00  0.00     0.152 C 
ATOM      8  O   UNL     1     -13.977  -3.048   8.195  1.00  0.00    -0.295 OA
ATOM      9  C   UNL     1     -14.856  -2.507   6.050  1.00  0.00     0.093 C 
ENDBRANCH   6   7
ENDBRANCH   1   5
TORSDOF 4
ENDMDL
