MODEL 1
REMARK VINA RESULT:    -4.251      0.000      0.000
REMARK INTER + INTRA:          -6.213
REMARK INTER:                  -5.742
REMARK INTRA:                  -0.471
REMARK UNBOUND:                -0.471
REMARK SMILES [NH3+]CCCC[C@H]([NH3+])C(=O)[O-]
REMARK SMILES IDX 4 1 3 2 2 3 1 4 5 8 6 9 7 10 8 14 9 15 10 16
REMARK H PARENT 1 5 1 6 1 7 7 11 7 12 7 13
REMARK Flexibility Score: inf
ROOT
ATOM      1  C   UNL     1      23.595 -37.974 -28.152  1.00  0.00     0.012 C 
ENDROOT
BRANCH   1   2
ATOM      2  C   UNL     1      24.743 -37.273 -27.411  1.00  0.00     0.061 C 
BRANCH   2   3
ATOM      3  C   UNL     1      24.281 -36.592 -26.112  1.00  0.00     0.258 C 
BRANCH   3   4
ATOM      4  N   UNL     1      23.757 -35.245 -26.350  1.00  0.00    -0.358 N 
ATOM      5  H   UNL     1      23.792 -34.680 -25.471  1.00  0.00     0.344 HD
ATOM      6  H   UNL     1      24.353 -34.772 -27.068  1.00  0.00     0.344 HD
ATOM      7  H   UNL     1      22.776 -35.292 -26.707  1.00  0.00     0.344 HD
ENDBRANCH   3   4
ENDBRANCH   2   3
ENDBRANCH   1   2
BRANCH   1   8
ATOM      8  C   UNL     1      23.252 -37.232 -29.456  1.00  0.00     0.072 C 
BRANCH   8   9
ATOM      9  C   UNL     1      21.785 -36.750 -29.547  1.00  0.00     0.227 C 
BRANCH   9  10
ATOM     10  N   UNL     1      21.179 -37.066 -30.848  1.00  0.00    -0.350 N 
ATOM     11  H   UNL     1      20.217 -36.656 -30.893  1.00  0.00     0.345 HD
ATOM     12  H   UNL     1      21.744 -36.678 -31.637  1.00  0.00     0.345 HD
ATOM     13  H   UNL     1      21.098 -38.103 -30.961  1.00  0.00     0.345 HD
ENDBRANCH   9  10
BRANCH   9  14
ATOM     14  C   UNL     1      21.662 -35.283 -29.226  1.00  0.00     0.099 C 
ATOM     15  O   UNL     1      20.524 -34.765 -29.081  1.00  0.00    -0.544 OA
ATOM     16  O   UNL     1      22.796 -34.499 -29.038  1.00  0.00    -0.544 OA
ENDBRANCH   9  14
ENDBRANCH   8   9
ENDBRANCH   1   8
TORSDOF 7
ENDMDL
MODEL 2
REMARK VINA RESULT:    -4.215      8.611     10.392
REMARK INTER + INTRA:          -6.165
REMARK INTER:                  -5.715
REMARK INTRA:                  -0.450
REMARK UNBOUND:                -0.471
REMARK SMILES [NH3+]CCCC[C@H]([NH3+])C(=O)[O-]
REMARK SMILES IDX 4 1 3 2 2 3 1 4 5 8 6 9 7 10 8 14 9 15 10 16
REMARK H PARENT 1 5 1 6 1 7 7 11 7 12 7 13
REMARK Flexibility Score: inf
ROOT
ATOM      1  C   UNL     1      15.178 -30.192 -29.609  1.00  0.00     0.012 C 
ENDROOT
BRANCH   1   2
ATOM      2  C   UNL     1      14.574 -28.884 -29.076  1.00  0.00     0.061 C 
BRANCH   2   3
ATOM      3  C   UNL     1      13.795 -28.111 -30.153  1.00  0.00     0.258 C 
BRANCH   3   4
ATOM      4  N   UNL     1      14.482 -26.882 -30.557  1.00  0.00    -0.358 N 
ATOM      5  H   UNL     1      15.512 -27.046 -30.623  1.00  0.00     0.344 HD
ATOM      6  H   UNL     1      14.133 -26.593 -31.499  1.00  0.00     0.344 HD
ATOM      7  H   UNL     1      14.284 -26.113 -29.876  1.00  0.00     0.344 HD
ENDBRANCH   3   4
ENDBRANCH   2   3
ENDBRANCH   1   2
BRANCH   1   8
ATOM      8  C   UNL     1      16.695 -30.237 -29.354  1.00  0.00     0.072 C 
BRANCH   8   9
ATOM      9  C   UNL     1      17.557 -30.221 -30.639  1.00  0.00     0.227 C 
BRANCH   9  10
ATOM     10  N   UNL     1      18.911 -30.737 -30.403  1.00  0.00    -0.350 N 
ATOM     11  H   UNL     1      19.128 -31.482 -31.106  1.00  0.00     0.345 HD
ATOM     12  H   UNL     1      19.629 -29.982 -30.486  1.00  0.00     0.345 HD
ATOM     13  H   UNL     1      18.969 -31.163 -29.449  1.00  0.00     0.345 HD
ENDBRANCH   9  10
BRANCH   9  14
ATOM     14  C   UNL     1      17.592 -28.850 -31.265  1.00  0.00     0.099 C 
ATOM     15  O   UNL     1      18.514 -28.046 -30.962  1.00  0.00    -0.544 OA
ATOM     16  O   UNL     1      16.646 -28.476 -32.212  1.00  0.00    -0.544 OA
ENDBRANCH   9  14
ENDBRANCH   8   9
ENDBRANCH   1   8
TORSDOF 7
ENDMDL
MODEL 3
REMARK VINA RESULT:    -4.211      8.921     10.444
REMARK INTER + INTRA:          -6.159
REMARK INTER:                  -5.628
REMARK INTRA:                  -0.531
REMARK UNBOUND:                -0.471
REMARK SMILES [NH3+]CCCC[C@H]([NH3+])C(=O)[O-]
REMARK SMILES IDX 4 1 3 2 2 3 1 4 5 8 6 9 7 10 8 14 9 15 10 16
REMARK H PARENT 1 5 1 6 1 7 7 11 7 12 7 13
REMARK Flexibility Score: inf
ROOT
ATOM      1  C   UNL     1      15.554 -30.521 -30.022  1.00  0.00     0.012 C 
ENDROOT
BRANCH   1   2
ATOM      2  C   UNL     1      16.876 -30.377 -29.252  1.00  0.00     0.061 C 
BRANCH   2   3
ATOM      3  C   UNL     1      18.104 -30.696 -30.121  1.00  0.00     0.258 C 
BRANCH   3   4
ATOM      4  N   UNL     1      18.635 -29.504 -30.787  1.00  0.00    -0.358 N 
ATOM      5  H   UNL     1      19.651 -29.629 -31.000  1.00  0.00     0.344 HD
ATOM      6  H   UNL     1      18.125 -29.364 -31.689  1.00  0.00     0.344 HD
ATOM      7  H   UNL     1      18.496 -28.659 -30.188  1.00  0.00     0.344 HD
ENDBRANCH   3   4
ENDBRANCH   2   3
ENDBRANCH   1   2
BRANCH   1   8
ATOM      8  C   UNL     1      14.689 -29.258 -29.866  1.00  0.00     0.072 C 
BRANCH   8   9
ATOM      9  C   UNL     1      15.168 -28.052 -30.708  1.00  0.00     0.227 C 
BRANCH   9  10
ATOM     10  N   UNL     1      14.317 -26.870 -30.514  1.00  0.00    -0.350 N 
ATOM     11  H   UNL     1      14.585 -26.131 -31.206  1.00  0.00     0.345 HD
ATOM     12  H   UNL     1      13.307 -27.100 -30.647  1.00  0.00     0.345 HD
ATOM     13  H   UNL     1      14.458 -26.483 -29.553  1.00  0.00     0.345 HD
ENDBRANCH   9  10
BRANCH   9  14
ATOM     14  C   UNL     1      15.290 -28.409 -32.168  1.00  0.00     0.099 C 
ATOM     15  O   UNL     1      14.258 -28.458 -32.889  1.00  0.00    -0.544 OA
ATOM     16  O   UNL     1      16.535 -28.637 -32.743  1.00  0.00    -0.544 OA
ENDBRANCH   9  14
ENDBRANCH   8   9
ENDBRANCH   1   8
TORSDOF 7
ENDMDL
MODEL 4
REMARK VINA RESULT:    -4.195      2.319      3.902
REMARK INTER + INTRA:          -6.137
REMARK INTER:                  -5.939
REMARK INTRA:                  -0.198
REMARK UNBOUND:                -0.471
REMARK SMILES [NH3+]CCCC[C@H]([NH3+])C(=O)[O-]
REMARK SMILES IDX 4 1 3 2 2 3 1 4 5 8 6 9 7 10 8 14 9 15 10 16
REMARK H PARENT 1 5 1 6 1 7 7 11 7 12 7 13
REMARK Flexibility Score: inf
ROOT
ATOM      1  C   UNL     1      23.009 -37.425 -28.572  1.00  0.00     0.012 C 
ENDROOT
BRANCH   1   2
ATOM      2  C   UNL     1      22.980 -37.304 -30.103  1.00  0.00     0.061 C 
BRANCH   2   3
ATOM      3  C   UNL     1      21.574 -36.998 -30.646  1.00  0.00     0.258 C 
BRANCH   3   4
ATOM      4  N   UNL     1      20.810 -36.132 -29.744  1.00  0.00    -0.358 N 
ATOM      5  H   UNL     1      21.375 -35.903 -28.895  1.00  0.00     0.344 HD
ATOM      6  H   UNL     1      20.586 -35.240 -30.241  1.00  0.00     0.344 HD
ATOM      7  H   UNL     1      19.915 -36.594 -29.466  1.00  0.00     0.344 HD
ENDBRANCH   3   4
ENDBRANCH   2   3
ENDBRANCH   1   2
BRANCH   1   8
ATOM      8  C   UNL     1      24.044 -36.460 -27.967  1.00  0.00     0.072 C 
BRANCH   8   9
ATOM      9  C   UNL     1      23.473 -35.074 -27.584  1.00  0.00     0.227 C 
BRANCH   9  10
ATOM     10  N   UNL     1      24.063 -33.992 -28.385  1.00  0.00    -0.350 N 
ATOM     11  H   UNL     1      24.770 -33.479 -27.809  1.00  0.00     0.345 HD
ATOM     12  H   UNL     1      24.535 -34.363 -29.240  1.00  0.00     0.345 HD
ATOM     13  H   UNL     1      23.320 -33.314 -28.670  1.00  0.00     0.345 HD
ENDBRANCH   9  10
BRANCH   9  14
ATOM     14  C   UNL     1      23.615 -34.805 -26.108  1.00  0.00     0.099 C 
ATOM     15  O   UNL     1      24.287 -35.590 -25.389  1.00  0.00    -0.544 OA
ATOM     16  O   UNL     1      23.051 -33.670 -25.534  1.00  0.00    -0.544 OA
ENDBRANCH   9  14
ENDBRANCH   8   9
ENDBRANCH   1   8
TORSDOF 7
ENDMDL
MODEL 5
REMARK VINA RESULT:    -4.129     12.286     14.282
REMARK INTER + INTRA:          -6.048
REMARK INTER:                  -5.914
REMARK INTRA:                  -0.134
REMARK UNBOUND:                -0.471
REMARK SMILES [NH3+]CCCC[C@H]([NH3+])C(=O)[O-]
REMARK SMILES IDX 4 1 3 2 2 3 1 4 5 8 6 9 7 10 8 14 9 15 10 16
REMARK H PARENT 1 5 1 6 1 7 7 11 7 12 7 13
REMARK Flexibility Score: inf
ROOT
ATOM      1  C   UNL     1      11.410 -26.608 -31.122  1.00  0.00     0.012 C 
ENDROOT
BRANCH   1   2
ATOM      2  C   UNL     1      10.843 -25.727 -32.245  1.00  0.00     0.061 C 
BRANCH   2   3
ATOM      3  C   UNL     1      11.686 -25.792 -33.530  1.00  0.00     0.258 C 
BRANCH   3   4
ATOM      4  N   UNL     1      12.269 -24.494 -33.875  1.00  0.00    -0.358 N 
ATOM      5  H   UNL     1      12.393 -23.911 -33.016  1.00  0.00     0.344 HD
ATOM      6  H   UNL     1      13.210 -24.649 -34.305  1.00  0.00     0.344 HD
ATOM      7  H   UNL     1      11.665 -23.993 -34.565  1.00  0.00     0.344 HD
ENDBRANCH   3   4
ENDBRANCH   2   3
ENDBRANCH   1   2
BRANCH   1   8
ATOM      8  C   UNL     1      12.432 -27.615 -31.680  1.00  0.00     0.072 C 
BRANCH   8   9
ATOM      9  C   UNL     1      13.585 -27.955 -30.706  1.00  0.00     0.227 C 
BRANCH   9  10
ATOM     10  N   UNL     1      14.360 -26.765 -30.329  1.00  0.00    -0.350 N 
ATOM     11  H   UNL     1      14.037 -25.946 -30.895  1.00  0.00     0.345 HD
ATOM     12  H   UNL     1      14.242 -26.537 -29.316  1.00  0.00     0.345 HD
ATOM     13  H   UNL     1      15.374 -26.921 -30.531  1.00  0.00     0.345 HD
ENDBRANCH   9  10
BRANCH   9  14
ATOM     14  C   UNL     1      14.476 -29.038 -31.260  1.00  0.00     0.099 C 
ATOM     15  O   UNL     1      14.515 -30.165 -30.701  1.00  0.00    -0.544 OA
ATOM     16  O   UNL     1      15.223 -28.823 -32.413  1.00  0.00    -0.544 OA
ENDBRANCH   9  14
ENDBRANCH   8   9
ENDBRANCH   1   8
TORSDOF 7
ENDMDL
MODEL 6
REMARK VINA RESULT:    -3.996      8.055      9.888
REMARK INTER + INTRA:          -5.869
REMARK INTER:                  -5.650
REMARK INTRA:                  -0.218
REMARK UNBOUND:                -0.471
REMARK SMILES [NH3+]CCCC[C@H]([NH3+])C(=O)[O-]
REMARK SMILES IDX 4 1 3 2 2 3 1 4 5 8 6 9 7 10 8 14 9 15 10 16
REMARK H PARENT 1 5 1 6 1 7 7 11 7 12 7 13
REMARK Flexibility Score: inf
ROOT
ATOM      1  C   UNL     1      15.726 -30.254 -29.180  1.00  0.00     0.012 C 
ENDROOT
BRANCH   1   2
ATOM      2  C   UNL     1      14.749 -29.077 -29.318  1.00  0.00     0.061 C 
BRANCH   2   3
ATOM      3  C   UNL     1      15.122 -28.129 -30.471  1.00  0.00     0.258 C 
BRANCH   3   4
ATOM      4  N   UNL     1      14.345 -26.888 -30.440  1.00  0.00    -0.358 N 
ATOM      5  H   UNL     1      14.340 -26.439 -31.384  1.00  0.00     0.344 HD
ATOM      6  H   UNL     1      13.357 -27.114 -30.179  1.00  0.00     0.344 HD
ATOM      7  H   UNL     1      14.737 -26.229 -29.731  1.00  0.00     0.344 HD
ENDBRANCH   3   4
ENDBRANCH   2   3
ENDBRANCH   1   2
BRANCH   1   8
ATOM      8  C   UNL     1      17.110 -29.884 -29.744  1.00  0.00     0.072 C 
BRANCH   8   9
ATOM      9  C   UNL     1      17.750 -30.982 -30.627  1.00  0.00     0.227 C 
BRANCH   9  10
ATOM     10  N   UNL     1      19.217 -30.959 -30.559  1.00  0.00    -0.350 N 
ATOM     11  H   UNL     1      19.537 -31.513 -29.732  1.00  0.00     0.345 HD
ATOM     12  H   UNL     1      19.646 -31.367 -31.420  1.00  0.00     0.345 HD
ATOM     13  H   UNL     1      19.553 -29.975 -30.442  1.00  0.00     0.345 HD
ENDBRANCH   9  10
BRANCH   9  14
ATOM     14  C   UNL     1      17.264 -30.900 -32.051  1.00  0.00     0.099 C 
ATOM     15  O   UNL     1      17.569 -29.907 -32.762  1.00  0.00    -0.544 OA
ATOM     16  O   UNL     1      16.520 -31.934 -32.609  1.00  0.00    -0.544 OA
ENDBRANCH   9  14
ENDBRANCH   8   9
ENDBRANCH   1   8
TORSDOF 7
ENDMDL
MODEL 7
REMARK VINA RESULT:    -3.964      8.944     10.779
REMARK INTER + INTRA:          -5.826
REMARK INTER:                  -5.412
REMARK INTRA:                  -0.414
REMARK UNBOUND:                -0.471
REMARK SMILES [NH3+]CCCC[C@H]([NH3+])C(=O)[O-]
REMARK SMILES IDX 4 1 3 2 2 3 1 4 5 8 6 9 7 10 8 14 9 15 10 16
REMARK H PARENT 1 5 1 6 1 7 7 11 7 12 7 13
REMARK Flexibility Score: inf
ROOT
ATOM      1  C   UNL     1      16.278 -29.100 -32.615  1.00  0.00     0.012 C 
ENDROOT
BRANCH   1   2
ATOM      2  C   UNL     1      17.481 -30.055 -32.631  1.00  0.00     0.061 C 
BRANCH   2   3
ATOM      3  C   UNL     1      17.143 -31.442 -32.061  1.00  0.00     0.258 C 
BRANCH   3   4
ATOM      4  N   UNL     1      15.698 -31.657 -31.949  1.00  0.00    -0.358 N 
ATOM      5  H   UNL     1      15.242 -31.555 -32.884  1.00  0.00     0.344 HD
ATOM      6  H   UNL     1      15.526 -32.630 -31.605  1.00  0.00     0.344 HD
ATOM      7  H   UNL     1      15.280 -30.982 -31.270  1.00  0.00     0.344 HD
ENDBRANCH   3   4
ENDBRANCH   2   3
ENDBRANCH   1   2
BRANCH   1   8
ATOM      8  C   UNL     1      16.208 -28.332 -31.283  1.00  0.00     0.072 C 
BRANCH   8   9
ATOM      9  C   UNL     1      14.788 -28.237 -30.677  1.00  0.00     0.227 C 
BRANCH   9  10
ATOM     10  N   UNL     1      14.369 -26.845 -30.465  1.00  0.00    -0.350 N 
ATOM     11  H   UNL     1      14.971 -26.409 -29.728  1.00  0.00     0.345 HD
ATOM     12  H   UNL     1      14.453 -26.282 -31.341  1.00  0.00     0.345 HD
ATOM     13  H   UNL     1      13.377 -26.818 -30.133  1.00  0.00     0.345 HD
ENDBRANCH   9  10
BRANCH   9  14
ATOM     14  C   UNL     1      14.672 -29.045 -29.410  1.00  0.00     0.099 C 
ATOM     15  O   UNL     1      15.101 -30.229 -29.379  1.00  0.00    -0.544 OA
ATOM     16  O   UNL     1      14.138 -28.484 -28.255  1.00  0.00    -0.544 OA
ENDBRANCH   9  14
ENDBRANCH   8   9
ENDBRANCH   1   8
TORSDOF 7
ENDMDL
MODEL 8
REMARK VINA RESULT:    -3.940      8.163      9.985
REMARK INTER + INTRA:          -5.793
REMARK INTER:                  -5.595
REMARK INTRA:                  -0.197
REMARK UNBOUND:                -0.471
REMARK SMILES [NH3+]CCCC[C@H]([NH3+])C(=O)[O-]
REMARK SMILES IDX 4 1 3 2 2 3 1 4 5 8 6 9 7 10 8 14 9 15 10 16
REMARK H PARENT 1 5 1 6 1 7 7 11 7 12 7 13
REMARK Flexibility Score: inf
ROOT
ATOM      1  C   UNL     1      15.637 -30.006 -29.389  1.00  0.00     0.012 C 
ENDROOT
BRANCH   1   2
ATOM      2  C   UNL     1      14.624 -28.869 -29.184  1.00  0.00     0.061 C 
BRANCH   2   3
ATOM      3  C   UNL     1      14.121 -28.279 -30.513  1.00  0.00     0.258 C 
BRANCH   3   4
ATOM      4  N   UNL     1      14.369 -26.838 -30.607  1.00  0.00    -0.358 N 
ATOM      5  H   UNL     1      15.072 -26.638 -31.354  1.00  0.00     0.344 HD
ATOM      6  H   UNL     1      13.475 -26.357 -30.860  1.00  0.00     0.344 HD
ATOM      7  H   UNL     1      14.703 -26.464 -29.690  1.00  0.00     0.344 HD
ENDBRANCH   3   4
ENDBRANCH   2   3
ENDBRANCH   1   2
BRANCH   1   8
ATOM      8  C   UNL     1      16.691 -29.616 -30.440  1.00  0.00     0.072 C 
BRANCH   8   9
ATOM      9  C   UNL     1      16.740 -30.554 -31.669  1.00  0.00     0.227 C 
BRANCH   9  10
ATOM     10  N   UNL     1      15.594 -31.472 -31.709  1.00  0.00    -0.350 N 
ATOM     11  H   UNL     1      15.802 -32.261 -32.365  1.00  0.00     0.345 HD
ATOM     12  H   UNL     1      15.389 -31.870 -30.765  1.00  0.00     0.345 HD
ATOM     13  H   UNL     1      14.747 -30.970 -32.062  1.00  0.00     0.345 HD
ENDBRANCH   9  10
BRANCH   9  14
ATOM     14  C   UNL     1      18.046 -31.303 -31.744  1.00  0.00     0.099 C 
ATOM     15  O   UNL     1      18.493 -31.676 -32.860  1.00  0.00    -0.544 OA
ATOM     16  O   UNL     1      18.793 -31.545 -30.596  1.00  0.00    -0.544 OA
ENDBRANCH   9  14
ENDBRANCH   8   9
ENDBRANCH   1   8
TORSDOF 7
ENDMDL
MODEL 9
REMARK VINA RESULT:    -3.807      8.767      9.817
REMARK INTER + INTRA:          -5.613
REMARK INTER:                  -5.096
REMARK INTRA:                  -0.517
REMARK UNBOUND:                -0.471
REMARK SMILES [NH3+]CCCC[C@H]([NH3+])C(=O)[O-]
REMARK SMILES IDX 4 1 3 2 2 3 1 4 5 8 6 9 7 10 8 14 9 15 10 16
REMARK H PARENT 1 5 1 6 1 7 7 11 7 12 7 13
REMARK Flexibility Score: inf
ROOT
ATOM      1  C   UNL     1      17.654 -31.009 -30.528  1.00  0.00     0.012 C 
ENDROOT
BRANCH   1   2
ATOM      2  C   UNL     1      18.085 -31.058 -32.001  1.00  0.00     0.061 C 
BRANCH   2   3
ATOM      3  C   UNL     1      17.066 -31.787 -32.893  1.00  0.00     0.258 C 
BRANCH   3   4
ATOM      4  N   UNL     1      15.791 -32.010 -32.207  1.00  0.00    -0.358 N 
ATOM      5  H   UNL     1      15.409 -32.952 -32.447  1.00  0.00     0.344 HD
ATOM      6  H   UNL     1      15.952 -31.974 -31.174  1.00  0.00     0.344 HD
ATOM      7  H   UNL     1      15.103 -31.266 -32.465  1.00  0.00     0.344 HD
ENDBRANCH   3   4
ENDBRANCH   2   3
ENDBRANCH   1   2
BRANCH   1   8
ATOM      8  C   UNL     1      17.390 -29.560 -30.083  1.00  0.00     0.072 C 
BRANCH   8   9
ATOM      9  C   UNL     1      15.956 -29.306 -29.563  1.00  0.00     0.227 C 
BRANCH   9  10
ATOM     10  N   UNL     1      15.295 -30.546 -29.135  1.00  0.00    -0.350 N 
ATOM     11  H   UNL     1      15.949 -31.352 -29.267  1.00  0.00     0.345 HD
ATOM     12  H   UNL     1      15.016 -30.504 -28.129  1.00  0.00     0.345 HD
ATOM     13  H   UNL     1      14.445 -30.717 -29.721  1.00  0.00     0.345 HD
ENDBRANCH   9  10
BRANCH   9  14
ATOM     14  C   UNL     1      15.124 -28.560 -30.575  1.00  0.00     0.099 C 
ATOM     15  O   UNL     1      14.454 -27.555 -30.218  1.00  0.00    -0.544 OA
ATOM     16  O   UNL     1      15.124 -28.939 -31.913  1.00  0.00    -0.544 OA
ENDBRANCH   9  14
ENDBRANCH   8   9
ENDBRANCH   1   8
TORSDOF 7
ENDMDL
