MODEL 1
REMARK VINA RESULT:    -4.706      0.000      0.000
REMARK INTER + INTRA:          -5.174
REMARK INTER:                  -4.982
REMARK INTRA:                  -0.193
REMARK UNBOUND:                -0.193
REMARK SMILES C=C1CC=C(C(C)C)CC1
REMARK SMILES IDX 5 1 4 2 3 3 2 4 1 5 10 6 9 7 6 8 7 9 8 10
REMARK H PARENT
REMARK Flexibility Score: inf
ROOT
ATOM      1  C   UNL     1      57.923  44.376  41.953  1.00  0.00    -0.071 C 
ATOM      2  C   UNL     1      57.405  45.618  41.852  1.00  0.00    -0.023 C 
ATOM      3  C   UNL     1      56.054  45.949  42.435  1.00  0.00     0.057 C 
ATOM      4  C   UNL     1      55.102  44.781  42.287  1.00  0.00    -0.073 C 
ATOM      5  C   UNL     1      53.780  44.994  42.223  1.00  0.00     0.008 C 
ATOM      6  C   UNL     1      55.639  43.365  42.249  1.00  0.00     0.035 C 
ATOM      7  C   UNL     1      57.115  43.312  42.671  1.00  0.00     0.035 C 
ENDROOT
BRANCH   1   8
ATOM      8  C   UNL     1      59.253  44.046  41.295  1.00  0.00     0.008 C 
ATOM      9  C   UNL     1      59.384  42.540  41.036  1.00  0.00     0.012 C 
ATOM     10  C   UNL     1      59.435  44.847  40.002  1.00  0.00     0.012 C 
ENDBRANCH   1   8
TORSDOF 1
ENDMDL
MODEL 2
REMARK VINA RESULT:    -4.534      1.088      4.548
REMARK INTER + INTRA:          -4.992
REMARK INTER:                  -4.804
REMARK INTRA:                  -0.188
REMARK UNBOUND:                -0.193
REMARK SMILES C=C1CC=C(C(C)C)CC1
REMARK SMILES IDX 5 1 4 2 3 3 2 4 1 5 10 6 9 7 6 8 7 9 8 10
REMARK H PARENT
REMARK Flexibility Score: inf
ROOT
ATOM      1  C   UNL     1      55.720  45.189  42.777  1.00  0.00    -0.071 C 
ATOM      2  C   UNL     1      56.037  43.943  42.365  1.00  0.00    -0.023 C 
ATOM      3  C   UNL     1      57.446  43.591  41.960  1.00  0.00     0.057 C 
ATOM      4  C   UNL     1      58.110  44.751  41.250  1.00  0.00    -0.073 C 
ATOM      5  C   UNL     1      59.089  44.527  40.363  1.00  0.00     0.008 C 
ATOM      6  C   UNL     1      57.693  46.173  41.567  1.00  0.00     0.035 C 
ATOM      7  C   UNL     1      56.818  46.234  42.827  1.00  0.00     0.035 C 
ENDROOT
BRANCH   1   8
ATOM      8  C   UNL     1      54.279  45.542  43.110  1.00  0.00     0.008 C 
ATOM      9  C   UNL     1      54.149  47.017  43.511  1.00  0.00     0.012 C 
ATOM     10  C   UNL     1      53.350  45.203  41.940  1.00  0.00     0.012 C 
ENDBRANCH   1   8
TORSDOF 1
ENDMDL
MODEL 3
REMARK VINA RESULT:    -4.260      1.042      4.284
REMARK INTER + INTRA:          -4.702
REMARK INTER:                  -4.561
REMARK INTRA:                  -0.141
REMARK UNBOUND:                -0.193
REMARK SMILES C=C1CC=C(C(C)C)CC1
REMARK SMILES IDX 5 1 4 2 3 3 2 4 1 5 10 6 9 7 6 8 7 9 8 10
REMARK H PARENT
REMARK Flexibility Score: inf
ROOT
ATOM      1  C   UNL     1      55.606  44.837  42.397  1.00  0.00    -0.071 C 
ATOM      2  C   UNL     1      56.603  45.646  41.981  1.00  0.00    -0.023 C 
ATOM      3  C   UNL     1      57.888  45.080  41.430  1.00  0.00     0.057 C 
ATOM      4  C   UNL     1      58.276  43.812  42.160  1.00  0.00    -0.073 C 
ATOM      5  C   UNL     1      59.562  43.446  42.237  1.00  0.00     0.008 C 
ATOM      6  C   UNL     1      57.205  42.934  42.776  1.00  0.00     0.035 C 
ATOM      7  C   UNL     1      55.803  43.337  42.296  1.00  0.00     0.035 C 
ENDROOT
BRANCH   1   8
ATOM      8  C   UNL     1      54.349  45.428  43.016  1.00  0.00     0.008 C 
ATOM      9  C   UNL     1      54.582  46.875  43.468  1.00  0.00     0.012 C 
ATOM     10  C   UNL     1      53.168  45.335  42.045  1.00  0.00     0.012 C 
ENDBRANCH   1   8
TORSDOF 1
ENDMDL
MODEL 4
REMARK VINA RESULT:    -4.212     20.919     22.250
REMARK INTER + INTRA:          -4.651
REMARK INTER:                  -4.458
REMARK INTRA:                  -0.193
REMARK UNBOUND:                -0.193
REMARK SMILES C=C1CC=C(C(C)C)CC1
REMARK SMILES IDX 5 1 4 2 3 3 2 4 1 5 10 6 9 7 6 8 7 9 8 10
REMARK H PARENT
REMARK Flexibility Score: inf
ROOT
ATOM      1  C   UNL     1      55.475  30.350  25.818  1.00  0.00    -0.071 C 
ATOM      2  C   UNL     1      55.654  29.734  27.006  1.00  0.00    -0.023 C 
ATOM      3  C   UNL     1      56.843  28.839  27.248  1.00  0.00     0.057 C 
ATOM      4  C   UNL     1      57.197  28.061  25.998  1.00  0.00    -0.073 C 
ATOM      5  C   UNL     1      57.813  26.875  26.094  1.00  0.00     0.008 C 
ATOM      6  C   UNL     1      56.888  28.640  24.632  1.00  0.00     0.035 C 
ATOM      7  C   UNL     1      56.502  30.124  24.725  1.00  0.00     0.035 C 
ENDROOT
BRANCH   1   8
ATOM      8  C   UNL     1      54.232  31.189  25.571  1.00  0.00     0.008 C 
ATOM      9  C   UNL     1      53.837  31.171  24.089  1.00  0.00     0.012 C 
ATOM     10  C   UNL     1      53.073  30.721  26.457  1.00  0.00     0.012 C 
ENDBRANCH   1   8
TORSDOF 1
ENDMDL
MODEL 5
REMARK VINA RESULT:    -4.054      1.069      2.092
REMARK INTER + INTRA:          -4.483
REMARK INTER:                  -4.335
REMARK INTRA:                  -0.148
REMARK UNBOUND:                -0.193
REMARK SMILES C=C1CC=C(C(C)C)CC1
REMARK SMILES IDX 5 1 4 2 3 3 2 4 1 5 10 6 9 7 6 8 7 9 8 10
REMARK H PARENT
REMARK Flexibility Score: inf
ROOT
ATOM      1  C   UNL     1      57.612  44.049  42.122  1.00  0.00    -0.071 C 
ATOM      2  C   UNL     1      56.557  43.312  42.528  1.00  0.00    -0.023 C 
ATOM      3  C   UNL     1      55.146  43.823  42.377  1.00  0.00     0.057 C 
ATOM      4  C   UNL     1      55.085  45.318  42.609  1.00  0.00    -0.073 C 
ATOM      5  C   UNL     1      53.955  45.885  43.052  1.00  0.00     0.008 C 
ATOM      6  C   UNL     1      56.293  46.181  42.307  1.00  0.00     0.035 C 
ATOM      7  C   UNL     1      57.350  45.409  41.505  1.00  0.00     0.035 C 
ENDROOT
BRANCH   1   8
ATOM      8  C   UNL     1      59.029  43.546  42.350  1.00  0.00     0.008 C 
ATOM      9  C   UNL     1      59.173  42.906  43.736  1.00  0.00     0.012 C 
ATOM     10  C   UNL     1      59.446  42.570  41.244  1.00  0.00     0.012 C 
ENDBRANCH   1   8
TORSDOF 1
ENDMDL
MODEL 6
REMARK VINA RESULT:    -3.957      1.316      4.269
REMARK INTER + INTRA:          -4.381
REMARK INTER:                  -4.243
REMARK INTRA:                  -0.138
REMARK UNBOUND:                -0.193
REMARK SMILES C=C1CC=C(C(C)C)CC1
REMARK SMILES IDX 5 1 4 2 3 3 2 4 1 5 10 6 9 7 6 8 7 9 8 10
REMARK H PARENT
REMARK Flexibility Score: inf
ROOT
ATOM      1  C   UNL     1      56.780  43.820  42.539  1.00  0.00    -0.071 C 
ATOM      2  C   UNL     1      57.401  44.789  41.833  1.00  0.00    -0.023 C 
ATOM      3  C   UNL     1      58.882  44.723  41.555  1.00  0.00     0.057 C 
ATOM      4  C   UNL     1      59.626  44.131  42.732  1.00  0.00    -0.073 C 
ATOM      5  C   UNL     1      60.909  44.453  42.949  1.00  0.00     0.008 C 
ATOM      6  C   UNL     1      58.933  43.143  43.649  1.00  0.00     0.035 C 
ATOM      7  C   UNL     1      57.607  42.655  43.048  1.00  0.00     0.035 C 
ENDROOT
BRANCH   1   8
ATOM      8  C   UNL     1      55.301  43.943  42.870  1.00  0.00     0.008 C 
ATOM      9  C   UNL     1      54.722  45.259  42.337  1.00  0.00     0.012 C 
ATOM     10  C   UNL     1      54.521  42.738  42.334  1.00  0.00     0.012 C 
ENDBRANCH   1   8
TORSDOF 1
ENDMDL
MODEL 7
REMARK VINA RESULT:    -3.907      1.125      4.034
REMARK INTER + INTRA:          -4.328
REMARK INTER:                  -4.143
REMARK INTRA:                  -0.185
REMARK UNBOUND:                -0.193
REMARK SMILES C=C1CC=C(C(C)C)CC1
REMARK SMILES IDX 5 1 4 2 3 3 2 4 1 5 10 6 9 7 6 8 7 9 8 10
REMARK H PARENT
REMARK Flexibility Score: inf
ROOT
ATOM      1  C   UNL     1      57.190  45.431  41.862  1.00  0.00    -0.071 C 
ATOM      2  C   UNL     1      58.334  45.642  41.177  1.00  0.00    -0.023 C 
ATOM      3  C   UNL     1      59.067  44.503  40.514  1.00  0.00     0.057 C 
ATOM      4  C   UNL     1      58.975  43.244  41.349  1.00  0.00    -0.073 C 
ATOM      5  C   UNL     1      59.934  42.311  41.270  1.00  0.00     0.008 C 
ATOM      6  C   UNL     1      57.778  43.018  42.251  1.00  0.00     0.035 C 
ATOM      7  C   UNL     1      56.651  44.017  41.951  1.00  0.00     0.035 C 
ENDROOT
BRANCH   1   8
ATOM      8  C   UNL     1      56.507  46.582  42.584  1.00  0.00     0.008 C 
ATOM      9  C   UNL     1      55.097  46.190  43.041  1.00  0.00     0.012 C 
ATOM     10  C   UNL     1      57.356  47.066  43.764  1.00  0.00     0.012 C 
ENDBRANCH   1   8
TORSDOF 1
ENDMDL
MODEL 8
REMARK VINA RESULT:    -3.700     20.820     21.954
REMARK INTER + INTRA:          -4.109
REMARK INTER:                  -3.921
REMARK INTRA:                  -0.188
REMARK UNBOUND:                -0.193
REMARK SMILES C=C1CC=C(C(C)C)CC1
REMARK SMILES IDX 5 1 4 2 3 3 2 4 1 5 10 6 9 7 6 8 7 9 8 10
REMARK H PARENT
REMARK Flexibility Score: inf
ROOT
ATOM      1  C   UNL     1      56.132  29.006  26.247  1.00  0.00    -0.071 C 
ATOM      2  C   UNL     1      55.772  30.211  25.756  1.00  0.00    -0.023 C 
ATOM      3  C   UNL     1      54.555  30.933  26.277  1.00  0.00     0.057 C 
ATOM      4  C   UNL     1      53.448  29.955  26.608  1.00  0.00    -0.073 C 
ATOM      5  C   UNL     1      52.167  30.346  26.562  1.00  0.00     0.008 C 
ATOM      6  C   UNL     1      53.788  28.539  27.027  1.00  0.00     0.035 C 
ATOM      7  C   UNL     1      55.283  28.389  27.342  1.00  0.00     0.035 C 
ENDROOT
BRANCH   1   8
ATOM      8  C   UNL     1      57.321  28.264  25.657  1.00  0.00     0.008 C 
ATOM      9  C   UNL     1      57.476  26.876  26.290  1.00  0.00     0.012 C 
ATOM     10  C   UNL     1      57.200  28.166  24.132  1.00  0.00     0.012 C 
ENDBRANCH   1   8
TORSDOF 1
ENDMDL
