MODEL 1
REMARK VINA RESULT:    -3.990      0.000      0.000
REMARK INTER + INTRA:          -6.143
REMARK INTER:                  -5.623
REMARK INTRA:                  -0.520
REMARK UNBOUND:                -0.520
REMARK SMILES C=CCCCCCCC(=O)[O-]
REMARK SMILES IDX 6 1 7 2 8 3 9 4 10 5 11 6 5 7 4 8 3 9 2 10 1 11
REMARK H PARENT
REMARK Flexibility Score: inf
ROOT
ATOM      1  C   UNL     1       1.126   1.562   7.368  1.00  0.00     0.000 C 
ENDROOT
BRANCH   1   2
ATOM      2  C   UNL     1       0.466   2.681   6.544  1.00  0.00     0.006 C 
BRANCH   2   3
ATOM      3  C   UNL     1      -1.047   2.777   6.774  1.00  0.00     0.053 C 
BRANCH   3   4
ATOM      4  C   UNL     1      -1.782   2.657   5.476  1.00  0.00     0.041 C 
ATOM      5  O   UNL     1      -1.241   3.036   4.404  1.00  0.00    -0.550 OA
ATOM      6  O   UNL     1      -3.084   2.173   5.458  1.00  0.00    -0.550 OA
ENDBRANCH   3   4
ENDBRANCH   2   3
ENDBRANCH   1   2
BRANCH   1   7
ATOM      7  C   UNL     1       1.746   0.418   6.539  1.00  0.00     0.000 C 
BRANCH   7   8
ATOM      8  C   UNL     1       3.284   0.376   6.531  1.00  0.00     0.004 C 
BRANCH   8   9
ATOM      9  C   UNL     1       3.912   1.363   7.527  1.00  0.00     0.027 C 
BRANCH   9  10
ATOM     10  C   UNL     1       4.775   2.373   6.821  1.00  0.00    -0.035 C 
ATOM     11  C   UNL     1       4.250   3.336   6.058  1.00  0.00     0.004 C 
ENDBRANCH   9  10
ENDBRANCH   8   9
ENDBRANCH   7   8
ENDBRANCH   1   7
TORSDOF 7
ENDMDL
MODEL 2
REMARK VINA RESULT:    -3.924      0.940      2.364
REMARK INTER + INTRA:          -6.050
REMARK INTER:                  -5.440
REMARK INTRA:                  -0.610
REMARK UNBOUND:                -0.520
REMARK SMILES C=CCCCCCCC(=O)[O-]
REMARK SMILES IDX 6 1 7 2 8 3 9 4 10 5 11 6 5 7 4 8 3 9 2 10 1 11
REMARK H PARENT
REMARK Flexibility Score: inf
ROOT
ATOM      1  C   UNL     1       1.965   3.490   7.176  1.00  0.00     0.000 C 
ENDROOT
BRANCH   1   2
ATOM      2  C   UNL     1       0.718   3.781   6.323  1.00  0.00     0.006 C 
BRANCH   2   3
ATOM      3  C   UNL     1      -0.253   2.596   6.264  1.00  0.00     0.053 C 
BRANCH   3   4
ATOM      4  C   UNL     1      -1.280   2.814   5.197  1.00  0.00     0.041 C 
ATOM      5  O   UNL     1      -2.380   2.203   5.243  1.00  0.00    -0.550 OA
ATOM      6  O   UNL     1      -1.000   3.652   4.126  1.00  0.00    -0.550 OA
ENDBRANCH   3   4
ENDBRANCH   2   3
ENDBRANCH   1   2
BRANCH   1   7
ATOM      7  C   UNL     1       3.302   3.506   6.407  1.00  0.00     0.000 C 
BRANCH   7   8
ATOM      8  C   UNL     1       4.174   2.250   6.585  1.00  0.00     0.004 C 
BRANCH   8   9
ATOM      9  C   UNL     1       3.528   1.202   7.504  1.00  0.00     0.027 C 
BRANCH   9  10
ATOM     10  C   UNL     1       3.220  -0.064   6.753  1.00  0.00    -0.035 C 
ATOM     11  C   UNL     1       1.994  -0.333   6.298  1.00  0.00     0.004 C 
ENDBRANCH   9  10
ENDBRANCH   8   9
ENDBRANCH   7   8
ENDBRANCH   1   7
TORSDOF 7
ENDMDL
MODEL 3
REMARK VINA RESULT:    -3.850      2.790      5.461
REMARK INTER + INTRA:          -5.946
REMARK INTER:                  -5.588
REMARK INTRA:                  -0.359
REMARK UNBOUND:                -0.520
REMARK SMILES C=CCCCCCCC(=O)[O-]
REMARK SMILES IDX 6 1 7 2 8 3 9 4 10 5 11 6 5 7 4 8 3 9 2 10 1 11
REMARK H PARENT
REMARK Flexibility Score: inf
ROOT
ATOM      1  C   UNL     1       0.681   3.811   6.817  1.00  0.00     0.000 C 
ENDROOT
BRANCH   1   2
ATOM      2  C   UNL     1       1.970   2.974   6.744  1.00  0.00     0.006 C 
BRANCH   2   3
ATOM      3  C   UNL     1       1.754   1.511   7.152  1.00  0.00     0.053 C 
BRANCH   3   4
ATOM      4  C   UNL     1       2.711   0.619   6.426  1.00  0.00     0.041 C 
ATOM      5  O   UNL     1       3.923   0.945   6.319  1.00  0.00    -0.550 OA
ATOM      6  O   UNL     1       2.254  -0.546   5.824  1.00  0.00    -0.550 OA
ENDBRANCH   3   4
ENDBRANCH   2   3
ENDBRANCH   1   2
BRANCH   1   7
ATOM      7  C   UNL     1       0.373   4.649   5.560  1.00  0.00     0.000 C 
BRANCH   7   8
ATOM      8  C   UNL     1      -0.922   4.268   4.821  1.00  0.00     0.004 C 
BRANCH   8   9
ATOM      9  C   UNL     1      -1.458   2.889   5.232  1.00  0.00     0.027 C 
BRANCH   9  10
ATOM     10  C   UNL     1      -2.740   3.013   6.010  1.00  0.00    -0.035 C 
ATOM     11  C   UNL     1      -3.649   2.034   6.031  1.00  0.00     0.004 C 
ENDBRANCH   9  10
ENDBRANCH   8   9
ENDBRANCH   7   8
ENDBRANCH   1   7
TORSDOF 7
ENDMDL
MODEL 4
REMARK VINA RESULT:    -3.770     13.032     14.340
REMARK INTER + INTRA:          -5.834
REMARK INTER:                  -5.063
REMARK INTRA:                  -0.770
REMARK UNBOUND:                -0.520
REMARK SMILES C=CCCCCCCC(=O)[O-]
REMARK SMILES IDX 6 1 7 2 8 3 9 4 10 5 11 6 5 7 4 8 3 9 2 10 1 11
REMARK H PARENT
REMARK Flexibility Score: inf
ROOT
ATOM      1  C   UNL     1      -5.789  -2.234  -6.536  1.00  0.00     0.000 C 
ENDROOT
BRANCH   1   2
ATOM      2  C   UNL     1      -5.337  -3.615  -6.030  1.00  0.00     0.006 C 
BRANCH   2   3
ATOM      3  C   UNL     1      -5.063  -3.637  -4.522  1.00  0.00     0.053 C 
BRANCH   3   4
ATOM      4  C   UNL     1      -4.421  -4.929  -4.125  1.00  0.00     0.041 C 
ATOM      5  O   UNL     1      -4.562  -5.373  -2.955  1.00  0.00    -0.550 OA
ATOM      6  O   UNL     1      -3.626  -5.617  -5.033  1.00  0.00    -0.550 OA
ENDBRANCH   3   4
ENDBRANCH   2   3
ENDBRANCH   1   2
BRANCH   1   7
ATOM      7  C   UNL     1      -4.761  -1.490  -7.413  1.00  0.00     0.000 C 
BRANCH   7   8
ATOM      8  C   UNL     1      -4.195  -0.196  -6.801  1.00  0.00     0.004 C 
BRANCH   8   9
ATOM      9  C   UNL     1      -3.210  -0.461  -5.653  1.00  0.00     0.027 C 
BRANCH   9  10
ATOM     10  C   UNL     1      -2.126  -1.415  -6.076  1.00  0.00    -0.035 C 
ATOM     11  C   UNL     1      -1.673  -2.373  -5.262  1.00  0.00     0.004 C 
ENDBRANCH   9  10
ENDBRANCH   8   9
ENDBRANCH   7   8
ENDBRANCH   1   7
TORSDOF 7
ENDMDL
MODEL 5
REMARK VINA RESULT:    -3.768      1.554      2.832
REMARK INTER + INTRA:          -5.830
REMARK INTER:                  -5.326
REMARK INTRA:                  -0.504
REMARK UNBOUND:                -0.520
REMARK SMILES C=CCCCCCCC(=O)[O-]
REMARK SMILES IDX 6 1 7 2 8 3 9 4 10 5 11 6 5 7 4 8 3 9 2 10 1 11
REMARK H PARENT
REMARK Flexibility Score: inf
ROOT
ATOM      1  C   UNL     1       0.165   4.494   5.705  1.00  0.00     0.000 C 
ENDROOT
BRANCH   1   2
ATOM      2  C   UNL     1      -1.003   3.989   4.841  1.00  0.00     0.006 C 
BRANCH   2   3
ATOM      3  C   UNL     1      -1.546   2.633   5.308  1.00  0.00     0.053 C 
BRANCH   3   4
ATOM      4  C   UNL     1      -2.971   2.762   5.745  1.00  0.00     0.041 C 
ATOM      5  O   UNL     1      -3.744   1.769   5.689  1.00  0.00    -0.550 OA
ATOM      6  O   UNL     1      -3.460   3.992   6.166  1.00  0.00    -0.550 OA
ENDBRANCH   3   4
ENDBRANCH   2   3
ENDBRANCH   1   2
BRANCH   1   7
ATOM      7  C   UNL     1       0.755   3.455   6.680  1.00  0.00     0.000 C 
BRANCH   7   8
ATOM      8  C   UNL     1       2.292   3.394   6.719  1.00  0.00     0.004 C 
BRANCH   8   9
ATOM      9  C   UNL     1       2.826   1.970   6.936  1.00  0.00     0.027 C 
BRANCH   9  10
ATOM     10  C   UNL     1       1.736   0.948   6.763  1.00  0.00    -0.035 C 
ATOM     11  C   UNL     1       1.989  -0.283   6.309  1.00  0.00     0.004 C 
ENDBRANCH   9  10
ENDBRANCH   8   9
ENDBRANCH   7   8
ENDBRANCH   1   7
TORSDOF 7
ENDMDL
MODEL 6
REMARK VINA RESULT:    -3.650     13.240     14.482
REMARK INTER + INTRA:          -5.665
REMARK INTER:                  -4.986
REMARK INTRA:                  -0.678
REMARK UNBOUND:                -0.520
REMARK SMILES C=CCCCCCCC(=O)[O-]
REMARK SMILES IDX 6 1 7 2 8 3 9 4 10 5 11 6 5 7 4 8 3 9 2 10 1 11
REMARK H PARENT
REMARK Flexibility Score: inf
ROOT
ATOM      1  C   UNL     1      -2.247  -2.778  -5.248  1.00  0.00     0.000 C 
ENDROOT
BRANCH   1   2
ATOM      2  C   UNL     1      -3.092  -3.979  -5.706  1.00  0.00     0.006 C 
BRANCH   2   3
ATOM      3  C   UNL     1      -4.291  -4.247  -4.789  1.00  0.00     0.053 C 
BRANCH   3   4
ATOM      4  C   UNL     1      -3.981  -5.357  -3.834  1.00  0.00     0.041 C 
ATOM      5  O   UNL     1      -4.656  -5.491  -2.779  1.00  0.00    -0.550 OA
ATOM      6  O   UNL     1      -2.915  -6.211  -4.084  1.00  0.00    -0.550 OA
ENDBRANCH   3   4
ENDBRANCH   2   3
ENDBRANCH   1   2
BRANCH   1   7
ATOM      7  C   UNL     1      -2.323  -1.537  -6.161  1.00  0.00     0.000 C 
BRANCH   7   8
ATOM      8  C   UNL     1      -3.313  -0.450  -5.705  1.00  0.00     0.004 C 
BRANCH   8   9
ATOM      9  C   UNL     1      -4.339  -0.086  -6.788  1.00  0.00     0.027 C 
BRANCH   9  10
ATOM     10  C   UNL     1      -5.010  -1.317  -7.336  1.00  0.00    -0.035 C 
ATOM     11  C   UNL     1      -6.221  -1.701  -6.924  1.00  0.00     0.004 C 
ENDBRANCH   9  10
ENDBRANCH   8   9
ENDBRANCH   7   8
ENDBRANCH   1   7
TORSDOF 7
ENDMDL
MODEL 7
REMARK VINA RESULT:    -3.627     12.586     13.954
REMARK INTER + INTRA:          -5.632
REMARK INTER:                  -4.924
REMARK INTRA:                  -0.708
REMARK UNBOUND:                -0.520
REMARK SMILES C=CCCCCCCC(=O)[O-]
REMARK SMILES IDX 6 1 7 2 8 3 9 4 10 5 11 6 5 7 4 8 3 9 2 10 1 11
REMARK H PARENT
REMARK Flexibility Score: inf
ROOT
ATOM      1  C   UNL     1      -4.808  -2.501  -6.085  1.00  0.00     0.000 C 
ENDROOT
BRANCH   1   2
ATOM      2  C   UNL     1      -4.993  -3.447  -4.885  1.00  0.00     0.006 C 
BRANCH   2   3
ATOM      3  C   UNL     1      -4.750  -4.918  -5.244  1.00  0.00     0.053 C 
BRANCH   3   4
ATOM      4  C   UNL     1      -5.109  -5.803  -4.093  1.00  0.00     0.041 C 
ATOM      5  O   UNL     1      -4.578  -5.621  -2.965  1.00  0.00    -0.550 OA
ATOM      6  O   UNL     1      -5.991  -6.860  -4.277  1.00  0.00    -0.550 OA
ENDBRANCH   3   4
ENDBRANCH   2   3
ENDBRANCH   1   2
BRANCH   1   7
ATOM      7  C   UNL     1      -3.631  -1.512  -5.962  1.00  0.00     0.000 C 
BRANCH   7   8
ATOM      8  C   UNL     1      -2.259  -2.074  -6.376  1.00  0.00     0.004 C 
BRANCH   8   9
ATOM      9  C   UNL     1      -1.357  -2.387  -5.172  1.00  0.00     0.027 C 
BRANCH   9  10
ATOM     10  C   UNL     1      -1.245  -3.870  -4.948  1.00  0.00    -0.035 C 
ATOM     11  C   UNL     1      -1.220  -4.397  -3.720  1.00  0.00     0.004 C 
ENDBRANCH   9  10
ENDBRANCH   8   9
ENDBRANCH   7   8
ENDBRANCH   1   7
TORSDOF 7
ENDMDL
MODEL 8
REMARK VINA RESULT:    -3.616     12.385     13.541
REMARK INTER + INTRA:          -5.616
REMARK INTER:                  -5.035
REMARK INTRA:                  -0.581
REMARK UNBOUND:                -0.520
REMARK SMILES C=CCCCCCCC(=O)[O-]
REMARK SMILES IDX 6 1 7 2 8 3 9 4 10 5 11 6 5 7 4 8 3 9 2 10 1 11
REMARK H PARENT
REMARK Flexibility Score: inf
ROOT
ATOM      1  C   UNL     1      -4.514  -4.139  -5.677  1.00  0.00     0.000 C 
ENDROOT
BRANCH   1   2
ATOM      2  C   UNL     1      -4.746  -2.625  -5.832  1.00  0.00     0.006 C 
BRANCH   2   3
ATOM      3  C   UNL     1      -3.441  -1.820  -5.829  1.00  0.00     0.053 C 
BRANCH   3   4
ATOM      4  C   UNL     1      -3.718  -0.374  -6.097  1.00  0.00     0.041 C 
ATOM      5  O   UNL     1      -3.304   0.508  -5.299  1.00  0.00    -0.550 OA
ATOM      6  O   UNL     1      -4.476  -0.005  -7.201  1.00  0.00    -0.550 OA
ENDBRANCH   3   4
ENDBRANCH   2   3
ENDBRANCH   1   2
BRANCH   1   7
ATOM      7  C   UNL     1      -4.787  -4.702  -4.267  1.00  0.00     0.000 C 
BRANCH   7   8
ATOM      8  C   UNL     1      -3.594  -5.416  -3.607  1.00  0.00     0.004 C 
BRANCH   8   9
ATOM      9  C   UNL     1      -2.302  -5.301  -4.429  1.00  0.00     0.027 C 
BRANCH   9  10
ATOM     10  C   UNL     1      -1.259  -4.503  -3.695  1.00  0.00    -0.035 C 
ATOM     11  C   UNL     1      -0.299  -3.835  -4.340  1.00  0.00     0.004 C 
ENDBRANCH   9  10
ENDBRANCH   8   9
ENDBRANCH   7   8
ENDBRANCH   1   7
TORSDOF 7
ENDMDL
MODEL 9
REMARK VINA RESULT:    -3.578     12.458     13.454
REMARK INTER + INTRA:          -5.562
REMARK INTER:                  -4.927
REMARK INTRA:                  -0.635
REMARK UNBOUND:                -0.520
REMARK SMILES C=CCCCCCCC(=O)[O-]
REMARK SMILES IDX 6 1 7 2 8 3 9 4 10 5 11 6 5 7 4 8 3 9 2 10 1 11
REMARK H PARENT
REMARK Flexibility Score: inf
ROOT
ATOM      1  C   UNL     1      -1.162  -3.169  -5.743  1.00  0.00     0.000 C 
ENDROOT
BRANCH   1   2
ATOM      2  C   UNL     1      -1.808  -1.774  -5.677  1.00  0.00     0.006 C 
BRANCH   2   3
ATOM      3  C   UNL     1      -3.228  -1.747  -6.254  1.00  0.00     0.053 C 
BRANCH   3   4
ATOM      4  C   UNL     1      -3.777  -0.356  -6.226  1.00  0.00     0.041 C 
ATOM      5  O   UNL     1      -4.626   0.007  -7.083  1.00  0.00    -0.550 OA
ATOM      6  O   UNL     1      -3.314   0.555  -5.285  1.00  0.00    -0.550 OA
ENDBRANCH   3   4
ENDBRANCH   2   3
ENDBRANCH   1   2
BRANCH   1   7
ATOM      7  C   UNL     1      -0.467  -3.631  -4.446  1.00  0.00     0.000 C 
BRANCH   7   8
ATOM      8  C   UNL     1      -1.181  -4.766  -3.690  1.00  0.00     0.004 C 
BRANCH   8   9
ATOM      9  C   UNL     1      -2.407  -5.303  -4.443  1.00  0.00     0.027 C 
BRANCH   9  10
ATOM     10  C   UNL     1      -3.668  -5.086  -3.651  1.00  0.00    -0.035 C 
ATOM     11  C   UNL     1      -4.705  -4.408  -4.150  1.00  0.00     0.004 C 
ENDBRANCH   9  10
ENDBRANCH   8   9
ENDBRANCH   7   8
ENDBRANCH   1   7
TORSDOF 7
ENDMDL
