MODEL 1
REMARK VINA RESULT:    -3.449      0.000      0.000
REMARK INTER + INTRA:          -5.174
REMARK INTER:                  -4.659
REMARK INTRA:                  -0.515
REMARK UNBOUND:                -0.515
REMARK SMILES CCCCCCC=CC(=O)[O-]
REMARK SMILES IDX 5 1 6 2 7 3 8 4 9 5 10 6 11 7 4 8 3 9 2 10 1 11
REMARK H PARENT
REMARK Flexibility Score: inf
ROOT
ATOM      1  C   UNL     1       4.000  25.479  73.351  1.00  0.00     0.004 C 
ENDROOT
BRANCH   1   2
ATOM      2  C   UNL     1       2.819  26.026  72.534  1.00  0.00     0.027 C 
BRANCH   2   3
ATOM      3  C   UNL     1       2.621  25.239  71.266  1.00  0.00    -0.025 C 
ATOM      4  C   UNL     1       1.453  25.053  70.629  1.00  0.00     0.020 C 
BRANCH   4   5
ATOM      5  C   UNL     1       0.127  25.553  71.050  1.00  0.00     0.064 C 
ATOM      6  O   UNL     1      -0.419  26.545  70.500  1.00  0.00    -0.545 OA
ATOM      7  O   UNL     1      -0.527  24.918  72.095  1.00  0.00    -0.545 OA
ENDBRANCH   4   5
ENDBRANCH   2   3
ENDBRANCH   1   2
BRANCH   1   8
ATOM      8  C   UNL     1       5.091  24.853  72.468  1.00  0.00     0.000 C 
BRANCH   8   9
ATOM      9  C   UNL     1       5.486  23.439  72.931  1.00  0.00    -0.000 C 
BRANCH   9  10
ATOM     10  C   UNL     1       5.818  22.508  71.755  1.00  0.00    -0.003 C 
ATOM     11  C   UNL     1       5.174  22.955  70.442  1.00  0.00     0.004 C 
ENDBRANCH   9  10
ENDBRANCH   8   9
ENDBRANCH   1   8
TORSDOF 6
ENDMDL
MODEL 2
REMARK VINA RESULT:    -3.405     13.148     14.834
REMARK INTER + INTRA:          -5.115
REMARK INTER:                  -4.421
REMARK INTRA:                  -0.694
REMARK UNBOUND:                -0.515
REMARK SMILES CCCCCCC=CC(=O)[O-]
REMARK SMILES IDX 5 1 6 2 7 3 8 4 9 5 10 6 11 7 4 8 3 9 2 10 1 11
REMARK H PARENT
REMARK Flexibility Score: inf
ROOT
ATOM      1  C   UNL     1      15.143  24.101  82.675  1.00  0.00     0.004 C 
ENDROOT
BRANCH   1   2
ATOM      2  C   UNL     1      14.629  25.346  83.416  1.00  0.00     0.027 C 
BRANCH   2   3
ATOM      3  C   UNL     1      13.143  25.269  83.647  1.00  0.00    -0.025 C 
ATOM      4  C   UNL     1      12.212  26.016  83.031  1.00  0.00     0.020 C 
BRANCH   4   5
ATOM      5  C   UNL     1      12.450  27.078  82.029  1.00  0.00     0.064 C 
ATOM      6  O   UNL     1      12.550  28.291  82.351  1.00  0.00    -0.545 OA
ATOM      7  O   UNL     1      12.550  26.726  80.691  1.00  0.00    -0.545 OA
ENDBRANCH   4   5
ENDBRANCH   2   3
ENDBRANCH   1   2
BRANCH   1   8
ATOM      8  C   UNL     1      15.089  24.257  81.147  1.00  0.00     0.000 C 
BRANCH   8   9
ATOM      9  C   UNL     1      14.325  23.109  80.462  1.00  0.00    -0.000 C 
BRANCH   9  10
ATOM     10  C   UNL     1      12.805  23.221  80.650  1.00  0.00    -0.003 C 
ATOM     11  C   UNL     1      12.046  22.019  80.088  1.00  0.00     0.004 C 
ENDBRANCH   9  10
ENDBRANCH   8   9
ENDBRANCH   1   8
TORSDOF 6
ENDMDL
MODEL 3
REMARK VINA RESULT:    -3.385     12.884     14.441
REMARK INTER + INTRA:          -5.088
REMARK INTER:                  -4.772
REMARK INTRA:                  -0.315
REMARK UNBOUND:                -0.515
REMARK SMILES CCCCCCC=CC(=O)[O-]
REMARK SMILES IDX 5 1 6 2 7 3 8 4 9 5 10 6 11 7 4 8 3 9 2 10 1 11
REMARK H PARENT
REMARK Flexibility Score: inf
ROOT
ATOM      1  C   UNL     1      14.143  24.883  81.828  1.00  0.00     0.004 C 
ENDROOT
BRANCH   1   2
ATOM      2  C   UNL     1      14.022  23.641  80.931  1.00  0.00     0.027 C 
BRANCH   2   3
ATOM      3  C   UNL     1      12.592  23.180  80.827  1.00  0.00    -0.025 C 
ATOM      4  C   UNL     1      12.129  22.231  79.997  1.00  0.00     0.020 C 
BRANCH   4   5
ATOM      5  C   UNL     1      12.914  21.466  79.003  1.00  0.00     0.064 C 
ATOM      6  O   UNL     1      12.982  21.812  77.795  1.00  0.00    -0.545 OA
ATOM      7  O   UNL     1      13.582  20.322  79.415  1.00  0.00    -0.545 OA
ENDBRANCH   4   5
ENDBRANCH   2   3
ENDBRANCH   1   2
BRANCH   1   8
ATOM      8  C   UNL     1      12.902  25.102  82.707  1.00  0.00     0.000 C 
BRANCH   8   9
ATOM      9  C   UNL     1      12.224  26.459  82.445  1.00  0.00    -0.000 C 
BRANCH   9  10
ATOM     10  C   UNL     1      11.284  26.876  83.587  1.00  0.00    -0.003 C 
ATOM     11  C   UNL     1      11.105  28.391  83.686  1.00  0.00     0.004 C 
ENDBRANCH   9  10
ENDBRANCH   8   9
ENDBRANCH   1   8
TORSDOF 6
ENDMDL
MODEL 4
REMARK VINA RESULT:    -3.384     13.382     14.543
REMARK INTER + INTRA:          -5.087
REMARK INTER:                  -4.824
REMARK INTRA:                  -0.262
REMARK UNBOUND:                -0.515
REMARK SMILES CCCCCCC=CC(=O)[O-]
REMARK SMILES IDX 5 1 6 2 7 3 8 4 9 5 10 6 11 7 4 8 3 9 2 10 1 11
REMARK H PARENT
REMARK Flexibility Score: inf
ROOT
ATOM      1  C   UNL     1      12.781  25.599  81.781  1.00  0.00     0.004 C 
ENDROOT
BRANCH   1   2
ATOM      2  C   UNL     1      12.695  25.947  83.276  1.00  0.00     0.027 C 
BRANCH   2   3
ATOM      3  C   UNL     1      11.403  26.651  83.599  1.00  0.00    -0.025 C 
ATOM      4  C   UNL     1      11.195  27.977  83.547  1.00  0.00     0.020 C 
BRANCH   4   5
ATOM      5  C   UNL     1      12.187  29.015  83.193  1.00  0.00     0.064 C 
ATOM      6  O   UNL     1      12.714  29.760  84.060  1.00  0.00    -0.545 OA
ATOM      7  O   UNL     1      12.535  29.182  81.860  1.00  0.00    -0.545 OA
ENDBRANCH   4   5
ENDBRANCH   2   3
ENDBRANCH   1   2
BRANCH   1   8
ATOM      8  C   UNL     1      13.035  24.105  81.534  1.00  0.00     0.000 C 
BRANCH   8   9
ATOM      9  C   UNL     1      12.516  23.635  80.164  1.00  0.00    -0.000 C 
BRANCH   9  10
ATOM     10  C   UNL     1      12.162  22.140  80.152  1.00  0.00    -0.003 C 
ATOM     11  C   UNL     1      13.238  21.279  79.490  1.00  0.00     0.004 C 
ENDBRANCH   9  10
ENDBRANCH   8   9
ENDBRANCH   1   8
TORSDOF 6
ENDMDL
MODEL 5
REMARK VINA RESULT:    -3.361     13.837     15.486
REMARK INTER + INTRA:          -5.055
REMARK INTER:                  -4.732
REMARK INTRA:                  -0.323
REMARK UNBOUND:                -0.515
REMARK SMILES CCCCCCC=CC(=O)[O-]
REMARK SMILES IDX 5 1 6 2 7 3 8 4 9 5 10 6 11 7 4 8 3 9 2 10 1 11
REMARK H PARENT
REMARK Flexibility Score: inf
ROOT
ATOM      1  C   UNL     1      12.785  25.592  80.990  1.00  0.00     0.004 C 
ENDROOT
BRANCH   1   2
ATOM      2  C   UNL     1      12.538  26.072  82.430  1.00  0.00     0.027 C 
BRANCH   2   3
ATOM      3  C   UNL     1      13.154  25.131  83.431  1.00  0.00    -0.025 C 
ATOM      4  C   UNL     1      14.418  25.182  83.885  1.00  0.00     0.020 C 
BRANCH   4   5
ATOM      5  C   UNL     1      15.464  26.144  83.480  1.00  0.00     0.064 C 
ATOM      6  O   UNL     1      15.769  27.139  84.189  1.00  0.00    -0.545 OA
ATOM      7  O   UNL     1      16.119  25.953  82.272  1.00  0.00    -0.545 OA
ENDBRANCH   4   5
ENDBRANCH   2   3
ENDBRANCH   1   2
BRANCH   1   8
ATOM      8  C   UNL     1      13.079  24.087  80.909  1.00  0.00     0.000 C 
BRANCH   8   9
ATOM      9  C   UNL     1      12.272  23.386  79.801  1.00  0.00    -0.000 C 
BRANCH   9  10
ATOM     10  C   UNL     1      12.165  21.869  80.024  1.00  0.00    -0.003 C 
ATOM     11  C   UNL     1      13.266  21.085  79.311  1.00  0.00     0.004 C 
ENDBRANCH   9  10
ENDBRANCH   8   9
ENDBRANCH   1   8
TORSDOF 6
ENDMDL
MODEL 6
REMARK VINA RESULT:    -3.359      1.509      2.055
REMARK INTER + INTRA:          -5.053
REMARK INTER:                  -4.716
REMARK INTRA:                  -0.336
REMARK UNBOUND:                -0.515
REMARK SMILES CCCCCCC=CC(=O)[O-]
REMARK SMILES IDX 5 1 6 2 7 3 8 4 9 5 10 6 11 7 4 8 3 9 2 10 1 11
REMARK H PARENT
REMARK Flexibility Score: inf
ROOT
ATOM      1  C   UNL     1       2.898  26.144  72.454  1.00  0.00     0.004 C 
ENDROOT
BRANCH   1   2
ATOM      2  C   UNL     1       2.245  25.261  71.379  1.00  0.00     0.027 C 
BRANCH   2   3
ATOM      3  C   UNL     1       0.791  25.016  71.684  1.00  0.00    -0.025 C 
ATOM      4  C   UNL     1      -0.246  25.702  71.174  1.00  0.00     0.020 C 
BRANCH   4   5
ATOM      5  C   UNL     1      -0.176  26.846  70.240  1.00  0.00     0.064 C 
ATOM      6  O   UNL     1       0.169  27.996  70.616  1.00  0.00    -0.545 OA
ATOM      7  O   UNL     1      -0.519  26.646  68.910  1.00  0.00    -0.545 OA
ENDBRANCH   4   5
ENDBRANCH   2   3
ENDBRANCH   1   2
BRANCH   1   8
ATOM      8  C   UNL     1       3.911  25.377  73.316  1.00  0.00     0.000 C 
BRANCH   8   9
ATOM      9  C   UNL     1       5.053  24.765  72.485  1.00  0.00    -0.000 C 
BRANCH   9  10
ATOM     10  C   UNL     1       5.423  23.348  72.950  1.00  0.00    -0.003 C 
ATOM     11  C   UNL     1       6.933  23.119  73.012  1.00  0.00     0.004 C 
ENDBRANCH   9  10
ENDBRANCH   8   9
ENDBRANCH   1   8
TORSDOF 6
ENDMDL
MODEL 7
REMARK VINA RESULT:    -3.338      1.476      2.242
REMARK INTER + INTRA:          -5.025
REMARK INTER:                  -4.693
REMARK INTRA:                  -0.332
REMARK UNBOUND:                -0.515
REMARK SMILES CCCCCCC=CC(=O)[O-]
REMARK SMILES IDX 5 1 6 2 7 3 8 4 9 5 10 6 11 7 4 8 3 9 2 10 1 11
REMARK H PARENT
REMARK Flexibility Score: inf
ROOT
ATOM      1  C   UNL     1       5.206  24.728  72.476  1.00  0.00     0.004 C 
ENDROOT
BRANCH   1   2
ATOM      2  C   UNL     1       3.981  25.212  73.269  1.00  0.00     0.027 C 
BRANCH   2   3
ATOM      3  C   UNL     1       3.361  26.426  72.629  1.00  0.00    -0.025 C 
ATOM      4  C   UNL     1       2.303  26.424  71.800  1.00  0.00     0.020 C 
BRANCH   4   5
ATOM      5  C   UNL     1       1.552  25.242  71.326  1.00  0.00     0.064 C 
ATOM      6  O   UNL     1       0.480  24.870  71.869  1.00  0.00    -0.545 OA
ATOM      7  O   UNL     1       2.057  24.511  70.260  1.00  0.00    -0.545 OA
ENDBRANCH   4   5
ENDBRANCH   2   3
ENDBRANCH   1   2
BRANCH   1   8
ATOM      8  C   UNL     1       5.678  23.332  72.908  1.00  0.00     0.000 C 
BRANCH   8   9
ATOM      9  C   UNL     1       6.030  22.430  71.712  1.00  0.00    -0.000 C 
BRANCH   9  10
ATOM     10  C   UNL     1       7.541  22.181  71.589  1.00  0.00    -0.003 C 
ATOM     11  C   UNL     1       8.330  22.716  72.784  1.00  0.00     0.004 C 
ENDBRANCH   9  10
ENDBRANCH   8   9
ENDBRANCH   1   8
TORSDOF 6
ENDMDL
MODEL 8
REMARK VINA RESULT:    -3.317      2.752      4.825
REMARK INTER + INTRA:          -4.996
REMARK INTER:                  -4.551
REMARK INTRA:                  -0.446
REMARK UNBOUND:                -0.515
REMARK SMILES CCCCCCC=CC(=O)[O-]
REMARK SMILES IDX 5 1 6 2 7 3 8 4 9 5 10 6 11 7 4 8 3 9 2 10 1 11
REMARK H PARENT
REMARK Flexibility Score: inf
ROOT
ATOM      1  C   UNL     1       3.996  25.393  73.276  1.00  0.00     0.004 C 
ENDROOT
BRANCH   1   2
ATOM      2  C   UNL     1       5.312  24.987  72.594  1.00  0.00     0.027 C 
BRANCH   2   3
ATOM      3  C   UNL     1       5.463  23.489  72.548  1.00  0.00    -0.025 C 
ATOM      4  C   UNL     1       5.341  22.719  71.453  1.00  0.00     0.020 C 
BRANCH   4   5
ATOM      5  C   UNL     1       5.010  23.172  70.086  1.00  0.00     0.064 C 
ATOM      6  O   UNL     1       3.849  23.067  69.609  1.00  0.00    -0.545 OA
ATOM      7  O   UNL     1       6.015  23.715  69.298  1.00  0.00    -0.545 OA
ENDBRANCH   4   5
ENDBRANCH   2   3
ENDBRANCH   1   2
BRANCH   1   8
ATOM      8  C   UNL     1       3.056  26.165  72.338  1.00  0.00     0.000 C 
BRANCH   8   9
ATOM      9  C   UNL     1       1.944  25.278  71.753  1.00  0.00    -0.000 C 
BRANCH   9  10
ATOM     10  C   UNL     1       0.563  25.948  71.818  1.00  0.00    -0.003 C 
ATOM     11  C   UNL     1      -0.585  24.970  71.564  1.00  0.00     0.004 C 
ENDBRANCH   9  10
ENDBRANCH   8   9
ENDBRANCH   1   8
TORSDOF 6
ENDMDL
MODEL 9
REMARK VINA RESULT:    -3.273      2.052      2.523
REMARK INTER + INTRA:          -4.936
REMARK INTER:                  -4.423
REMARK INTRA:                  -0.513
REMARK UNBOUND:                -0.515
REMARK SMILES CCCCCCC=CC(=O)[O-]
REMARK SMILES IDX 5 1 6 2 7 3 8 4 9 5 10 6 11 7 4 8 3 9 2 10 1 11
REMARK H PARENT
REMARK Flexibility Score: inf
ROOT
ATOM      1  C   UNL     1       4.002  25.288  73.237  1.00  0.00     0.004 C 
ENDROOT
BRANCH   1   2
ATOM      2  C   UNL     1       3.096  26.277  72.486  1.00  0.00     0.027 C 
BRANCH   2   3
ATOM      3  C   UNL     1       1.804  25.625  72.069  1.00  0.00    -0.025 C 
ATOM      4  C   UNL     1       1.584  24.987  70.907  1.00  0.00     0.020 C 
BRANCH   4   5
ATOM      5  C   UNL     1       2.544  24.818  69.795  1.00  0.00     0.064 C 
ATOM      6  O   UNL     1       3.157  23.737  69.599  1.00  0.00    -0.545 OA
ATOM      7  O   UNL     1       2.789  25.893  68.952  1.00  0.00    -0.545 OA
ENDBRANCH   4   5
ENDBRANCH   2   3
ENDBRANCH   1   2
BRANCH   1   8
ATOM      8  C   UNL     1       5.215  24.845  72.404  1.00  0.00     0.000 C 
BRANCH   8   9
ATOM      9  C   UNL     1       5.450  23.325  72.464  1.00  0.00    -0.000 C 
BRANCH   9  10
ATOM     10  C   UNL     1       6.755  22.961  73.189  1.00  0.00    -0.003 C 
ATOM     11  C   UNL     1       7.947  23.797  72.722  1.00  0.00     0.004 C 
ENDBRANCH   9  10
ENDBRANCH   8   9
ENDBRANCH   1   8
TORSDOF 6
ENDMDL
