MODEL 1
REMARK VINA RESULT:    -7.875      0.000      0.000
REMARK INTER + INTRA:          -9.532
REMARK INTER:                  -9.256
REMARK INTRA:                  -0.276
REMARK UNBOUND:                -0.276
REMARK SMILES O=c1c(O)c(-c2ccc(O)c(O)c2)oc2cc(O)ccc12
REMARK SMILES IDX 5 1 3 2 2 3 1 4 21 5 15 6 14 7 16 8 17 9 19 10 20 11 6 12
REMARK SMILES IDX 7 13 8 14 9 15 13 16 11 17 10 18 12 20 4 22 18 24
REMARK H PARENT 10 19 12 21 4 23 18 25
REMARK Flexibility Score: inf
ROOT
ATOM      1  C   UNL     1      -2.243  -2.479   5.466  1.00  0.00     0.180 A 
ATOM      2  C   UNL     1      -1.162  -2.813   6.308  1.00  0.00     0.208 A 
ATOM      3  C   UNL     1      -1.111  -4.100   6.864  1.00  0.00     0.235 A 
ATOM      4  O   UNL     1      -0.149  -4.426   7.613  1.00  0.00    -0.285 OA
ATOM      5  C   UNL     1      -2.140  -5.014   6.587  1.00  0.00     0.069 A 
ATOM      6  C   UNL     1      -3.200  -4.594   5.753  1.00  0.00     0.142 A 
ATOM      7  O   UNL     1      -3.206  -3.370   5.240  1.00  0.00    -0.452 OA
ATOM      8  C   UNL     1      -4.249  -5.472   5.461  1.00  0.00     0.094 A 
ATOM      9  C   UNL     1      -4.255  -6.767   5.990  1.00  0.00     0.119 A 
ATOM     10  C   UNL     1      -3.204  -7.187   6.817  1.00  0.00     0.047 A 
ATOM     11  C   UNL     1      -2.151  -6.317   7.116  1.00  0.00     0.020 A 
ENDROOT
BRANCH   1  12
ATOM     12  C   UNL     1      -2.360  -1.148   4.827  1.00  0.00     0.025 A 
ATOM     13  C   UNL     1      -3.201  -0.154   5.356  1.00  0.00     0.016 A 
ATOM     14  C   UNL     1      -3.277   1.104   4.751  1.00  0.00     0.051 A 
ATOM     15  C   UNL     1      -2.505   1.391   3.618  1.00  0.00     0.157 A 
ATOM     16  C   UNL     1      -1.571  -0.848   3.704  1.00  0.00     0.062 A 
ATOM     17  C   UNL     1      -1.646   0.410   3.095  1.00  0.00     0.158 A 
BRANCH  15  18
ATOM     18  O   UNL     1      -2.584   2.645   3.016  1.00  0.00    -0.504 OA
ATOM     19  H   UNL     1      -2.968   3.445   3.505  1.00  0.00     0.293 HD
ENDBRANCH  15  18
BRANCH  17  20
ATOM     20  O   UNL     1      -0.858   0.666   1.973  1.00  0.00    -0.504 OA
ATOM     21  H   UNL     1       0.138   0.481   1.960  1.00  0.00     0.293 HD
ENDBRANCH  17  20
ENDBRANCH   1  12
BRANCH   2  22
ATOM     22  O   UNL     1      -0.178  -1.867   6.606  1.00  0.00    -0.502 OA
ATOM     23  H   UNL     1       0.728  -2.127   6.976  1.00  0.00     0.293 HD
ENDBRANCH   2  22
BRANCH   9  24
ATOM     24  O   UNL     1      -5.307  -7.628   5.688  1.00  0.00    -0.508 OA
ATOM     25  H   UNL     1      -5.435  -8.001   4.755  1.00  0.00     0.293 HD
ENDBRANCH   9  24
TORSDOF 5
ENDMDL
MODEL 2
REMARK VINA RESULT:    -7.592     13.939     15.826
REMARK INTER + INTRA:          -9.199
REMARK INTER:                  -8.907
REMARK INTRA:                  -0.292
REMARK UNBOUND:                -0.276
REMARK SMILES O=c1c(O)c(-c2ccc(O)c(O)c2)oc2cc(O)ccc12
REMARK SMILES IDX 5 1 3 2 2 3 1 4 21 5 15 6 14 7 16 8 17 9 19 10 20 11 6 12
REMARK SMILES IDX 7 13 8 14 9 15 13 16 11 17 10 18 12 20 4 22 18 24
REMARK H PARENT 10 19 12 21 4 23 18 25
REMARK Flexibility Score: inf
ROOT
ATOM      1  C   UNL     1       1.772   6.729  -6.366  1.00  0.00     0.180 A 
ATOM      2  C   UNL     1       2.040   6.747  -7.751  1.00  0.00     0.208 A 
ATOM      3  C   UNL     1       1.214   6.006  -8.609  1.00  0.00     0.235 A 
ATOM      4  O   UNL     1       1.427   6.015  -9.852  1.00  0.00    -0.285 OA
ATOM      5  C   UNL     1       0.158   5.252  -8.072  1.00  0.00     0.069 A 
ATOM      6  C   UNL     1      -0.029   5.267  -6.672  1.00  0.00     0.142 A 
ATOM      7  O   UNL     1       0.770   5.989  -5.895  1.00  0.00    -0.452 OA
ATOM      8  C   UNL     1      -1.063   4.521  -6.097  1.00  0.00     0.094 A 
ATOM      9  C   UNL     1      -1.917   3.759  -6.902  1.00  0.00     0.119 A 
ATOM     10  C   UNL     1      -1.735   3.744  -8.292  1.00  0.00     0.047 A 
ATOM     11  C   UNL     1      -0.703   4.484  -8.876  1.00  0.00     0.020 A 
ENDROOT
BRANCH   1  12
ATOM     12  C   UNL     1       2.586   7.498  -5.397  1.00  0.00     0.025 A 
ATOM     13  C   UNL     1       2.142   8.728  -4.881  1.00  0.00     0.016 A 
ATOM     14  C   UNL     1       2.915   9.424  -3.949  1.00  0.00     0.051 A 
ATOM     15  C   UNL     1       4.137   8.897  -3.509  1.00  0.00     0.157 A 
ATOM     16  C   UNL     1       3.801   6.964  -4.937  1.00  0.00     0.062 A 
ATOM     17  C   UNL     1       4.579   7.659  -4.004  1.00  0.00     0.158 A 
BRANCH  15  18
ATOM     18  O   UNL     1       4.908   9.595  -2.581  1.00  0.00    -0.504 OA
ATOM     19  H   UNL     1       4.675   9.599  -1.594  1.00  0.00     0.293 HD
ENDBRANCH  15  18
BRANCH  17  20
ATOM     20  O   UNL     1       5.785   7.103  -3.581  1.00  0.00    -0.504 OA
ATOM     21  H   UNL     1       6.229   6.338  -4.076  1.00  0.00     0.293 HD
ENDBRANCH  17  20
ENDBRANCH   1  12
BRANCH   2  22
ATOM     22  O   UNL     1       3.127   7.467  -8.252  1.00  0.00    -0.502 OA
ATOM     23  H   UNL     1       4.063   7.081  -8.285  1.00  0.00     0.293 HD
ENDBRANCH   2  22
BRANCH   9  24
ATOM     24  O   UNL     1      -2.942   3.024  -6.313  1.00  0.00    -0.508 OA
ATOM     25  H   UNL     1      -2.757   2.349  -5.580  1.00  0.00     0.293 HD
ENDBRANCH   9  24
TORSDOF 5
ENDMDL
MODEL 3
REMARK VINA RESULT:    -7.496      2.569      3.545
REMARK INTER + INTRA:          -9.087
REMARK INTER:                  -9.017
REMARK INTRA:                  -0.070
REMARK UNBOUND:                -0.276
REMARK SMILES O=c1c(O)c(-c2ccc(O)c(O)c2)oc2cc(O)ccc12
REMARK SMILES IDX 5 1 3 2 2 3 1 4 21 5 15 6 14 7 16 8 17 9 19 10 20 11 6 12
REMARK SMILES IDX 7 13 8 14 9 15 13 16 11 17 10 18 12 20 4 22 18 24
REMARK H PARENT 10 19 12 21 4 23 18 25
REMARK Flexibility Score: inf
ROOT
ATOM      1  C   UNL     1      -2.260  -0.379   4.673  1.00  0.00     0.180 A 
ATOM      2  C   UNL     1      -1.936  -1.324   3.677  1.00  0.00     0.208 A 
ATOM      3  C   UNL     1      -2.461  -2.620   3.777  1.00  0.00     0.235 A 
ATOM      4  O   UNL     1      -2.194  -3.480   2.893  1.00  0.00    -0.285 OA
ATOM      5  C   UNL     1      -3.275  -2.953   4.872  1.00  0.00     0.069 A 
ATOM      6  C   UNL     1      -3.534  -1.957   5.840  1.00  0.00     0.142 A 
ATOM      7  O   UNL     1      -3.024  -0.739   5.703  1.00  0.00    -0.452 OA
ATOM      8  C   UNL     1      -4.333  -2.252   6.949  1.00  0.00     0.094 A 
ATOM      9  C   UNL     1      -4.881  -3.529   7.106  1.00  0.00     0.119 A 
ATOM     10  C   UNL     1      -4.628  -4.519   6.146  1.00  0.00     0.047 A 
ATOM     11  C   UNL     1      -3.829  -4.236   5.035  1.00  0.00     0.020 A 
ENDROOT
BRANCH   1  12
ATOM     12  C   UNL     1      -1.760   1.014   4.629  1.00  0.00     0.025 A 
ATOM     13  C   UNL     1      -1.963   1.829   3.502  1.00  0.00     0.016 A 
ATOM     14  C   UNL     1      -1.505   3.149   3.492  1.00  0.00     0.051 A 
ATOM     15  C   UNL     1      -0.847   3.678   4.611  1.00  0.00     0.157 A 
ATOM     16  C   UNL     1      -1.120   1.555   5.756  1.00  0.00     0.062 A 
ATOM     17  C   UNL     1      -0.658   2.876   5.749  1.00  0.00     0.158 A 
BRANCH  15  18
ATOM     18  O   UNL     1      -0.389   4.994   4.597  1.00  0.00    -0.504 OA
ATOM     19  H   UNL     1      -0.580   5.614   3.819  1.00  0.00     0.293 HD
ENDBRANCH  15  18
BRANCH  17  20
ATOM     20  O   UNL     1      -0.016   3.374   6.881  1.00  0.00    -0.504 OA
ATOM     21  H   UNL     1       0.492   2.774   7.521  1.00  0.00     0.293 HD
ENDBRANCH  17  20
ENDBRANCH   1  12
BRANCH   2  22
ATOM     22  O   UNL     1      -1.082  -0.979   2.626  1.00  0.00    -0.502 OA
ATOM     23  H   UNL     1      -0.442  -1.643   2.209  1.00  0.00     0.293 HD
ENDBRANCH   2  22
BRANCH   9  24
ATOM     24  O   UNL     1      -5.675  -3.805   8.216  1.00  0.00    -0.508 OA
ATOM     25  H   UNL     1      -6.686  -3.762   8.169  1.00  0.00     0.293 HD
ENDBRANCH   9  24
TORSDOF 5
ENDMDL
MODEL 4
REMARK VINA RESULT:    -7.487      2.335      6.795
REMARK INTER + INTRA:          -9.076
REMARK INTER:                  -9.067
REMARK INTRA:                  -0.009
REMARK UNBOUND:                -0.276
REMARK SMILES O=c1c(O)c(-c2ccc(O)c(O)c2)oc2cc(O)ccc12
REMARK SMILES IDX 5 1 3 2 2 3 1 4 21 5 15 6 14 7 16 8 17 9 19 10 20 11 6 12
REMARK SMILES IDX 7 13 8 14 9 15 13 16 11 17 10 18 12 20 4 22 18 24
REMARK H PARENT 10 19 12 21 4 23 18 25
REMARK Flexibility Score: inf
ROOT
ATOM      1  C   UNL     1      -2.498  -0.931   4.211  1.00  0.00     0.180 A 
ATOM      2  C   UNL     1      -1.749  -0.118   3.334  1.00  0.00     0.208 A 
ATOM      3  C   UNL     1      -1.898   1.275   3.409  1.00  0.00     0.235 A 
ATOM      4  O   UNL     1      -1.232   2.023   2.643  1.00  0.00    -0.285 OA
ATOM      5  C   UNL     1      -2.800   1.824   4.335  1.00  0.00     0.069 A 
ATOM      6  C   UNL     1      -3.530   0.941   5.161  1.00  0.00     0.142 A 
ATOM      7  O   UNL     1      -3.353  -0.371   5.064  1.00  0.00    -0.452 OA
ATOM      8  C   UNL     1      -4.445   1.449   6.089  1.00  0.00     0.094 A 
ATOM      9  C   UNL     1      -4.641   2.829   6.207  1.00  0.00     0.119 A 
ATOM     10  C   UNL     1      -3.916   3.708   5.390  1.00  0.00     0.047 A 
ATOM     11  C   UNL     1      -3.000   3.211   4.457  1.00  0.00     0.020 A 
ENDROOT
BRANCH   1  12
ATOM     12  C   UNL     1      -2.383  -2.407   4.206  1.00  0.00     0.025 A 
ATOM     13  C   UNL     1      -2.134  -3.125   5.388  1.00  0.00     0.016 A 
ATOM     14  C   UNL     1      -2.055  -4.521   5.364  1.00  0.00     0.051 A 
ATOM     15  C   UNL     1      -2.235  -5.219   4.163  1.00  0.00     0.157 A 
ATOM     16  C   UNL     1      -2.586  -3.113   3.008  1.00  0.00     0.062 A 
ATOM     17  C   UNL     1      -2.505  -4.509   2.980  1.00  0.00     0.158 A 
BRANCH  15  18
ATOM     18  O   UNL     1      -2.154  -6.610   4.141  1.00  0.00    -0.504 OA
ATOM     19  H   UNL     1      -2.147  -7.127   3.270  1.00  0.00     0.293 HD
ENDBRANCH  15  18
BRANCH  17  20
ATOM     20  O   UNL     1      -2.698  -5.174   1.770  1.00  0.00    -0.504 OA
ATOM     21  H   UNL     1      -3.546  -5.067   1.225  1.00  0.00     0.293 HD
ENDBRANCH  17  20
ENDBRANCH   1  12
BRANCH   2  22
ATOM     22  O   UNL     1      -0.896  -0.695   2.389  1.00  0.00    -0.502 OA
ATOM     23  H   UNL     1      -1.103  -1.581   1.944  1.00  0.00     0.293 HD
ENDBRANCH   2  22
BRANCH   9  24
ATOM     24  O   UNL     1      -5.555   3.317   7.137  1.00  0.00    -0.508 OA
ATOM     25  H   UNL     1      -6.344   2.762   7.446  1.00  0.00     0.293 HD
ENDBRANCH   9  24
TORSDOF 5
ENDMDL
MODEL 5
REMARK VINA RESULT:    -7.478      4.831      9.798
REMARK INTER + INTRA:          -9.066
REMARK INTER:                  -8.759
REMARK INTRA:                  -0.306
REMARK UNBOUND:                -0.276
REMARK SMILES O=c1c(O)c(-c2ccc(O)c(O)c2)oc2cc(O)ccc12
REMARK SMILES IDX 5 1 3 2 2 3 1 4 21 5 15 6 14 7 16 8 17 9 19 10 20 11 6 12
REMARK SMILES IDX 7 13 8 14 9 15 13 16 11 17 10 18 12 20 4 22 18 24
REMARK H PARENT 10 19 12 21 4 23 18 25
REMARK Flexibility Score: inf
ROOT
ATOM      1  C   UNL     1      -1.292   4.276   4.679  1.00  0.00     0.180 A 
ATOM      2  C   UNL     1      -0.442   4.536   5.775  1.00  0.00     0.208 A 
ATOM      3  C   UNL     1      -0.014   5.852   6.000  1.00  0.00     0.235 A 
ATOM      4  O   UNL     1       0.738   6.112   6.979  1.00  0.00    -0.285 OA
ATOM      5  C   UNL     1      -0.422   6.871   5.125  1.00  0.00     0.069 A 
ATOM      6  C   UNL     1      -1.255   6.525   4.038  1.00  0.00     0.142 A 
ATOM      7  O   UNL     1      -1.645   5.267   3.864  1.00  0.00    -0.452 OA
ATOM      8  C   UNL     1      -1.675   7.510   3.137  1.00  0.00     0.094 A 
ATOM      9  C   UNL     1      -1.277   8.840   3.308  1.00  0.00     0.119 A 
ATOM     10  C   UNL     1      -0.452   9.187   4.388  1.00  0.00     0.047 A 
ATOM     11  C   UNL     1      -0.025   8.210   5.292  1.00  0.00     0.020 A 
ENDROOT
BRANCH   1  12
ATOM     12  C   UNL     1      -1.802   2.916   4.384  1.00  0.00     0.025 A 
ATOM     13  C   UNL     1      -2.901   2.381   5.078  1.00  0.00     0.016 A 
ATOM     14  C   UNL     1      -3.380   1.105   4.765  1.00  0.00     0.051 A 
ATOM     15  C   UNL     1      -2.777   0.352   3.749  1.00  0.00     0.157 A 
ATOM     16  C   UNL     1      -1.214   2.167   3.352  1.00  0.00     0.062 A 
ATOM     17  C   UNL     1      -1.691   0.889   3.038  1.00  0.00     0.158 A 
BRANCH  15  18
ATOM     18  O   UNL     1      -3.256  -0.920   3.441  1.00  0.00    -0.504 OA
ATOM     19  H   UNL     1      -2.959  -1.410   2.606  1.00  0.00     0.293 HD
ENDBRANCH  15  18
BRANCH  17  20
ATOM     20  O   UNL     1      -1.073   0.169   2.016  1.00  0.00    -0.504 OA
ATOM     21  H   UNL     1      -1.459   0.123   1.080  1.00  0.00     0.293 HD
ENDBRANCH  17  20
ENDBRANCH   1  12
BRANCH   2  22
ATOM     22  O   UNL     1      -0.012   3.493   6.600  1.00  0.00    -0.502 OA
ATOM     23  H   UNL     1      -0.433   2.573   6.572  1.00  0.00     0.293 HD
ENDBRANCH   2  22
BRANCH   9  24
ATOM     24  O   UNL     1      -1.705   9.807   2.403  1.00  0.00    -0.508 OA
ATOM     25  H   UNL     1      -2.119   9.554   1.514  1.00  0.00     0.293 HD
ENDBRANCH   9  24
TORSDOF 5
ENDMDL
MODEL 6
REMARK VINA RESULT:    -7.472      5.707     10.110
REMARK INTER + INTRA:          -9.058
REMARK INTER:                  -8.742
REMARK INTRA:                  -0.317
REMARK UNBOUND:                -0.276
REMARK SMILES O=c1c(O)c(-c2ccc(O)c(O)c2)oc2cc(O)ccc12
REMARK SMILES IDX 5 1 3 2 2 3 1 4 21 5 15 6 14 7 16 8 17 9 19 10 20 11 6 12
REMARK SMILES IDX 7 13 8 14 9 15 13 16 11 17 10 18 12 20 4 22 18 24
REMARK H PARENT 10 19 12 21 4 23 18 25
REMARK Flexibility Score: inf
ROOT
ATOM      1  C   UNL     1      -0.650   5.005   5.009  1.00  0.00     0.180 A 
ATOM      2  C   UNL     1      -0.879   6.273   4.434  1.00  0.00     0.208 A 
ATOM      3  C   UNL     1      -0.154   7.373   4.915  1.00  0.00     0.235 A 
ATOM      4  O   UNL     1      -0.333   8.516   4.411  1.00  0.00    -0.285 OA
ATOM      5  C   UNL     1       0.762   7.193   5.964  1.00  0.00     0.069 A 
ATOM      6  C   UNL     1       0.916   5.896   6.501  1.00  0.00     0.142 A 
ATOM      7  O   UNL     1       0.217   4.878   6.012  1.00  0.00    -0.452 OA
ATOM      8  C   UNL     1       1.811   5.677   7.553  1.00  0.00     0.094 A 
ATOM      9  C   UNL     1       2.559   6.737   8.078  1.00  0.00     0.119 A 
ATOM     10  C   UNL     1       2.410   8.025   7.545  1.00  0.00     0.047 A 
ATOM     11  C   UNL     1       1.516   8.255   6.495  1.00  0.00     0.020 A 
ENDROOT
BRANCH   1  12
ATOM     12  C   UNL     1      -1.362   3.791   4.545  1.00  0.00     0.025 A 
ATOM     13  C   UNL     1      -2.611   3.429   5.077  1.00  0.00     0.016 A 
ATOM     14  C   UNL     1      -3.276   2.293   4.607  1.00  0.00     0.051 A 
ATOM     15  C   UNL     1      -2.710   1.511   3.592  1.00  0.00     0.157 A 
ATOM     16  C   UNL     1      -0.808   3.017   3.512  1.00  0.00     0.062 A 
ATOM     17  C   UNL     1      -1.471   1.879   3.040  1.00  0.00     0.158 A 
BRANCH  15  18
ATOM     18  O   UNL     1      -3.375   0.378   3.126  1.00  0.00    -0.504 OA
ATOM     19  H   UNL     1      -2.969  -0.547   3.209  1.00  0.00     0.293 HD
ENDBRANCH  15  18
BRANCH  17  20
ATOM     20  O   UNL     1      -0.884   1.127   2.024  1.00  0.00    -0.504 OA
ATOM     21  H   UNL     1      -0.032   0.598   2.168  1.00  0.00     0.293 HD
ENDBRANCH  17  20
ENDBRANCH   1  12
BRANCH   2  22
ATOM     22  O   UNL     1      -1.832   6.431   3.426  1.00  0.00    -0.502 OA
ATOM     23  H   UNL     1      -1.674   7.024   2.620  1.00  0.00     0.293 HD
ENDBRANCH   2  22
BRANCH   9  24
ATOM     24  O   UNL     1       3.446   6.500   9.124  1.00  0.00    -0.508 OA
ATOM     25  H   UNL     1       4.287   5.950   8.992  1.00  0.00     0.293 HD
ENDBRANCH   9  24
TORSDOF 5
ENDMDL
MODEL 7
REMARK VINA RESULT:    -7.280     13.139     15.566
REMARK INTER + INTRA:          -8.832
REMARK INTER:                  -8.786
REMARK INTRA:                  -0.047
REMARK UNBOUND:                -0.276
REMARK SMILES O=c1c(O)c(-c2ccc(O)c(O)c2)oc2cc(O)ccc12
REMARK SMILES IDX 5 1 3 2 2 3 1 4 21 5 15 6 14 7 16 8 17 9 19 10 20 11 6 12
REMARK SMILES IDX 7 13 8 14 9 15 13 16 11 17 10 18 12 20 4 22 18 24
REMARK H PARENT 10 19 12 21 4 23 18 25
REMARK Flexibility Score: inf
ROOT
ATOM      1  C   UNL     1      -3.530   1.527  -8.284  1.00  0.00     0.180 A 
ATOM      2  C   UNL     1      -3.162   1.804  -9.617  1.00  0.00     0.208 A 
ATOM      3  C   UNL     1      -2.212   2.806  -9.862  1.00  0.00     0.235 A 
ATOM      4  O   UNL     1      -1.859   3.065 -11.046  1.00  0.00    -0.285 OA
ATOM      5  C   UNL     1      -1.667   3.521  -8.784  1.00  0.00     0.069 A 
ATOM      6  C   UNL     1      -2.105   3.199  -7.480  1.00  0.00     0.142 A 
ATOM      7  O   UNL     1      -3.000   2.237  -7.290  1.00  0.00    -0.452 OA
ATOM      8  C   UNL     1      -1.593   3.895  -6.379  1.00  0.00     0.094 A 
ATOM      9  C   UNL     1      -0.645   4.908  -6.562  1.00  0.00     0.119 A 
ATOM     10  C   UNL     1      -0.207   5.227  -7.854  1.00  0.00     0.047 A 
ATOM     11  C   UNL     1      -0.714   4.540  -8.961  1.00  0.00     0.020 A 
ENDROOT
BRANCH   1  12
ATOM     12  C   UNL     1      -4.513   0.473  -7.942  1.00  0.00     0.025 A 
ATOM     13  C   UNL     1      -4.372  -0.841  -8.420  1.00  0.00     0.016 A 
ATOM     14  C   UNL     1      -5.298  -1.826  -8.064  1.00  0.00     0.051 A 
ATOM     15  C   UNL     1      -6.369  -1.515  -7.216  1.00  0.00     0.157 A 
ATOM     16  C   UNL     1      -5.575   0.774  -7.074  1.00  0.00     0.062 A 
ATOM     17  C   UNL     1      -6.505  -0.209  -6.716  1.00  0.00     0.158 A 
BRANCH  15  18
ATOM     18  O   UNL     1      -7.292  -2.499  -6.863  1.00  0.00    -0.504 OA
ATOM     19  H   UNL     1      -7.203  -3.452  -7.195  1.00  0.00     0.293 HD
ENDBRANCH  15  18
BRANCH  17  20
ATOM     20  O   UNL     1      -7.555   0.130  -5.864  1.00  0.00    -0.504 OA
ATOM     21  H   UNL     1      -7.577   1.010  -5.361  1.00  0.00     0.293 HD
ENDBRANCH  17  20
ENDBRANCH   1  12
BRANCH   2  22
ATOM     22  O   UNL     1      -3.758   1.111 -10.674  1.00  0.00    -0.502 OA
ATOM     23  H   UNL     1      -3.915   0.111 -10.645  1.00  0.00     0.293 HD
ENDBRANCH   2  22
BRANCH   9  24
ATOM     24  O   UNL     1      -0.146   5.589  -5.455  1.00  0.00    -0.508 OA
ATOM     25  H   UNL     1      -0.569   5.494  -4.539  1.00  0.00     0.293 HD
ENDBRANCH   9  24
TORSDOF 5
ENDMDL
MODEL 8
REMARK VINA RESULT:    -7.263      2.167      2.920
REMARK INTER + INTRA:          -8.813
REMARK INTER:                  -8.883
REMARK INTRA:                   0.070
REMARK UNBOUND:                -0.276
REMARK SMILES O=c1c(O)c(-c2ccc(O)c(O)c2)oc2cc(O)ccc12
REMARK SMILES IDX 5 1 3 2 2 3 1 4 21 5 15 6 14 7 16 8 17 9 19 10 20 11 6 12
REMARK SMILES IDX 7 13 8 14 9 15 13 16 11 17 10 18 12 20 4 22 18 24
REMARK H PARENT 10 19 12 21 4 23 18 25
REMARK Flexibility Score: inf
ROOT
ATOM      1  C   UNL     1      -2.656  -0.602   5.111  1.00  0.00     0.180 A 
ATOM      2  C   UNL     1      -3.624  -0.685   6.134  1.00  0.00     0.208 A 
ATOM      3  C   UNL     1      -4.139  -1.944   6.476  1.00  0.00     0.235 A 
ATOM      4  O   UNL     1      -4.998  -2.045   7.395  1.00  0.00    -0.285 OA
ATOM      5  C   UNL     1      -3.698  -3.083   5.784  1.00  0.00     0.069 A 
ATOM      6  C   UNL     1      -2.744  -2.913   4.756  1.00  0.00     0.142 A 
ATOM      7  O   UNL     1      -2.275  -1.704   4.468  1.00  0.00    -0.452 OA
ATOM      8  C   UNL     1      -2.287  -4.022   4.036  1.00  0.00     0.094 A 
ATOM      9  C   UNL     1      -2.768  -5.302   4.330  1.00  0.00     0.119 A 
ATOM     10  C   UNL     1      -3.713  -5.475   5.351  1.00  0.00     0.047 A 
ATOM     11  C   UNL     1      -4.178  -4.372   6.075  1.00  0.00     0.020 A 
ENDROOT
BRANCH   1  12
ATOM     12  C   UNL     1      -2.051   0.687   4.703  1.00  0.00     0.025 A 
ATOM     13  C   UNL     1      -1.632   1.632   5.655  1.00  0.00     0.016 A 
ATOM     14  C   UNL     1      -1.040   2.831   5.248  1.00  0.00     0.051 A 
ATOM     15  C   UNL     1      -0.848   3.098   3.886  1.00  0.00     0.157 A 
ATOM     16  C   UNL     1      -1.836   0.950   3.340  1.00  0.00     0.062 A 
ATOM     17  C   UNL     1      -1.246   2.150   2.929  1.00  0.00     0.158 A 
BRANCH  15  18
ATOM     18  O   UNL     1      -0.260   4.296   3.483  1.00  0.00    -0.504 OA
ATOM     19  H   UNL     1       0.038   4.444   2.526  1.00  0.00     0.293 HD
ENDBRANCH  15  18
BRANCH  17  20
ATOM     20  O   UNL     1      -1.061   2.381   1.566  1.00  0.00    -0.504 OA
ATOM     21  H   UNL     1      -1.439   1.763   0.859  1.00  0.00     0.293 HD
ENDBRANCH  17  20
ENDBRANCH   1  12
BRANCH   2  22
ATOM     22  O   UNL     1      -4.080   0.472   6.771  1.00  0.00    -0.502 OA
ATOM     23  H   UNL     1      -4.738   0.441   7.540  1.00  0.00     0.293 HD
ENDBRANCH   2  22
BRANCH   9  24
ATOM     24  O   UNL     1      -2.301  -6.395   3.604  1.00  0.00    -0.508 OA
ATOM     25  H   UNL     1      -1.324  -6.662   3.619  1.00  0.00     0.293 HD
ENDBRANCH   9  24
TORSDOF 5
ENDMDL
