MODEL 1
REMARK VINA RESULT:    -3.797      0.000      0.000
REMARK INTER + INTRA:          -4.460
REMARK INTER:                  -5.351
REMARK INTRA:                   0.891
REMARK UNBOUND:                 0.891
REMARK SMILES CC1=CCCC(C)=CCC(C)(C)C=CC1
REMARK SMILES IDX 2 1 3 2 1 3 4 4 5 5 6 6 7 7 8 8 15 10 14 11 13 12 10 13
REMARK SMILES IDX 11 14 12 15 9 16
REMARK H PARENT
REMARK Flexibility Score: 60.00
ROOT
ATOM      1  C   UNL     1     -25.917 -51.532  55.609  1.00  0.00    -0.074 C 
ATOM      2  C   UNL     1     -25.901 -52.602  56.446  1.00  0.00    -0.027 C 
ATOM      3  C   UNL     1     -25.248 -50.267  56.090  1.00  0.00     0.039 C 
ENDROOT
BRANCH   2   4
ATOM      4  C   UNL     1     -26.571 -53.937  56.211  1.00  0.00     0.032 C 
BRANCH   4   5
ATOM      5  C   UNL     1     -28.064 -53.951  56.570  1.00  0.00     0.034 C 
BRANCH   5   6
ATOM      6  C   UNL     1     -28.894 -54.910  55.737  1.00  0.00    -0.077 C 
ATOM      7  C   UNL     1     -29.406 -56.172  56.385  1.00  0.00     0.039 C 
ATOM      8  C   UNL     1     -29.237 -54.679  54.446  1.00  0.00    -0.027 CG0
ATOM      9  G   UNL     1     -28.807 -53.498  53.605  1.00  0.00     0.000 G0
ENDBRANCH   5   6
ENDBRANCH   4   5
ENDBRANCH   2   4
BRANCH   1  10
ATOM     10  C   UNL     1     -26.508 -51.553  54.207  1.00  0.00     0.057 C 
BRANCH  10  11
ATOM     11  C   UNL     1     -25.849 -52.574  53.321  1.00  0.00    -0.026 C 
ATOM     12  C   UNL     1     -26.447 -53.501  52.536  1.00  0.00    -0.024 C 
BRANCH  12  13
ATOM     13  C   UNL     1     -27.941 -53.818  52.333  1.00  0.00    -0.014 C 
ATOM     14  C   UNL     1     -28.438 -52.867  51.214  1.00  0.00     0.016 C 
ATOM     15  C   UNL     1     -28.144 -55.255  51.795  1.00  0.00     0.016 C 
BRANCH  13  16
ATOM     16  C   UNL     1     -28.809 -53.497  53.602  1.00  0.00     0.038 CG0
ATOM     17  G   UNL     1     -29.226 -54.690  54.433  1.00  0.00     0.000 G0
ENDBRANCH  13  16
ENDBRANCH  12  13
ENDBRANCH  10  11
ENDBRANCH   1  10
TORSDOF 0
ENDMDL
MODEL 2
REMARK VINA RESULT:    -3.766      1.247      3.418
REMARK INTER + INTRA:          -4.417
REMARK INTER:                  -5.772
REMARK INTRA:                   1.356
REMARK UNBOUND:                 0.891
REMARK SMILES CC1=CCCC(C)=CCC(C)(C)C=CC1
REMARK SMILES IDX 2 1 3 2 1 3 4 4 5 5 6 6 7 7 8 8 15 10 14 11 13 12 10 13
REMARK SMILES IDX 11 14 12 15 9 16
REMARK H PARENT
REMARK Flexibility Score: 60.00
ROOT
ATOM      1  C   UNL     1     -25.982 -51.849  55.286  1.00  0.00    -0.074 C 
ATOM      2  C   UNL     1     -26.219 -51.657  53.962  1.00  0.00    -0.027 C 
ATOM      3  C   UNL     1     -25.514 -50.657  56.085  1.00  0.00     0.039 C 
ENDROOT
BRANCH   2   4
ATOM      4  C   UNL     1     -26.615 -52.716  52.957  1.00  0.00     0.032 C 
BRANCH   4   5
ATOM      5  C   UNL     1     -27.751 -52.284  52.019  1.00  0.00     0.034 C 
BRANCH   5   6
ATOM      6  C   UNL     1     -29.029 -53.084  52.181  1.00  0.00    -0.077 C 
ATOM      7  C   UNL     1     -30.305 -52.536  51.591  1.00  0.00     0.039 C 
ATOM      8  C   UNL     1     -29.086 -54.291  52.796  1.00  0.00    -0.027 CG0
ATOM      9  G   UNL     1     -27.938 -55.002  53.476  1.00  0.00     0.000 G0
ENDBRANCH   5   6
ENDBRANCH   4   5
ENDBRANCH   2   4
BRANCH   1  10
ATOM     10  C   UNL     1     -26.219 -53.163  56.015  1.00  0.00     0.057 C 
BRANCH  10  11
ATOM     11  C   UNL     1     -27.664 -53.369  56.374  1.00  0.00    -0.026 C 
ATOM     12  C   UNL     1     -28.495 -54.349  55.946  1.00  0.00    -0.024 C 
BRANCH  12  13
ATOM     13  C   UNL     1     -28.242 -55.506  54.960  1.00  0.00    -0.014 C 
ATOM     14  C   UNL     1     -26.944 -56.207  55.438  1.00  0.00     0.016 C 
ATOM     15  C   UNL     1     -29.360 -56.574  55.046  1.00  0.00     0.016 C 
BRANCH  13  16
ATOM     16  C   UNL     1     -27.963 -55.010  53.497  1.00  0.00     0.038 CG0
ATOM     17  G   UNL     1     -29.104 -54.288  52.817  1.00  0.00     0.000 G0
ENDBRANCH  13  16
ENDBRANCH  12  13
ENDBRANCH  10  11
ENDBRANCH   1  10
TORSDOF 0
ENDMDL
MODEL 3
REMARK VINA RESULT:    -3.666     11.899     14.021
REMARK INTER + INTRA:          -4.274
REMARK INTER:                  -4.810
REMARK INTRA:                   0.535
REMARK UNBOUND:                 0.891
REMARK SMILES CC1=CCCC(C)=CCC(C)(C)C=CC1
REMARK SMILES IDX 2 1 3 2 1 3 4 4 5 5 6 6 7 7 8 8 15 10 14 11 13 12 10 13
REMARK SMILES IDX 11 14 12 15 9 16
REMARK H PARENT
REMARK Flexibility Score: 60.00
ROOT
ATOM      1  C   UNL     1     -32.562 -50.861  64.324  1.00  0.00    -0.074 C 
ATOM      2  C   UNL     1     -32.426 -52.208  64.214  1.00  0.00    -0.027 C 
ATOM      3  C   UNL     1     -32.001 -50.015  63.207  1.00  0.00     0.039 C 
ENDROOT
BRANCH   2   4
ATOM      4  C   UNL     1     -32.838 -53.239  65.241  1.00  0.00     0.032 C 
BRANCH   4   5
ATOM      5  C   UNL     1     -31.660 -53.835  66.026  1.00  0.00     0.034 C 
BRANCH   5   6
ATOM      6  C   UNL     1     -31.951 -54.078  67.494  1.00  0.00    -0.077 C 
ATOM      7  C   UNL     1     -32.546 -55.403  67.903  1.00  0.00     0.039 C 
ATOM      8  C   UNL     1     -31.672 -53.183  68.473  1.00  0.00    -0.027 CG0
ATOM      9  G   UNL     1     -31.105 -51.794  68.279  1.00  0.00     0.000 G0
ENDBRANCH   5   6
ENDBRANCH   4   5
ENDBRANCH   2   4
BRANCH   1  10
ATOM     10  C   UNL     1     -33.295 -50.166  65.462  1.00  0.00     0.057 C 
BRANCH  10  11
ATOM     11  C   UNL     1     -32.398 -49.251  66.249  1.00  0.00    -0.026 C 
ATOM     12  C   UNL     1     -31.906 -49.440  67.496  1.00  0.00    -0.024 C 
BRANCH  12  13
ATOM     13  C   UNL     1     -32.128 -50.599  68.487  1.00  0.00    -0.014 C 
ATOM     14  C   UNL     1     -31.841 -50.025  69.898  1.00  0.00     0.016 C 
ATOM     15  C   UNL     1     -33.609 -51.051  68.502  1.00  0.00     0.016 C 
BRANCH  13  16
ATOM     16  C   UNL     1     -31.116 -51.782  68.277  1.00  0.00     0.038 CG0
ATOM     17  G   UNL     1     -31.683 -53.173  68.454  1.00  0.00     0.000 G0
ENDBRANCH  13  16
ENDBRANCH  12  13
ENDBRANCH  10  11
ENDBRANCH   1  10
TORSDOF 0
ENDMDL
MODEL 4
REMARK VINA RESULT:    -3.420      2.491      4.319
REMARK INTER + INTRA:          -3.928
REMARK INTER:                  -4.613
REMARK INTRA:                   0.685
REMARK UNBOUND:                 0.891
REMARK SMILES CC1=CCCC(C)=CCC(C)(C)C=CC1
REMARK SMILES IDX 2 1 3 2 1 3 4 4 5 5 6 6 7 7 8 8 15 10 14 11 13 12 10 13
REMARK SMILES IDX 11 14 12 15 9 16
REMARK H PARENT
REMARK Flexibility Score: 60.00
ROOT
ATOM      1  C   UNL     1     -27.740 -53.933  52.088  1.00  0.00    -0.074 C 
ATOM      2  C   UNL     1     -28.743 -53.919  53.003  1.00  0.00    -0.027 C 
ATOM      3  C   UNL     1     -27.785 -52.893  50.995  1.00  0.00     0.039 C 
ENDROOT
BRANCH   2   4
ATOM      4  C   UNL     1     -28.946 -54.906  54.131  1.00  0.00     0.032 C 
BRANCH   4   5
ATOM      5  C   UNL     1     -28.572 -54.351  55.513  1.00  0.00     0.034 C 
BRANCH   5   6
ATOM      6  C   UNL     1     -27.085 -54.371  55.809  1.00  0.00    -0.077 C 
ATOM      7  C   UNL     1     -26.424 -53.098  56.276  1.00  0.00     0.039 C 
ATOM      8  C   UNL     1     -26.315 -55.483  55.715  1.00  0.00    -0.027 CG0
ATOM      9  G   UNL     1     -26.769 -56.846  55.240  1.00  0.00     0.000 G0
ENDBRANCH   5   6
ENDBRANCH   4   5
ENDBRANCH   2   4
BRANCH   1  10
ATOM     10  C   UNL     1     -26.553 -54.884  52.136  1.00  0.00     0.057 C 
BRANCH  10  11
ATOM     11  C   UNL     1     -26.952 -56.315  51.904  1.00  0.00    -0.026 C 
ATOM     12  C   UNL     1     -26.714 -57.384  52.701  1.00  0.00    -0.024 C 
BRANCH  12  13
ATOM     13  C   UNL     1     -25.953 -57.477  54.037  1.00  0.00    -0.014 C 
ATOM     14  C   UNL     1     -25.801 -58.989  54.346  1.00  0.00     0.016 C 
ATOM     15  C   UNL     1     -24.514 -56.920  53.905  1.00  0.00     0.016 C 
BRANCH  13  16
ATOM     16  C   UNL     1     -26.754 -56.860  55.239  1.00  0.00     0.038 CG0
ATOM     17  G   UNL     1     -26.317 -55.482  55.683  1.00  0.00     0.000 G0
ENDBRANCH  13  16
ENDBRANCH  12  13
ENDBRANCH  10  11
ENDBRANCH   1  10
TORSDOF 0
ENDMDL
MODEL 5
REMARK VINA RESULT:    -3.376     13.135     14.865
REMARK INTER + INTRA:          -3.866
REMARK INTER:                  -4.336
REMARK INTRA:                   0.469
REMARK UNBOUND:                 0.891
REMARK SMILES CC1=CCCC(C)=CCC(C)(C)C=CC1
REMARK SMILES IDX 2 1 3 2 1 3 4 4 5 5 6 6 7 7 8 8 15 10 14 11 13 12 10 13
REMARK SMILES IDX 11 14 12 15 9 16
REMARK H PARENT
REMARK Flexibility Score: 60.00
ROOT
ATOM      1  C   UNL     1     -20.768 -68.350  58.984  1.00  0.00    -0.074 C 
ATOM      2  C   UNL     1     -22.015 -68.877  59.086  1.00  0.00    -0.027 C 
ATOM      3  C   UNL     1     -19.902 -68.378  60.220  1.00  0.00     0.039 C 
ENDROOT
BRANCH   2   4
ATOM      4  C   UNL     1     -23.078 -68.887  58.009  1.00  0.00     0.032 C 
BRANCH   4   5
ATOM      5  C   UNL     1     -24.335 -68.084  58.374  1.00  0.00     0.034 C 
BRANCH   5   6
ATOM      6  C   UNL     1     -24.720 -67.033  57.351  1.00  0.00    -0.077 C 
ATOM      7  C   UNL     1     -25.947 -67.264  56.505  1.00  0.00     0.039 C 
ATOM      8  C   UNL     1     -24.043 -65.871  57.177  1.00  0.00    -0.027 CG0
ATOM      9  G   UNL     1     -22.778 -65.458  57.897  1.00  0.00     0.000 G0
ENDBRANCH   5   6
ENDBRANCH   4   5
ENDBRANCH   2   4
BRANCH   1  10
ATOM     10  C   UNL     1     -20.177 -67.796  57.696  1.00  0.00     0.057 C 
BRANCH  10  11
ATOM     11  C   UNL     1     -19.609 -66.415  57.871  1.00  0.00    -0.026 C 
ATOM     12  C   UNL     1     -20.203 -65.231  57.589  1.00  0.00    -0.024 C 
BRANCH  12  13
ATOM     13  C   UNL     1     -21.590 -64.933  56.987  1.00  0.00    -0.014 C 
ATOM     14  C   UNL     1     -21.715 -63.389  56.927  1.00  0.00     0.016 C 
ATOM     15  C   UNL     1     -21.686 -65.427  55.523  1.00  0.00     0.016 C 
BRANCH  13  16
ATOM     16  C   UNL     1     -22.769 -65.436  57.895  1.00  0.00     0.038 CG0
ATOM     17  G   UNL     1     -24.020 -65.875  57.167  1.00  0.00     0.000 G0
ENDBRANCH  13  16
ENDBRANCH  12  13
ENDBRANCH  10  11
ENDBRANCH   1  10
TORSDOF 0
ENDMDL
MODEL 6
REMARK VINA RESULT:    -3.207      1.568      3.010
REMARK INTER + INTRA:          -3.628
REMARK INTER:                  -4.504
REMARK INTRA:                   0.876
REMARK UNBOUND:                 0.891
REMARK SMILES CC1=CCCC(C)=CCC(C)(C)C=CC1
REMARK SMILES IDX 2 1 3 2 1 3 4 4 5 5 6 6 7 7 8 8 15 10 14 11 13 12 10 13
REMARK SMILES IDX 11 14 12 15 9 16
REMARK H PARENT
REMARK Flexibility Score: 60.00
ROOT
ATOM      1  C   UNL     1     -27.488 -55.378  55.648  1.00  0.00    -0.074 C 
ATOM      2  C   UNL     1     -28.300 -56.466  55.670  1.00  0.00    -0.027 C 
ATOM      3  C   UNL     1     -26.001 -55.626  55.578  1.00  0.00     0.039 C 
ENDROOT
BRANCH   2   4
ATOM      4  C   UNL     1     -29.806 -56.460  55.816  1.00  0.00     0.032 C 
BRANCH   4   5
ATOM      5  C   UNL     1     -30.542 -55.855  54.612  1.00  0.00     0.034 C 
BRANCH   5   6
ATOM      6  C   UNL     1     -29.953 -56.236  53.268  1.00  0.00    -0.077 C 
ATOM      7  C   UNL     1     -30.130 -57.651  52.776  1.00  0.00     0.039 C 
ATOM      8  C   UNL     1     -29.304 -55.363  52.458  1.00  0.00    -0.027 CG0
ATOM      9  G   UNL     1     -28.994 -53.916  52.769  1.00  0.00     0.000 G0
ENDBRANCH   5   6
ENDBRANCH   4   5
ENDBRANCH   2   4
BRANCH   1  10
ATOM     10  C   UNL     1     -27.985 -53.940  55.627  1.00  0.00     0.057 C 
BRANCH  10  11
ATOM     11  C   UNL     1     -27.010 -53.005  54.967  1.00  0.00    -0.026 C 
ATOM     12  C   UNL     1     -26.841 -52.780  53.642  1.00  0.00    -0.024 C 
BRANCH  12  13
ATOM     13  C   UNL     1     -27.547 -53.416  52.428  1.00  0.00    -0.014 C 
ATOM     14  C   UNL     1     -27.694 -52.290  51.373  1.00  0.00     0.016 C 
ATOM     15  C   UNL     1     -26.664 -54.505  51.771  1.00  0.00     0.016 C 
BRANCH  13  16
ATOM     16  C   UNL     1     -29.002 -53.905  52.757  1.00  0.00     0.038 CG0
ATOM     17  G   UNL     1     -29.296 -55.356  52.446  1.00  0.00     0.000 G0
ENDBRANCH  13  16
ENDBRANCH  12  13
ENDBRANCH  10  11
ENDBRANCH   1  10
TORSDOF 0
ENDMDL
MODEL 7
REMARK VINA RESULT:    -3.176      2.416      4.169
REMARK INTER + INTRA:          -3.584
REMARK INTER:                  -4.143
REMARK INTRA:                   0.559
REMARK UNBOUND:                 0.891
REMARK SMILES CC1=CCCC(C)=CCC(C)(C)C=CC1
REMARK SMILES IDX 2 1 3 2 1 3 4 4 5 5 6 6 7 7 8 8 15 10 14 11 13 12 10 13
REMARK SMILES IDX 11 14 12 15 9 16
REMARK H PARENT
REMARK Flexibility Score: 60.00
ROOT
ATOM      1  C   UNL     1     -26.999 -54.207  55.244  1.00  0.00    -0.074 C 
ATOM      2  C   UNL     1     -27.057 -53.426  54.135  1.00  0.00    -0.027 C 
ATOM      3  C   UNL     1     -27.576 -53.641  56.519  1.00  0.00     0.039 C 
ENDROOT
BRANCH   2   4
ATOM      4  C   UNL     1     -26.476 -53.751  52.776  1.00  0.00     0.032 C 
BRANCH   4   5
ATOM      5  C   UNL     1     -27.530 -53.871  51.666  1.00  0.00     0.034 C 
BRANCH   5   6
ATOM      6  C   UNL     1     -28.710 -54.755  52.023  1.00  0.00    -0.077 C 
ATOM      7  C   UNL     1     -30.067 -54.116  52.190  1.00  0.00     0.039 C 
ATOM      8  C   UNL     1     -28.625 -56.101  52.165  1.00  0.00    -0.027 CG0
ATOM      9  G   UNL     1     -27.364 -56.931  52.069  1.00  0.00     0.000 G0
ENDBRANCH   5   6
ENDBRANCH   4   5
ENDBRANCH   2   4
BRANCH   1  10
ATOM     10  C   UNL     1     -26.451 -55.626  55.264  1.00  0.00     0.057 C 
BRANCH  10  11
ATOM     11  C   UNL     1     -27.537 -56.660  55.373  1.00  0.00    -0.026 C 
ATOM     12  C   UNL     1     -27.816 -57.666  54.510  1.00  0.00    -0.024 C 
BRANCH  12  13
ATOM     13  C   UNL     1     -27.154 -58.037  53.169  1.00  0.00    -0.014 C 
ATOM     14  C   UNL     1     -25.629 -58.102  53.442  1.00  0.00     0.016 C 
ATOM     15  C   UNL     1     -27.567 -59.458  52.712  1.00  0.00     0.016 C 
BRANCH  13  16
ATOM     16  C   UNL     1     -27.358 -56.941  52.064  1.00  0.00     0.038 CG0
ATOM     17  G   UNL     1     -28.620 -56.115  52.181  1.00  0.00     0.000 G0
ENDBRANCH  13  16
ENDBRANCH  12  13
ENDBRANCH  10  11
ENDBRANCH   1  10
TORSDOF 0
ENDMDL
MODEL 8
REMARK VINA RESULT:    -3.169      2.153      4.080
REMARK INTER + INTRA:          -3.575
REMARK INTER:                  -4.046
REMARK INTRA:                   0.471
REMARK UNBOUND:                 0.891
REMARK SMILES CC1=CCCC(C)=CCC(C)(C)C=CC1
REMARK SMILES IDX 2 1 3 2 1 3 4 4 5 5 6 6 7 7 8 8 15 10 14 11 13 12 10 13
REMARK SMILES IDX 11 14 12 15 9 16
REMARK H PARENT
REMARK Flexibility Score: 60.00
ROOT
ATOM      1  C   UNL     1     -27.119 -53.420  55.065  1.00  0.00    -0.074 C 
ATOM      2  C   UNL     1     -26.623 -53.459  53.801  1.00  0.00    -0.027 C 
ATOM      3  C   UNL     1     -26.260 -52.778  56.126  1.00  0.00     0.039 C 
ENDROOT
BRANCH   2   4
ATOM      4  C   UNL     1     -27.269 -54.118  52.602  1.00  0.00     0.032 C 
BRANCH   4   5
ATOM      5  C   UNL     1     -26.462 -55.295  52.035  1.00  0.00     0.034 C 
BRANCH   5   6
ATOM      6  C   UNL     1     -26.170 -56.391  53.042  1.00  0.00    -0.077 C 
ATOM      7  C   UNL     1     -24.752 -56.571  53.523  1.00  0.00     0.039 C 
ATOM      8  C   UNL     1     -27.123 -57.200  53.568  1.00  0.00    -0.027 CG0
ATOM      9  G   UNL     1     -28.590 -57.207  53.203  1.00  0.00     0.000 G0
ENDBRANCH   5   6
ENDBRANCH   4   5
ENDBRANCH   2   4
BRANCH   1  10
ATOM     10  C   UNL     1     -28.501 -53.922  55.457  1.00  0.00     0.057 C 
BRANCH  10  11
ATOM     11  C   UNL     1     -28.455 -55.265  56.133  1.00  0.00    -0.026 C 
ATOM     12  C   UNL     1     -28.898 -56.452  55.655  1.00  0.00    -0.024 C 
BRANCH  12  13
ATOM     13  C   UNL     1     -29.598 -56.788  54.324  1.00  0.00    -0.014 C 
ATOM     14  C   UNL     1     -30.494 -58.022  54.605  1.00  0.00     0.016 C 
ATOM     15  C   UNL     1     -30.558 -55.652  53.891  1.00  0.00     0.016 C 
BRANCH  13  16
ATOM     16  C   UNL     1     -28.592 -57.220  53.198  1.00  0.00     0.038 CG0
ATOM     17  G   UNL     1     -27.128 -57.188  53.575  1.00  0.00     0.000 G0
ENDBRANCH  13  16
ENDBRANCH  12  13
ENDBRANCH  10  11
ENDBRANCH   1  10
TORSDOF 0
ENDMDL
MODEL 9
REMARK VINA RESULT:    -3.127     11.677     13.510
REMARK INTER + INTRA:          -3.515
REMARK INTER:                  -3.943
REMARK INTRA:                   0.428
REMARK UNBOUND:                 0.891
REMARK SMILES CC1=CCCC(C)=CCC(C)(C)C=CC1
REMARK SMILES IDX 2 1 3 2 1 3 4 4 5 5 6 6 7 7 8 8 15 10 14 11 13 12 10 13
REMARK SMILES IDX 11 14 12 15 9 16
REMARK H PARENT
REMARK Flexibility Score: 60.00
ROOT
ATOM      1  C   UNL     1     -23.981 -62.976  58.128  1.00  0.00    -0.074 C 
ATOM      2  C   UNL     1     -23.088 -61.956  58.211  1.00  0.00    -0.027 C 
ATOM      3  C   UNL     1     -25.153 -62.948  59.079  1.00  0.00     0.039 C 
ENDROOT
BRANCH   2   4
ATOM      4  C   UNL     1     -21.806 -61.817  57.421  1.00  0.00     0.032 C 
BRANCH   4   5
ATOM      5  C   UNL     1     -20.588 -62.458  58.101  1.00  0.00     0.034 C 
BRANCH   5   6
ATOM      6  C   UNL     1     -19.883 -63.503  57.257  1.00  0.00    -0.077 C 
ATOM      7  C   UNL     1     -18.852 -63.047  56.254  1.00  0.00     0.039 C 
ATOM      8  C   UNL     1     -20.099 -64.836  57.377  1.00  0.00    -0.027 CG0
ATOM      9  G   UNL     1     -21.103 -65.499  58.294  1.00  0.00     0.000 G0
ENDBRANCH   5   6
ENDBRANCH   4   5
ENDBRANCH   2   4
BRANCH   1  10
ATOM     10  C   UNL     1     -23.905 -64.097  57.103  1.00  0.00     0.057 C 
BRANCH  10  11
ATOM     11  C   UNL     1     -24.278 -65.433  57.683  1.00  0.00    -0.026 C 
ATOM     12  C   UNL     1     -23.465 -66.487  57.932  1.00  0.00    -0.024 C 
BRANCH  12  13
ATOM     13  C   UNL     1     -21.956 -66.660  57.677  1.00  0.00    -0.014 C 
ATOM     14  C   UNL     1     -21.537 -67.959  58.412  1.00  0.00     0.016 C 
ATOM     15  C   UNL     1     -21.664 -66.906  56.176  1.00  0.00     0.016 C 
BRANCH  13  16
ATOM     16  C   UNL     1     -21.096 -65.504  58.300  1.00  0.00     0.038 CG0
ATOM     17  G   UNL     1     -20.104 -64.844  57.367  1.00  0.00     0.000 G0
ENDBRANCH  13  16
ENDBRANCH  12  13
ENDBRANCH  10  11
ENDBRANCH   1  10
TORSDOF 0
ENDMDL
