MODEL 1
REMARK VINA RESULT:    -3.974      0.000      0.000
REMARK INTER + INTRA:          -9.450
REMARK INTER:                  -7.226
REMARK INTRA:                  -2.224
REMARK UNBOUND:                -2.224
REMARK SMILES CCCCCCCCCCCCCC[C@H](C)C(=O)[O-]
REMARK SMILES IDX 9 1 10 2 11 3 12 4 13 5 14 6 15 7 16 8 17 9 18 10 19 11 8 12
REMARK SMILES IDX 7 13 6 14 5 15 4 16 3 17 2 18 1 19
REMARK H PARENT
REMARK Flexibility Score: inf
ROOT
ATOM      1  C   UNL     1     156.512 174.381 161.133  1.00  0.00     0.000 C 
ENDROOT
BRANCH   1   2
ATOM      2  C   UNL     1     157.889 174.358 161.817  1.00  0.00     0.000 C 
BRANCH   2   3
ATOM      3  C   UNL     1     158.094 173.104 162.683  1.00  0.00     0.000 C 
BRANCH   3   4
ATOM      4  C   UNL     1     158.240 173.437 164.178  1.00  0.00     0.000 C 
BRANCH   4   5
ATOM      5  C   UNL     1     158.262 174.949 164.450  1.00  0.00     0.001 C 
BRANCH   5   6
ATOM      6  C   UNL     1     159.518 175.346 165.241  1.00  0.00     0.009 C 
BRANCH   6   7
ATOM      7  C   UNL     1     160.261 174.119 165.809  1.00  0.00     0.032 C 
ATOM      8  C   UNL     1     160.215 174.122 167.340  1.00  0.00     0.014 C 
BRANCH   7   9
ATOM      9  C   UNL     1     161.692 174.082 165.345  1.00  0.00     0.044 C 
ATOM     10  O   UNL     1     162.382 173.041 165.509  1.00  0.00    -0.550 OA
ATOM     11  O   UNL     1     162.263 175.193 164.736  1.00  0.00    -0.550 OA
ENDBRANCH   7   9
ENDBRANCH   6   7
ENDBRANCH   5   6
ENDBRANCH   4   5
ENDBRANCH   3   4
ENDBRANCH   2   3
ENDBRANCH   1   2
BRANCH   1  12
ATOM     12  C   UNL     1     155.638 175.562 161.594  1.00  0.00     0.000 C 
BRANCH  12  13
ATOM     13  C   UNL     1     154.376 175.113 162.352  1.00  0.00    -0.000 C 
BRANCH  13  14
ATOM     14  C   UNL     1     154.638 174.335 163.656  1.00  0.00    -0.000 C 
BRANCH  14  15
ATOM     15  C   UNL     1     154.412 172.821 163.506  1.00  0.00    -0.000 C 
BRANCH  15  16
ATOM     16  C   UNL     1     154.921 172.016 164.717  1.00  0.00    -0.000 C 
BRANCH  16  17
ATOM     17  C   UNL     1     155.223 172.847 165.977  1.00  0.00    -0.000 C 
BRANCH  17  18
ATOM     18  C   UNL     1     155.632 171.985 167.181  1.00  0.00    -0.003 C 
ATOM     19  C   UNL     1     156.950 172.466 167.780  1.00  0.00     0.004 C 
ENDBRANCH  17  18
ENDBRANCH  16  17
ENDBRANCH  15  16
ENDBRANCH  14  15
ENDBRANCH  13  14
ENDBRANCH  12  13
ENDBRANCH   1  12
TORSDOF 14
ENDMDL
MODEL 2
REMARK VINA RESULT:    -3.970      1.674      4.695
REMARK INTER + INTRA:          -9.443
REMARK INTER:                  -7.171
REMARK INTRA:                  -2.272
REMARK UNBOUND:                -2.224
REMARK SMILES CCCCCCCCCCCCCC[C@H](C)C(=O)[O-]
REMARK SMILES IDX 9 1 10 2 11 3 12 4 13 5 14 6 15 7 16 8 17 9 18 10 19 11 8 12
REMARK SMILES IDX 7 13 6 14 5 15 4 16 3 17 2 18 1 19
REMARK H PARENT
REMARK Flexibility Score: inf
ROOT
ATOM      1  C   UNL     1     154.124 171.212 163.647  1.00  0.00     0.000 C 
ENDROOT
BRANCH   1   2
ATOM      2  C   UNL     1     154.676 171.359 165.073  1.00  0.00     0.000 C 
BRANCH   2   3
ATOM      3  C   UNL     1     154.046 172.541 165.829  1.00  0.00     0.000 C 
BRANCH   3   4
ATOM      4  C   UNL     1     155.035 173.700 166.042  1.00  0.00     0.000 C 
BRANCH   4   5
ATOM      5  C   UNL     1     156.273 173.597 165.138  1.00  0.00     0.001 C 
BRANCH   5   6
ATOM      6  C   UNL     1     156.941 174.970 164.963  1.00  0.00     0.009 C 
BRANCH   6   7
ATOM      7  C   UNL     1     158.358 174.855 164.365  1.00  0.00     0.032 C 
ATOM      8  C   UNL     1     158.539 173.507 163.660  1.00  0.00     0.014 C 
BRANCH   7   9
ATOM      9  C   UNL     1     159.414 175.017 165.426  1.00  0.00     0.044 C 
ATOM     10  O   UNL     1     159.996 176.124 165.573  1.00  0.00    -0.550 OA
ATOM     11  O   UNL     1     159.755 173.950 166.248  1.00  0.00    -0.550 OA
ENDBRANCH   7   9
ENDBRANCH   6   7
ENDBRANCH   5   6
ENDBRANCH   4   5
ENDBRANCH   3   4
ENDBRANCH   2   3
ENDBRANCH   1   2
BRANCH   1  12
ATOM     12  C   UNL     1     152.941 172.157 163.366  1.00  0.00     0.000 C 
BRANCH  12  13
ATOM     13  C   UNL     1     153.244 173.183 162.260  1.00  0.00    -0.000 C 
BRANCH  13  14
ATOM     14  C   UNL     1     153.556 174.607 162.756  1.00  0.00    -0.000 C 
BRANCH  14  15
ATOM     15  C   UNL     1     154.779 175.230 162.061  1.00  0.00    -0.000 C 
BRANCH  15  16
ATOM     16  C   UNL     1     155.698 174.179 161.410  1.00  0.00    -0.000 C 
BRANCH  16  17
ATOM     17  C   UNL     1     156.851 174.750 160.564  1.00  0.00    -0.000 C 
BRANCH  17  18
ATOM     18  C   UNL     1     156.440 175.054 159.116  1.00  0.00    -0.003 C 
ATOM     19  C   UNL     1     156.971 173.992 158.158  1.00  0.00     0.004 C 
ENDBRANCH  17  18
ENDBRANCH  16  17
ENDBRANCH  15  16
ENDBRANCH  14  15
ENDBRANCH  13  14
ENDBRANCH  12  13
ENDBRANCH   1  12
TORSDOF 14
ENDMDL
MODEL 3
REMARK VINA RESULT:    -3.528     14.253     16.784
REMARK INTER + INTRA:          -8.639
REMARK INTER:                  -6.099
REMARK INTRA:                  -2.541
REMARK UNBOUND:                -2.224
REMARK SMILES CCCCCCCCCCCCCC[C@H](C)C(=O)[O-]
REMARK SMILES IDX 9 1 10 2 11 3 12 4 13 5 14 6 15 7 16 8 17 9 18 10 19 11 8 12
REMARK SMILES IDX 7 13 6 14 5 15 4 16 3 17 2 18 1 19
REMARK H PARENT
REMARK Flexibility Score: inf
ROOT
ATOM      1  C   UNL     1     170.104 171.075 150.812  1.00  0.00     0.000 C 
ENDROOT
BRANCH   1   2
ATOM      2  C   UNL     1     169.579 169.650 151.054  1.00  0.00     0.000 C 
BRANCH   2   3
ATOM      3  C   UNL     1     168.343 169.626 151.969  1.00  0.00     0.000 C 
BRANCH   3   4
ATOM      4  C   UNL     1     167.571 170.956 151.955  1.00  0.00     0.000 C 
BRANCH   4   5
ATOM      5  C   UNL     1     166.613 171.100 153.147  1.00  0.00     0.001 C 
BRANCH   5   6
ATOM      6  C   UNL     1     166.243 169.724 153.723  1.00  0.00     0.009 C 
BRANCH   6   7
ATOM      7  C   UNL     1     164.877 169.226 153.208  1.00  0.00     0.032 C 
ATOM      8  C   UNL     1     164.049 170.393 152.660  1.00  0.00     0.014 C 
BRANCH   7   9
ATOM      9  C   UNL     1     164.106 168.523 154.292  1.00  0.00     0.044 C 
ATOM     10  O   UNL     1     162.924 168.870 154.553  1.00  0.00    -0.550 OA
ATOM     11  O   UNL     1     164.690 167.488 155.013  1.00  0.00    -0.550 OA
ENDBRANCH   7   9
ENDBRANCH   6   7
ENDBRANCH   5   6
ENDBRANCH   4   5
ENDBRANCH   3   4
ENDBRANCH   2   3
ENDBRANCH   1   2
BRANCH   1  12
ATOM     12  C   UNL     1     171.610 171.210 151.098  1.00  0.00     0.000 C 
BRANCH  12  13
ATOM     13  C   UNL     1     171.911 172.102 152.316  1.00  0.00    -0.000 C 
BRANCH  13  14
ATOM     14  C   UNL     1     170.776 173.062 152.720  1.00  0.00    -0.000 C 
BRANCH  14  15
ATOM     15  C   UNL     1     170.385 172.938 154.203  1.00  0.00    -0.000 C 
BRANCH  15  16
ATOM     16  C   UNL     1     170.831 171.605 154.831  1.00  0.00    -0.000 C 
BRANCH  16  17
ATOM     17  C   UNL     1     169.705 170.583 155.071  1.00  0.00    -0.000 C 
BRANCH  17  18
ATOM     18  C   UNL     1     170.226 169.153 155.280  1.00  0.00    -0.003 C 
ATOM     19  C   UNL     1     171.299 168.803 154.254  1.00  0.00     0.004 C 
ENDBRANCH  17  18
ENDBRANCH  16  17
ENDBRANCH  15  16
ENDBRANCH  14  15
ENDBRANCH  13  14
ENDBRANCH  12  13
ENDBRANCH   1  12
TORSDOF 14
ENDMDL
MODEL 4
REMARK VINA RESULT:    -3.520     15.019     17.393
REMARK INTER + INTRA:          -8.625
REMARK INTER:                  -5.804
REMARK INTRA:                  -2.821
REMARK UNBOUND:                -2.224
REMARK SMILES CCCCCCCCCCCCCC[C@H](C)C(=O)[O-]
REMARK SMILES IDX 9 1 10 2 11 3 12 4 13 5 14 6 15 7 16 8 17 9 18 10 19 11 8 12
REMARK SMILES IDX 7 13 6 14 5 15 4 16 3 17 2 18 1 19
REMARK H PARENT
REMARK Flexibility Score: inf
ROOT
ATOM      1  C   UNL     1     171.665 170.302 151.018  1.00  0.00     0.000 C 
ENDROOT
BRANCH   1   2
ATOM      2  C   UNL     1     170.969 170.926 149.798  1.00  0.00     0.000 C 
BRANCH   2   3
ATOM      3  C   UNL     1     169.450 170.686 149.801  1.00  0.00     0.000 C 
BRANCH   3   4
ATOM      4  C   UNL     1     169.011 169.690 150.888  1.00  0.00     0.000 C 
BRANCH   4   5
ATOM      5  C   UNL     1     167.608 169.990 151.437  1.00  0.00     0.001 C 
BRANCH   5   6
ATOM      6  C   UNL     1     167.253 169.035 152.587  1.00  0.00     0.009 C 
BRANCH   6   7
ATOM      7  C   UNL     1     166.331 169.700 153.631  1.00  0.00     0.032 C 
ATOM      8  C   UNL     1     166.468 169.005 154.990  1.00  0.00     0.014 C 
BRANCH   7   9
ATOM      9  C   UNL     1     164.893 169.669 153.189  1.00  0.00     0.044 C 
ATOM     10  O   UNL     1     164.239 168.595 153.242  1.00  0.00    -0.550 OA
ATOM     11  O   UNL     1     164.276 170.824 152.721  1.00  0.00    -0.550 OA
ENDBRANCH   7   9
ENDBRANCH   6   7
ENDBRANCH   5   6
ENDBRANCH   4   5
ENDBRANCH   3   4
ENDBRANCH   2   3
ENDBRANCH   1   2
BRANCH   1  12
ATOM     12  C   UNL     1     172.521 171.316 151.798  1.00  0.00     0.000 C 
BRANCH  12  13
ATOM     13  C   UNL     1     171.934 172.739 151.774  1.00  0.00    -0.000 C 
BRANCH  13  14
ATOM     14  C   UNL     1     171.318 173.214 153.104  1.00  0.00    -0.000 C 
BRANCH  14  15
ATOM     15  C   UNL     1     169.793 173.025 153.159  1.00  0.00    -0.000 C 
BRANCH  15  16
ATOM     16  C   UNL     1     169.369 171.799 153.989  1.00  0.00    -0.000 C 
BRANCH  16  17
ATOM     17  C   UNL     1     170.459 171.222 154.911  1.00  0.00    -0.000 C 
BRANCH  17  18
ATOM     18  C   UNL     1     170.194 169.764 155.316  1.00  0.00    -0.003 C 
ATOM     19  C   UNL     1     170.606 168.801 154.207  1.00  0.00     0.004 C 
ENDBRANCH  17  18
ENDBRANCH  16  17
ENDBRANCH  15  16
ENDBRANCH  14  15
ENDBRANCH  13  14
ENDBRANCH  12  13
ENDBRANCH   1  12
TORSDOF 14
ENDMDL
MODEL 5
REMARK VINA RESULT:    -3.423     14.043     16.122
REMARK INTER + INTRA:          -8.448
REMARK INTER:                  -6.185
REMARK INTRA:                  -2.264
REMARK UNBOUND:                -2.224
REMARK SMILES CCCCCCCCCCCCCC[C@H](C)C(=O)[O-]
REMARK SMILES IDX 9 1 10 2 11 3 12 4 13 5 14 6 15 7 16 8 17 9 18 10 19 11 8 12
REMARK SMILES IDX 7 13 6 14 5 15 4 16 3 17 2 18 1 19
REMARK H PARENT
REMARK Flexibility Score: inf
ROOT
ATOM      1  C   UNL     1     165.731 168.055 154.415  1.00  0.00     0.000 C 
ENDROOT
BRANCH   1   2
ATOM      2  C   UNL     1     166.513 168.742 155.546  1.00  0.00     0.000 C 
BRANCH   2   3
ATOM      3  C   UNL     1     167.504 169.795 155.021  1.00  0.00     0.000 C 
BRANCH   3   4
ATOM      4  C   UNL     1     168.970 169.396 155.260  1.00  0.00     0.000 C 
BRANCH   4   5
ATOM      5  C   UNL     1     169.951 170.547 154.989  1.00  0.00     0.001 C 
BRANCH   5   6
ATOM      6  C   UNL     1     169.399 171.497 153.915  1.00  0.00     0.009 C 
BRANCH   6   7
ATOM      7  C   UNL     1     170.217 172.802 153.817  1.00  0.00     0.032 C 
ATOM      8  C   UNL     1     169.288 174.008 153.644  1.00  0.00     0.014 C 
BRANCH   7   9
ATOM      9  C   UNL     1     171.197 172.749 152.676  1.00  0.00     0.044 C 
ATOM     10  O   UNL     1     171.833 173.783 152.342  1.00  0.00    -0.550 OA
ATOM     11  O   UNL     1     171.407 171.563 151.983  1.00  0.00    -0.550 OA
ENDBRANCH   7   9
ENDBRANCH   6   7
ENDBRANCH   5   6
ENDBRANCH   4   5
ENDBRANCH   3   4
ENDBRANCH   2   3
ENDBRANCH   1   2
BRANCH   1  12
ATOM     12  C   UNL     1     164.278 168.551 154.309  1.00  0.00     0.000 C 
BRANCH  12  13
ATOM     13  C   UNL     1     163.963 169.198 152.948  1.00  0.00    -0.000 C 
BRANCH  13  14
ATOM     14  C   UNL     1     164.711 170.514 152.661  1.00  0.00    -0.000 C 
BRANCH  14  15
ATOM     15  C   UNL     1     165.419 170.515 151.295  1.00  0.00    -0.000 C 
BRANCH  15  16
ATOM     16  C   UNL     1     166.947 170.362 151.412  1.00  0.00    -0.000 C 
BRANCH  16  17
ATOM     17  C   UNL     1     167.534 169.103 150.748  1.00  0.00    -0.000 C 
BRANCH  17  18
ATOM     18  C   UNL     1     168.266 168.187 151.740  1.00  0.00    -0.003 C 
ATOM     19  C   UNL     1     169.770 168.442 151.719  1.00  0.00     0.004 C 
ENDBRANCH  17  18
ENDBRANCH  16  17
ENDBRANCH  15  16
ENDBRANCH  14  15
ENDBRANCH  13  14
ENDBRANCH  12  13
ENDBRANCH   1  12
TORSDOF 14
ENDMDL
MODEL 6
REMARK VINA RESULT:    -3.395     14.547     17.119
REMARK INTER + INTRA:          -8.398
REMARK INTER:                  -5.764
REMARK INTRA:                  -2.634
REMARK UNBOUND:                -2.224
REMARK SMILES CCCCCCCCCCCCCC[C@H](C)C(=O)[O-]
REMARK SMILES IDX 9 1 10 2 11 3 12 4 13 5 14 6 15 7 16 8 17 9 18 10 19 11 8 12
REMARK SMILES IDX 7 13 6 14 5 15 4 16 3 17 2 18 1 19
REMARK H PARENT
REMARK Flexibility Score: inf
ROOT
ATOM      1  C   UNL     1     169.488 169.860 150.762  1.00  0.00     0.000 C 
ENDROOT
BRANCH   1   2
ATOM      2  C   UNL     1     168.244 169.677 151.646  1.00  0.00     0.000 C 
BRANCH   2   3
ATOM      3  C   UNL     1     167.660 171.018 152.124  1.00  0.00     0.000 C 
BRANCH   3   4
ATOM      4  C   UNL     1     166.719 170.855 153.330  1.00  0.00     0.000 C 
BRANCH   4   5
ATOM      5  C   UNL     1     166.144 169.435 153.447  1.00  0.00     0.001 C 
BRANCH   5   6
ATOM      6  C   UNL     1     164.608 169.465 153.478  1.00  0.00     0.009 C 
BRANCH   6   7
ATOM      7  C   UNL     1     163.994 169.229 152.083  1.00  0.00     0.032 C 
ATOM      8  C   UNL     1     164.886 168.302 151.251  1.00  0.00     0.014 C 
BRANCH   7   9
ATOM      9  C   UNL     1     163.788 170.527 151.349  1.00  0.00     0.044 C 
ATOM     10  O   UNL     1     162.935 171.357 151.761  1.00  0.00    -0.550 OA
ATOM     11  O   UNL     1     164.535 170.819 150.214  1.00  0.00    -0.550 OA
ENDBRANCH   7   9
ENDBRANCH   6   7
ENDBRANCH   5   6
ENDBRANCH   4   5
ENDBRANCH   3   4
ENDBRANCH   2   3
ENDBRANCH   1   2
BRANCH   1  12
ATOM     12  C   UNL     1     170.075 171.280 150.847  1.00  0.00     0.000 C 
BRANCH  12  13
ATOM     13  C   UNL     1     171.575 171.289 151.193  1.00  0.00    -0.000 C 
BRANCH  13  14
ATOM     14  C   UNL     1     171.970 172.207 152.365  1.00  0.00    -0.000 C 
BRANCH  14  15
ATOM     15  C   UNL     1     170.872 173.222 152.728  1.00  0.00    -0.000 C 
BRANCH  15  16
ATOM     16  C   UNL     1     170.178 172.903 154.065  1.00  0.00    -0.000 C 
BRANCH  16  17
ATOM     17  C   UNL     1     170.838 171.789 154.898  1.00  0.00    -0.000 C 
BRANCH  17  18
ATOM     18  C   UNL     1     169.955 170.540 155.038  1.00  0.00    -0.003 C 
ATOM     19  C   UNL     1     170.626 169.319 154.417  1.00  0.00     0.004 C 
ENDBRANCH  17  18
ENDBRANCH  16  17
ENDBRANCH  15  16
ENDBRANCH  14  15
ENDBRANCH  13  14
ENDBRANCH  12  13
ENDBRANCH   1  12
TORSDOF 14
ENDMDL
MODEL 7
REMARK VINA RESULT:    -3.391     14.629     17.403
REMARK INTER + INTRA:          -8.391
REMARK INTER:                  -6.072
REMARK INTRA:                  -2.319
REMARK UNBOUND:                -2.224
REMARK SMILES CCCCCCCCCCCCCC[C@H](C)C(=O)[O-]
REMARK SMILES IDX 9 1 10 2 11 3 12 4 13 5 14 6 15 7 16 8 17 9 18 10 19 11 8 12
REMARK SMILES IDX 7 13 6 14 5 15 4 16 3 17 2 18 1 19
REMARK H PARENT
REMARK Flexibility Score: inf
ROOT
ATOM      1  C   UNL     1     168.895 170.389 154.396  1.00  0.00     0.000 C 
ENDROOT
BRANCH   1   2
ATOM      2  C   UNL     1     168.971 169.149 153.490  1.00  0.00     0.000 C 
BRANCH   2   3
ATOM      3  C   UNL     1     168.109 169.292 152.224  1.00  0.00     0.000 C 
BRANCH   3   4
ATOM      4  C   UNL     1     167.656 170.741 151.978  1.00  0.00     0.000 C 
BRANCH   4   5
ATOM      5  C   UNL     1     166.141 170.860 151.755  1.00  0.00     0.001 C 
BRANCH   5   6
ATOM      6  C   UNL     1     165.367 170.491 153.030  1.00  0.00     0.009 C 
BRANCH   6   7
ATOM      7  C   UNL     1     164.106 169.656 152.724  1.00  0.00     0.032 C 
ATOM      8  C   UNL     1     164.482 168.357 152.003  1.00  0.00     0.014 C 
BRANCH   7   9
ATOM      9  C   UNL     1     163.124 170.432 151.890  1.00  0.00     0.044 C 
ATOM     10  O   UNL     1     162.739 169.977 150.781  1.00  0.00    -0.550 OA
ATOM     11  O   UNL     1     162.636 171.655 152.334  1.00  0.00    -0.550 OA
ENDBRANCH   7   9
ENDBRANCH   6   7
ENDBRANCH   5   6
ENDBRANCH   4   5
ENDBRANCH   3   4
ENDBRANCH   2   3
ENDBRANCH   1   2
BRANCH   1  12
ATOM     12  C   UNL     1     170.168 170.590 155.237  1.00  0.00     0.000 C 
BRANCH  12  13
ATOM     13  C   UNL     1     170.867 171.932 154.955  1.00  0.00    -0.000 C 
BRANCH  13  14
ATOM     14  C   UNL     1     170.214 172.792 153.856  1.00  0.00    -0.000 C 
BRANCH  14  15
ATOM     15  C   UNL     1     171.191 173.169 152.730  1.00  0.00    -0.000 C 
BRANCH  15  16
ATOM     16  C   UNL     1     172.079 171.991 152.287  1.00  0.00    -0.000 C 
BRANCH  16  17
ATOM     17  C   UNL     1     171.386 170.947 151.392  1.00  0.00    -0.000 C 
BRANCH  17  18
ATOM     18  C   UNL     1     170.822 171.548 150.095  1.00  0.00    -0.003 C 
ATOM     19  C   UNL     1     170.149 170.478 149.241  1.00  0.00     0.004 C 
ENDBRANCH  17  18
ENDBRANCH  16  17
ENDBRANCH  15  16
ENDBRANCH  14  15
ENDBRANCH  13  14
ENDBRANCH  12  13
ENDBRANCH   1  12
TORSDOF 14
ENDMDL
MODEL 8
REMARK VINA RESULT:    -3.383     15.257     17.732
REMARK INTER + INTRA:          -8.376
REMARK INTER:                  -6.012
REMARK INTRA:                  -2.364
REMARK UNBOUND:                -2.224
REMARK SMILES CCCCCCCCCCCCCC[C@H](C)C(=O)[O-]
REMARK SMILES IDX 9 1 10 2 11 3 12 4 13 5 14 6 15 7 16 8 17 9 18 10 19 11 8 12
REMARK SMILES IDX 7 13 6 14 5 15 4 16 3 17 2 18 1 19
REMARK H PARENT
REMARK Flexibility Score: inf
ROOT
ATOM      1  C   UNL     1     171.147 171.644 149.977  1.00  0.00     0.000 C 
ENDROOT
BRANCH   1   2
ATOM      2  C   UNL     1     170.731 170.353 149.254  1.00  0.00     0.000 C 
BRANCH   2   3
ATOM      3  C   UNL     1     169.343 169.855 149.689  1.00  0.00     0.000 C 
BRANCH   3   4
ATOM      4  C   UNL     1     168.872 170.497 151.006  1.00  0.00     0.000 C 
BRANCH   4   5
ATOM      5  C   UNL     1     167.426 170.122 151.365  1.00  0.00     0.001 C 
BRANCH   5   6
ATOM      6  C   UNL     1     166.764 171.229 152.201  1.00  0.00     0.009 C 
BRANCH   6   7
ATOM      7  C   UNL     1     166.030 170.665 153.435  1.00  0.00     0.032 C 
ATOM      8  C   UNL     1     166.919 169.666 154.182  1.00  0.00     0.014 C 
BRANCH   7   9
ATOM      9  C   UNL     1     164.737 169.999 153.046  1.00  0.00     0.044 C 
ATOM     10  O   UNL     1     164.626 168.747 153.115  1.00  0.00    -0.550 OA
ATOM     11  O   UNL     1     163.658 170.759 152.609  1.00  0.00    -0.550 OA
ENDBRANCH   7   9
ENDBRANCH   6   7
ENDBRANCH   5   6
ENDBRANCH   4   5
ENDBRANCH   3   4
ENDBRANCH   2   3
ENDBRANCH   1   2
BRANCH   1  12
ATOM     12  C   UNL     1     172.483 171.502 150.727  1.00  0.00     0.000 C 
BRANCH  12  13
ATOM     13  C   UNL     1     172.562 170.218 151.572  1.00  0.00    -0.000 C 
BRANCH  13  14
ATOM     14  C   UNL     1     172.414 170.425 153.091  1.00  0.00    -0.000 C 
BRANCH  14  15
ATOM     15  C   UNL     1     171.009 170.073 153.610  1.00  0.00    -0.000 C 
BRANCH  15  16
ATOM     16  C   UNL     1     170.362 171.216 154.413  1.00  0.00    -0.000 C 
BRANCH  16  17
ATOM     17  C   UNL     1     171.036 172.592 154.257  1.00  0.00    -0.000 C 
BRANCH  17  18
ATOM     18  C   UNL     1     170.390 173.458 153.165  1.00  0.00    -0.003 C 
ATOM     19  C   UNL     1     168.982 173.889 153.566  1.00  0.00     0.004 C 
ENDBRANCH  17  18
ENDBRANCH  16  17
ENDBRANCH  15  16
ENDBRANCH  14  15
ENDBRANCH  13  14
ENDBRANCH  12  13
ENDBRANCH   1  12
TORSDOF 14
ENDMDL
MODEL 9
REMARK VINA RESULT:    -3.380     15.326     17.645
REMARK INTER + INTRA:          -8.371
REMARK INTER:                  -5.790
REMARK INTRA:                  -2.581
REMARK UNBOUND:                -2.224
REMARK SMILES CCCCCCCCCCCCCC[C@H](C)C(=O)[O-]
REMARK SMILES IDX 9 1 10 2 11 3 12 4 13 5 14 6 15 7 16 8 17 9 18 10 19 11 8 12
REMARK SMILES IDX 7 13 6 14 5 15 4 16 3 17 2 18 1 19
REMARK H PARENT
REMARK Flexibility Score: inf
ROOT
ATOM      1  C   UNL     1     169.544 169.649 150.808  1.00  0.00     0.000 C 
ENDROOT
BRANCH   1   2
ATOM      2  C   UNL     1     168.846 170.536 151.852  1.00  0.00     0.000 C 
BRANCH   2   3
ATOM      3  C   UNL     1     167.359 170.183 152.023  1.00  0.00     0.000 C 
BRANCH   3   4
ATOM      4  C   UNL     1     166.791 170.658 153.372  1.00  0.00     0.000 C 
BRANCH   4   5
ATOM      5  C   UNL     1     167.784 170.477 154.531  1.00  0.00     0.001 C 
BRANCH   5   6
ATOM      6  C   UNL     1     167.654 169.079 155.153  1.00  0.00     0.009 C 
BRANCH   6   7
ATOM      7  C   UNL     1     169.015 168.360 155.259  1.00  0.00     0.032 C 
ATOM      8  C   UNL     1     170.144 169.373 155.479  1.00  0.00     0.014 C 
BRANCH   7   9
ATOM      9  C   UNL     1     169.300 167.543 154.027  1.00  0.00     0.044 C 
ATOM     10  O   UNL     1     168.352 167.030 153.376  1.00  0.00    -0.550 OA
ATOM     11  O   UNL     1     170.608 167.348 153.600  1.00  0.00    -0.550 OA
ENDBRANCH   7   9
ENDBRANCH   6   7
ENDBRANCH   5   6
ENDBRANCH   4   5
ENDBRANCH   3   4
ENDBRANCH   2   3
ENDBRANCH   1   2
BRANCH   1  12
ATOM     12  C   UNL     1     169.885 170.410 149.514  1.00  0.00     0.000 C 
BRANCH  12  13
ATOM     13  C   UNL     1     170.840 171.594 149.748  1.00  0.00    -0.000 C 
BRANCH  13  14
ATOM     14  C   UNL     1     172.137 171.248 150.503  1.00  0.00    -0.000 C 
BRANCH  14  15
ATOM     15  C   UNL     1     172.428 172.210 151.668  1.00  0.00    -0.000 C 
BRANCH  15  16
ATOM     16  C   UNL     1     172.050 171.622 153.040  1.00  0.00    -0.000 C 
BRANCH  16  17
ATOM     17  C   UNL     1     171.190 172.536 153.932  1.00  0.00    -0.000 C 
BRANCH  17  18
ATOM     18  C   UNL     1     170.533 173.688 153.156  1.00  0.00    -0.003 C 
ATOM     19  C   UNL     1     169.064 173.841 153.537  1.00  0.00     0.004 C 
ENDBRANCH  17  18
ENDBRANCH  16  17
ENDBRANCH  15  16
ENDBRANCH  14  15
ENDBRANCH  13  14
ENDBRANCH  12  13
ENDBRANCH   1  12
TORSDOF 14
ENDMDL
