MODEL 1
REMARK VINA RESULT:    -3.957      0.000      0.000
REMARK INTER + INTRA:          -5.256
REMARK INTER:                  -4.882
REMARK INTRA:                  -0.374
REMARK UNBOUND:                -0.374
REMARK SMILES COC(=O)c1ccccc1C(=O)OC
REMARK SMILES IDX 5 1 6 2 7 3 8 4 9 5 10 6 3 7 4 8 2 9 1 10 11 11 12 12 13 13
REMARK SMILES IDX 14 14
REMARK H PARENT
REMARK Flexibility Score: inf
ROOT
ATOM      1  C   UNL     1      41.171 186.408  33.223  1.00  0.00     0.074 A 
ATOM      2  C   UNL     1      42.390 186.124  33.862  1.00  0.00     0.016 A 
ATOM      3  C   UNL     1      43.080 184.941  33.592  1.00  0.00     0.001 A 
ATOM      4  C   UNL     1      42.562 184.024  32.682  1.00  0.00     0.001 A 
ATOM      5  C   UNL     1      41.364 184.295  32.019  1.00  0.00     0.016 A 
ATOM      6  C   UNL     1      40.664 185.491  32.259  1.00  0.00     0.074 A 
ENDROOT
BRANCH   1   7
ATOM      7  C   UNL     1      40.438 187.626  33.640  1.00  0.00     0.338 C 
ATOM      8  O   UNL     1      40.487 188.673  32.937  1.00  0.00    -0.246 OA
BRANCH   7   9
ATOM      9  O   UNL     1      39.641 187.589  34.790  1.00  0.00    -0.465 OA
ATOM     10  C   UNL     1      38.235 187.377  34.742  1.00  0.00     0.282 C 
ENDBRANCH   7   9
ENDBRANCH   1   7
BRANCH   6  11
ATOM     11  C   UNL     1      39.462 185.765  31.438  1.00  0.00     0.338 C 
ATOM     12  O   UNL     1      38.324 185.380  31.826  1.00  0.00    -0.246 OA
BRANCH  11  13
ATOM     13  O   UNL     1      39.588 186.506  30.258  1.00  0.00    -0.465 OA
ATOM     14  C   UNL     1      38.512 187.256  29.705  1.00  0.00     0.282 C 
ENDBRANCH  11  13
ENDBRANCH   6  11
TORSDOF 4
ENDMDL
MODEL 2
REMARK VINA RESULT:    -3.942      0.052      3.480
REMARK INTER + INTRA:          -5.238
REMARK INTER:                  -4.861
REMARK INTRA:                  -0.377
REMARK UNBOUND:                -0.374
REMARK SMILES COC(=O)c1ccccc1C(=O)OC
REMARK SMILES IDX 5 1 6 2 7 3 8 4 9 5 10 6 3 7 4 8 2 9 1 10 11 11 12 12 13 13
REMARK SMILES IDX 14 14
REMARK H PARENT
REMARK Flexibility Score: inf
ROOT
ATOM      1  C   UNL     1      40.653 185.467  32.288  1.00  0.00     0.074 A 
ATOM      2  C   UNL     1      41.348 184.268  32.047  1.00  0.00     0.016 A 
ATOM      3  C   UNL     1      42.556 184.001  32.692  1.00  0.00     0.001 A 
ATOM      4  C   UNL     1      43.090 184.927  33.585  1.00  0.00     0.001 A 
ATOM      5  C   UNL     1      42.406 186.113  33.855  1.00  0.00     0.016 A 
ATOM      6  C   UNL     1      41.176 186.392  33.235  1.00  0.00     0.074 A 
ENDROOT
BRANCH   1   7
ATOM      7  C   UNL     1      39.436 185.735  31.485  1.00  0.00     0.338 C 
ATOM      8  O   UNL     1      38.303 185.368  31.902  1.00  0.00    -0.246 OA
BRANCH   7   9
ATOM      9  O   UNL     1      39.546 186.450  30.288  1.00  0.00    -0.465 OA
ATOM     10  C   UNL     1      38.502 187.280  29.792  1.00  0.00     0.282 C 
ENDBRANCH   7   9
ENDBRANCH   1   7
BRANCH   6  11
ATOM     11  C   UNL     1      40.451 187.614  33.654  1.00  0.00     0.338 C 
ATOM     12  O   UNL     1      40.489 188.654  32.939  1.00  0.00    -0.246 OA
BRANCH  11  13
ATOM     13  O   UNL     1      39.675 187.590  34.817  1.00  0.00    -0.465 OA
ATOM     14  C   UNL     1      38.274 187.342  34.800  1.00  0.00     0.282 C 
ENDBRANCH  11  13
ENDBRANCH   6  11
TORSDOF 4
ENDMDL
MODEL 3
REMARK VINA RESULT:    -3.755      2.150      4.163
REMARK INTER + INTRA:          -5.007
REMARK INTER:                  -4.602
REMARK INTRA:                  -0.405
REMARK UNBOUND:                -0.374
REMARK SMILES COC(=O)c1ccccc1C(=O)OC
REMARK SMILES IDX 5 1 6 2 7 3 8 4 9 5 10 6 3 7 4 8 2 9 1 10 11 11 12 12 13 13
REMARK SMILES IDX 14 14
REMARK H PARENT
REMARK Flexibility Score: inf
ROOT
ATOM      1  C   UNL     1      40.418 185.315  31.938  1.00  0.00     0.074 A 
ATOM      2  C   UNL     1      40.442 185.819  30.626  1.00  0.00     0.016 A 
ATOM      3  C   UNL     1      39.271 186.264  30.010  1.00  0.00     0.001 A 
ATOM      4  C   UNL     1      38.060 186.211  30.694  1.00  0.00     0.001 A 
ATOM      5  C   UNL     1      38.016 185.735  32.005  1.00  0.00     0.016 A 
ATOM      6  C   UNL     1      39.187 185.303  32.653  1.00  0.00     0.074 A 
ENDROOT
BRANCH   1   7
ATOM      7  C   UNL     1      41.675 184.755  32.488  1.00  0.00     0.338 C 
ATOM      8  O   UNL     1      42.038 183.586  32.186  1.00  0.00    -0.246 OA
BRANCH   7   9
ATOM      9  O   UNL     1      42.488 185.556  33.298  1.00  0.00    -0.465 OA
ATOM     10  C   UNL     1      42.772 185.234  34.655  1.00  0.00     0.282 C 
ENDBRANCH   7   9
ENDBRANCH   1   7
BRANCH   6  11
ATOM     11  C   UNL     1      39.086 184.919  34.080  1.00  0.00     0.338 C 
ATOM     12  O   UNL     1      39.200 183.710  34.424  1.00  0.00    -0.246 OA
BRANCH  11  13
ATOM     13  O   UNL     1      38.923 185.912  35.051  1.00  0.00    -0.465 OA
ATOM     14  C   UNL     1      39.647 187.137  35.024  1.00  0.00     0.282 C 
ENDBRANCH  11  13
ENDBRANCH   6  11
TORSDOF 4
ENDMDL
MODEL 4
REMARK VINA RESULT:    -3.742      2.116      3.953
REMARK INTER + INTRA:          -4.991
REMARK INTER:                  -4.573
REMARK INTRA:                  -0.418
REMARK UNBOUND:                -0.374
REMARK SMILES COC(=O)c1ccccc1C(=O)OC
REMARK SMILES IDX 5 1 6 2 7 3 8 4 9 5 10 6 3 7 4 8 2 9 1 10 11 11 12 12 13 13
REMARK SMILES IDX 14 14
REMARK H PARENT
REMARK Flexibility Score: inf
ROOT
ATOM      1  C   UNL     1      39.342 185.554  32.748  1.00  0.00     0.074 A 
ATOM      2  C   UNL     1      38.213 186.213  32.230  1.00  0.00     0.016 A 
ATOM      3  C   UNL     1      38.190 186.658  30.908  1.00  0.00     0.001 A 
ATOM      4  C   UNL     1      39.293 186.455  30.084  1.00  0.00     0.001 A 
ATOM      5  C   UNL     1      40.416 185.784  30.570  1.00  0.00     0.016 A 
ATOM      6  C   UNL     1      40.452 185.306  31.892  1.00  0.00     0.074 A 
ENDROOT
BRANCH   1   7
ATOM      7  C   UNL     1      39.343 185.210  34.189  1.00  0.00     0.338 C 
ATOM      8  O   UNL     1      38.694 184.212  34.606  1.00  0.00    -0.246 OA
BRANCH   7   9
ATOM      9  O   UNL     1      40.116 185.966  35.077  1.00  0.00    -0.465 OA
ATOM     10  C   UNL     1      40.309 187.367  34.924  1.00  0.00     0.282 C 
ENDBRANCH   7   9
ENDBRANCH   1   7
BRANCH   6  11
ATOM     11  C   UNL     1      41.627 184.505  32.306  1.00  0.00     0.338 C 
ATOM     12  O   UNL     1      41.692 183.276  32.025  1.00  0.00    -0.246 OA
BRANCH  11  13
ATOM     13  O   UNL     1      42.693 185.133  32.960  1.00  0.00    -0.465 OA
ATOM     14  C   UNL     1      43.254 184.630  34.167  1.00  0.00     0.282 C 
ENDBRANCH  11  13
ENDBRANCH   6  11
TORSDOF 4
ENDMDL
MODEL 5
REMARK VINA RESULT:    -3.665      1.607      3.100
REMARK INTER + INTRA:          -4.896
REMARK INTER:                  -4.422
REMARK INTRA:                  -0.474
REMARK UNBOUND:                -0.374
REMARK SMILES COC(=O)c1ccccc1C(=O)OC
REMARK SMILES IDX 5 1 6 2 7 3 8 4 9 5 10 6 3 7 4 8 2 9 1 10 11 11 12 12 13 13
REMARK SMILES IDX 14 14
REMARK H PARENT
REMARK Flexibility Score: inf
ROOT
ATOM      1  C   UNL     1      41.869 184.914  32.669  1.00  0.00     0.074 A 
ATOM      2  C   UNL     1      43.132 184.354  32.408  1.00  0.00     0.016 A 
ATOM      3  C   UNL     1      43.640 183.331  33.210  1.00  0.00     0.001 A 
ATOM      4  C   UNL     1      42.896 182.853  34.285  1.00  0.00     0.001 A 
ATOM      5  C   UNL     1      41.630 183.379  34.549  1.00  0.00     0.016 A 
ATOM      6  C   UNL     1      41.089 184.393  33.740  1.00  0.00     0.074 A 
ENDROOT
BRANCH   1   7
ATOM      7  C   UNL     1      41.441 186.071  31.849  1.00  0.00     0.338 C 
ATOM      8  O   UNL     1      41.722 187.247  32.209  1.00  0.00    -0.246 OA
BRANCH   7   9
ATOM      9  O   UNL     1      40.774 185.848  30.639  1.00  0.00    -0.465 OA
ATOM     10  C   UNL     1      39.404 186.181  30.446  1.00  0.00     0.282 C 
ENDBRANCH   7   9
ENDBRANCH   1   7
BRANCH   6  11
ATOM     11  C   UNL     1      39.698 184.824  34.009  1.00  0.00     0.338 C 
ATOM     12  O   UNL     1      38.726 184.135  33.591  1.00  0.00    -0.246 OA
BRANCH  11  13
ATOM     13  O   UNL     1      39.467 185.968  34.779  1.00  0.00    -0.465 OA
ATOM     14  C   UNL     1      38.741 187.089  34.289  1.00  0.00     0.282 C 
ENDBRANCH  11  13
ENDBRANCH   6  11
TORSDOF 4
ENDMDL
MODEL 6
REMARK VINA RESULT:    -3.652      1.585      2.468
REMARK INTER + INTRA:          -4.881
REMARK INTER:                  -4.402
REMARK INTRA:                  -0.479
REMARK UNBOUND:                -0.374
REMARK SMILES COC(=O)c1ccccc1C(=O)OC
REMARK SMILES IDX 5 1 6 2 7 3 8 4 9 5 10 6 3 7 4 8 2 9 1 10 11 11 12 12 13 13
REMARK SMILES IDX 14 14
REMARK H PARENT
REMARK Flexibility Score: inf
ROOT
ATOM      1  C   UNL     1      40.903 184.385  33.707  1.00  0.00     0.074 A 
ATOM      2  C   UNL     1      41.349 183.304  34.488  1.00  0.00     0.016 A 
ATOM      3  C   UNL     1      42.598 182.725  34.260  1.00  0.00     0.001 A 
ATOM      4  C   UNL     1      43.419 183.214  33.248  1.00  0.00     0.001 A 
ATOM      5  C   UNL     1      43.007 184.301  32.476  1.00  0.00     0.016 A 
ATOM      6  C   UNL     1      41.763 184.915  32.703  1.00  0.00     0.074 A 
ENDROOT
BRANCH   1   7
ATOM      7  C   UNL     1      39.523 184.877  33.928  1.00  0.00     0.338 C 
ATOM      8  O   UNL     1      38.539 184.257  33.439  1.00  0.00    -0.246 OA
BRANCH   7   9
ATOM      9  O   UNL     1      39.315 186.002  34.734  1.00  0.00    -0.465 OA
ATOM     10  C   UNL     1      38.668 187.177  34.258  1.00  0.00     0.282 C 
ENDBRANCH   7   9
ENDBRANCH   1   7
BRANCH   6  11
ATOM     11  C   UNL     1      41.439 186.132  31.923  1.00  0.00     0.338 C 
ATOM     12  O   UNL     1      41.741 187.273  32.369  1.00  0.00    -0.246 OA
BRANCH  11  13
ATOM     13  O   UNL     1      40.849 186.004  30.662  1.00  0.00    -0.465 OA
ATOM     14  C   UNL     1      39.455 186.190  30.445  1.00  0.00     0.282 C 
ENDBRANCH  11  13
ENDBRANCH   6  11
TORSDOF 4
ENDMDL
MODEL 7
REMARK VINA RESULT:    -3.583      2.166      4.196
REMARK INTER + INTRA:          -4.796
REMARK INTER:                  -4.425
REMARK INTRA:                  -0.371
REMARK UNBOUND:                -0.374
REMARK SMILES COC(=O)c1ccccc1C(=O)OC
REMARK SMILES IDX 5 1 6 2 7 3 8 4 9 5 10 6 3 7 4 8 2 9 1 10 11 11 12 12 13 13
REMARK SMILES IDX 14 14
REMARK H PARENT
REMARK Flexibility Score: inf
ROOT
ATOM      1  C   UNL     1      40.699 185.867  32.505  1.00  0.00     0.074 A 
ATOM      2  C   UNL     1      40.892 185.958  31.116  1.00  0.00     0.016 A 
ATOM      3  C   UNL     1      39.807 186.115  30.252  1.00  0.00     0.001 A 
ATOM      4  C   UNL     1      38.514 186.181  30.762  1.00  0.00     0.001 A 
ATOM      5  C   UNL     1      38.300 186.116  32.140  1.00  0.00     0.016 A 
ATOM      6  C   UNL     1      39.381 185.980  33.030  1.00  0.00     0.074 A 
ENDROOT
BRANCH   1   7
ATOM      7  C   UNL     1      41.882 185.587  33.352  1.00  0.00     0.338 C 
ATOM      8  O   UNL     1      42.452 186.521  33.980  1.00  0.00    -0.246 OA
BRANCH   7   9
ATOM      9  O   UNL     1      42.329 184.269  33.497  1.00  0.00    -0.465 OA
ATOM     10  C   UNL     1      43.642 183.860  33.131  1.00  0.00     0.282 C 
ENDBRANCH   7   9
ENDBRANCH   1   7
BRANCH   6  11
ATOM     11  C   UNL     1      39.092 186.031  34.482  1.00  0.00     0.338 C 
ATOM     12  O   UNL     1      39.243 187.107  35.125  1.00  0.00    -0.246 OA
BRANCH  11  13
ATOM     13  O   UNL     1      38.593 184.894  35.125  1.00  0.00    -0.465 OA
ATOM     14  C   UNL     1      39.145 183.597  34.927  1.00  0.00     0.282 C 
ENDBRANCH  11  13
ENDBRANCH   6  11
TORSDOF 4
ENDMDL
MODEL 8
REMARK VINA RESULT:    -3.508      1.985      3.747
REMARK INTER + INTRA:          -4.702
REMARK INTER:                  -4.440
REMARK INTRA:                  -0.263
REMARK UNBOUND:                -0.374
REMARK SMILES COC(=O)c1ccccc1C(=O)OC
REMARK SMILES IDX 5 1 6 2 7 3 8 4 9 5 10 6 3 7 4 8 2 9 1 10 11 11 12 12 13 13
REMARK SMILES IDX 14 14
REMARK H PARENT
REMARK Flexibility Score: inf
ROOT
ATOM      1  C   UNL     1      40.626 185.849  33.388  1.00  0.00     0.074 A 
ATOM      2  C   UNL     1      40.898 186.366  34.667  1.00  0.00     0.016 A 
ATOM      3  C   UNL     1      40.434 187.628  35.041  1.00  0.00     0.001 A 
ATOM      4  C   UNL     1      39.695 188.393  34.144  1.00  0.00     0.001 A 
ATOM      5  C   UNL     1      39.394 187.891  32.877  1.00  0.00     0.016 A 
ATOM      6  C   UNL     1      39.831 186.612  32.488  1.00  0.00     0.074 A 
ENDROOT
BRANCH   1   7
ATOM      7  C   UNL     1      41.244 184.554  33.019  1.00  0.00     0.338 C 
ATOM      8  O   UNL     1      40.657 183.469  33.284  1.00  0.00    -0.246 OA
BRANCH   7   9
ATOM      9  O   UNL     1      42.457 184.544  32.321  1.00  0.00    -0.465 OA
ATOM     10  C   UNL     1      43.619 183.886  32.813  1.00  0.00     0.282 C 
ENDBRANCH   7   9
ENDBRANCH   1   7
BRANCH   6  11
ATOM     11  C   UNL     1      39.380 186.098  31.174  1.00  0.00     0.338 C 
ATOM     12  O   UNL     1      40.203 185.961  30.226  1.00  0.00    -0.246 OA
BRANCH  11  13
ATOM     13  O   UNL     1      38.047 185.709  31.008  1.00  0.00    -0.465 OA
ATOM     14  C   UNL     1      37.292 185.095  32.047  1.00  0.00     0.282 C 
ENDBRANCH  11  13
ENDBRANCH   6  11
TORSDOF 4
ENDMDL
MODEL 9
REMARK VINA RESULT:    -3.397      2.078      3.859
REMARK INTER + INTRA:          -4.566
REMARK INTER:                  -4.262
REMARK INTRA:                  -0.304
REMARK UNBOUND:                -0.374
REMARK SMILES COC(=O)c1ccccc1C(=O)OC
REMARK SMILES IDX 5 1 6 2 7 3 8 4 9 5 10 6 3 7 4 8 2 9 1 10 11 11 12 12 13 13
REMARK SMILES IDX 14 14
REMARK H PARENT
REMARK Flexibility Score: inf
ROOT
ATOM      1  C   UNL     1      39.313 185.974  32.993  1.00  0.00     0.074 A 
ATOM      2  C   UNL     1      38.234 186.121  32.103  1.00  0.00     0.016 A 
ATOM      3  C   UNL     1      38.449 186.192  30.726  1.00  0.00     0.001 A 
ATOM      4  C   UNL     1      39.743 186.119  30.217  1.00  0.00     0.001 A 
ATOM      5  C   UNL     1      40.826 185.950  31.080  1.00  0.00     0.016 A 
ATOM      6  C   UNL     1      40.631 185.853  32.469  1.00  0.00     0.074 A 
ENDROOT
BRANCH   1   7
ATOM      7  C   UNL     1      39.023 186.019  34.445  1.00  0.00     0.338 C 
ATOM      8  O   UNL     1      39.001 184.957  35.125  1.00  0.00    -0.246 OA
BRANCH   7   9
ATOM      9  O   UNL     1      38.833 187.257  35.071  1.00  0.00    -0.465 OA
ATOM     10  C   UNL     1      39.532 188.431  34.674  1.00  0.00     0.282 C 
ENDBRANCH   7   9
ENDBRANCH   1   7
BRANCH   6  11
ATOM     11  C   UNL     1      41.812 185.561  33.315  1.00  0.00     0.338 C 
ATOM     12  O   UNL     1      42.377 186.486  33.962  1.00  0.00    -0.246 OA
BRANCH  11  13
ATOM     13  O   UNL     1      42.261 184.243  33.438  1.00  0.00    -0.465 OA
ATOM     14  C   UNL     1      43.520 183.812  32.935  1.00  0.00     0.282 C 
ENDBRANCH  11  13
ENDBRANCH   6  11
TORSDOF 4
ENDMDL
