MODEL 1
REMARK VINA RESULT:    -5.970      0.000      0.000
REMARK INTER + INTRA:          -8.196
REMARK INTER:                  -7.541
REMARK INTRA:                  -0.656
REMARK UNBOUND:                -0.656
REMARK SMILES O=C(C=Cc1ccc(O)cc1)c1ccc(O)cc1O
REMARK SMILES IDX 4 1 3 2 5 3 6 4 7 5 8 6 11 7 10 8 9 9 2 11 1 12 12 13 18 14
REMARK SMILES IDX 13 15 17 16 14 17 15 18 19 19 16 21
REMARK H PARENT 9 10 19 20 16 22
REMARK Flexibility Score: inf
ROOT
ATOM      1  C   UNL     1      -6.149  26.772  33.666  1.00  0.00     0.012 C 
ATOM      2  C   UNL     1      -6.238  25.476  33.333  1.00  0.00     0.053 C 
ENDROOT
BRANCH   1   3
ATOM      3  C   UNL     1      -4.862  27.482  33.868  1.00  0.00    -0.025 A 
ATOM      4  C   UNL     1      -4.765  28.681  34.605  1.00  0.00     0.012 A 
ATOM      5  C   UNL     1      -3.531  29.319  34.758  1.00  0.00     0.047 A 
ATOM      6  C   UNL     1      -2.381  28.781  34.173  1.00  0.00     0.115 A 
ATOM      7  C   UNL     1      -3.703  26.959  33.271  1.00  0.00     0.012 A 
ATOM      8  C   UNL     1      -2.471  27.600  33.427  1.00  0.00     0.047 A 
BRANCH   6   9
ATOM      9  O   UNL     1      -1.158  29.429  34.335  1.00  0.00    -0.508 OA
ATOM     10  H   UNL     1      -1.025  30.389  34.041  1.00  0.00     0.293 HD
ENDBRANCH   6   9
ENDBRANCH   1   3
BRANCH   2  11
ATOM     11  C   UNL     1      -7.539  24.805  33.123  1.00  0.00     0.189 C 
ATOM     12  O   UNL     1      -8.141  24.930  32.021  1.00  0.00    -0.289 OA
BRANCH  11  13
ATOM     13  C   UNL     1      -8.132  23.942  34.172  1.00  0.00     0.064 A 
ATOM     14  C   UNL     1      -8.703  22.686  33.868  1.00  0.00     0.130 A 
ATOM     15  C   UNL     1      -8.102  24.373  35.510  1.00  0.00     0.020 A 
ATOM     16  C   UNL     1      -9.265  21.908  34.892  1.00  0.00     0.093 A 
ATOM     17  C   UNL     1      -8.658  23.588  36.523  1.00  0.00     0.047 A 
ATOM     18  C   UNL     1      -9.245  22.355  36.215  1.00  0.00     0.119 A 
BRANCH  14  19
ATOM     19  O   UNL     1      -8.688  22.197  32.561  1.00  0.00    -0.507 OA
ATOM     20  H   UNL     1      -9.330  21.475  32.256  1.00  0.00     0.293 HD
ENDBRANCH  14  19
BRANCH  18  21
ATOM     21  O   UNL     1      -9.807  21.567  37.216  1.00  0.00    -0.508 OA
ATOM     22  H   UNL     1     -10.295  20.705  37.001  1.00  0.00     0.293 HD
ENDBRANCH  18  21
ENDBRANCH  11  13
ENDBRANCH   2  11
TORSDOF 6
ENDMDL
MODEL 2
REMARK VINA RESULT:    -5.797      1.807      7.467
REMARK INTER + INTRA:          -7.977
REMARK INTER:                  -7.338
REMARK INTRA:                  -0.639
REMARK UNBOUND:                -0.656
REMARK SMILES O=C(C=Cc1ccc(O)cc1)c1ccc(O)cc1O
REMARK SMILES IDX 4 1 3 2 5 3 6 4 7 5 8 6 11 7 10 8 9 9 2 11 1 12 12 13 18 14
REMARK SMILES IDX 13 15 17 16 14 17 15 18 19 19 16 21
REMARK H PARENT 9 10 19 20 16 22
REMARK Flexibility Score: inf
ROOT
ATOM      1  C   UNL     1      -6.959  26.036  35.136  1.00  0.00     0.012 C 
ATOM      2  C   UNL     1      -6.078  25.780  34.158  1.00  0.00     0.053 C 
ENDROOT
BRANCH   1   3
ATOM      3  C   UNL     1      -7.577  24.985  35.981  1.00  0.00    -0.025 A 
ATOM      4  C   UNL     1      -7.452  24.971  37.386  1.00  0.00     0.012 A 
ATOM      5  C   UNL     1      -8.042  23.951  38.139  1.00  0.00     0.047 A 
ATOM      6  C   UNL     1      -8.754  22.929  37.505  1.00  0.00     0.115 A 
ATOM      7  C   UNL     1      -8.281  23.944  35.354  1.00  0.00     0.012 A 
ATOM      8  C   UNL     1      -8.870  22.926  36.110  1.00  0.00     0.047 A 
BRANCH   6   9
ATOM      9  O   UNL     1      -9.338  21.921  38.269  1.00  0.00    -0.508 OA
ATOM     10  H   UNL     1      -8.783  21.327  38.874  1.00  0.00     0.293 HD
ENDBRANCH   6   9
ENDBRANCH   1   3
BRANCH   2  11
ATOM     11  C   UNL     1      -5.471  26.856  33.345  1.00  0.00     0.189 C 
ATOM     12  O   UNL     1      -6.007  27.201  32.256  1.00  0.00    -0.289 OA
BRANCH  11  13
ATOM     13  C   UNL     1      -4.264  27.579  33.812  1.00  0.00     0.064 A 
ATOM     14  C   UNL     1      -4.339  28.877  34.364  1.00  0.00     0.130 A 
ATOM     15  C   UNL     1      -3.012  26.945  33.727  1.00  0.00     0.020 A 
ATOM     16  C   UNL     1      -3.168  29.529  34.780  1.00  0.00     0.093 A 
ATOM     17  C   UNL     1      -1.852  27.599  34.150  1.00  0.00     0.047 A 
ATOM     18  C   UNL     1      -1.928  28.894  34.673  1.00  0.00     0.119 A 
BRANCH  14  19
ATOM     19  O   UNL     1      -5.573  29.508  34.526  1.00  0.00    -0.507 OA
ATOM     20  H   UNL     1      -6.446  28.999  34.449  1.00  0.00     0.293 HD
ENDBRANCH  14  19
BRANCH  18  21
ATOM     21  O   UNL     1      -0.777  29.558  35.094  1.00  0.00    -0.508 OA
ATOM     22  H   UNL     1       0.148  29.207  34.874  1.00  0.00     0.293 HD
ENDBRANCH  18  21
ENDBRANCH  11  13
ENDBRANCH   2  11
TORSDOF 6
ENDMDL
MODEL 3
REMARK VINA RESULT:    -5.690      2.928      3.936
REMARK INTER + INTRA:          -7.843
REMARK INTER:                  -7.207
REMARK INTRA:                  -0.636
REMARK UNBOUND:                -0.656
REMARK SMILES O=C(C=Cc1ccc(O)cc1)c1ccc(O)cc1O
REMARK SMILES IDX 4 1 3 2 5 3 6 4 7 5 8 6 11 7 10 8 9 9 2 11 1 12 12 13 18 14
REMARK SMILES IDX 13 15 17 16 14 17 15 18 19 19 16 21
REMARK H PARENT 9 10 19 20 16 22
REMARK Flexibility Score: inf
ROOT
ATOM      1  C   UNL     1      -5.284  25.793  33.076  1.00  0.00     0.012 C 
ATOM      2  C   UNL     1      -6.492  25.283  33.351  1.00  0.00     0.053 C 
ENDROOT
BRANCH   1   3
ATOM      3  C   UNL     1      -4.488  25.423  31.880  1.00  0.00    -0.025 A 
ATOM      4  C   UNL     1      -3.359  26.158  31.463  1.00  0.00     0.012 A 
ATOM      5  C   UNL     1      -2.649  25.776  30.320  1.00  0.00     0.047 A 
ATOM      6  C   UNL     1      -3.057  24.668  29.573  1.00  0.00     0.115 A 
ATOM      7  C   UNL     1      -4.899  24.320  31.112  1.00  0.00     0.012 A 
ATOM      8  C   UNL     1      -4.186  23.942  29.971  1.00  0.00     0.047 A 
BRANCH   6   9
ATOM      9  O   UNL     1      -2.338  24.300  28.438  1.00  0.00    -0.508 OA
ATOM     10  H   UNL     1      -2.065  24.982  27.740  1.00  0.00     0.293 HD
ENDBRANCH   6   9
ENDBRANCH   1   3
BRANCH   2  11
ATOM     11  C   UNL     1      -7.264  25.687  34.547  1.00  0.00     0.189 C 
ATOM     12  O   UNL     1      -7.521  26.907  34.747  1.00  0.00    -0.289 OA
BRANCH  11  13
ATOM     13  C   UNL     1      -7.788  24.678  35.496  1.00  0.00     0.064 A 
ATOM     14  C   UNL     1      -7.582  24.786  36.889  1.00  0.00     0.130 A 
ATOM     15  C   UNL     1      -8.535  23.595  34.998  1.00  0.00     0.020 A 
ATOM     16  C   UNL     1      -8.086  23.798  37.749  1.00  0.00     0.093 A 
ATOM     17  C   UNL     1      -9.038  22.620  35.863  1.00  0.00     0.047 A 
ATOM     18  C   UNL     1      -8.810  22.717  37.240  1.00  0.00     0.119 A 
BRANCH  14  19
ATOM     19  O   UNL     1      -6.905  25.882  37.423  1.00  0.00    -0.507 OA
ATOM     20  H   UNL     1      -6.876  26.775  36.943  1.00  0.00     0.293 HD
ENDBRANCH  14  19
BRANCH  18  21
ATOM     21  O   UNL     1      -9.303  21.748  38.112  1.00  0.00    -0.508 OA
ATOM     22  H   UNL     1      -9.931  21.987  38.870  1.00  0.00     0.293 HD
ENDBRANCH  18  21
ENDBRANCH  11  13
ENDBRANCH   2  11
TORSDOF 6
ENDMDL
MODEL 4
REMARK VINA RESULT:    -5.667      2.217      3.675
REMARK INTER + INTRA:          -7.814
REMARK INTER:                  -7.357
REMARK INTRA:                  -0.456
REMARK UNBOUND:                -0.656
REMARK SMILES O=C(C=Cc1ccc(O)cc1)c1ccc(O)cc1O
REMARK SMILES IDX 4 1 3 2 5 3 6 4 7 5 8 6 11 7 10 8 9 9 2 11 1 12 12 13 18 14
REMARK SMILES IDX 13 15 17 16 14 17 15 18 19 19 16 21
REMARK H PARENT 9 10 19 20 16 22
REMARK Flexibility Score: inf
ROOT
ATOM      1  C   UNL     1      -3.613  28.441  35.043  1.00  0.00     0.012 C 
ATOM      2  C   UNL     1      -4.759  28.213  34.386  1.00  0.00     0.053 C 
ENDROOT
BRANCH   1   3
ATOM      3  C   UNL     1      -2.432  29.100  34.431  1.00  0.00    -0.025 A 
ATOM      4  C   UNL     1      -2.266  30.501  34.424  1.00  0.00     0.012 A 
ATOM      5  C   UNL     1      -1.141  31.076  33.823  1.00  0.00     0.047 A 
ATOM      6  C   UNL     1      -0.175  30.268  33.216  1.00  0.00     0.115 A 
ATOM      7  C   UNL     1      -1.464  28.299  33.804  1.00  0.00     0.012 A 
ATOM      8  C   UNL     1      -0.341  28.878  33.206  1.00  0.00     0.047 A 
BRANCH   6   9
ATOM      9  O   UNL     1       0.940  30.856  32.624  1.00  0.00    -0.508 OA
ATOM     10  H   UNL     1       0.874  31.740  32.133  1.00  0.00     0.293 HD
ENDBRANCH   6   9
ENDBRANCH   1   3
BRANCH   2  11
ATOM     11  C   UNL     1      -5.922  27.567  35.033  1.00  0.00     0.189 C 
ATOM     12  O   UNL     1      -6.376  28.030  36.116  1.00  0.00    -0.289 OA
BRANCH  11  13
ATOM     13  C   UNL     1      -6.601  26.409  34.406  1.00  0.00     0.064 A 
ATOM     14  C   UNL     1      -7.551  25.633  35.105  1.00  0.00     0.130 A 
ATOM     15  C   UNL     1      -6.309  26.089  33.068  1.00  0.00     0.020 A 
ATOM     16  C   UNL     1      -8.159  24.536  34.474  1.00  0.00     0.093 A 
ATOM     17  C   UNL     1      -6.924  24.999  32.446  1.00  0.00     0.047 A 
ATOM     18  C   UNL     1      -7.847  24.218  33.151  1.00  0.00     0.119 A 
BRANCH  14  19
ATOM     19  O   UNL     1      -7.914  25.964  36.411  1.00  0.00    -0.507 OA
ATOM     20  H   UNL     1      -7.592  25.424  37.206  1.00  0.00     0.293 HD
ENDBRANCH  14  19
BRANCH  18  21
ATOM     21  O   UNL     1      -8.462  23.126  32.543  1.00  0.00    -0.508 OA
ATOM     22  H   UNL     1      -9.433  23.158  32.253  1.00  0.00     0.293 HD
ENDBRANCH  18  21
ENDBRANCH  11  13
ENDBRANCH   2  11
TORSDOF 6
ENDMDL
MODEL 5
REMARK VINA RESULT:    -5.613      2.865      4.300
REMARK INTER + INTRA:          -7.745
REMARK INTER:                  -7.195
REMARK INTRA:                  -0.550
REMARK UNBOUND:                -0.656
REMARK SMILES O=C(C=Cc1ccc(O)cc1)c1ccc(O)cc1O
REMARK SMILES IDX 4 1 3 2 5 3 6 4 7 5 8 6 11 7 10 8 9 9 2 11 1 12 12 13 18 14
REMARK SMILES IDX 13 15 17 16 14 17 15 18 19 19 16 21
REMARK H PARENT 9 10 19 20 16 22
REMARK Flexibility Score: inf
ROOT
ATOM      1  C   UNL     1      -2.988  28.720  34.367  1.00  0.00     0.012 C 
ATOM      2  C   UNL     1      -4.195  29.119  34.792  1.00  0.00     0.053 C 
ENDROOT
BRANCH   1   3
ATOM      3  C   UNL     1      -1.732  29.458  34.649  1.00  0.00    -0.025 A 
ATOM      4  C   UNL     1      -0.498  28.805  34.849  1.00  0.00     0.012 A 
ATOM      5  C   UNL     1       0.657  29.545  35.124  1.00  0.00     0.047 A 
ATOM      6  C   UNL     1       0.597  30.938  35.214  1.00  0.00     0.115 A 
ATOM      7  C   UNL     1      -1.783  30.858  34.758  1.00  0.00     0.012 A 
ATOM      8  C   UNL     1      -0.627  31.593  35.033  1.00  0.00     0.047 A 
BRANCH   6   9
ATOM      9  O   UNL     1       1.757  31.660  35.488  1.00  0.00    -0.508 OA
ATOM     10  H   UNL     1       2.672  31.306  35.237  1.00  0.00     0.293 HD
ENDBRANCH   6   9
ENDBRANCH   1   3
BRANCH   2  11
ATOM     11  C   UNL     1      -5.424  28.348  34.505  1.00  0.00     0.189 C 
ATOM     12  O   UNL     1      -5.882  28.309  33.330  1.00  0.00    -0.289 OA
BRANCH  11  13
ATOM     13  C   UNL     1      -6.107  27.573  35.568  1.00  0.00     0.064 A 
ATOM     14  C   UNL     1      -6.983  26.507  35.267  1.00  0.00     0.130 A 
ATOM     15  C   UNL     1      -5.858  27.893  36.914  1.00  0.00     0.020 A 
ATOM     16  C   UNL     1      -7.619  25.810  36.307  1.00  0.00     0.093 A 
ATOM     17  C   UNL     1      -6.490  27.190  37.943  1.00  0.00     0.047 A 
ATOM     18  C   UNL     1      -7.376  26.149  37.640  1.00  0.00     0.119 A 
BRANCH  14  19
ATOM     19  O   UNL     1      -7.201  26.119  33.945  1.00  0.00    -0.507 OA
ATOM     20  H   UNL     1      -6.979  26.730  33.168  1.00  0.00     0.293 HD
ENDBRANCH  14  19
BRANCH  18  21
ATOM     21  O   UNL     1      -8.016  25.444  38.657  1.00  0.00    -0.508 OA
ATOM     22  H   UNL     1      -7.522  25.155  39.494  1.00  0.00     0.293 HD
ENDBRANCH  18  21
ENDBRANCH  11  13
ENDBRANCH   2  11
TORSDOF 6
ENDMDL
MODEL 6
REMARK VINA RESULT:    -5.491      3.552      4.379
REMARK INTER + INTRA:          -7.591
REMARK INTER:                  -6.977
REMARK INTRA:                  -0.614
REMARK UNBOUND:                -0.656
REMARK SMILES O=C(C=Cc1ccc(O)cc1)c1ccc(O)cc1O
REMARK SMILES IDX 4 1 3 2 5 3 6 4 7 5 8 6 11 7 10 8 9 9 2 11 1 12 12 13 18 14
REMARK SMILES IDX 13 15 17 16 14 17 15 18 19 19 16 21
REMARK H PARENT 9 10 19 20 16 22
REMARK Flexibility Score: inf
ROOT
ATOM      1  C   UNL     1      -4.972  24.406  31.037  1.00  0.00     0.012 C 
ATOM      2  C   UNL     1      -5.331  24.895  32.232  1.00  0.00     0.053 C 
ENDROOT
BRANCH   1   3
ATOM      3  C   UNL     1      -3.561  24.227  30.613  1.00  0.00    -0.025 A 
ATOM      4  C   UNL     1      -3.161  24.299  29.262  1.00  0.00     0.012 A 
ATOM      5  C   UNL     1      -1.820  24.111  28.911  1.00  0.00     0.047 A 
ATOM      6  C   UNL     1      -0.865  23.840  29.894  1.00  0.00     0.115 A 
ATOM      7  C   UNL     1      -2.595  23.938  31.591  1.00  0.00     0.012 A 
ATOM      8  C   UNL     1      -1.256  23.751  31.235  1.00  0.00     0.047 A 
BRANCH   6   9
ATOM      9  O   UNL     1       0.467  23.656  29.529  1.00  0.00    -0.508 OA
ATOM     10  H   UNL     1       0.724  23.069  28.744  1.00  0.00     0.293 HD
ENDBRANCH   6   9
ENDBRANCH   1   3
BRANCH   2  11
ATOM     11  C   UNL     1      -6.749  25.045  32.627  1.00  0.00     0.189 C 
ATOM     12  O   UNL     1      -7.656  24.981  31.751  1.00  0.00    -0.289 OA
BRANCH  11  13
ATOM     13  C   UNL     1      -7.133  25.218  34.047  1.00  0.00     0.064 A 
ATOM     14  C   UNL     1      -7.965  24.291  34.713  1.00  0.00     0.130 A 
ATOM     15  C   UNL     1      -6.636  26.324  34.759  1.00  0.00     0.020 A 
ATOM     16  C   UNL     1      -8.314  24.505  36.056  1.00  0.00     0.093 A 
ATOM     17  C   UNL     1      -6.984  26.524  36.098  1.00  0.00     0.047 A 
ATOM     18  C   UNL     1      -7.828  25.616  36.747  1.00  0.00     0.119 A 
BRANCH  14  19
ATOM     19  O   UNL     1      -8.421  23.148  34.057  1.00  0.00    -0.507 OA
ATOM     20  H   UNL     1      -9.130  22.549  34.463  1.00  0.00     0.293 HD
ENDBRANCH  14  19
BRANCH  18  21
ATOM     21  O   UNL     1      -8.185  25.809  38.080  1.00  0.00    -0.508 OA
ATOM     22  H   UNL     1      -8.581  26.685  38.402  1.00  0.00     0.293 HD
ENDBRANCH  18  21
ENDBRANCH  11  13
ENDBRANCH   2  11
TORSDOF 6
ENDMDL
MODEL 7
REMARK VINA RESULT:    -5.433      3.506      4.609
REMARK INTER + INTRA:          -7.517
REMARK INTER:                  -6.885
REMARK INTRA:                  -0.632
REMARK UNBOUND:                -0.656
REMARK SMILES O=C(C=Cc1ccc(O)cc1)c1ccc(O)cc1O
REMARK SMILES IDX 4 1 3 2 5 3 6 4 7 5 8 6 11 7 10 8 9 9 2 11 1 12 12 13 18 14
REMARK SMILES IDX 13 15 17 16 14 17 15 18 19 19 16 21
REMARK H PARENT 9 10 19 20 16 22
REMARK Flexibility Score: inf
ROOT
ATOM      1  C   UNL     1      -4.463  25.572  32.204  1.00  0.00     0.012 C 
ATOM      2  C   UNL     1      -5.675  26.140  32.274  1.00  0.00     0.053 C 
ENDROOT
BRANCH   1   3
ATOM      3  C   UNL     1      -3.840  25.119  30.935  1.00  0.00    -0.025 A 
ATOM      4  C   UNL     1      -4.288  23.978  30.237  1.00  0.00     0.012 A 
ATOM      5  C   UNL     1      -3.659  23.583  29.051  1.00  0.00     0.047 A 
ATOM      6  C   UNL     1      -2.575  24.310  28.551  1.00  0.00     0.115 A 
ATOM      7  C   UNL     1      -2.740  25.832  30.433  1.00  0.00     0.012 A 
ATOM      8  C   UNL     1      -2.115  25.435  29.247  1.00  0.00     0.047 A 
BRANCH   6   9
ATOM      9  O   UNL     1      -1.961  23.905  27.368  1.00  0.00    -0.508 OA
ATOM     10  H   UNL     1      -1.953  22.933  27.083  1.00  0.00     0.293 HD
ENDBRANCH   6   9
ENDBRANCH   1   3
BRANCH   2  11
ATOM     11  C   UNL     1      -6.258  26.594  33.555  1.00  0.00     0.189 C 
ATOM     12  O   UNL     1      -6.095  27.788  33.932  1.00  0.00    -0.289 OA
BRANCH  11  13
ATOM     13  C   UNL     1      -7.078  25.684  34.388  1.00  0.00     0.064 A 
ATOM     14  C   UNL     1      -7.177  25.840  35.788  1.00  0.00     0.130 A 
ATOM     15  C   UNL     1      -7.798  24.649  33.764  1.00  0.00     0.020 A 
ATOM     16  C   UNL     1      -7.955  24.944  36.538  1.00  0.00     0.093 A 
ATOM     17  C   UNL     1      -8.575  23.767  34.518  1.00  0.00     0.047 A 
ATOM     18  C   UNL     1      -8.651  23.910  35.908  1.00  0.00     0.119 A 
BRANCH  14  19
ATOM     19  O   UNL     1      -6.531  26.896  36.431  1.00  0.00    -0.507 OA
ATOM     20  H   UNL     1      -6.566  27.842  36.068  1.00  0.00     0.293 HD
ENDBRANCH  14  19
BRANCH  18  21
ATOM     21  O   UNL     1      -9.418  23.033  36.671  1.00  0.00    -0.508 OA
ATOM     22  H   UNL     1      -9.257  22.032  36.651  1.00  0.00     0.293 HD
ENDBRANCH  18  21
ENDBRANCH  11  13
ENDBRANCH   2  11
TORSDOF 6
ENDMDL
MODEL 8
REMARK VINA RESULT:    -5.425      2.001      7.516
REMARK INTER + INTRA:          -7.508
REMARK INTER:                  -6.932
REMARK INTRA:                  -0.576
REMARK UNBOUND:                -0.656
REMARK SMILES O=C(C=Cc1ccc(O)cc1)c1ccc(O)cc1O
REMARK SMILES IDX 4 1 3 2 5 3 6 4 7 5 8 6 11 7 10 8 9 9 2 11 1 12 12 13 18 14
REMARK SMILES IDX 13 15 17 16 14 17 15 18 19 19 16 21
REMARK H PARENT 9 10 19 20 16 22
REMARK Flexibility Score: inf
ROOT
ATOM      1  C   UNL     1      -6.662  25.948  35.224  1.00  0.00     0.012 C 
ATOM      2  C   UNL     1      -6.287  26.030  33.940  1.00  0.00     0.053 C 
ENDROOT
BRANCH   1   3
ATOM      3  C   UNL     1      -7.471  24.832  35.775  1.00  0.00    -0.025 A 
ATOM      4  C   UNL     1      -8.244  23.982  34.957  1.00  0.00     0.012 A 
ATOM      5  C   UNL     1      -8.999  22.951  35.525  1.00  0.00     0.047 A 
ATOM      6  C   UNL     1      -9.003  22.759  36.910  1.00  0.00     0.115 A 
ATOM      7  C   UNL     1      -7.494  24.640  37.166  1.00  0.00     0.012 A 
ATOM      8  C   UNL     1      -8.250  23.608  37.729  1.00  0.00     0.047 A 
BRANCH   6   9
ATOM      9  O   UNL     1      -9.760  21.726  37.460  1.00  0.00    -0.508 OA
ATOM     10  H   UNL     1      -9.870  21.627  38.462  1.00  0.00     0.293 HD
ENDBRANCH   6   9
ENDBRANCH   1   3
BRANCH   2  11
ATOM     11  C   UNL     1      -5.468  27.150  33.429  1.00  0.00     0.189 C 
ATOM     12  O   UNL     1      -5.984  28.293  33.284  1.00  0.00    -0.289 OA
BRANCH  11  13
ATOM     13  C   UNL     1      -4.027  26.970  33.131  1.00  0.00     0.064 A 
ATOM     14  C   UNL     1      -3.022  27.371  34.039  1.00  0.00     0.130 A 
ATOM     15  C   UNL     1      -3.651  26.360  31.921  1.00  0.00     0.020 A 
ATOM     16  C   UNL     1      -1.670  27.194  33.707  1.00  0.00     0.093 A 
ATOM     17  C   UNL     1      -2.302  26.182  31.603  1.00  0.00     0.047 A 
ATOM     18  C   UNL     1      -1.309  26.603  32.494  1.00  0.00     0.119 A 
BRANCH  14  19
ATOM     19  O   UNL     1      -3.361  27.917  35.277  1.00  0.00    -0.507 OA
ATOM     20  H   UNL     1      -3.055  27.496  36.146  1.00  0.00     0.293 HD
ENDBRANCH  14  19
BRANCH  18  21
ATOM     21  O   UNL     1       0.039  26.435  32.185  1.00  0.00    -0.508 OA
ATOM     22  H   UNL     1       0.714  27.176  32.336  1.00  0.00     0.293 HD
ENDBRANCH  18  21
ENDBRANCH  11  13
ENDBRANCH   2  11
TORSDOF 6
ENDMDL
MODEL 9
REMARK VINA RESULT:    -5.343      3.912     10.122
REMARK INTER + INTRA:          -7.404
REMARK INTER:                  -6.784
REMARK INTRA:                  -0.620
REMARK UNBOUND:                -0.656
REMARK SMILES O=C(C=Cc1ccc(O)cc1)c1ccc(O)cc1O
REMARK SMILES IDX 4 1 3 2 5 3 6 4 7 5 8 6 11 7 10 8 9 9 2 11 1 12 12 13 18 14
REMARK SMILES IDX 13 15 17 16 14 17 15 18 19 19 16 21
REMARK H PARENT 9 10 19 20 16 22
REMARK Flexibility Score: inf
ROOT
ATOM      1  C   UNL     1      -2.142  29.099  34.712  1.00  0.00     0.012 C 
ATOM      2  C   UNL     1      -1.806  30.392  34.602  1.00  0.00     0.053 C 
ENDROOT
BRANCH   1   3
ATOM      3  C   UNL     1      -3.544  28.617  34.778  1.00  0.00    -0.025 A 
ATOM      4  C   UNL     1      -4.360  28.812  35.911  1.00  0.00     0.012 A 
ATOM      5  C   UNL     1      -5.672  28.327  35.930  1.00  0.00     0.047 A 
ATOM      6  C   UNL     1      -6.185  27.636  34.828  1.00  0.00     0.115 A 
ATOM      7  C   UNL     1      -4.064  27.907  33.683  1.00  0.00     0.012 A 
ATOM      8  C   UNL     1      -5.376  27.425  33.705  1.00  0.00     0.047 A 
BRANCH   6   9
ATOM      9  O   UNL     1      -7.494  27.161  34.862  1.00  0.00    -0.508 OA
ATOM     10  H   UNL     1      -8.131  27.311  34.088  1.00  0.00     0.293 HD
ENDBRANCH   6   9
ENDBRANCH   1   3
BRANCH   2  11
ATOM     11  C   UNL     1      -0.397  30.835  34.524  1.00  0.00     0.189 C 
ATOM     12  O   UNL     1       0.327  30.461  33.560  1.00  0.00    -0.289 OA
BRANCH  11  13
ATOM     13  C   UNL     1       0.172  31.757  35.534  1.00  0.00     0.064 A 
ATOM     14  C   UNL     1       1.474  31.582  36.054  1.00  0.00     0.130 A 
ATOM     15  C   UNL     1      -0.595  32.852  35.970  1.00  0.00     0.020 A 
ATOM     16  C   UNL     1       1.966  32.472  37.020  1.00  0.00     0.093 A 
ATOM     17  C   UNL     1      -0.094  33.737  36.927  1.00  0.00     0.047 A 
ATOM     18  C   UNL     1       1.187  33.546  37.458  1.00  0.00     0.119 A 
BRANCH  14  19
ATOM     19  O   UNL     1       2.287  30.546  35.594  1.00  0.00    -0.507 OA
ATOM     20  H   UNL     1       1.904  29.647  35.325  1.00  0.00     0.293 HD
ENDBRANCH  14  19
BRANCH  18  21
ATOM     21  O   UNL     1       1.695  34.419  38.417  1.00  0.00    -0.508 OA
ATOM     22  H   UNL     1       1.829  34.130  39.379  1.00  0.00     0.293 HD
ENDBRANCH  18  21
ENDBRANCH  11  13
ENDBRANCH   2  11
TORSDOF 6
ENDMDL
