MODEL 1
REMARK VINA RESULT:    -3.896      0.000      0.000
REMARK INTER + INTRA:          -6.826
REMARK INTER:                  -5.945
REMARK INTRA:                  -0.881
REMARK UNBOUND:                -0.881
REMARK SMILES CCCCCCCCCCC(=O)[O-]
REMARK SMILES IDX 7 1 8 2 9 3 10 4 11 5 12 6 13 7 6 8 5 9 4 10 3 11 2 12 1 13
REMARK H PARENT
REMARK Flexibility Score: inf
ROOT
ATOM      1  C   UNL     1      31.673  78.083  10.675  1.00  0.00     0.000 C 
ENDROOT
BRANCH   1   2
ATOM      2  C   UNL     1      32.762  78.876  11.411  1.00  0.00     0.000 C 
BRANCH   2   3
ATOM      3  C   UNL     1      32.936  78.432  12.872  1.00  0.00     0.006 C 
BRANCH   3   4
ATOM      4  C   UNL     1      31.979  79.156  13.828  1.00  0.00     0.053 C 
BRANCH   4   5
ATOM      5  C   UNL     1      32.641  79.392  15.148  1.00  0.00     0.041 C 
ATOM      6  O   UNL     1      32.465  80.477  15.761  1.00  0.00    -0.550 OA
ATOM      7  O   UNL     1      33.415  78.394  15.726  1.00  0.00    -0.550 OA
ENDBRANCH   4   5
ENDBRANCH   3   4
ENDBRANCH   2   3
ENDBRANCH   1   2
BRANCH   1   8
ATOM      8  C   UNL     1      32.057  77.860   9.205  1.00  0.00     0.000 C 
BRANCH   8   9
ATOM      9  C   UNL     1      33.577  77.909   8.977  1.00  0.00    -0.000 C 
BRANCH   9  10
ATOM     10  C   UNL     1      34.158  76.544   8.573  1.00  0.00    -0.000 C 
BRANCH  10  11
ATOM     11  C   UNL     1      35.441  76.188   9.348  1.00  0.00    -0.000 C 
BRANCH  11  12
ATOM     12  C   UNL     1      35.341  76.368  10.874  1.00  0.00    -0.003 C 
ATOM     13  C   UNL     1      36.302  77.425  11.416  1.00  0.00     0.004 C 
ENDBRANCH  11  12
ENDBRANCH  10  11
ENDBRANCH   9  10
ENDBRANCH   8   9
ENDBRANCH   1   8
TORSDOF 9
ENDMDL
MODEL 2
REMARK VINA RESULT:    -3.881      9.697     12.918
REMARK INTER + INTRA:          -6.803
REMARK INTER:                  -6.396
REMARK INTRA:                  -0.408
REMARK UNBOUND:                -0.881
REMARK SMILES CCCCCCCCCCC(=O)[O-]
REMARK SMILES IDX 7 1 8 2 9 3 10 4 11 5 12 6 13 7 6 8 5 9 4 10 3 11 2 12 1 13
REMARK H PARENT
REMARK Flexibility Score: inf
ROOT
ATOM      1  C   UNL     1      35.757  82.145  22.959  1.00  0.00     0.000 C 
ENDROOT
BRANCH   1   2
ATOM      2  C   UNL     1      36.884  81.562  23.824  1.00  0.00     0.000 C 
BRANCH   2   3
ATOM      3  C   UNL     1      38.063  82.533  23.995  1.00  0.00     0.006 C 
BRANCH   3   4
ATOM      4  C   UNL     1      38.833  82.304  25.303  1.00  0.00     0.053 C 
BRANCH   4   5
ATOM      5  C   UNL     1      39.945  81.327  25.088  1.00  0.00     0.041 C 
ATOM      6  O   UNL     1      39.936  80.216  25.680  1.00  0.00    -0.550 OA
ATOM      7  O   UNL     1      40.968  81.624  24.196  1.00  0.00    -0.550 OA
ENDBRANCH   4   5
ENDBRANCH   3   4
ENDBRANCH   2   3
ENDBRANCH   1   2
BRANCH   1   8
ATOM      8  C   UNL     1      35.188  81.080  22.010  1.00  0.00     0.000 C 
BRANCH   8   9
ATOM      9  C   UNL     1      33.735  80.705  22.346  1.00  0.00    -0.000 C 
BRANCH   9  10
ATOM     10  C   UNL     1      32.811  81.931  22.421  1.00  0.00    -0.000 C 
BRANCH  10  11
ATOM     11  C   UNL     1      31.618  81.839  21.451  1.00  0.00    -0.000 C 
BRANCH  11  12
ATOM     12  C   UNL     1      31.814  80.859  20.281  1.00  0.00    -0.003 C 
ATOM     13  C   UNL     1      31.636  81.516  18.913  1.00  0.00     0.004 C 
ENDBRANCH  11  12
ENDBRANCH  10  11
ENDBRANCH   9  10
ENDBRANCH   8   9
ENDBRANCH   1   8
TORSDOF 9
ENDMDL
MODEL 3
REMARK VINA RESULT:    -3.873     10.803     13.646
REMARK INTER + INTRA:          -6.792
REMARK INTER:                  -6.015
REMARK INTRA:                  -0.777
REMARK UNBOUND:                -0.881
REMARK SMILES CCCCCCCCCCC(=O)[O-]
REMARK SMILES IDX 7 1 8 2 9 3 10 4 11 5 12 6 13 7 6 8 5 9 4 10 3 11 2 12 1 13
REMARK H PARENT
REMARK Flexibility Score: inf
ROOT
ATOM      1  C   UNL     1      46.178  71.728  12.695  1.00  0.00     0.000 C 
ENDROOT
BRANCH   1   2
ATOM      2  C   UNL     1      46.407  71.972  11.196  1.00  0.00     0.000 C 
BRANCH   2   3
ATOM      3  C   UNL     1      45.387  72.951  10.593  1.00  0.00     0.006 C 
BRANCH   3   4
ATOM      4  C   UNL     1      44.785  72.441   9.277  1.00  0.00     0.053 C 
BRANCH   4   5
ATOM      5  C   UNL     1      43.583  73.248   8.906  1.00  0.00     0.041 C 
ATOM      6  O   UNL     1      43.005  73.058   7.804  1.00  0.00    -0.550 OA
ATOM      7  O   UNL     1      43.070  74.181   9.799  1.00  0.00    -0.550 OA
ENDBRANCH   4   5
ENDBRANCH   3   4
ENDBRANCH   2   3
ENDBRANCH   1   2
BRANCH   1   8
ATOM      8  C   UNL     1      47.378  72.220  13.519  1.00  0.00     0.000 C 
BRANCH   8   9
ATOM      9  C   UNL     1      46.994  73.319  14.523  1.00  0.00    -0.000 C 
BRANCH   9  10
ATOM     10  C   UNL     1      45.510  73.713  14.429  1.00  0.00    -0.000 C 
BRANCH  10  11
ATOM     11  C   UNL     1      45.299  75.089  13.770  1.00  0.00    -0.000 C 
BRANCH  11  12
ATOM     12  C   UNL     1      43.930  75.275  13.093  1.00  0.00    -0.003 C 
ATOM     13  C   UNL     1      42.761  75.195  14.074  1.00  0.00     0.004 C 
ENDBRANCH  11  12
ENDBRANCH  10  11
ENDBRANCH   9  10
ENDBRANCH   8   9
ENDBRANCH   1   8
TORSDOF 9
ENDMDL
MODEL 4
REMARK VINA RESULT:    -3.848      1.601      2.671
REMARK INTER + INTRA:          -6.754
REMARK INTER:                  -6.042
REMARK INTRA:                  -0.712
REMARK UNBOUND:                -0.881
REMARK SMILES CCCCCCCCCCC(=O)[O-]
REMARK SMILES IDX 7 1 8 2 9 3 10 4 11 5 12 6 13 7 6 8 5 9 4 10 3 11 2 12 1 13
REMARK H PARENT
REMARK Flexibility Score: inf
ROOT
ATOM      1  C   UNL     1      32.625  78.095  13.688  1.00  0.00     0.000 C 
ENDROOT
BRANCH   1   2
ATOM      2  C   UNL     1      32.667  79.224  14.727  1.00  0.00     0.000 C 
BRANCH   2   3
ATOM      3  C   UNL     1      31.304  79.911  14.912  1.00  0.00     0.006 C 
BRANCH   3   4
ATOM      4  C   UNL     1      31.421  81.438  15.008  1.00  0.00     0.053 C 
BRANCH   4   5
ATOM      5  C   UNL     1      32.174  81.826  16.241  1.00  0.00     0.041 C 
ATOM      6  O   UNL     1      33.111  82.665  16.175  1.00  0.00    -0.550 OA
ATOM      7  O   UNL     1      31.809  81.298  17.473  1.00  0.00    -0.550 OA
ENDBRANCH   4   5
ENDBRANCH   3   4
ENDBRANCH   2   3
ENDBRANCH   1   2
BRANCH   1   8
ATOM      8  C   UNL     1      31.790  78.505  12.466  1.00  0.00     0.000 C 
BRANCH   8   9
ATOM      9  C   UNL     1      32.656  79.002  11.297  1.00  0.00    -0.000 C 
BRANCH   9  10
ATOM     10  C   UNL     1      32.911  77.910  10.245  1.00  0.00    -0.000 C 
BRANCH  10  11
ATOM     11  C   UNL     1      34.409  77.667   9.986  1.00  0.00    -0.000 C 
BRANCH  11  12
ATOM     12  C   UNL     1      35.146  76.928  11.118  1.00  0.00    -0.003 C 
ATOM     13  C   UNL     1      36.424  77.638  11.563  1.00  0.00     0.004 C 
ENDBRANCH  11  12
ENDBRANCH  10  11
ENDBRANCH   9  10
ENDBRANCH   8   9
ENDBRANCH   1   8
TORSDOF 9
ENDMDL
MODEL 5
REMARK VINA RESULT:    -3.823      3.814      5.550
REMARK INTER + INTRA:          -6.716
REMARK INTER:                  -5.322
REMARK INTRA:                  -1.394
REMARK UNBOUND:                -0.881
REMARK SMILES CCCCCCCCCCC(=O)[O-]
REMARK SMILES IDX 7 1 8 2 9 3 10 4 11 5 12 6 13 7 6 8 5 9 4 10 3 11 2 12 1 13
REMARK H PARENT
REMARK Flexibility Score: inf
ROOT
ATOM      1  C   UNL     1      32.191  77.749   8.501  1.00  0.00     0.000 C 
ENDROOT
BRANCH   1   2
ATOM      2  C   UNL     1      31.941  76.255   8.249  1.00  0.00     0.000 C 
BRANCH   2   3
ATOM      3  C   UNL     1      33.241  75.462   8.043  1.00  0.00     0.006 C 
BRANCH   3   4
ATOM      4  C   UNL     1      34.479  76.365   7.971  1.00  0.00     0.053 C 
BRANCH   4   5
ATOM      5  C   UNL     1      35.728  75.546   8.049  1.00  0.00     0.041 C 
ATOM      6  O   UNL     1      36.131  74.906   7.042  1.00  0.00    -0.550 OA
ATOM      7  O   UNL     1      36.474  75.526   9.220  1.00  0.00    -0.550 OA
ENDBRANCH   4   5
ENDBRANCH   3   4
ENDBRANCH   2   3
ENDBRANCH   1   2
BRANCH   1   8
ATOM      8  C   UNL     1      31.274  78.278   9.613  1.00  0.00     0.000 C 
BRANCH   8   9
ATOM      9  C   UNL     1      32.008  78.452  10.952  1.00  0.00    -0.000 C 
BRANCH   9  10
ATOM     10  C   UNL     1      33.537  78.464  10.791  1.00  0.00    -0.000 C 
BRANCH  10  11
ATOM     11  C   UNL     1      34.229  77.334  11.575  1.00  0.00    -0.000 C 
BRANCH  11  12
ATOM     12  C   UNL     1      33.321  76.139  11.918  1.00  0.00    -0.003 C 
ATOM     13  C   UNL     1      33.960  74.789  11.592  1.00  0.00     0.004 C 
ENDBRANCH  11  12
ENDBRANCH  10  11
ENDBRANCH   9  10
ENDBRANCH   8   9
ENDBRANCH   1   8
TORSDOF 9
ENDMDL
MODEL 6
REMARK VINA RESULT:    -3.759      4.095      5.933
REMARK INTER + INTRA:          -6.618
REMARK INTER:                  -5.557
REMARK INTRA:                  -1.061
REMARK UNBOUND:                -0.881
REMARK SMILES CCCCCCCCCCC(=O)[O-]
REMARK SMILES IDX 7 1 8 2 9 3 10 4 11 5 12 6 13 7 6 8 5 9 4 10 3 11 2 12 1 13
REMARK H PARENT
REMARK Flexibility Score: inf
ROOT
ATOM      1  C   UNL     1      34.124  78.210  10.351  1.00  0.00     0.000 C 
ENDROOT
BRANCH   1   2
ATOM      2  C   UNL     1      35.201  77.429  11.117  1.00  0.00     0.000 C 
BRANCH   2   3
ATOM      3  C   UNL     1      35.991  76.466  10.216  1.00  0.00     0.006 C 
BRANCH   3   4
ATOM      4  C   UNL     1      35.151  75.924   9.052  1.00  0.00     0.053 C 
BRANCH   4   5
ATOM      5  C   UNL     1      36.036  75.328   8.004  1.00  0.00     0.041 C 
ATOM      6  O   UNL     1      35.610  75.167   6.830  1.00  0.00    -0.550 OA
ATOM      7  O   UNL     1      37.349  74.995   8.311  1.00  0.00    -0.550 OA
ENDBRANCH   4   5
ENDBRANCH   3   4
ENDBRANCH   2   3
ENDBRANCH   1   2
BRANCH   1   8
ATOM      8  C   UNL     1      32.970  78.609  11.282  1.00  0.00     0.000 C 
BRANCH   8   9
ATOM      9  C   UNL     1      33.132  78.041  12.701  1.00  0.00    -0.000 C 
BRANCH   9  10
ATOM     10  C   UNL     1      31.979  77.104  13.098  1.00  0.00    -0.000 C 
BRANCH  10  11
ATOM     11  C   UNL     1      31.836  75.899  12.149  1.00  0.00    -0.000 C 
BRANCH  11  12
ATOM     12  C   UNL     1      33.005  74.900  12.198  1.00  0.00    -0.003 C 
ATOM     13  C   UNL     1      32.871  73.772  11.176  1.00  0.00     0.004 C 
ENDBRANCH  11  12
ENDBRANCH  10  11
ENDBRANCH   9  10
ENDBRANCH   8   9
ENDBRANCH   1   8
TORSDOF 9
ENDMDL
MODEL 7
REMARK VINA RESULT:    -3.733      4.563      6.623
REMARK INTER + INTRA:          -6.577
REMARK INTER:                  -5.483
REMARK INTRA:                  -1.094
REMARK UNBOUND:                -0.881
REMARK SMILES CCCCCCCCCCC(=O)[O-]
REMARK SMILES IDX 7 1 8 2 9 3 10 4 11 5 12 6 13 7 6 8 5 9 4 10 3 11 2 12 1 13
REMARK H PARENT
REMARK Flexibility Score: inf
ROOT
ATOM      1  C   UNL     1      35.443  76.572   9.918  1.00  0.00     0.000 C 
ENDROOT
BRANCH   1   2
ATOM      2  C   UNL     1      34.434  76.855   8.795  1.00  0.00     0.000 C 
BRANCH   2   3
ATOM      3  C   UNL     1      34.007  75.582   8.047  1.00  0.00     0.006 C 
BRANCH   3   4
ATOM      4  C   UNL     1      34.684  75.448   6.676  1.00  0.00     0.053 C 
BRANCH   4   5
ATOM      5  C   UNL     1      35.791  74.445   6.737  1.00  0.00     0.041 C 
ATOM      6  O   UNL     1      36.910  74.762   7.218  1.00  0.00    -0.550 OA
ATOM      7  O   UNL     1      35.572  73.142   6.305  1.00  0.00    -0.550 OA
ENDBRANCH   4   5
ENDBRANCH   3   4
ENDBRANCH   2   3
ENDBRANCH   1   2
BRANCH   1   8
ATOM      8  C   UNL     1      35.224  77.524  11.103  1.00  0.00     0.000 C 
BRANCH   8   9
ATOM      9  C   UNL     1      33.740  77.857  11.328  1.00  0.00    -0.000 C 
BRANCH   9  10
ATOM     10  C   UNL     1      33.044  76.851  12.261  1.00  0.00    -0.000 C 
BRANCH  10  11
ATOM     11  C   UNL     1      32.037  75.950  11.523  1.00  0.00    -0.000 C 
BRANCH  11  12
ATOM     12  C   UNL     1      32.246  74.441  11.739  1.00  0.00    -0.003 C 
ATOM     13  C   UNL     1      33.696  74.076  12.055  1.00  0.00     0.004 C 
ENDBRANCH  11  12
ENDBRANCH  10  11
ENDBRANCH   9  10
ENDBRANCH   8   9
ENDBRANCH   1   8
TORSDOF 9
ENDMDL
MODEL 8
REMARK VINA RESULT:    -3.727      1.057      2.421
REMARK INTER + INTRA:          -6.569
REMARK INTER:                  -5.891
REMARK INTRA:                  -0.678
REMARK UNBOUND:                -0.881
REMARK SMILES CCCCCCCCCCC(=O)[O-]
REMARK SMILES IDX 7 1 8 2 9 3 10 4 11 5 12 6 13 7 6 8 5 9 4 10 3 11 2 12 1 13
REMARK H PARENT
REMARK Flexibility Score: inf
ROOT
ATOM      1  C   UNL     1      33.604  78.261  10.785  1.00  0.00     0.000 C 
ENDROOT
BRANCH   1   2
ATOM      2  C   UNL     1      32.484  78.875  11.636  1.00  0.00     0.000 C 
BRANCH   2   3
ATOM      3  C   UNL     1      32.501  78.376  13.089  1.00  0.00     0.006 C 
BRANCH   3   4
ATOM      4  C   UNL     1      31.899  79.391  14.070  1.00  0.00     0.053 C 
BRANCH   4   5
ATOM      5  C   UNL     1      32.719  79.460  15.318  1.00  0.00     0.041 C 
ATOM      6  O   UNL     1      33.552  78.554  15.581  1.00  0.00    -0.550 OA
ATOM      7  O   UNL     1      32.599  80.552  16.170  1.00  0.00    -0.550 OA
ENDBRANCH   4   5
ENDBRANCH   3   4
ENDBRANCH   2   3
ENDBRANCH   1   2
BRANCH   1   8
ATOM      8  C   UNL     1      34.766  77.783  11.670  1.00  0.00     0.000 C 
BRANCH   8   9
ATOM      9  C   UNL     1      35.872  77.082  10.865  1.00  0.00    -0.000 C 
BRANCH   9  10
ATOM     10  C   UNL     1      35.412  75.739  10.274  1.00  0.00    -0.000 C 
BRANCH  10  11
ATOM     11  C   UNL     1      35.743  75.603   8.776  1.00  0.00    -0.000 C 
BRANCH  11  12
ATOM     12  C   UNL     1      34.680  76.185   7.827  1.00  0.00    -0.003 C 
ATOM     13  C   UNL     1      33.266  75.697   8.141  1.00  0.00     0.004 C 
ENDBRANCH  11  12
ENDBRANCH  10  11
ENDBRANCH   9  10
ENDBRANCH   8   9
ENDBRANCH   1   8
TORSDOF 9
ENDMDL
MODEL 9
REMARK VINA RESULT:    -3.717      1.659      2.984
REMARK INTER + INTRA:          -6.554
REMARK INTER:                  -6.133
REMARK INTRA:                  -0.421
REMARK UNBOUND:                -0.881
REMARK SMILES CCCCCCCCCCC(=O)[O-]
REMARK SMILES IDX 7 1 8 2 9 3 10 4 11 5 12 6 13 7 6 8 5 9 4 10 3 11 2 12 1 13
REMARK H PARENT
REMARK Flexibility Score: inf
ROOT
ATOM      1  C   UNL     1      32.032  78.909  13.317  1.00  0.00     0.000 C 
ENDROOT
BRANCH   1   2
ATOM      2  C   UNL     1      33.066  78.606  14.411  1.00  0.00     0.000 C 
BRANCH   2   3
ATOM      3  C   UNL     1      32.822  79.410  15.698  1.00  0.00     0.006 C 
BRANCH   3   4
ATOM      4  C   UNL     1      32.014  80.691  15.449  1.00  0.00     0.053 C 
BRANCH   4   5
ATOM      5  C   UNL     1      32.424  81.760  16.411  1.00  0.00     0.041 C 
ATOM      6  O   UNL     1      32.455  81.524  17.647  1.00  0.00    -0.550 OA
ATOM      7  O   UNL     1      32.819  83.006  15.939  1.00  0.00    -0.550 OA
ENDBRANCH   4   5
ENDBRANCH   3   4
ENDBRANCH   2   3
ENDBRANCH   1   2
BRANCH   1   8
ATOM      8  C   UNL     1      32.668  78.818  11.922  1.00  0.00     0.000 C 
BRANCH   8   9
ATOM      9  C   UNL     1      33.398  77.484  11.692  1.00  0.00    -0.000 C 
BRANCH   9  10
ATOM     10  C   UNL     1      34.843  77.679  11.202  1.00  0.00    -0.000 C 
BRANCH  10  11
ATOM     11  C   UNL     1      35.184  76.799   9.985  1.00  0.00    -0.000 C 
BRANCH  11  12
ATOM     12  C   UNL     1      34.286  77.026   8.755  1.00  0.00    -0.003 C 
ATOM     13  C   UNL     1      34.464  75.956   7.679  1.00  0.00     0.004 C 
ENDBRANCH  11  12
ENDBRANCH  10  11
ENDBRANCH   9  10
ENDBRANCH   8   9
ENDBRANCH   1   8
TORSDOF 9
ENDMDL
