MODEL 1
REMARK VINA RESULT:    -6.487      0.000      0.000
REMARK INTER + INTRA:          -6.677
REMARK INTER:                  -6.677
REMARK INTRA:                   0.000
REMARK UNBOUND:                 0.000
REMARK SMILES C=C1CCC[C@]2(C)C[C@]3(O)OC(=O)C(C)=C3C[C@H]12
REMARK SMILES IDX 15 1 14 2 16 3 17 4 18 5 2 6 1 7 3 8 4 9 5 10 6 11 8 12 9 13
REMARK SMILES IDX 11 14 12 15 13 16 7 17 10 18
REMARK H PARENT 10 19
REMARK Flexibility Score: inf
ROOT
ATOM      1  C   UNL     1       5.142  42.315   7.941  1.00  0.00     0.052 C 
ATOM      2  C   UNL     1       5.992  41.804   9.063  1.00  0.00     0.040 C 
ATOM      3  C   UNL     1       6.622  40.632   9.106  1.00  0.00     0.012 C 
ATOM      4  C   UNL     1       6.544  39.561   8.061  1.00  0.00     0.047 C 
ATOM      5  C   UNL     1       7.271  38.289   8.552  1.00  0.00     0.025 C 
ATOM      6  C   UNL     1       7.126  37.184   7.517  1.00  0.00    -0.073 C 
ATOM      7  C   UNL     1       8.048  37.033   6.553  1.00  0.00     0.008 C 
ATOM      8  C   UNL     1       5.858  36.368   7.486  1.00  0.00     0.031 C 
ATOM      9  C   UNL     1       5.502  35.875   8.887  1.00  0.00     0.005 C 
ATOM     10  C   UNL     1       5.466  37.033   9.894  1.00  0.00     0.008 C 
ATOM     11  C   UNL     1       6.808  37.823   9.989  1.00  0.00    -0.019 C 
ATOM     12  C   UNL     1       6.596  39.032  10.985  1.00  0.00     0.092 C 
ATOM     13  C   UNL     1       7.174  40.364  10.479  1.00  0.00     0.235 C 
ATOM     14  O   UNL     1       6.710  41.475  11.246  1.00  0.00    -0.426 OA
ATOM     15  C   UNL     1       6.032  42.340  10.406  1.00  0.00     0.336 C 
ATOM     16  O   UNL     1       5.501  43.416  10.786  1.00  0.00    -0.246 OA
ATOM     17  C   UNL     1       7.908  36.906  10.583  1.00  0.00     0.012 C 
ENDROOT
BRANCH  13  18
ATOM     18  O   UNL     1       8.577  40.346  10.447  1.00  0.00    -0.353 OA
ATOM     19  H   UNL     1       8.882  40.272  11.388  1.00  0.00     0.215 HD
ENDBRANCH  13  18
TORSDOF 1
ENDMDL
MODEL 2
REMARK VINA RESULT:    -6.420      2.851      5.308
REMARK INTER + INTRA:          -6.608
REMARK INTER:                  -6.608
REMARK INTRA:                   0.000
REMARK UNBOUND:                 0.000
REMARK SMILES C=C1CCC[C@]2(C)C[C@]3(O)OC(=O)C(C)=C3C[C@H]12
REMARK SMILES IDX 15 1 14 2 16 3 17 4 18 5 2 6 1 7 3 8 4 9 5 10 6 11 8 12 9 13
REMARK SMILES IDX 11 14 12 15 13 16 7 17 10 18
REMARK H PARENT 10 19
REMARK Flexibility Score: inf
ROOT
ATOM      1  C   UNL     1      10.816  35.890   7.651  1.00  0.00     0.052 C 
ATOM      2  C   UNL     1       9.532  36.644   7.493  1.00  0.00     0.040 C 
ATOM      3  C   UNL     1       8.836  37.230   8.465  1.00  0.00     0.012 C 
ATOM      4  C   UNL     1       9.171  37.189   9.926  1.00  0.00     0.047 C 
ATOM      5  C   UNL     1       8.036  37.837  10.748  1.00  0.00     0.025 C 
ATOM      6  C   UNL     1       8.349  37.726  12.232  1.00  0.00    -0.073 C 
ATOM      7  C   UNL     1       9.020  38.706  12.858  1.00  0.00     0.008 C 
ATOM      8  C   UNL     1       8.045  36.437  12.953  1.00  0.00     0.031 C 
ATOM      9  C   UNL     1       6.625  35.969  12.643  1.00  0.00     0.005 C 
ATOM     10  C   UNL     1       6.376  35.903  11.130  1.00  0.00     0.008 C 
ATOM     11  C   UNL     1       6.606  37.261  10.397  1.00  0.00    -0.019 C 
ATOM     12  C   UNL     1       6.406  37.022   8.848  1.00  0.00     0.092 C 
ATOM     13  C   UNL     1       7.488  37.678   7.972  1.00  0.00     0.235 C 
ATOM     14  O   UNL     1       7.451  37.200   6.627  1.00  0.00    -0.426 OA
ATOM     15  C   UNL     1       8.667  36.611   6.334  1.00  0.00     0.336 C 
ATOM     16  O   UNL     1       8.947  36.091   5.222  1.00  0.00    -0.246 OA
ATOM     17  C   UNL     1       5.540  38.287  10.860  1.00  0.00     0.012 C 
ENDROOT
BRANCH  13  18
ATOM     18  O   UNL     1       7.400  39.078   7.994  1.00  0.00    -0.353 OA
ATOM     19  H   UNL     1       7.532  39.357   8.938  1.00  0.00     0.215 HD
ENDBRANCH  13  18
TORSDOF 1
ENDMDL
MODEL 3
REMARK VINA RESULT:    -6.244     10.305     12.577
REMARK INTER + INTRA:          -6.426
REMARK INTER:                  -6.426
REMARK INTRA:                   0.000
REMARK UNBOUND:                 0.000
REMARK SMILES C=C1CCC[C@]2(C)C[C@]3(O)OC(=O)C(C)=C3C[C@H]12
REMARK SMILES IDX 15 1 14 2 16 3 17 4 18 5 2 6 1 7 3 8 4 9 5 10 6 11 8 12 9 13
REMARK SMILES IDX 11 14 12 15 13 16 7 17 10 18
REMARK H PARENT 10 19
REMARK Flexibility Score: inf
ROOT
ATOM      1  C   UNL     1       9.314  46.857  -1.759  1.00  0.00     0.052 C 
ATOM      2  C   UNL     1       9.038  48.070  -0.926  1.00  0.00     0.040 C 
ATOM      3  C   UNL     1       9.492  48.303   0.304  1.00  0.00     0.012 C 
ATOM      4  C   UNL     1      10.316  47.358   1.124  1.00  0.00     0.047 C 
ATOM      5  C   UNL     1      10.496  47.915   2.553  1.00  0.00     0.025 C 
ATOM      6  C   UNL     1      11.272  46.918   3.399  1.00  0.00    -0.073 C 
ATOM      7  C   UNL     1      12.611  46.988   3.474  1.00  0.00     0.008 C 
ATOM      8  C   UNL     1      10.540  45.753   4.017  1.00  0.00     0.031 C 
ATOM      9  C   UNL     1       9.276  46.229   4.730  1.00  0.00     0.005 C 
ATOM     10  C   UNL     1       8.402  47.085   3.803  1.00  0.00     0.008 C 
ATOM     11  C   UNL     1       9.134  48.339   3.233  1.00  0.00    -0.019 C 
ATOM     12  C   UNL     1       8.152  49.068   2.232  1.00  0.00     0.092 C 
ATOM     13  C   UNL     1       8.815  49.501   0.913  1.00  0.00     0.235 C 
ATOM     14  O   UNL     1       7.854  49.876  -0.073  1.00  0.00    -0.426 OA
ATOM     15  C   UNL     1       8.000  49.047  -1.171  1.00  0.00     0.336 C 
ATOM     16  O   UNL     1       7.293  49.126  -2.209  1.00  0.00    -0.246 OA
ATOM     17  C   UNL     1       9.450  49.325   4.387  1.00  0.00     0.012 C 
ENDROOT
BRANCH  13  18
ATOM     18  O   UNL     1       9.741  50.537   1.110  1.00  0.00    -0.353 OA
ATOM     19  H   UNL     1      10.430  50.188   1.733  1.00  0.00     0.215 HD
ENDBRANCH  13  18
TORSDOF 1
ENDMDL
MODEL 4
REMARK VINA RESULT:    -6.085     12.302     14.207
REMARK INTER + INTRA:          -6.263
REMARK INTER:                  -6.263
REMARK INTRA:                   0.000
REMARK UNBOUND:                 0.000
REMARK SMILES C=C1CCC[C@]2(C)C[C@]3(O)OC(=O)C(C)=C3C[C@H]12
REMARK SMILES IDX 15 1 14 2 16 3 17 4 18 5 2 6 1 7 3 8 4 9 5 10 6 11 8 12 9 13
REMARK SMILES IDX 11 14 12 15 13 16 7 17 10 18
REMARK H PARENT 10 19
REMARK Flexibility Score: inf
ROOT
ATOM      1  C   UNL     1       2.523  43.940  -1.800  1.00  0.00     0.052 C 
ATOM      2  C   UNL     1       1.192  44.521  -2.168  1.00  0.00     0.040 C 
ATOM      3  C   UNL     1       0.293  45.029  -1.327  1.00  0.00     0.012 C 
ATOM      4  C   UNL     1       0.411  45.053   0.167  1.00  0.00     0.047 C 
ATOM      5  C   UNL     1      -0.904  45.564   0.794  1.00  0.00     0.025 C 
ATOM      6  C   UNL     1      -0.802  45.518   2.310  1.00  0.00    -0.073 C 
ATOM      7  C   UNL     1      -0.358  46.585   2.993  1.00  0.00     0.008 C 
ATOM      8  C   UNL     1      -1.047  44.212   3.024  1.00  0.00     0.031 C 
ATOM      9  C   UNL     1      -2.337  43.562   2.529  1.00  0.00     0.005 C 
ATOM     10  C   UNL     1      -2.349  43.440   0.998  1.00  0.00     0.008 C 
ATOM     11  C   UNL     1      -2.184  44.805   0.260  1.00  0.00    -0.019 C 
ATOM     12  C   UNL     1      -2.122  44.518  -1.293  1.00  0.00     0.092 C 
ATOM     13  C   UNL     1      -1.013  45.292  -2.025  1.00  0.00     0.235 C 
ATOM     14  O   UNL     1      -0.791  44.793  -3.344  1.00  0.00    -0.426 OA
ATOM     15  C   UNL     1       0.519  44.359  -3.438  1.00  0.00     0.336 C 
ATOM     16  O   UNL     1       1.021  43.862  -4.479  1.00  0.00    -0.246 OA
ATOM     17  C   UNL     1      -3.426  45.693   0.529  1.00  0.00     0.012 C 
ENDROOT
BRANCH  13  18
ATOM     18  O   UNL     1      -1.276  46.670  -2.064  1.00  0.00    -0.353 OA
ATOM     19  H   UNL     1      -0.563  47.080  -2.619  1.00  0.00     0.215 HD
ENDBRANCH  13  18
TORSDOF 1
ENDMDL
MODEL 5
REMARK VINA RESULT:    -5.944      3.048      5.206
REMARK INTER + INTRA:          -6.118
REMARK INTER:                  -6.118
REMARK INTRA:                   0.000
REMARK UNBOUND:                 0.000
REMARK SMILES C=C1CCC[C@]2(C)C[C@]3(O)OC(=O)C(C)=C3C[C@H]12
REMARK SMILES IDX 15 1 14 2 16 3 17 4 18 5 2 6 1 7 3 8 4 9 5 10 6 11 8 12 9 13
REMARK SMILES IDX 11 14 12 15 13 16 7 17 10 18
REMARK H PARENT 10 19
REMARK Flexibility Score: inf
ROOT
ATOM      1  C   UNL     1      11.529  38.704   9.804  1.00  0.00     0.052 C 
ATOM      2  C   UNL     1      10.710  37.914   8.831  1.00  0.00     0.040 C 
ATOM      3  C   UNL     1       9.381  37.891   8.754  1.00  0.00     0.012 C 
ATOM      4  C   UNL     1       8.440  38.603   9.678  1.00  0.00     0.047 C 
ATOM      5  C   UNL     1       6.984  38.192   9.370  1.00  0.00     0.025 C 
ATOM      6  C   UNL     1       6.042  38.862  10.358  1.00  0.00    -0.073 C 
ATOM      7  C   UNL     1       5.498  40.057  10.074  1.00  0.00     0.008 C 
ATOM      8  C   UNL     1       5.855  38.252  11.725  1.00  0.00     0.031 C 
ATOM      9  C   UNL     1       5.577  36.755  11.612  1.00  0.00     0.005 C 
ATOM     10  C   UNL     1       6.644  36.051  10.763  1.00  0.00     0.008 C 
ATOM     11  C   UNL     1       6.776  36.626   9.318  1.00  0.00    -0.019 C 
ATOM     12  C   UNL     1       7.965  35.875   8.598  1.00  0.00     0.092 C 
ATOM     13  C   UNL     1       8.911  36.807   7.823  1.00  0.00     0.235 C 
ATOM     14  O   UNL     1      10.120  36.149   7.443  1.00  0.00    -0.426 OA
ATOM     15  C   UNL     1      11.187  36.817   8.018  1.00  0.00     0.336 C 
ATOM     16  O   UNL     1      12.389  36.477   7.872  1.00  0.00    -0.246 OA
ATOM     17  C   UNL     1       5.478  36.332   8.523  1.00  0.00     0.012 C 
ENDROOT
BRANCH  13  18
ATOM     18  O   UNL     1       8.287  37.367   6.697  1.00  0.00    -0.353 OA
ATOM     19  H   UNL     1       7.391  36.945   6.630  1.00  0.00     0.215 HD
ENDBRANCH  13  18
TORSDOF 1
ENDMDL
MODEL 6
REMARK VINA RESULT:    -5.937      1.863      3.206
REMARK INTER + INTRA:          -6.111
REMARK INTER:                  -6.111
REMARK INTRA:                   0.000
REMARK UNBOUND:                 0.000
REMARK SMILES C=C1CCC[C@]2(C)C[C@]3(O)OC(=O)C(C)=C3C[C@H]12
REMARK SMILES IDX 15 1 14 2 16 3 17 4 18 5 2 6 1 7 3 8 4 9 5 10 6 11 8 12 9 13
REMARK SMILES IDX 11 14 12 15 13 16 7 17 10 18
REMARK H PARENT 10 19
REMARK Flexibility Score: inf
ROOT
ATOM      1  C   UNL     1       8.376  42.016  11.329  1.00  0.00     0.052 C 
ATOM      2  C   UNL     1       7.069  41.289  11.254  1.00  0.00     0.040 C 
ATOM      3  C   UNL     1       6.889  39.975  11.371  1.00  0.00     0.012 C 
ATOM      4  C   UNL     1       7.976  38.955  11.532  1.00  0.00     0.047 C 
ATOM      5  C   UNL     1       7.382  37.532  11.459  1.00  0.00     0.025 C 
ATOM      6  C   UNL     1       8.499  36.504  11.551  1.00  0.00    -0.073 C 
ATOM      7  C   UNL     1       8.873  36.014  12.743  1.00  0.00     0.008 C 
ATOM      8  C   UNL     1       9.290  36.166  10.312  1.00  0.00     0.031 C 
ATOM      9  C   UNL     1       8.356  35.875   9.140  1.00  0.00     0.005 C 
ATOM     10  C   UNL     1       7.346  37.013   8.935  1.00  0.00     0.008 C 
ATOM     11  C   UNL     1       6.466  37.303  10.190  1.00  0.00    -0.019 C 
ATOM     12  C   UNL     1       5.547  38.548   9.868  1.00  0.00     0.092 C 
ATOM     13  C   UNL     1       5.484  39.586  11.002  1.00  0.00     0.235 C 
ATOM     14  O   UNL     1       4.901  40.816  10.571  1.00  0.00    -0.426 OA
ATOM     15  C   UNL     1       5.828  41.828  10.742  1.00  0.00     0.336 C 
ATOM     16  O   UNL     1       5.614  43.033  10.451  1.00  0.00    -0.246 OA
ATOM     17  C   UNL     1       5.542  36.090  10.468  1.00  0.00     0.012 C 
ENDROOT
BRANCH  13  18
ATOM     18  O   UNL     1       4.803  39.091  12.125  1.00  0.00    -0.353 OA
ATOM     19  H   UNL     1       5.326  38.315  12.455  1.00  0.00     0.215 HD
ENDBRANCH  13  18
TORSDOF 1
ENDMDL
MODEL 7
REMARK VINA RESULT:    -5.561      9.063     11.056
REMARK INTER + INTRA:          -5.724
REMARK INTER:                  -5.724
REMARK INTRA:                   0.000
REMARK UNBOUND:                 0.000
REMARK SMILES C=C1CCC[C@]2(C)C[C@]3(O)OC(=O)C(C)=C3C[C@H]12
REMARK SMILES IDX 15 1 14 2 16 3 17 4 18 5 2 6 1 7 3 8 4 9 5 10 6 11 8 12 9 13
REMARK SMILES IDX 11 14 12 15 13 16 7 17 10 18
REMARK H PARENT 10 19
REMARK Flexibility Score: inf
ROOT
ATOM      1  C   UNL     1       8.655  49.166   1.343  1.00  0.00     0.052 C 
ATOM      2  C   UNL     1       9.757  48.153   1.376  1.00  0.00     0.040 C 
ATOM      3  C   UNL     1       9.972  47.252   2.331  1.00  0.00     0.012 C 
ATOM      4  C   UNL     1       9.188  47.122   3.602  1.00  0.00     0.047 C 
ATOM      5  C   UNL     1       9.848  46.076   4.527  1.00  0.00     0.025 C 
ATOM      6  C   UNL     1       9.088  46.002   5.842  1.00  0.00    -0.073 C 
ATOM      7  C   UNL     1       8.080  45.129   5.995  1.00  0.00     0.008 C 
ATOM      8  C   UNL     1       9.368  47.028   6.911  1.00  0.00     0.031 C 
ATOM      9  C   UNL     1      10.872  47.171   7.139  1.00  0.00     0.005 C 
ATOM     10  C   UNL     1      11.614  47.434   5.822  1.00  0.00     0.008 C 
ATOM     11  C   UNL     1      11.394  46.326   4.746  1.00  0.00    -0.019 C 
ATOM     12  C   UNL     1      12.134  46.773   3.423  1.00  0.00     0.092 C 
ATOM     13  C   UNL     1      11.302  46.572   2.145  1.00  0.00     0.235 C 
ATOM     14  O   UNL     1      11.867  47.252   1.024  1.00  0.00    -0.426 OA
ATOM     15  C   UNL     1      10.947  48.170   0.552  1.00  0.00     0.336 C 
ATOM     16  O   UNL     1      11.151  48.928  -0.431  1.00  0.00    -0.246 OA
ATOM     17  C   UNL     1      12.039  45.001   5.226  1.00  0.00     0.012 C 
ENDROOT
BRANCH  13  18
ATOM     18  O   UNL     1      11.118  45.213   1.849  1.00  0.00    -0.353 OA
ATOM     19  H   UNL     1      11.606  45.038   1.003  1.00  0.00     0.215 HD
ENDBRANCH  13  18
TORSDOF 1
ENDMDL
MODEL 8
REMARK VINA RESULT:    -5.483      1.475      2.219
REMARK INTER + INTRA:          -5.644
REMARK INTER:                  -5.644
REMARK INTRA:                   0.000
REMARK UNBOUND:                 0.000
REMARK SMILES C=C1CCC[C@]2(C)C[C@]3(O)OC(=O)C(C)=C3C[C@H]12
REMARK SMILES IDX 15 1 14 2 16 3 17 4 18 5 2 6 1 7 3 8 4 9 5 10 6 11 8 12 9 13
REMARK SMILES IDX 11 14 12 15 13 16 7 17 10 18
REMARK H PARENT 10 19
REMARK Flexibility Score: inf
ROOT
ATOM      1  C   UNL     1       3.648  42.991   9.470  1.00  0.00     0.052 C 
ATOM      2  C   UNL     1       5.071  43.027   9.937  1.00  0.00     0.040 C 
ATOM      3  C   UNL     1       5.958  42.038   9.842  1.00  0.00     0.012 C 
ATOM      4  C   UNL     1       5.681  40.665   9.310  1.00  0.00     0.047 C 
ATOM      5  C   UNL     1       6.911  39.756   9.524  1.00  0.00     0.025 C 
ATOM      6  C   UNL     1       6.597  38.347   9.047  1.00  0.00    -0.073 C 
ATOM      7  C   UNL     1       6.865  37.983   7.782  1.00  0.00     0.008 C 
ATOM      8  C   UNL     1       5.834  37.416   9.956  1.00  0.00     0.031 C 
ATOM      9  C   UNL     1       6.444  37.412  11.356  1.00  0.00     0.005 C 
ATOM     10  C   UNL     1       6.584  38.837  11.909  1.00  0.00     0.008 C 
ATOM     11  C   UNL     1       7.448  39.775  11.011  1.00  0.00    -0.019 C 
ATOM     12  C   UNL     1       7.427  41.221  11.649  1.00  0.00     0.092 C 
ATOM     13  C   UNL     1       7.201  42.349  10.629  1.00  0.00     0.235 C 
ATOM     14  O   UNL     1       6.891  43.591  11.263  1.00  0.00    -0.426 OA
ATOM     15  C   UNL     1       5.643  44.005  10.836  1.00  0.00     0.336 C 
ATOM     16  O   UNL     1       5.087  45.068  11.218  1.00  0.00    -0.246 OA
ATOM     17  C   UNL     1       8.917  39.280  11.006  1.00  0.00     0.012 C 
ENDROOT
BRANCH  13  18
ATOM     18  O   UNL     1       8.299  42.502   9.768  1.00  0.00    -0.353 OA
ATOM     19  H   UNL     1       9.051  41.999  10.174  1.00  0.00     0.215 HD
ENDBRANCH  13  18
TORSDOF 1
ENDMDL
