MODEL 1
REMARK VINA RESULT:    -3.230      0.000      0.000
REMARK INTER + INTRA:          -8.900
REMARK INTER:                  -6.252
REMARK INTRA:                  -2.648
REMARK UNBOUND:                -2.648
REMARK SMILES CCCCCCCCCCCCCCCCCC(=O)[O-]
REMARK SMILES IDX 10 1 11 2 12 3 13 4 14 5 15 6 16 7 17 8 18 9 19 10 20 11
REMARK SMILES IDX 9 12 8 13 7 14 6 15 5 16 4 17 3 18 2 19 1 20
REMARK H PARENT
REMARK Flexibility Score: inf
ROOT
ATOM      1  C   UNL     1      50.997  32.190  88.943  1.00  0.00     0.000 C 
ENDROOT
BRANCH   1   2
ATOM      2  C   UNL     1      51.886  31.277  89.801  1.00  0.00     0.000 C 
BRANCH   2   3
ATOM      3  C   UNL     1      51.158  30.731  91.042  1.00  0.00     0.000 C 
BRANCH   3   4
ATOM      4  C   UNL     1      49.652  31.058  91.111  1.00  0.00     0.000 C 
BRANCH   4   5
ATOM      5  C   UNL     1      48.741  29.918  90.611  1.00  0.00     0.000 C 
BRANCH   5   6
ATOM      6  C   UNL     1      47.856  30.353  89.435  1.00  0.00     0.000 C 
BRANCH   6   7
ATOM      7  C   UNL     1      47.089  31.641  89.766  1.00  0.00     0.006 C 
BRANCH   7   8
ATOM      8  C   UNL     1      45.580  31.395  89.907  1.00  0.00     0.053 C 
BRANCH   8   9
ATOM      9  C   UNL     1      45.190  31.132  91.329  1.00  0.00     0.041 C 
ATOM     10  O   UNL     1      45.210  29.959  91.785  1.00  0.00    -0.550 OA
ATOM     11  O   UNL     1      44.845  32.188  92.164  1.00  0.00    -0.550 OA
ENDBRANCH   8   9
ENDBRANCH   7   8
ENDBRANCH   6   7
ENDBRANCH   5   6
ENDBRANCH   4   5
ENDBRANCH   3   4
ENDBRANCH   2   3
ENDBRANCH   1   2
BRANCH   1  12
ATOM     12  C   UNL     1      50.818  31.608  87.533  1.00  0.00     0.000 C 
BRANCH  12  13
ATOM     13  C   UNL     1      49.711  32.312  86.728  1.00  0.00    -0.000 C 
BRANCH  13  14
ATOM     14  C   UNL     1      49.184  33.617  87.351  1.00  0.00    -0.000 C 
BRANCH  14  15
ATOM     15  C   UNL     1      49.596  34.867  86.560  1.00  0.00    -0.000 C 
BRANCH  15  16
ATOM     16  C   UNL     1      50.428  35.818  87.428  1.00  0.00    -0.000 C 
BRANCH  16  17
ATOM     17  C   UNL     1      51.892  35.364  87.494  1.00  0.00    -0.000 C 
BRANCH  17  18
ATOM     18  C   UNL     1      52.454  34.955  86.121  1.00  0.00    -0.000 C 
BRANCH  18  19
ATOM     19  C   UNL     1      53.434  33.764  86.184  1.00  0.00    -0.003 C 
ATOM     20  C   UNL     1      54.340  33.821  87.414  1.00  0.00     0.004 C 
ENDBRANCH  18  19
ENDBRANCH  17  18
ENDBRANCH  16  17
ENDBRANCH  15  16
ENDBRANCH  14  15
ENDBRANCH  13  14
ENDBRANCH  12  13
ENDBRANCH   1  12
TORSDOF 16
ENDMDL
MODEL 2
REMARK VINA RESULT:    -3.183      1.198      3.939
REMARK INTER + INTRA:          -8.808
REMARK INTER:                  -6.773
REMARK INTRA:                  -2.035
REMARK UNBOUND:                -2.648
REMARK SMILES CCCCCCCCCCCCCCCCCC(=O)[O-]
REMARK SMILES IDX 10 1 11 2 12 3 13 4 14 5 15 6 16 7 17 8 18 9 19 10 20 11
REMARK SMILES IDX 9 12 8 13 7 14 6 15 5 16 4 17 3 18 2 19 1 20
REMARK H PARENT
REMARK Flexibility Score: inf
ROOT
ATOM      1  C   UNL     1      50.618  34.732  86.506  1.00  0.00     0.000 C 
ENDROOT
BRANCH   1   2
ATOM      2  C   UNL     1      49.245  34.585  87.178  1.00  0.00     0.000 C 
BRANCH   2   3
ATOM      3  C   UNL     1      48.655  33.172  87.029  1.00  0.00     0.000 C 
BRANCH   3   4
ATOM      4  C   UNL     1      47.832  32.679  88.236  1.00  0.00     0.000 C 
BRANCH   4   5
ATOM      5  C   UNL     1      48.218  31.266  88.720  1.00  0.00     0.000 C 
BRANCH   5   6
ATOM      6  C   UNL     1      47.794  31.013  90.174  1.00  0.00     0.000 C 
BRANCH   6   7
ATOM      7  C   UNL     1      46.377  31.542  90.438  1.00  0.00     0.006 C 
BRANCH   7   8
ATOM      8  C   UNL     1      45.470  30.476  91.068  1.00  0.00     0.053 C 
BRANCH   8   9
ATOM      9  C   UNL     1      44.452  31.083  91.985  1.00  0.00     0.041 C 
ATOM     10  O   UNL     1      44.645  32.226  92.476  1.00  0.00    -0.550 OA
ATOM     11  O   UNL     1      43.272  30.405  92.263  1.00  0.00    -0.550 OA
ENDBRANCH   8   9
ENDBRANCH   7   8
ENDBRANCH   6   7
ENDBRANCH   5   6
ENDBRANCH   4   5
ENDBRANCH   3   4
ENDBRANCH   2   3
ENDBRANCH   1   2
BRANCH   1  12
ATOM     12  C   UNL     1      51.638  35.344  87.477  1.00  0.00     0.000 C 
BRANCH  12  13
ATOM     13  C   UNL     1      53.077  35.320  86.931  1.00  0.00    -0.000 C 
BRANCH  13  14
ATOM     14  C   UNL     1      54.004  34.284  87.591  1.00  0.00    -0.000 C 
BRANCH  14  15
ATOM     15  C   UNL     1      53.826  32.870  87.017  1.00  0.00    -0.000 C 
BRANCH  15  16
ATOM     16  C   UNL     1      53.494  31.864  88.126  1.00  0.00    -0.000 C 
BRANCH  16  17
ATOM     17  C   UNL     1      51.977  31.755  88.334  1.00  0.00    -0.000 C 
BRANCH  17  18
ATOM     18  C   UNL     1      51.514  32.344  89.677  1.00  0.00    -0.000 C 
BRANCH  18  19
ATOM     19  C   UNL     1      51.717  31.390  90.873  1.00  0.00    -0.003 C 
ATOM     20  C   UNL     1      51.047  31.904  92.148  1.00  0.00     0.004 C 
ENDBRANCH  18  19
ENDBRANCH  17  18
ENDBRANCH  16  17
ENDBRANCH  15  16
ENDBRANCH  14  15
ENDBRANCH  13  14
ENDBRANCH  12  13
ENDBRANCH   1  12
TORSDOF 16
ENDMDL
MODEL 3
REMARK VINA RESULT:    -3.166      1.178      2.889
REMARK INTER + INTRA:          -8.776
REMARK INTER:                  -6.123
REMARK INTRA:                  -2.653
REMARK UNBOUND:                -2.648
REMARK SMILES CCCCCCCCCCCCCCCCCC(=O)[O-]
REMARK SMILES IDX 10 1 11 2 12 3 13 4 14 5 15 6 16 7 17 8 18 9 19 10 20 11
REMARK SMILES IDX 9 12 8 13 7 14 6 15 5 16 4 17 3 18 2 19 1 20
REMARK H PARENT
REMARK Flexibility Score: inf
ROOT
ATOM      1  C   UNL     1      51.623  31.085  87.188  1.00  0.00     0.000 C 
ENDROOT
BRANCH   1   2
ATOM      2  C   UNL     1      52.315  31.837  88.335  1.00  0.00     0.000 C 
BRANCH   2   3
ATOM      3  C   UNL     1      51.322  32.381  89.376  1.00  0.00     0.000 C 
BRANCH   3   4
ATOM      4  C   UNL     1      51.396  31.708  90.762  1.00  0.00     0.000 C 
BRANCH   4   5
ATOM      5  C   UNL     1      50.031  31.225  91.295  1.00  0.00     0.000 C 
BRANCH   5   6
ATOM      6  C   UNL     1      49.091  30.778  90.166  1.00  0.00     0.000 C 
BRANCH   6   7
ATOM      7  C   UNL     1      47.638  31.175  90.465  1.00  0.00     0.006 C 
BRANCH   7   8
ATOM      8  C   UNL     1      46.709  29.955  90.541  1.00  0.00     0.053 C 
BRANCH   8   9
ATOM      9  C   UNL     1      45.524  30.214  91.420  1.00  0.00     0.041 C 
ATOM     10  O   UNL     1      44.779  31.205  91.202  1.00  0.00    -0.550 OA
ATOM     11  O   UNL     1      45.217  29.338  92.453  1.00  0.00    -0.550 OA
ENDBRANCH   8   9
ENDBRANCH   7   8
ENDBRANCH   6   7
ENDBRANCH   5   6
ENDBRANCH   4   5
ENDBRANCH   3   4
ENDBRANCH   2   3
ENDBRANCH   1   2
BRANCH   1  12
ATOM     12  C   UNL     1      51.763  31.856  85.867  1.00  0.00     0.000 C 
BRANCH  12  13
ATOM     13  C   UNL     1      53.104  32.604  85.748  1.00  0.00    -0.000 C 
BRANCH  13  14
ATOM     14  C   UNL     1      52.984  34.129  85.577  1.00  0.00    -0.000 C 
BRANCH  14  15
ATOM     15  C   UNL     1      51.540  34.635  85.716  1.00  0.00    -0.000 C 
BRANCH  15  16
ATOM     16  C   UNL     1      51.322  35.311  87.075  1.00  0.00    -0.000 C 
BRANCH  16  17
ATOM     17  C   UNL     1      49.830  35.370  87.427  1.00  0.00    -0.000 C 
BRANCH  17  18
ATOM     18  C   UNL     1      48.985  34.369  86.620  1.00  0.00    -0.000 C 
BRANCH  18  19
ATOM     19  C   UNL     1      48.305  33.292  87.491  1.00  0.00    -0.003 C 
ATOM     20  C   UNL     1      48.064  31.991  86.725  1.00  0.00     0.004 C 
ENDBRANCH  18  19
ENDBRANCH  17  18
ENDBRANCH  16  17
ENDBRANCH  15  16
ENDBRANCH  14  15
ENDBRANCH  13  14
ENDBRANCH  12  13
ENDBRANCH   1  12
TORSDOF 16
ENDMDL
MODEL 4
REMARK VINA RESULT:    -3.154      1.285      2.660
REMARK INTER + INTRA:          -8.753
REMARK INTER:                  -6.550
REMARK INTRA:                  -2.203
REMARK UNBOUND:                -2.648
REMARK SMILES CCCCCCCCCCCCCCCCCC(=O)[O-]
REMARK SMILES IDX 10 1 11 2 12 3 13 4 14 5 15 6 16 7 17 8 18 9 19 10 20 11
REMARK SMILES IDX 9 12 8 13 7 14 6 15 5 16 4 17 3 18 2 19 1 20
REMARK H PARENT
REMARK Flexibility Score: inf
ROOT
ATOM      1  C   UNL     1      48.479  32.634  86.966  1.00  0.00     0.000 C 
ENDROOT
BRANCH   1   2
ATOM      2  C   UNL     1      49.866  32.196  86.473  1.00  0.00     0.000 C 
BRANCH   2   3
ATOM      3  C   UNL     1      50.633  31.361  87.512  1.00  0.00     0.000 C 
BRANCH   3   4
ATOM      4  C   UNL     1      50.452  31.815  88.975  1.00  0.00     0.000 C 
BRANCH   4   5
ATOM      5  C   UNL     1      50.146  30.662  89.954  1.00  0.00     0.000 C 
BRANCH   5   6
ATOM      6  C   UNL     1      48.849  30.896  90.741  1.00  0.00     0.000 C 
BRANCH   6   7
ATOM      7  C   UNL     1      47.615  30.611  89.873  1.00  0.00     0.006 C 
BRANCH   7   8
ATOM      8  C   UNL     1      46.497  31.638  90.101  1.00  0.00     0.053 C 
BRANCH   8   9
ATOM      9  C   UNL     1      45.442  31.115  91.027  1.00  0.00     0.041 C 
ATOM     10  O   UNL     1      45.073  29.914  90.951  1.00  0.00    -0.550 OA
ATOM     11  O   UNL     1      44.895  31.942  92.000  1.00  0.00    -0.550 OA
ENDBRANCH   8   9
ENDBRANCH   7   8
ENDBRANCH   6   7
ENDBRANCH   5   6
ENDBRANCH   4   5
ENDBRANCH   3   4
ENDBRANCH   2   3
ENDBRANCH   1   2
BRANCH   1  12
ATOM     12  C   UNL     1      48.494  34.109  87.394  1.00  0.00     0.000 C 
BRANCH  12  13
ATOM     13  C   UNL     1      49.450  34.970  86.550  1.00  0.00    -0.000 C 
BRANCH  13  14
ATOM     14  C   UNL     1      50.472  35.790  87.358  1.00  0.00    -0.000 C 
BRANCH  14  15
ATOM     15  C   UNL     1      51.751  35.003  87.678  1.00  0.00    -0.000 C 
BRANCH  15  16
ATOM     16  C   UNL     1      52.835  35.263  86.624  1.00  0.00    -0.000 C 
BRANCH  16  17
ATOM     17  C   UNL     1      52.954  34.080  85.653  1.00  0.00    -0.000 C 
BRANCH  17  18
ATOM     18  C   UNL     1      53.369  34.510  84.236  1.00  0.00    -0.000 C 
BRANCH  18  19
ATOM     19  C   UNL     1      52.444  33.965  83.128  1.00  0.00    -0.003 C 
ATOM     20  C   UNL     1      50.977  34.320  83.368  1.00  0.00     0.004 C 
ENDBRANCH  18  19
ENDBRANCH  17  18
ENDBRANCH  16  17
ENDBRANCH  15  16
ENDBRANCH  14  15
ENDBRANCH  13  14
ENDBRANCH  12  13
ENDBRANCH   1  12
TORSDOF 16
ENDMDL
MODEL 5
REMARK VINA RESULT:    -3.134     16.176     17.802
REMARK INTER + INTRA:          -8.714
REMARK INTER:                  -6.337
REMARK INTRA:                  -2.377
REMARK UNBOUND:                -2.648
REMARK SMILES CCCCCCCCCCCCCCCCCC(=O)[O-]
REMARK SMILES IDX 10 1 11 2 12 3 13 4 14 5 15 6 16 7 17 8 18 9 19 10 20 11
REMARK SMILES IDX 9 12 8 13 7 14 6 15 5 16 4 17 3 18 2 19 1 20
REMARK H PARENT
REMARK Flexibility Score: inf
ROOT
ATOM      1  C   UNL     1      44.336  22.804  75.831  1.00  0.00     0.000 C 
ENDROOT
BRANCH   1   2
ATOM      2  C   UNL     1      42.836  22.920  76.140  1.00  0.00     0.000 C 
BRANCH   2   3
ATOM      3  C   UNL     1      42.017  21.750  75.569  1.00  0.00     0.000 C 
BRANCH   3   4
ATOM      4  C   UNL     1      40.663  21.501  76.265  1.00  0.00     0.000 C 
BRANCH   4   5
ATOM      5  C   UNL     1      40.694  21.728  77.791  1.00  0.00     0.000 C 
BRANCH   5   6
ATOM      6  C   UNL     1      40.964  20.431  78.566  1.00  0.00     0.000 C 
BRANCH   6   7
ATOM      7  C   UNL     1      40.349  20.488  79.972  1.00  0.00     0.006 C 
BRANCH   7   8
ATOM      8  C   UNL     1      39.270  19.414  80.175  1.00  0.00     0.053 C 
BRANCH   8   9
ATOM      9  C   UNL     1      37.976  20.008  80.640  1.00  0.00     0.041 C 
ATOM     10  O   UNL     1      37.387  20.872  79.938  1.00  0.00    -0.550 OA
ATOM     11  O   UNL     1      37.399  19.578  81.829  1.00  0.00    -0.550 OA
ENDBRANCH   8   9
ENDBRANCH   7   8
ENDBRANCH   6   7
ENDBRANCH   5   6
ENDBRANCH   4   5
ENDBRANCH   3   4
ENDBRANCH   2   3
ENDBRANCH   1   2
BRANCH   1  12
ATOM     12  C   UNL     1      45.162  22.817  77.125  1.00  0.00     0.000 C 
BRANCH  12  13
ATOM     13  C   UNL     1      44.316  22.543  78.381  1.00  0.00    -0.000 C 
BRANCH  13  14
ATOM     14  C   UNL     1      44.599  21.199  79.075  1.00  0.00    -0.000 C 
BRANCH  14  15
ATOM     15  C   UNL     1      44.553  20.005  78.110  1.00  0.00    -0.000 C 
BRANCH  15  16
ATOM     16  C   UNL     1      45.882  19.241  78.116  1.00  0.00    -0.000 C 
BRANCH  16  17
ATOM     17  C   UNL     1      46.703  19.555  76.859  1.00  0.00    -0.000 C 
BRANCH  17  18
ATOM     18  C   UNL     1      45.941  19.257  75.556  1.00  0.00    -0.000 C 
BRANCH  18  19
ATOM     19  C   UNL     1      46.455  20.059  74.342  1.00  0.00    -0.003 C 
ATOM     20  C   UNL     1      47.782  20.760  74.627  1.00  0.00     0.004 C 
ENDBRANCH  18  19
ENDBRANCH  17  18
ENDBRANCH  16  17
ENDBRANCH  15  16
ENDBRANCH  14  15
ENDBRANCH  13  14
ENDBRANCH  12  13
ENDBRANCH   1  12
TORSDOF 16
ENDMDL
MODEL 6
REMARK VINA RESULT:    -3.036      3.178      6.425
REMARK INTER + INTRA:          -8.525
REMARK INTER:                  -5.989
REMARK INTRA:                  -2.536
REMARK UNBOUND:                -2.648
REMARK SMILES CCCCCCCCCCCCCCCCCC(=O)[O-]
REMARK SMILES IDX 10 1 11 2 12 3 13 4 14 5 15 6 16 7 17 8 18 9 19 10 20 11
REMARK SMILES IDX 9 12 8 13 7 14 6 15 5 16 4 17 3 18 2 19 1 20
REMARK H PARENT
REMARK Flexibility Score: inf
ROOT
ATOM      1  C   UNL     1      52.486  32.894  87.158  1.00  0.00     0.000 C 
ENDROOT
BRANCH   1   2
ATOM      2  C   UNL     1      52.451  34.264  87.850  1.00  0.00     0.000 C 
BRANCH   2   3
ATOM      3  C   UNL     1      51.749  35.341  87.005  1.00  0.00     0.000 C 
BRANCH   3   4
ATOM      4  C   UNL     1      50.348  35.751  87.503  1.00  0.00     0.000 C 
BRANCH   4   5
ATOM      5  C   UNL     1      49.194  35.224  86.624  1.00  0.00     0.000 C 
BRANCH   5   6
ATOM      6  C   UNL     1      48.511  33.994  87.238  1.00  0.00     0.000 C 
BRANCH   6   7
ATOM      7  C   UNL     1      48.712  32.751  86.360  1.00  0.00     0.006 C 
BRANCH   7   8
ATOM      8  C   UNL     1      49.356  33.096  85.009  1.00  0.00     0.053 C 
BRANCH   8   9
ATOM      9  C   UNL     1      48.472  32.717  83.860  1.00  0.00     0.041 C 
ATOM     10  O   UNL     1      47.611  31.809  83.996  1.00  0.00    -0.550 OA
ATOM     11  O   UNL     1      48.572  33.394  82.651  1.00  0.00    -0.550 OA
ENDBRANCH   8   9
ENDBRANCH   7   8
ENDBRANCH   6   7
ENDBRANCH   5   6
ENDBRANCH   4   5
ENDBRANCH   3   4
ENDBRANCH   2   3
ENDBRANCH   1   2
BRANCH   1  12
ATOM     12  C   UNL     1      52.017  31.787  88.114  1.00  0.00     0.000 C 
BRANCH  12  13
ATOM     13  C   UNL     1      51.118  32.314  89.247  1.00  0.00    -0.000 C 
BRANCH  13  14
ATOM     14  C   UNL     1      51.386  31.694  90.630  1.00  0.00    -0.000 C 
BRANCH  14  15
ATOM     15  C   UNL     1      50.100  31.266  91.354  1.00  0.00    -0.000 C 
BRANCH  15  16
ATOM     16  C   UNL     1      49.581  29.930  90.809  1.00  0.00    -0.000 C 
BRANCH  16  17
ATOM     17  C   UNL     1      48.070  29.993  90.547  1.00  0.00    -0.000 C 
BRANCH  17  18
ATOM     18  C   UNL     1      47.709  30.880  89.344  1.00  0.00    -0.000 C 
BRANCH  18  19
ATOM     19  C   UNL     1      46.499  31.804  89.598  1.00  0.00    -0.003 C 
ATOM     20  C   UNL     1      45.786  31.481  90.911  1.00  0.00     0.004 C 
ENDBRANCH  18  19
ENDBRANCH  17  18
ENDBRANCH  16  17
ENDBRANCH  15  16
ENDBRANCH  14  15
ENDBRANCH  13  14
ENDBRANCH  12  13
ENDBRANCH   1  12
TORSDOF 16
ENDMDL
MODEL 7
REMARK VINA RESULT:    -3.035      2.661      4.566
REMARK INTER + INTRA:          -8.522
REMARK INTER:                  -6.257
REMARK INTRA:                  -2.265
REMARK UNBOUND:                -2.648
REMARK SMILES CCCCCCCCCCCCCCCCCC(=O)[O-]
REMARK SMILES IDX 10 1 11 2 12 3 13 4 14 5 15 6 16 7 17 8 18 9 19 10 20 11
REMARK SMILES IDX 9 12 8 13 7 14 6 15 5 16 4 17 3 18 2 19 1 20
REMARK H PARENT
REMARK Flexibility Score: inf
ROOT
ATOM      1  C   UNL     1      49.222  35.069  87.106  1.00  0.00     0.000 C 
ENDROOT
BRANCH   1   2
ATOM      2  C   UNL     1      49.405  33.588  87.467  1.00  0.00     0.000 C 
BRANCH   2   3
ATOM      3  C   UNL     1      48.286  32.694  86.904  1.00  0.00     0.000 C 
BRANCH   3   4
ATOM      4  C   UNL     1      47.832  31.552  87.836  1.00  0.00     0.000 C 
BRANCH   4   5
ATOM      5  C   UNL     1      47.117  32.037  89.114  1.00  0.00     0.000 C 
BRANCH   5   6
ATOM      6  C   UNL     1      47.471  31.182  90.339  1.00  0.00     0.000 C 
BRANCH   6   7
ATOM      7  C   UNL     1      48.583  30.176  90.010  1.00  0.00     0.006 C 
BRANCH   7   8
ATOM      8  C   UNL     1      49.879  30.475  90.778  1.00  0.00     0.053 C 
BRANCH   8   9
ATOM      9  C   UNL     1      50.902  31.136  89.905  1.00  0.00     0.041 C 
ATOM     10  O   UNL     1      51.311  32.295  90.175  1.00  0.00    -0.550 OA
ATOM     11  O   UNL     1      51.434  30.455  88.817  1.00  0.00    -0.550 OA
ENDBRANCH   8   9
ENDBRANCH   7   8
ENDBRANCH   6   7
ENDBRANCH   5   6
ENDBRANCH   4   5
ENDBRANCH   3   4
ENDBRANCH   2   3
ENDBRANCH   1   2
BRANCH   1  12
ATOM     12  C   UNL     1      50.476  35.878  87.470  1.00  0.00     0.000 C 
BRANCH  12  13
ATOM     13  C   UNL     1      51.732  35.002  87.624  1.00  0.00    -0.000 C 
BRANCH  13  14
ATOM     14  C   UNL     1      52.807  35.212  86.542  1.00  0.00    -0.000 C 
BRANCH  14  15
ATOM     15  C   UNL     1      53.521  33.911  86.147  1.00  0.00    -0.000 C 
BRANCH  15  16
ATOM     16  C   UNL     1      52.810  33.228  84.972  1.00  0.00    -0.000 C 
BRANCH  16  17
ATOM     17  C   UNL     1      52.963  34.049  83.684  1.00  0.00    -0.000 C 
BRANCH  17  18
ATOM     18  C   UNL     1      51.615  34.371  83.017  1.00  0.00    -0.000 C 
BRANCH  18  19
ATOM     19  C   UNL     1      50.392  33.933  83.851  1.00  0.00    -0.003 C 
ATOM     20  C   UNL     1      49.108  34.641  83.416  1.00  0.00     0.004 C 
ENDBRANCH  18  19
ENDBRANCH  17  18
ENDBRANCH  16  17
ENDBRANCH  15  16
ENDBRANCH  14  15
ENDBRANCH  13  14
ENDBRANCH  12  13
ENDBRANCH   1  12
TORSDOF 16
ENDMDL
MODEL 8
REMARK VINA RESULT:    -3.030      1.467      2.606
REMARK INTER + INTRA:          -8.513
REMARK INTER:                  -6.194
REMARK INTRA:                  -2.319
REMARK UNBOUND:                -2.648
REMARK SMILES CCCCCCCCCCCCCCCCCC(=O)[O-]
REMARK SMILES IDX 10 1 11 2 12 3 13 4 14 5 15 6 16 7 17 8 18 9 19 10 20 11
REMARK SMILES IDX 9 12 8 13 7 14 6 15 5 16 4 17 3 18 2 19 1 20
REMARK H PARENT
REMARK Flexibility Score: inf
ROOT
ATOM      1  C   UNL     1      48.580  32.475  86.493  1.00  0.00     0.000 C 
ENDROOT
BRANCH   1   2
ATOM      2  C   UNL     1      49.696  31.638  87.137  1.00  0.00     0.000 C 
BRANCH   2   3
ATOM      3  C   UNL     1      49.857  31.916  88.641  1.00  0.00     0.000 C 
BRANCH   3   4
ATOM      4  C   UNL     1      49.546  30.719  89.562  1.00  0.00     0.000 C 
BRANCH   4   5
ATOM      5  C   UNL     1      48.357  30.958  90.517  1.00  0.00     0.000 C 
BRANCH   5   6
ATOM      6  C   UNL     1      47.170  31.628  89.810  1.00  0.00     0.000 C 
BRANCH   6   7
ATOM      7  C   UNL     1      45.920  30.738  89.863  1.00  0.00     0.006 C 
BRANCH   7   8
ATOM      8  C   UNL     1      45.801  29.986  91.196  1.00  0.00     0.053 C 
BRANCH   8   9
ATOM      9  C   UNL     1      44.750  30.585  92.080  1.00  0.00     0.041 C 
ATOM     10  O   UNL     1      44.583  31.832  92.110  1.00  0.00    -0.550 OA
ATOM     11  O   UNL     1      43.927  29.763  92.841  1.00  0.00    -0.550 OA
ENDBRANCH   8   9
ENDBRANCH   7   8
ENDBRANCH   6   7
ENDBRANCH   5   6
ENDBRANCH   4   5
ENDBRANCH   3   4
ENDBRANCH   2   3
ENDBRANCH   1   2
BRANCH   1  12
ATOM     12  C   UNL     1      48.597  33.913  87.032  1.00  0.00     0.000 C 
BRANCH  12  13
ATOM     13  C   UNL     1      48.904  34.959  85.945  1.00  0.00    -0.000 C 
BRANCH  13  14
ATOM     14  C   UNL     1      49.008  34.399  84.515  1.00  0.00    -0.000 C 
BRANCH  14  15
ATOM     15  C   UNL     1      50.424  34.506  83.931  1.00  0.00    -0.000 C 
BRANCH  15  16
ATOM     16  C   UNL     1      51.127  33.143  83.939  1.00  0.00    -0.000 C 
BRANCH  16  17
ATOM     17  C   UNL     1      52.565  33.269  84.461  1.00  0.00    -0.000 C 
BRANCH  17  18
ATOM     18  C   UNL     1      52.792  34.547  85.286  1.00  0.00    -0.000 C 
BRANCH  18  19
ATOM     19  C   UNL     1      52.787  34.308  86.811  1.00  0.00    -0.003 C 
ATOM     20  C   UNL     1      52.072  35.424  87.572  1.00  0.00     0.004 C 
ENDBRANCH  18  19
ENDBRANCH  17  18
ENDBRANCH  16  17
ENDBRANCH  15  16
ENDBRANCH  14  15
ENDBRANCH  13  14
ENDBRANCH  12  13
ENDBRANCH   1  12
TORSDOF 16
ENDMDL
MODEL 9
REMARK VINA RESULT:    -3.013      2.166      5.887
REMARK INTER + INTRA:          -8.478
REMARK INTER:                  -6.678
REMARK INTRA:                  -1.800
REMARK UNBOUND:                -2.648
REMARK SMILES CCCCCCCCCCCCCCCCCC(=O)[O-]
REMARK SMILES IDX 10 1 11 2 12 3 13 4 14 5 15 6 16 7 17 8 18 9 19 10 20 11
REMARK SMILES IDX 9 12 8 13 7 14 6 15 5 16 4 17 3 18 2 19 1 20
REMARK H PARENT
REMARK Flexibility Score: inf
ROOT
ATOM      1  C   UNL     1      51.199  34.954  87.506  1.00  0.00     0.000 C 
ENDROOT
BRANCH   1   2
ATOM      2  C   UNL     1      52.236  35.005  86.375  1.00  0.00     0.000 C 
BRANCH   2   3
ATOM      3  C   UNL     1      53.366  33.977  86.555  1.00  0.00     0.000 C 
BRANCH   3   4
ATOM      4  C   UNL     1      54.077  34.022  87.923  1.00  0.00     0.000 C 
BRANCH   4   5
ATOM      5  C   UNL     1      54.152  32.655  88.633  1.00  0.00     0.000 C 
BRANCH   5   6
ATOM      6  C   UNL     1      52.827  31.883  88.550  1.00  0.00     0.000 C 
BRANCH   6   7
ATOM      7  C   UNL     1      51.855  32.331  89.651  1.00  0.00     0.006 C 
BRANCH   7   8
ATOM      8  C   UNL     1      52.407  32.058  91.057  1.00  0.00     0.053 C 
BRANCH   8   9
ATOM      9  C   UNL     1      51.328  31.637  92.007  1.00  0.00     0.041 C 
ATOM     10  O   UNL     1      50.834  32.469  92.813  1.00  0.00    -0.550 OA
ATOM     11  O   UNL     1      50.837  30.338  91.973  1.00  0.00    -0.550 OA
ENDBRANCH   8   9
ENDBRANCH   7   8
ENDBRANCH   6   7
ENDBRANCH   5   6
ENDBRANCH   4   5
ENDBRANCH   3   4
ENDBRANCH   2   3
ENDBRANCH   1   2
BRANCH   1  12
ATOM     12  C   UNL     1      49.896  35.649  87.083  1.00  0.00     0.000 C 
BRANCH  12  13
ATOM     13  C   UNL     1      48.682  34.701  87.085  1.00  0.00    -0.000 C 
BRANCH  13  14
ATOM     14  C   UNL     1      48.823  33.462  86.183  1.00  0.00    -0.000 C 
BRANCH  14  15
ATOM     15  C   UNL     1      48.266  32.185  86.830  1.00  0.00    -0.000 C 
BRANCH  15  16
ATOM     16  C   UNL     1      47.913  32.423  88.303  1.00  0.00    -0.000 C 
BRANCH  16  17
ATOM     17  C   UNL     1      48.307  31.216  89.165  1.00  0.00    -0.000 C 
BRANCH  17  18
ATOM     18  C   UNL     1      47.644  31.231  90.553  1.00  0.00    -0.000 C 
BRANCH  18  19
ATOM     19  C   UNL     1      46.151  31.623  90.521  1.00  0.00    -0.003 C 
ATOM     20  C   UNL     1      45.278  30.654  91.318  1.00  0.00     0.004 C 
ENDBRANCH  18  19
ENDBRANCH  17  18
ENDBRANCH  16  17
ENDBRANCH  15  16
ENDBRANCH  14  15
ENDBRANCH  13  14
ENDBRANCH  12  13
ENDBRANCH   1  12
TORSDOF 16
ENDMDL
