MODEL 1
REMARK VINA RESULT:    -0.564      0.000      0.000
REMARK INTER + INTRA:          -0.950
REMARK INTER:                  -0.795
REMARK INTRA:                  -0.155
REMARK UNBOUND:                -0.155
REMARK SMILES CCCCCCCCC(=O)[O-]
REMARK SMILES IDX 6 1 7 2 8 3 9 4 10 5 11 6 5 7 4 8 3 9 2 10 1 11
REMARK H PARENT
REMARK Flexibility Score: inf
ROOT
ATOM      1  C   UNL     1      -3.778 -13.618   5.918  1.00  0.00     0.000 C 
ENDROOT
BRANCH   1   2
ATOM      2  C   UNL     1      -3.252 -14.885   6.617  1.00  0.00     0.006 C 
BRANCH   2   3
ATOM      3  C   UNL     1      -1.724 -14.881   6.746  1.00  0.00     0.053 C 
BRANCH   3   4
ATOM      4  C   UNL     1      -1.263 -13.974   7.845  1.00  0.00     0.041 C 
ATOM      5  O   UNL     1      -2.101 -13.323   8.523  1.00  0.00    -0.550 OA
ATOM      6  O   UNL     1       0.089 -13.874   8.142  1.00  0.00    -0.550 OA
ENDBRANCH   3   4
ENDBRANCH   2   3
ENDBRANCH   1   2
BRANCH   1   7
ATOM      7  C   UNL     1      -4.895 -12.922   6.714  1.00  0.00     0.000 C 
BRANCH   7   8
ATOM      8  C   UNL     1      -6.202 -12.798   5.911  1.00  0.00    -0.000 C 
BRANCH   8   9
ATOM      9  C   UNL     1      -7.125 -14.018   6.079  1.00  0.00    -0.000 C 
BRANCH   9  10
ATOM     10  C   UNL     1      -6.886 -14.843   7.357  1.00  0.00    -0.003 C 
ATOM     11  C   UNL     1      -6.366 -16.251   7.075  1.00  0.00     0.004 C 
ENDBRANCH   9  10
ENDBRANCH   8   9
ENDBRANCH   7   8
ENDBRANCH   1   7
TORSDOF 7
ENDMDL
MODEL 2
REMARK VINA RESULT:    -0.501      0.784      2.034
REMARK INTER + INTRA:          -0.860
REMARK INTER:                  -1.484
REMARK INTRA:                   0.624
REMARK UNBOUND:                -0.155
REMARK SMILES CCCCCCCCC(=O)[O-]
REMARK SMILES IDX 6 1 7 2 8 3 9 4 10 5 11 6 5 7 4 8 3 9 2 10 1 11
REMARK H PARENT
REMARK Flexibility Score: inf
ROOT
ATOM      1  C   UNL     1      -4.078 -14.370   6.952  1.00  0.00     0.000 C 
ENDROOT
BRANCH   1   2
ATOM      2  C   UNL     1      -3.028 -13.946   5.910  1.00  0.00     0.006 C 
BRANCH   2   3
ATOM      3  C   UNL     1      -1.610 -14.370   6.314  1.00  0.00     0.053 C 
BRANCH   3   4
ATOM      4  C   UNL     1      -1.270 -13.917   7.700  1.00  0.00     0.041 C 
ATOM      5  O   UNL     1      -2.180 -13.540   8.485  1.00  0.00    -0.550 OA
ATOM      6  O   UNL     1       0.047 -13.944   8.138  1.00  0.00    -0.550 OA
ENDBRANCH   3   4
ENDBRANCH   2   3
ENDBRANCH   1   2
BRANCH   1   7
ATOM      7  C   UNL     1      -4.703 -15.741   6.641  1.00  0.00     0.000 C 
BRANCH   7   8
ATOM      8  C   UNL     1      -6.202 -15.797   6.982  1.00  0.00    -0.000 C 
BRANCH   8   9
ATOM      9  C   UNL     1      -6.820 -14.402   7.187  1.00  0.00    -0.000 C 
BRANCH   9  10
ATOM     10  C   UNL     1      -7.087 -13.612   5.893  1.00  0.00    -0.003 C 
ATOM     11  C   UNL     1      -6.894 -12.106   6.059  1.00  0.00     0.004 C 
ENDBRANCH   9  10
ENDBRANCH   8   9
ENDBRANCH   7   8
ENDBRANCH   1   7
TORSDOF 7
ENDMDL
MODEL 3
REMARK VINA RESULT:    -0.288      2.614      5.305
REMARK INTER + INTRA:          -0.560
REMARK INTER:                  -0.331
REMARK INTRA:                  -0.229
REMARK UNBOUND:                -0.155
REMARK SMILES CCCCCCCCC(=O)[O-]
REMARK SMILES IDX 6 1 7 2 8 3 9 4 10 5 11 6 5 7 4 8 3 9 2 10 1 11
REMARK H PARENT
REMARK Flexibility Score: inf
ROOT
ATOM      1  C   UNL     1      -3.690 -12.944   7.151  1.00  0.00     0.000 C 
ENDROOT
BRANCH   1   2
ATOM      2  C   UNL     1      -5.196 -12.692   6.956  1.00  0.00     0.006 C 
BRANCH   2   3
ATOM      3  C   UNL     1      -5.861 -13.789   6.114  1.00  0.00     0.053 C 
BRANCH   3   4
ATOM      4  C   UNL     1      -6.295 -14.947   6.958  1.00  0.00     0.041 C 
ATOM      5  O   UNL     1      -5.886 -16.110   6.699  1.00  0.00    -0.550 OA
ATOM      6  O   UNL     1      -7.125 -14.738   8.052  1.00  0.00    -0.550 OA
ENDBRANCH   3   4
ENDBRANCH   2   3
ENDBRANCH   1   2
BRANCH   1   7
ATOM      7  C   UNL     1      -3.138 -14.014   6.193  1.00  0.00     0.000 C 
BRANCH   7   8
ATOM      8  C   UNL     1      -1.822 -14.632   6.695  1.00  0.00    -0.000 C 
BRANCH   8   9
ATOM      9  C   UNL     1      -1.375 -14.064   8.055  1.00  0.00    -0.000 C 
BRANCH   9  10
ATOM     10  C   UNL     1       0.106 -13.651   8.132  1.00  0.00    -0.003 C 
ATOM     11  C   UNL     1       1.003 -14.743   8.713  1.00  0.00     0.004 C 
ENDBRANCH   9  10
ENDBRANCH   8   9
ENDBRANCH   7   8
ENDBRANCH   1   7
TORSDOF 7
ENDMDL
MODEL 4
REMARK VINA RESULT:     0.684      2.630      5.546
REMARK INTER + INTRA:           0.810
REMARK INTER:                   1.110
REMARK INTRA:                  -0.300
REMARK UNBOUND:                -0.155
REMARK SMILES CCCCCCCCC(=O)[O-]
REMARK SMILES IDX 6 1 7 2 8 3 9 4 10 5 11 6 5 7 4 8 3 9 2 10 1 11
REMARK H PARENT
REMARK Flexibility Score: inf
ROOT
ATOM      1  C   UNL     1      -3.147 -13.570   7.906  1.00  0.00     0.000 C 
ENDROOT
BRANCH   1   2
ATOM      2  C   UNL     1      -4.366 -12.804   7.362  1.00  0.00     0.006 C 
BRANCH   2   3
ATOM      3  C   UNL     1      -5.110 -13.597   6.280  1.00  0.00     0.053 C 
BRANCH   3   4
ATOM      4  C   UNL     1      -6.010 -14.635   6.875  1.00  0.00     0.041 C 
ATOM      5  O   UNL     1      -7.116 -14.303   7.378  1.00  0.00    -0.550 OA
ATOM      6  O   UNL     1      -5.644 -15.974   6.843  1.00  0.00    -0.550 OA
ENDBRANCH   3   4
ENDBRANCH   2   3
ENDBRANCH   1   2
BRANCH   1   7
ATOM      7  C   UNL     1      -2.475 -14.451   6.840  1.00  0.00     0.000 C 
BRANCH   7   8
ATOM      8  C   UNL     1      -0.939 -14.381   6.899  1.00  0.00    -0.000 C 
BRANCH   8   9
ATOM      9  C   UNL     1      -0.414 -13.945   8.279  1.00  0.00    -0.000 C 
BRANCH   9  10
ATOM     10  C   UNL     1       1.088 -14.191   8.511  1.00  0.00    -0.003 C 
ATOM     11  C   UNL     1       1.385 -14.884   9.840  1.00  0.00     0.004 C 
ENDBRANCH   9  10
ENDBRANCH   8   9
ENDBRANCH   7   8
ENDBRANCH   1   7
TORSDOF 7
ENDMDL
MODEL 5
REMARK VINA RESULT:     1.076      1.326      2.042
REMARK INTER + INTRA:           1.361
REMARK INTER:                   1.312
REMARK INTRA:                   0.049
REMARK UNBOUND:                -0.155
REMARK SMILES CCCCCCCCC(=O)[O-]
REMARK SMILES IDX 6 1 7 2 8 3 9 4 10 5 11 6 5 7 4 8 3 9 2 10 1 11
REMARK H PARENT
REMARK Flexibility Score: inf
ROOT
ATOM      1  C   UNL     1      -2.535 -14.042   5.875  1.00  0.00     0.000 C 
ENDROOT
BRANCH   1   2
ATOM      2  C   UNL     1      -1.894 -14.926   6.960  1.00  0.00     0.006 C 
BRANCH   2   3
ATOM      3  C   UNL     1      -1.448 -14.111   8.180  1.00  0.00     0.053 C 
BRANCH   3   4
ATOM      4  C   UNL     1       0.044 -14.041   8.285  1.00  0.00     0.041 C 
ATOM      5  O   UNL     1       0.654 -14.745   9.132  1.00  0.00    -0.550 OA
ATOM      6  O   UNL     1       0.764 -13.224   7.424  1.00  0.00    -0.550 OA
ENDBRANCH   3   4
ENDBRANCH   2   3
ENDBRANCH   1   2
BRANCH   1   7
ATOM      7  C   UNL     1      -3.780 -13.293   6.380  1.00  0.00     0.000 C 
BRANCH   7   8
ATOM      8  C   UNL     1      -4.662 -14.163   7.293  1.00  0.00    -0.000 C 
BRANCH   8   9
ATOM      9  C   UNL     1      -5.794 -14.874   6.530  1.00  0.00    -0.000 C 
BRANCH   9  10
ATOM     10  C   UNL     1      -7.123 -14.099   6.469  1.00  0.00    -0.003 C 
ATOM     11  C   UNL     1      -6.973 -12.695   5.887  1.00  0.00     0.004 C 
ENDBRANCH   9  10
ENDBRANCH   8   9
ENDBRANCH   7   8
ENDBRANCH   1   7
TORSDOF 7
ENDMDL
