MODEL 1
REMARK VINA RESULT:    -4.436      0.000      0.000
REMARK INTER + INTRA:          -5.973
REMARK INTER:                  -5.732
REMARK INTRA:                  -0.241
REMARK UNBOUND:                -0.241
REMARK SMILES CCO[C@@H]1O[C@H](CO)[C@@H](O)[C@@H](O)[C@H]1O
REMARK SMILES IDX 4 1 13 2 11 3 9 4 6 5 5 6 3 7 2 8 1 9 14 10 12 12 7 14 8 15
REMARK SMILES IDX 10 17
REMARK H PARENT 14 11 12 13 8 16 10 18
REMARK Flexibility Score: inf
ROOT
ATOM      1  C   UNL     1      58.675 -39.562  47.121  1.00  0.00     0.281 C 
ATOM      2  C   UNL     1      57.138 -39.407  47.113  1.00  0.00     0.202 C 
ATOM      3  C   UNL     1      56.509 -40.399  46.130  1.00  0.00     0.179 C 
ATOM      4  C   UNL     1      56.996 -41.830  46.426  1.00  0.00     0.177 C 
ATOM      5  C   UNL     1      58.538 -41.879  46.523  1.00  0.00     0.178 C 
ATOM      6  O   UNL     1      59.079 -40.897  47.403  1.00  0.00    -0.341 OA
ENDROOT
BRANCH   1   7
ATOM      7  O   UNL     1      59.237 -39.127  45.890  1.00  0.00    -0.350 OA
BRANCH   7   8
ATOM      8  C   UNL     1      59.550 -37.747  45.905  1.00  0.00     0.160 C 
ATOM      9  C   UNL     1      60.660 -37.469  46.913  1.00  0.00     0.035 C 
ENDBRANCH   7   8
ENDBRANCH   1   7
BRANCH   2  10
ATOM     10  O   UNL     1      56.627 -39.620  48.406  1.00  0.00    -0.385 OA
ATOM     11  H   UNL     1      56.293 -38.742  48.731  1.00  0.00     0.211 HD
ENDBRANCH   2  10
BRANCH   3  12
ATOM     12  O   UNL     1      55.109 -40.322  46.216  1.00  0.00    -0.387 OA
ATOM     13  H   UNL     1      54.747 -40.892  45.487  1.00  0.00     0.211 HD
ENDBRANCH   3  12
BRANCH   5  14
ATOM     14  C   UNL     1      59.232 -41.908  45.144  1.00  0.00     0.191 C 
BRANCH  14  15
ATOM     15  O   UNL     1      58.535 -42.742  44.257  1.00  0.00    -0.394 OA
ATOM     16  H   UNL     1      58.775 -42.444  43.341  1.00  0.00     0.210 HD
ENDBRANCH  14  15
ENDBRANCH   5  14
BRANCH   4  17
ATOM     17  O   UNL     1      56.449 -42.294  47.637  1.00  0.00    -0.387 OA
ATOM     18  H   UNL     1      55.627 -42.803  47.409  1.00  0.00     0.211 HD
ENDBRANCH   4  17
TORSDOF 7
ENDMDL
MODEL 2
REMARK VINA RESULT:    -4.426     10.974     12.918
REMARK INTER + INTRA:          -5.960
REMARK INTER:                  -5.566
REMARK INTRA:                  -0.394
REMARK UNBOUND:                -0.241
REMARK SMILES CCO[C@@H]1O[C@H](CO)[C@@H](O)[C@@H](O)[C@H]1O
REMARK SMILES IDX 4 1 13 2 11 3 9 4 6 5 5 6 3 7 2 8 1 9 14 10 12 12 7 14 8 15
REMARK SMILES IDX 10 17
REMARK H PARENT 14 11 12 13 8 16 10 18
REMARK Flexibility Score: inf
ROOT
ATOM      1  C   UNL     1      60.477 -41.842  34.328  1.00  0.00     0.281 C 
ATOM      2  C   UNL     1      59.402 -42.927  34.559  1.00  0.00     0.202 C 
ATOM      3  C   UNL     1      58.007 -42.364  34.270  1.00  0.00     0.179 C 
ATOM      4  C   UNL     1      57.966 -41.725  32.869  1.00  0.00     0.177 C 
ATOM      5  C   UNL     1      59.135 -40.732  32.681  1.00  0.00     0.178 C 
ATOM      6  O   UNL     1      60.404 -41.285  33.021  1.00  0.00    -0.341 OA
ENDROOT
BRANCH   1   7
ATOM      7  O   UNL     1      60.383 -40.816  35.307  1.00  0.00    -0.350 OA
BRANCH   7   8
ATOM      8  C   UNL     1      61.576 -40.685  36.057  1.00  0.00     0.160 C 
ATOM      9  C   UNL     1      61.256 -40.277  37.491  1.00  0.00     0.035 C 
ENDBRANCH   7   8
ENDBRANCH   1   7
BRANCH   2  10
ATOM     10  O   UNL     1      59.654 -44.037  33.734  1.00  0.00    -0.385 OA
ATOM     11  H   UNL     1      60.170 -43.703  32.953  1.00  0.00     0.211 HD
ENDBRANCH   2  10
BRANCH   3  12
ATOM     12  O   UNL     1      57.054 -43.390  34.377  1.00  0.00    -0.387 OA
ATOM     13  H   UNL     1      57.529 -44.242  34.188  1.00  0.00     0.211 HD
ENDBRANCH   3  12
BRANCH   5  14
ATOM     14  C   UNL     1      58.875 -39.358  33.335  1.00  0.00     0.191 C 
BRANCH  14  15
ATOM     15  O   UNL     1      60.053 -38.597  33.374  1.00  0.00    -0.394 OA
ATOM     16  H   UNL     1      60.718 -39.075  32.813  1.00  0.00     0.210 HD
ENDBRANCH  14  15
ENDBRANCH   5  14
BRANCH   4  17
ATOM     17  O   UNL     1      58.048 -42.718  31.875  1.00  0.00    -0.387 OA
ATOM     18  H   UNL     1      58.135 -43.591  32.342  1.00  0.00     0.211 HD
ENDBRANCH   4  17
TORSDOF 7
ENDMDL
MODEL 3
REMARK VINA RESULT:    -4.348      1.435      3.505
REMARK INTER + INTRA:          -5.859
REMARK INTER:                  -5.459
REMARK INTRA:                  -0.400
REMARK UNBOUND:                -0.241
REMARK SMILES CCO[C@@H]1O[C@H](CO)[C@@H](O)[C@@H](O)[C@H]1O
REMARK SMILES IDX 4 1 13 2 11 3 9 4 6 5 5 6 3 7 2 8 1 9 14 10 12 12 7 14 8 15
REMARK SMILES IDX 10 17
REMARK H PARENT 14 11 12 13 8 16 10 18
REMARK Flexibility Score: inf
ROOT
ATOM      1  C   UNL     1      57.474 -40.175  47.543  1.00  0.00     0.281 C 
ATOM      2  C   UNL     1      57.133 -41.453  46.745  1.00  0.00     0.202 C 
ATOM      3  C   UNL     1      57.814 -41.422  45.374  1.00  0.00     0.179 C 
ATOM      4  C   UNL     1      59.325 -41.162  45.532  1.00  0.00     0.177 C 
ATOM      5  C   UNL     1      59.583 -39.931  46.429  1.00  0.00     0.178 C 
ATOM      6  O   UNL     1      58.879 -39.979  47.667  1.00  0.00    -0.341 OA
ENDROOT
BRANCH   1   7
ATOM      7  O   UNL     1      56.867 -39.031  46.957  1.00  0.00    -0.350 OA
BRANCH   7   8
ATOM      8  C   UNL     1      55.597 -38.756  47.517  1.00  0.00     0.160 C 
ATOM      9  C   UNL     1      54.515 -38.865  46.449  1.00  0.00     0.035 C 
ENDBRANCH   7   8
ENDBRANCH   1   7
BRANCH   2  10
ATOM     10  O   UNL     1      57.543 -42.590  47.462  1.00  0.00    -0.385 OA
ATOM     11  H   UNL     1      56.795 -42.834  48.068  1.00  0.00     0.211 HD
ENDBRANCH   2  10
BRANCH   3  12
ATOM     12  O   UNL     1      57.585 -42.636  44.707  1.00  0.00    -0.387 OA
ATOM     13  H   UNL     1      58.305 -42.730  44.029  1.00  0.00     0.211 HD
ENDBRANCH   3  12
BRANCH   5  14
ATOM     14  C   UNL     1      59.412 -38.590  45.683  1.00  0.00     0.191 C 
BRANCH  14  15
ATOM     15  O   UNL     1      59.456 -37.514  46.582  1.00  0.00    -0.394 OA
ATOM     16  H   UNL     1      59.996 -37.816  47.359  1.00  0.00     0.210 HD
ENDBRANCH  14  15
ENDBRANCH   5  14
BRANCH   4  17
ATOM     17  O   UNL     1      59.957 -42.282  46.102  1.00  0.00    -0.387 OA
ATOM     18  H   UNL     1      59.955 -42.148  47.087  1.00  0.00     0.211 HD
ENDBRANCH   4  17
TORSDOF 7
ENDMDL
MODEL 4
REMARK VINA RESULT:    -4.198      1.687      3.297
REMARK INTER + INTRA:          -5.665
REMARK INTER:                  -5.270
REMARK INTRA:                  -0.396
REMARK UNBOUND:                -0.241
REMARK SMILES CCO[C@@H]1O[C@H](CO)[C@@H](O)[C@@H](O)[C@H]1O
REMARK SMILES IDX 4 1 13 2 11 3 9 4 6 5 5 6 3 7 2 8 1 9 14 10 12 12 7 14 8 15
REMARK SMILES IDX 10 17
REMARK H PARENT 14 11 12 13 8 16 10 18
REMARK Flexibility Score: inf
ROOT
ATOM      1  C   UNL     1      58.803 -40.768  46.559  1.00  0.00     0.281 C 
ATOM      2  C   UNL     1      57.809 -41.849  47.039  1.00  0.00     0.202 C 
ATOM      3  C   UNL     1      56.790 -41.240  48.008  1.00  0.00     0.179 C 
ATOM      4  C   UNL     1      56.121 -40.005  47.377  1.00  0.00     0.177 C 
ATOM      5  C   UNL     1      57.181 -39.024  46.826  1.00  0.00     0.178 C 
ATOM      6  O   UNL     1      58.141 -39.650  45.979  1.00  0.00    -0.341 OA
ENDROOT
BRANCH   1   7
ATOM      7  O   UNL     1      59.648 -40.345  47.620  1.00  0.00    -0.350 OA
BRANCH   7   8
ATOM      8  C   UNL     1      60.907 -40.989  47.587  1.00  0.00     0.160 C 
ATOM      9  C   UNL     1      62.028 -39.961  47.699  1.00  0.00     0.035 C 
ENDBRANCH   7   8
ENDBRANCH   1   7
BRANCH   2  10
ATOM     10  O   UNL     1      57.146 -42.416  45.937  1.00  0.00    -0.385 OA
ATOM     11  H   UNL     1      56.172 -42.290  46.090  1.00  0.00     0.211 HD
ENDBRANCH   2  10
BRANCH   3  12
ATOM     12  O   UNL     1      55.829 -42.207  48.349  1.00  0.00    -0.387 OA
ATOM     13  H   UNL     1      55.874 -42.912  47.651  1.00  0.00     0.211 HD
ENDBRANCH   3  12
BRANCH   5  14
ATOM     14  C   UNL     1      57.819 -38.142  47.921  1.00  0.00     0.191 C 
BRANCH  14  15
ATOM     15  O   UNL     1      58.924 -37.443  47.413  1.00  0.00    -0.394 OA
ATOM     16  H   UNL     1      59.035 -36.637  47.981  1.00  0.00     0.210 HD
ENDBRANCH  14  15
ENDBRANCH   5  14
BRANCH   4  17
ATOM     17  O   UNL     1      55.269 -40.392  46.326  1.00  0.00    -0.387 OA
ATOM     18  H   UNL     1      54.400 -39.931  46.470  1.00  0.00     0.211 HD
ENDBRANCH   4  17
TORSDOF 7
ENDMDL
MODEL 5
REMARK VINA RESULT:    -4.034      1.515      3.314
REMARK INTER + INTRA:          -5.454
REMARK INTER:                  -5.193
REMARK INTRA:                  -0.261
REMARK UNBOUND:                -0.241
REMARK SMILES CCO[C@@H]1O[C@H](CO)[C@@H](O)[C@@H](O)[C@H]1O
REMARK SMILES IDX 4 1 13 2 11 3 9 4 6 5 5 6 3 7 2 8 1 9 14 10 12 12 7 14 8 15
REMARK SMILES IDX 10 17
REMARK H PARENT 14 11 12 13 8 16 10 18
REMARK Flexibility Score: inf
ROOT
ATOM      1  C   UNL     1      57.972 -39.142  46.597  1.00  0.00     0.281 C 
ATOM      2  C   UNL     1      59.167 -40.095  46.377  1.00  0.00     0.202 C 
ATOM      3  C   UNL     1      58.848 -41.486  46.933  1.00  0.00     0.179 C 
ATOM      4  C   UNL     1      57.516 -42.002  46.355  1.00  0.00     0.177 C 
ATOM      5  C   UNL     1      56.398 -40.948  46.519  1.00  0.00     0.178 C 
ATOM      6  O   UNL     1      56.766 -39.657  46.042  1.00  0.00    -0.341 OA
ENDROOT
BRANCH   1   7
ATOM      7  O   UNL     1      57.796 -38.855  47.977  1.00  0.00    -0.350 OA
BRANCH   7   8
ATOM      8  C   UNL     1      57.361 -37.526  48.194  1.00  0.00     0.160 C 
ATOM      9  C   UNL     1      58.189 -36.557  47.358  1.00  0.00     0.035 C 
ENDBRANCH   7   8
ENDBRANCH   1   7
BRANCH   2  10
ATOM     10  O   UNL     1      59.467 -40.182  45.006  1.00  0.00    -0.385 OA
ATOM     11  H   UNL     1      59.698 -41.131  44.822  1.00  0.00     0.211 HD
ENDBRANCH   2  10
BRANCH   3  12
ATOM     12  O   UNL     1      59.897 -42.368  46.628  1.00  0.00    -0.387 OA
ATOM     13  H   UNL     1      59.655 -43.248  47.022  1.00  0.00     0.211 HD
ENDBRANCH   3  12
BRANCH   5  14
ATOM     14  C   UNL     1      55.792 -40.922  47.939  1.00  0.00     0.191 C 
BRANCH  14  15
ATOM     15  O   UNL     1      55.806 -42.205  48.507  1.00  0.00    -0.394 OA
ATOM     16  H   UNL     1      56.563 -42.222  49.149  1.00  0.00     0.210 HD
ENDBRANCH  14  15
ENDBRANCH   5  14
BRANCH   4  17
ATOM     17  O   UNL     1      57.660 -42.304  44.988  1.00  0.00    -0.387 OA
ATOM     18  H   UNL     1      58.615 -42.530  44.838  1.00  0.00     0.211 HD
ENDBRANCH   4  17
TORSDOF 7
ENDMDL
MODEL 6
REMARK VINA RESULT:    -3.947     11.931     13.146
REMARK INTER + INTRA:          -5.341
REMARK INTER:                  -5.067
REMARK INTRA:                  -0.274
REMARK UNBOUND:                -0.241
REMARK SMILES CCO[C@@H]1O[C@H](CO)[C@@H](O)[C@@H](O)[C@H]1O
REMARK SMILES IDX 4 1 13 2 11 3 9 4 6 5 5 6 3 7 2 8 1 9 14 10 12 12 7 14 8 15
REMARK SMILES IDX 10 17
REMARK H PARENT 14 11 12 13 8 16 10 18
REMARK Flexibility Score: inf
ROOT
ATOM      1  C   UNL     1      58.319 -40.371  33.391  1.00  0.00     0.281 C 
ATOM      2  C   UNL     1      57.886 -41.748  32.839  1.00  0.00     0.202 C 
ATOM      3  C   UNL     1      59.049 -42.742  32.916  1.00  0.00     0.179 C 
ATOM      4  C   UNL     1      59.623 -42.787  34.345  1.00  0.00     0.177 C 
ATOM      5  C   UNL     1      59.930 -41.364  34.862  1.00  0.00     0.178 C 
ATOM      6  O   UNL     1      58.837 -40.462  34.714  1.00  0.00    -0.341 OA
ENDROOT
BRANCH   1   7
ATOM      7  O   UNL     1      59.268 -39.754  32.532  1.00  0.00    -0.350 OA
BRANCH   7   8
ATOM      8  C   UNL     1      58.990 -38.381  32.331  1.00  0.00     0.160 C 
ATOM      9  C   UNL     1      60.075 -37.523  32.974  1.00  0.00     0.035 C 
ENDBRANCH   7   8
ENDBRANCH   1   7
BRANCH   2  10
ATOM     10  O   UNL     1      56.788 -42.235  33.570  1.00  0.00    -0.385 OA
ATOM     11  H   UNL     1      56.879 -41.882  34.495  1.00  0.00     0.211 HD
ENDBRANCH   2  10
BRANCH   3  12
ATOM     12  O   UNL     1      58.609 -44.014  32.515  1.00  0.00    -0.387 OA
ATOM     13  H   UNL     1      59.241 -44.671  32.909  1.00  0.00     0.211 HD
ENDBRANCH   3  12
BRANCH   5  14
ATOM     14  C   UNL     1      61.263 -40.798  34.326  1.00  0.00     0.191 C 
BRANCH  14  15
ATOM     15  O   UNL     1      61.908 -40.033  35.310  1.00  0.00    -0.394 OA
ATOM     16  H   UNL     1      62.453 -40.665  35.848  1.00  0.00     0.210 HD
ENDBRANCH  14  15
ENDBRANCH   5  14
BRANCH   4  17
ATOM     17  O   UNL     1      58.709 -43.402  35.220  1.00  0.00    -0.387 OA
ATOM     18  H   UNL     1      59.169 -43.509  36.094  1.00  0.00     0.211 HD
ENDBRANCH   4  17
TORSDOF 7
ENDMDL
MODEL 7
REMARK VINA RESULT:    -3.861     11.534     12.822
REMARK INTER + INTRA:          -5.230
REMARK INTER:                  -5.000
REMARK INTRA:                  -0.230
REMARK UNBOUND:                -0.241
REMARK SMILES CCO[C@@H]1O[C@H](CO)[C@@H](O)[C@@H](O)[C@H]1O
REMARK SMILES IDX 4 1 13 2 11 3 9 4 6 5 5 6 3 7 2 8 1 9 14 10 12 12 7 14 8 15
REMARK SMILES IDX 10 17
REMARK H PARENT 14 11 12 13 8 16 10 18
REMARK Flexibility Score: inf
ROOT
ATOM      1  C   UNL     1      59.396 -39.026  34.036  1.00  0.00     0.281 C 
ATOM      2  C   UNL     1      58.435 -40.082  34.625  1.00  0.00     0.202 C 
ATOM      3  C   UNL     1      58.913 -41.493  34.271  1.00  0.00     0.179 C 
ATOM      4  C   UNL     1      60.385 -41.680  34.686  1.00  0.00     0.177 C 
ATOM      5  C   UNL     1      61.261 -40.527  34.147  1.00  0.00     0.178 C 
ATOM      6  O   UNL     1      60.742 -39.235  34.450  1.00  0.00    -0.341 OA
ENDROOT
BRANCH   1   7
ATOM      7  O   UNL     1      59.316 -38.999  32.618  1.00  0.00    -0.350 OA
BRANCH   7   8
ATOM      8  C   UNL     1      59.453 -37.688  32.101  1.00  0.00     0.160 C 
ATOM      9  C   UNL     1      58.905 -36.670  33.095  1.00  0.00     0.035 C 
ENDBRANCH   7   8
ENDBRANCH   1   7
BRANCH   2  10
ATOM     10  O   UNL     1      58.357 -39.935  36.021  1.00  0.00    -0.385 OA
ATOM     11  H   UNL     1      59.196 -40.312  36.397  1.00  0.00     0.211 HD
ENDBRANCH   2  10
BRANCH   3  12
ATOM     12  O   UNL     1      58.093 -42.441  34.905  1.00  0.00    -0.387 OA
ATOM     13  H   UNL     1      57.176 -42.059  34.922  1.00  0.00     0.211 HD
ENDBRANCH   3  12
BRANCH   5  14
ATOM     14  C   UNL     1      61.640 -40.698  32.660  1.00  0.00     0.191 C 
BRANCH  14  15
ATOM     15  O   UNL     1      62.897 -40.132  32.401  1.00  0.00    -0.394 OA
ATOM     16  H   UNL     1      63.002 -39.373  33.032  1.00  0.00     0.210 HD
ENDBRANCH  14  15
ENDBRANCH   5  14
BRANCH   4  17
ATOM     17  O   UNL     1      60.497 -41.720  36.088  1.00  0.00    -0.387 OA
ATOM     18  H   UNL     1      59.801 -42.347  36.419  1.00  0.00     0.211 HD
ENDBRANCH   4  17
TORSDOF 7
ENDMDL
MODEL 8
REMARK VINA RESULT:    -3.811     11.589     13.230
REMARK INTER + INTRA:          -5.166
REMARK INTER:                  -4.927
REMARK INTRA:                  -0.239
REMARK UNBOUND:                -0.241
REMARK SMILES CCO[C@@H]1O[C@H](CO)[C@@H](O)[C@@H](O)[C@H]1O
REMARK SMILES IDX 4 1 13 2 11 3 9 4 6 5 5 6 3 7 2 8 1 9 14 10 12 12 7 14 8 15
REMARK SMILES IDX 10 17
REMARK H PARENT 14 11 12 13 8 16 10 18
REMARK Flexibility Score: inf
ROOT
ATOM      1  C   UNL     1      61.311 -40.240  33.235  1.00  0.00     0.281 C 
ATOM      2  C   UNL     1      61.029 -40.018  34.737  1.00  0.00     0.202 C 
ATOM      3  C   UNL     1      59.525 -40.106  35.014  1.00  0.00     0.179 C 
ATOM      4  C   UNL     1      58.952 -41.422  34.452  1.00  0.00     0.177 C 
ATOM      5  C   UNL     1      59.369 -41.621  32.977  1.00  0.00     0.178 C 
ATOM      6  O   UNL     1      60.769 -41.468  32.762  1.00  0.00    -0.341 OA
ENDROOT
BRANCH   1   7
ATOM      7  O   UNL     1      60.822 -39.155  32.459  1.00  0.00    -0.350 OA
BRANCH   7   8
ATOM      8  C   UNL     1      61.777 -38.118  32.332  1.00  0.00     0.160 C 
ATOM      9  C   UNL     1      63.135 -38.694  31.948  1.00  0.00     0.035 C 
ENDBRANCH   7   8
ENDBRANCH   1   7
BRANCH   2  10
ATOM     10  O   UNL     1      61.716 -40.977  35.502  1.00  0.00    -0.385 OA
ATOM     11  H   UNL     1      61.398 -40.879  36.438  1.00  0.00     0.211 HD
ENDBRANCH   2  10
BRANCH   3  12
ATOM     12  O   UNL     1      59.294 -40.013  36.396  1.00  0.00    -0.387 OA
ATOM     13  H   UNL     1      59.529 -40.897  36.785  1.00  0.00     0.211 HD
ENDBRANCH   3  12
BRANCH   5  14
ATOM     14  C   UNL     1      58.509 -40.803  31.989  1.00  0.00     0.191 C 
BRANCH  14  15
ATOM     15  O   UNL     1      57.143 -41.003  32.238  1.00  0.00    -0.394 OA
ATOM     16  H   UNL     1      56.788 -41.524  31.471  1.00  0.00     0.210 HD
ENDBRANCH  14  15
ENDBRANCH   5  14
BRANCH   4  17
ATOM     17  O   UNL     1      59.412 -42.518  35.206  1.00  0.00    -0.387 OA
ATOM     18  H   UNL     1      60.404 -42.516  35.148  1.00  0.00     0.211 HD
ENDBRANCH   4  17
TORSDOF 7
ENDMDL
MODEL 9
REMARK VINA RESULT:    -3.784     12.052     13.566
REMARK INTER + INTRA:          -5.131
REMARK INTER:                  -4.681
REMARK INTRA:                  -0.449
REMARK UNBOUND:                -0.241
REMARK SMILES CCO[C@@H]1O[C@H](CO)[C@@H](O)[C@@H](O)[C@H]1O
REMARK SMILES IDX 4 1 13 2 11 3 9 4 6 5 5 6 3 7 2 8 1 9 14 10 12 12 7 14 8 15
REMARK SMILES IDX 10 17
REMARK H PARENT 14 11 12 13 8 16 10 18
REMARK Flexibility Score: inf
ROOT
ATOM      1  C   UNL     1      60.081 -41.262  32.501  1.00  0.00     0.281 C 
ATOM      2  C   UNL     1      59.720 -42.560  33.258  1.00  0.00     0.202 C 
ATOM      3  C   UNL     1      59.051 -42.228  34.595  1.00  0.00     0.179 C 
ATOM      4  C   UNL     1      57.861 -41.274  34.376  1.00  0.00     0.177 C 
ATOM      5  C   UNL     1      58.279 -40.056  33.522  1.00  0.00     0.178 C 
ATOM      6  O   UNL     1      58.951 -40.416  32.318  1.00  0.00    -0.341 OA
ENDROOT
BRANCH   1   7
ATOM      7  O   UNL     1      61.121 -40.558  33.165  1.00  0.00    -0.350 OA
BRANCH   7   8
ATOM      8  C   UNL     1      62.242 -40.349  32.326  1.00  0.00     0.160 C 
ATOM      9  C   UNL     1      62.615 -38.871  32.304  1.00  0.00     0.035 C 
ENDBRANCH   7   8
ENDBRANCH   1   7
BRANCH   2  10
ATOM     10  O   UNL     1      58.862 -43.351  32.473  1.00  0.00    -0.385 OA
ATOM     11  H   UNL     1      59.016 -43.091  31.527  1.00  0.00     0.211 HD
ENDBRANCH   2  10
BRANCH   3  12
ATOM     12  O   UNL     1      58.630 -43.414  35.218  1.00  0.00    -0.387 OA
ATOM     13  H   UNL     1      57.653 -43.322  35.377  1.00  0.00     0.211 HD
ENDBRANCH   3  12
BRANCH   5  14
ATOM     14  C   UNL     1      59.022 -38.972  34.334  1.00  0.00     0.191 C 
BRANCH  14  15
ATOM     15  O   UNL     1      59.473 -37.945  33.491  1.00  0.00    -0.394 OA
ATOM     16  H   UNL     1      59.109 -38.139  32.589  1.00  0.00     0.210 HD
ENDBRANCH  14  15
ENDBRANCH   5  14
BRANCH   4  17
ATOM     17  O   UNL     1      56.807 -41.945  33.728  1.00  0.00    -0.387 OA
ATOM     18  H   UNL     1      57.139 -42.208  32.829  1.00  0.00     0.211 HD
ENDBRANCH   4  17
TORSDOF 7
ENDMDL
