MODEL 1
REMARK VINA RESULT:    -4.721      0.000      0.000
REMARK INTER + INTRA:          -5.842
REMARK INTER:                  -6.652
REMARK INTRA:                   0.810
REMARK UNBOUND:                 0.810
REMARK SMILES CC1=CCC(=C(C)C)C(=O)CC(C)=CCC1
REMARK SMILES IDX 12 1 14 2 13 3 15 4 16 5 2 6 1 7 3 8 11 10 9 11 10 12 5 13
REMARK SMILES IDX 6 14 7 15 8 16 4 17
REMARK H PARENT
REMARK Flexibility Score: 60.00
ROOT
ATOM      1  C   UNL     1      35.392  19.557  24.978  1.00  0.00    -0.070 C 
ATOM      2  C   UNL     1      35.798  20.821  25.229  1.00  0.00    -0.027 C 
ATOM      3  C   UNL     1      33.986  19.176  25.369  1.00  0.00     0.039 C 
ENDROOT
BRANCH   2   4
ATOM      4  C   UNL     1      37.194  21.361  24.999  1.00  0.00     0.032 C 
BRANCH   4   5
ATOM      5  C   UNL     1      37.842  22.024  26.232  1.00  0.00     0.034 C 
BRANCH   5   6
ATOM      6  C   UNL     1      38.398  21.020  27.227  1.00  0.00    -0.077 C 
ATOM      7  C   UNL     1      38.160  21.280  28.694  1.00  0.00     0.039 C 
ATOM      8  C   UNL     1      39.152  19.946  26.888  1.00  0.00    -0.023 CG0
ATOM      9  G   UNL     1      39.503  19.481  25.488  1.00  0.00     0.000 G0
ENDBRANCH   5   6
ENDBRANCH   4   5
ENDBRANCH   2   4
BRANCH   1  10
ATOM     10  C   UNL     1      36.303  18.487  24.412  1.00  0.00     0.111 C 
BRANCH  10  11
ATOM     11  C   UNL     1      37.349  18.061  25.408  1.00  0.00     0.163 C 
ATOM     12  O   UNL     1      36.963  17.666  26.542  1.00  0.00    -0.294 OA
BRANCH  11  13
ATOM     13  C   UNL     1      38.812  18.151  25.122  1.00  0.00    -0.002 C 
ATOM     14  C   UNL     1      39.497  17.072  24.638  1.00  0.00    -0.069 C 
ATOM     15  C   UNL     1      38.778  15.806  24.225  1.00  0.00     0.039 C 
ATOM     16  C   UNL     1      41.003  17.082  24.488  1.00  0.00     0.039 C 
BRANCH  13  17
ATOM     17  C   UNL     1      39.512  19.452  25.483  1.00  0.00     0.066 CG0
ATOM     18  G   UNL     1      39.142  19.940  26.869  1.00  0.00     0.000 G0
ENDBRANCH  13  17
ENDBRANCH  11  13
ENDBRANCH  10  11
ENDBRANCH   1  10
TORSDOF 0
ENDMDL
MODEL 2
REMARK VINA RESULT:    -4.671      1.619      4.357
REMARK INTER + INTRA:          -5.772
REMARK INTER:                  -6.324
REMARK INTRA:                   0.552
REMARK UNBOUND:                 0.810
REMARK SMILES CC1=CCC(=C(C)C)C(=O)CC(C)=CCC1
REMARK SMILES IDX 12 1 14 2 13 3 15 4 16 5 2 6 1 7 3 8 11 10 9 11 10 12 5 13
REMARK SMILES IDX 6 14 7 15 8 16 4 17
REMARK H PARENT
REMARK Flexibility Score: 60.00
ROOT
ATOM      1  C   UNL     1      35.717  19.666  25.020  1.00  0.00    -0.070 C 
ATOM      2  C   UNL     1      36.248  18.449  25.269  1.00  0.00    -0.027 C 
ATOM      3  C   UNL     1      35.153  19.923  23.645  1.00  0.00     0.039 C 
ENDROOT
BRANCH   2   4
ATOM      4  C   UNL     1      36.945  18.036  26.548  1.00  0.00     0.032 C 
BRANCH   4   5
ATOM      5  C   UNL     1      38.396  17.546  26.366  1.00  0.00     0.034 C 
BRANCH   5   6
ATOM      6  C   UNL     1      39.325  18.619  25.823  1.00  0.00    -0.077 C 
ATOM      7  C   UNL     1      40.135  18.290  24.595  1.00  0.00     0.039 C 
ATOM      8  C   UNL     1      39.524  19.824  26.411  1.00  0.00    -0.023 CG0
ATOM      9  G   UNL     1      38.814  20.375  27.631  1.00  0.00     0.000 G0
ENDBRANCH   5   6
ENDBRANCH   4   5
ENDBRANCH   2   4
BRANCH   1  10
ATOM     10  C   UNL     1      35.743  20.806  26.018  1.00  0.00     0.111 C 
BRANCH  10  11
ATOM     11  C   UNL     1      37.091  21.475  26.064  1.00  0.00     0.163 C 
ATOM     12  O   UNL     1      37.565  21.930  24.988  1.00  0.00    -0.294 OA
BRANCH  11  13
ATOM     13  C   UNL     1      37.902  21.558  27.315  1.00  0.00    -0.002 C 
ATOM     14  C   UNL     1      37.878  22.684  28.090  1.00  0.00    -0.069 C 
ATOM     15  C   UNL     1      36.917  23.817  27.799  1.00  0.00     0.039 C 
ATOM     16  C   UNL     1      38.804  22.862  29.273  1.00  0.00     0.039 C 
BRANCH  13  17
ATOM     17  C   UNL     1      38.817  20.386  27.630  1.00  0.00     0.066 CG0
ATOM     18  G   UNL     1      39.500  19.839  26.392  1.00  0.00     0.000 G0
ENDBRANCH  13  17
ENDBRANCH  11  13
ENDBRANCH  10  11
ENDBRANCH   1  10
TORSDOF 0
ENDMDL
MODEL 3
REMARK VINA RESULT:    -4.342      2.495      4.712
REMARK INTER + INTRA:          -5.309
REMARK INTER:                  -5.469
REMARK INTRA:                   0.160
REMARK UNBOUND:                 0.810
REMARK SMILES CC1=CCC(=C(C)C)C(=O)CC(C)=CCC1
REMARK SMILES IDX 12 1 14 2 13 3 15 4 16 5 2 6 1 7 3 8 11 10 9 11 10 12 5 13
REMARK SMILES IDX 6 14 7 15 8 16 4 17
REMARK H PARENT
REMARK Flexibility Score: 60.00
ROOT
ATOM      1  C   UNL     1      37.124  22.473  27.490  1.00  0.00    -0.070 C 
ATOM      2  C   UNL     1      36.841  21.938  26.282  1.00  0.00    -0.027 C 
ATOM      3  C   UNL     1      36.922  23.957  27.669  1.00  0.00     0.039 C 
ENDROOT
BRANCH   2   4
ATOM      4  C   UNL     1      37.071  20.496  25.880  1.00  0.00     0.032 C 
BRANCH   4   5
ATOM      5  C   UNL     1      38.524  20.156  25.492  1.00  0.00     0.034 C 
BRANCH   5   6
ATOM      6  C   UNL     1      39.074  18.950  26.234  1.00  0.00    -0.077 C 
ATOM      7  C   UNL     1      38.476  17.601  25.922  1.00  0.00     0.039 C 
ATOM      8  C   UNL     1      40.016  19.017  27.207  1.00  0.00    -0.023 CG0
ATOM      9  G   UNL     1      40.765  20.250  27.672  1.00  0.00     0.000 G0
ENDBRANCH   5   6
ENDBRANCH   4   5
ENDBRANCH   2   4
BRANCH   1  10
ATOM     10  C   UNL     1      37.717  21.678  28.635  1.00  0.00     0.111 C 
BRANCH  10  11
ATOM     11  C   UNL     1      39.190  21.948  28.796  1.00  0.00     0.163 C 
ATOM     12  O   UNL     1      39.584  23.144  28.742  1.00  0.00    -0.294 OA
BRANCH  11  13
ATOM     13  C   UNL     1      40.193  20.853  28.954  1.00  0.00    -0.002 C 
ATOM     14  C   UNL     1      40.617  20.466  30.195  1.00  0.00    -0.069 C 
ATOM     15  C   UNL     1      39.976  21.018  31.450  1.00  0.00     0.039 C 
ATOM     16  C   UNL     1      41.743  19.474  30.383  1.00  0.00     0.039 C 
BRANCH  13  17
ATOM     17  C   UNL     1      40.784  20.263  27.684  1.00  0.00     0.066 CG0
ATOM     18  G   UNL     1      40.030  19.034  27.214  1.00  0.00     0.000 G0
ENDBRANCH  13  17
ENDBRANCH  11  13
ENDBRANCH  10  11
ENDBRANCH   1  10
TORSDOF 0
ENDMDL
MODEL 4
REMARK VINA RESULT:    -4.212      1.833      5.095
REMARK INTER + INTRA:          -5.125
REMARK INTER:                  -5.350
REMARK INTRA:                   0.225
REMARK UNBOUND:                 0.810
REMARK SMILES CC1=CCC(=C(C)C)C(=O)CC(C)=CCC1
REMARK SMILES IDX 12 1 14 2 13 3 15 4 16 5 2 6 1 7 3 8 11 10 9 11 10 12 5 13
REMARK SMILES IDX 6 14 7 15 8 16 4 17
REMARK H PARENT
REMARK Flexibility Score: 60.00
ROOT
ATOM      1  C   UNL     1      40.970  18.861  25.327  1.00  0.00    -0.070 C 
ATOM      2  C   UNL     1      41.220  17.613  24.874  1.00  0.00    -0.027 C 
ATOM      3  C   UNL     1      41.030  19.997  24.337  1.00  0.00     0.039 C 
ENDROOT
BRANCH   2   4
ATOM      4  C   UNL     1      41.302  16.364  25.726  1.00  0.00     0.032 C 
BRANCH   4   5
ATOM      5  C   UNL     1      39.981  15.960  26.413  1.00  0.00     0.034 C 
BRANCH   5   6
ATOM      6  C   UNL     1      38.775  16.070  25.497  1.00  0.00    -0.077 C 
ATOM      7  C   UNL     1      38.709  15.143  24.309  1.00  0.00     0.039 C 
ATOM      8  C   UNL     1      37.790  16.991  25.638  1.00  0.00    -0.023 CG0
ATOM      9  G   UNL     1      37.638  18.003  26.756  1.00  0.00     0.000 G0
ENDBRANCH   5   6
ENDBRANCH   4   5
ENDBRANCH   2   4
BRANCH   1  10
ATOM     10  C   UNL     1      40.727  19.183  26.788  1.00  0.00     0.111 C 
BRANCH  10  11
ATOM     11  C   UNL     1      39.402  19.869  26.993  1.00  0.00     0.163 C 
ATOM     12  O   UNL     1      39.356  20.848  27.786  1.00  0.00    -0.294 OA
BRANCH  11  13
ATOM     13  C   UNL     1      38.144  19.392  26.344  1.00  0.00    -0.002 C 
ATOM     14  C   UNL     1      37.447  20.202  25.492  1.00  0.00    -0.069 C 
ATOM     15  C   UNL     1      38.000  21.541  25.053  1.00  0.00     0.039 C 
ATOM     16  C   UNL     1      36.092  19.810  24.944  1.00  0.00     0.039 C 
BRANCH  13  17
ATOM     17  C   UNL     1      37.632  18.018  26.746  1.00  0.00     0.066 CG0
ATOM     18  G   UNL     1      37.799  16.995  25.639  1.00  0.00     0.000 G0
ENDBRANCH  13  17
ENDBRANCH  11  13
ENDBRANCH  10  11
ENDBRANCH   1  10
TORSDOF 0
ENDMDL
MODEL 5
REMARK VINA RESULT:    -4.202      1.532      4.277
REMARK INTER + INTRA:          -5.111
REMARK INTER:                  -5.553
REMARK INTRA:                   0.442
REMARK UNBOUND:                 0.810
REMARK SMILES CC1=CCC(=C(C)C)C(=O)CC(C)=CCC1
REMARK SMILES IDX 12 1 14 2 13 3 15 4 16 5 2 6 1 7 3 8 11 10 9 11 10 12 5 13
REMARK SMILES IDX 6 14 7 15 8 16 4 17
REMARK H PARENT
REMARK Flexibility Score: 60.00
ROOT
ATOM      1  C   UNL     1      39.854  16.023  24.839  1.00  0.00    -0.070 C 
ATOM      2  C   UNL     1      41.146  16.416  24.811  1.00  0.00    -0.027 C 
ATOM      3  C   UNL     1      39.555  14.604  25.253  1.00  0.00     0.039 C 
ENDROOT
BRANCH   2   4
ATOM      4  C   UNL     1      41.650  17.761  24.334  1.00  0.00     0.032 C 
BRANCH   4   5
ATOM      5  C   UNL     1      42.336  18.618  25.418  1.00  0.00     0.034 C 
BRANCH   5   6
ATOM      6  C   UNL     1      41.569  18.648  26.729  1.00  0.00    -0.077 C 
ATOM      7  C   UNL     1      42.208  17.997  27.930  1.00  0.00     0.039 C 
ATOM      8  C   UNL     1      40.322  19.160  26.873  1.00  0.00    -0.023 CG0
ATOM      9  G   UNL     1      39.500  19.874  25.818  1.00  0.00     0.000 G0
ENDBRANCH   5   6
ENDBRANCH   4   5
ENDBRANCH   2   4
BRANCH   1  10
ATOM     10  C   UNL     1      38.707  16.905  24.389  1.00  0.00     0.111 C 
BRANCH  10  11
ATOM     11  C   UNL     1      38.141  17.707  25.531  1.00  0.00     0.163 C 
ATOM     12  O   UNL     1      37.585  17.085  26.476  1.00  0.00    -0.294 OA
BRANCH  11  13
ATOM     13  C   UNL     1      38.162  19.201  25.549  1.00  0.00    -0.002 C 
ATOM     14  C   UNL     1      37.035  19.919  25.263  1.00  0.00    -0.069 C 
ATOM     15  C   UNL     1      35.697  19.238  25.075  1.00  0.00     0.039 C 
ATOM     16  C   UNL     1      37.061  21.425  25.118  1.00  0.00     0.039 C 
BRANCH  13  17
ATOM     17  C   UNL     1      39.501  19.874  25.802  1.00  0.00     0.066 CG0
ATOM     18  G   UNL     1      40.313  19.161  26.866  1.00  0.00     0.000 G0
ENDBRANCH  13  17
ENDBRANCH  11  13
ENDBRANCH  10  11
ENDBRANCH   1  10
TORSDOF 0
ENDMDL
MODEL 6
REMARK VINA RESULT:    -4.201      2.128      3.548
REMARK INTER + INTRA:          -5.110
REMARK INTER:                  -5.244
REMARK INTRA:                   0.134
REMARK UNBOUND:                 0.810
REMARK SMILES CC1=CCC(=C(C)C)C(=O)CC(C)=CCC1
REMARK SMILES IDX 12 1 14 2 13 3 15 4 16 5 2 6 1 7 3 8 11 10 9 11 10 12 5 13
REMARK SMILES IDX 6 14 7 15 8 16 4 17
REMARK H PARENT
REMARK Flexibility Score: 60.00
ROOT
ATOM      1  C   UNL     1      38.648  17.212  24.730  1.00  0.00    -0.070 C 
ATOM      2  C   UNL     1      37.462  17.620  25.232  1.00  0.00    -0.027 C 
ATOM      3  C   UNL     1      38.767  15.779  24.275  1.00  0.00     0.039 C 
ENDROOT
BRANCH   2   4
ATOM      4  C   UNL     1      37.177  18.983  25.826  1.00  0.00     0.032 C 
BRANCH   4   5
ATOM      5  C   UNL     1      37.669  19.173  27.276  1.00  0.00     0.034 C 
BRANCH   5   6
ATOM      6  C   UNL     1      38.457  20.456  27.476  1.00  0.00    -0.077 C 
ATOM      7  C   UNL     1      37.722  21.763  27.318  1.00  0.00     0.039 C 
ATOM      8  C   UNL     1      39.790  20.504  27.718  1.00  0.00    -0.023 CG0
ATOM      9  G   UNL     1      40.723  19.328  27.933  1.00  0.00     0.000 G0
ENDBRANCH   5   6
ENDBRANCH   4   5
ENDBRANCH   2   4
BRANCH   1  10
ATOM     10  C   UNL     1      39.881  18.092  24.688  1.00  0.00     0.111 C 
BRANCH  10  11
ATOM     11  C   UNL     1      40.799  17.819  25.850  1.00  0.00     0.163 C 
ATOM     12  O   UNL     1      40.984  16.620  26.193  1.00  0.00    -0.294 OA
BRANCH  11  13
ATOM     13  C   UNL     1      41.438  18.915  26.640  1.00  0.00    -0.002 C 
ATOM     14  C   UNL     1      42.639  19.442  26.256  1.00  0.00    -0.069 C 
ATOM     15  C   UNL     1      43.285  19.054  24.944  1.00  0.00     0.039 C 
ATOM     16  C   UNL     1      43.387  20.438  27.117  1.00  0.00     0.039 C 
BRANCH  13  17
ATOM     17  C   UNL     1      40.747  19.340  27.925  1.00  0.00     0.066 CG0
ATOM     18  G   UNL     1      39.803  20.507  27.712  1.00  0.00     0.000 G0
ENDBRANCH  13  17
ENDBRANCH  11  13
ENDBRANCH  10  11
ENDBRANCH   1  10
TORSDOF 0
ENDMDL
MODEL 7
REMARK VINA RESULT:    -4.194      1.683      2.325
REMARK INTER + INTRA:          -5.099
REMARK INTER:                  -5.243
REMARK INTRA:                   0.144
REMARK UNBOUND:                 0.810
REMARK SMILES CC1=CCC(=C(C)C)C(=O)CC(C)=CCC1
REMARK SMILES IDX 12 1 14 2 13 3 15 4 16 5 2 6 1 7 3 8 11 10 9 11 10 12 5 13
REMARK SMILES IDX 6 14 7 15 8 16 4 17
REMARK H PARENT
REMARK Flexibility Score: 60.00
ROOT
ATOM      1  C   UNL     1      36.573  20.593  25.254  1.00  0.00    -0.070 C 
ATOM      2  C   UNL     1      36.077  21.518  26.105  1.00  0.00    -0.027 C 
ATOM      3  C   UNL     1      35.600  19.654  24.586  1.00  0.00     0.039 C 
ENDROOT
BRANCH   2   4
ATOM      4  C   UNL     1      36.897  22.479  26.939  1.00  0.00     0.032 C 
BRANCH   4   5
ATOM      5  C   UNL     1      37.510  21.867  28.216  1.00  0.00     0.034 C 
BRANCH   5   6
ATOM      6  C   UNL     1      38.989  22.173  28.375  1.00  0.00    -0.077 C 
ATOM      7  C   UNL     1      39.387  23.609  28.606  1.00  0.00     0.039 C 
ATOM      8  C   UNL     1      39.977  21.253  28.253  1.00  0.00    -0.023 CG0
ATOM      9  G   UNL     1      39.815  19.760  28.041  1.00  0.00     0.000 G0
ENDBRANCH   5   6
ENDBRANCH   4   5
ENDBRANCH   2   4
BRANCH   1  10
ATOM     10  C   UNL     1      38.055  20.394  25.012  1.00  0.00     0.111 C 
BRANCH  10  11
ATOM     11  C   UNL     1      38.604  19.252  25.825  1.00  0.00     0.163 C 
ATOM     12  O   UNL     1      37.916  18.199  25.910  1.00  0.00    -0.294 OA
BRANCH  11  13
ATOM     13  C   UNL     1      39.891  19.349  26.577  1.00  0.00    -0.002 C 
ATOM     14  C   UNL     1      41.074  19.003  25.985  1.00  0.00    -0.069 C 
ATOM     15  C   UNL     1      41.145  18.664  24.512  1.00  0.00     0.039 C 
ATOM     16  C   UNL     1      42.370  18.938  26.764  1.00  0.00     0.039 C 
BRANCH  13  17
ATOM     17  C   UNL     1      39.813  19.751  28.041  1.00  0.00     0.066 CG0
ATOM     18  G   UNL     1      39.987  21.244  28.238  1.00  0.00     0.000 G0
ENDBRANCH  13  17
ENDBRANCH  11  13
ENDBRANCH  10  11
ENDBRANCH   1  10
TORSDOF 0
ENDMDL
MODEL 8
REMARK VINA RESULT:    -4.132      2.114      3.566
REMARK INTER + INTRA:          -5.013
REMARK INTER:                  -5.211
REMARK INTRA:                   0.199
REMARK UNBOUND:                 0.810
REMARK SMILES CC1=CCC(=C(C)C)C(=O)CC(C)=CCC1
REMARK SMILES IDX 12 1 14 2 13 3 15 4 16 5 2 6 1 7 3 8 11 10 9 11 10 12 5 13
REMARK SMILES IDX 6 14 7 15 8 16 4 17
REMARK H PARENT
REMARK Flexibility Score: 60.00
ROOT
ATOM      1  C   UNL     1      37.721  22.393  28.061  1.00  0.00    -0.070 C 
ATOM      2  C   UNL     1      38.604  22.880  28.960  1.00  0.00    -0.027 C 
ATOM      3  C   UNL     1      36.711  23.347  27.474  1.00  0.00     0.039 C 
ENDROOT
BRANCH   2   4
ATOM      4  C   UNL     1      39.624  22.066  29.727  1.00  0.00     0.032 C 
BRANCH   4   5
ATOM      5  C   UNL     1      40.842  21.607  28.899  1.00  0.00     0.034 C 
BRANCH   5   6
ATOM      6  C   UNL     1      41.081  20.109  28.968  1.00  0.00    -0.077 C 
ATOM      7  C   UNL     1      41.454  19.519  30.305  1.00  0.00     0.039 C 
ATOM      8  C   UNL     1      41.050  19.280  27.896  1.00  0.00    -0.023 CG0
ATOM      9  G   UNL     1      40.684  19.644  26.470  1.00  0.00     0.000 G0
ENDBRANCH   5   6
ENDBRANCH   4   5
ENDBRANCH   2   4
BRANCH   1  10
ATOM     10  C   UNL     1      37.637  20.926  27.688  1.00  0.00     0.111 C 
BRANCH  10  11
ATOM     11  C   UNL     1      38.314  20.647  26.373  1.00  0.00     0.163 C 
ATOM     12  O   UNL     1      38.077  21.422  25.406  1.00  0.00    -0.294 OA
BRANCH  11  13
ATOM     13  C   UNL     1      39.198  19.461  26.162  1.00  0.00    -0.002 C 
ATOM     14  C   UNL     1      38.671  18.251  25.808  1.00  0.00    -0.069 C 
ATOM     15  C   UNL     1      37.204  18.104  25.465  1.00  0.00     0.039 C 
ATOM     16  C   UNL     1      39.517  16.998  25.742  1.00  0.00     0.039 C 
BRANCH  13  17
ATOM     17  C   UNL     1      40.680  19.639  26.450  1.00  0.00     0.066 CG0
ATOM     18  G   UNL     1      41.037  19.276  27.878  1.00  0.00     0.000 G0
ENDBRANCH  13  17
ENDBRANCH  11  13
ENDBRANCH  10  11
ENDBRANCH   1  10
TORSDOF 0
ENDMDL
MODEL 9
REMARK VINA RESULT:    -4.105      2.014      4.189
REMARK INTER + INTRA:          -4.975
REMARK INTER:                  -5.206
REMARK INTRA:                   0.231
REMARK UNBOUND:                 0.810
REMARK SMILES CC1=CCC(=C(C)C)C(=O)CC(C)=CCC1
REMARK SMILES IDX 12 1 14 2 13 3 15 4 16 5 2 6 1 7 3 8 11 10 9 11 10 12 5 13
REMARK SMILES IDX 6 14 7 15 8 16 4 17
REMARK H PARENT
REMARK Flexibility Score: 60.00
ROOT
ATOM      1  C   UNL     1      36.674  19.421  25.765  1.00  0.00    -0.070 C 
ATOM      2  C   UNL     1      36.925  18.342  24.991  1.00  0.00    -0.027 C 
ATOM      3  C   UNL     1      35.733  20.470  25.229  1.00  0.00     0.039 C 
ENDROOT
BRANCH   2   4
ATOM      4  C   UNL     1      37.910  17.237  25.310  1.00  0.00     0.032 C 
BRANCH   4   5
ATOM      5  C   UNL     1      39.384  17.576  25.007  1.00  0.00     0.034 C 
BRANCH   5   6
ATOM      6  C   UNL     1      40.338  17.121  26.098  1.00  0.00    -0.077 C 
ATOM      7  C   UNL     1      40.492  15.637  26.320  1.00  0.00     0.039 C 
ATOM      8  C   UNL     1      41.004  17.959  26.929  1.00  0.00    -0.023 CG0
ATOM      9  G   UNL     1      41.015  19.474  26.883  1.00  0.00     0.000 G0
ENDBRANCH   5   6
ENDBRANCH   4   5
ENDBRANCH   2   4
BRANCH   1  10
ATOM     10  C   UNL     1      37.359  19.670  27.093  1.00  0.00     0.111 C 
BRANCH  10  11
ATOM     11  C   UNL     1      38.638  20.446  26.923  1.00  0.00     0.163 C 
ATOM     12  O   UNL     1      38.659  21.379  26.077  1.00  0.00    -0.294 OA
BRANCH  11  13
ATOM     13  C   UNL     1      39.886  20.108  27.672  1.00  0.00    -0.002 C 
ATOM     14  C   UNL     1      40.017  20.431  28.994  1.00  0.00    -0.069 C 
ATOM     15  C   UNL     1      38.855  20.995  29.783  1.00  0.00     0.039 C 
ATOM     16  C   UNL     1      41.322  20.246  29.737  1.00  0.00     0.039 C 
BRANCH  13  17
ATOM     17  C   UNL     1      41.024  19.483  26.881  1.00  0.00     0.066 CG0
ATOM     18  G   UNL     1      41.000  17.969  26.936  1.00  0.00     0.000 G0
ENDBRANCH  13  17
ENDBRANCH  11  13
ENDBRANCH  10  11
ENDBRANCH   1  10
TORSDOF 0
ENDMDL
