MODEL 1
REMARK VINA RESULT:    -3.318      0.000      0.000
REMARK INTER + INTRA:          -4.815
REMARK INTER:                  -4.288
REMARK INTRA:                  -0.526
REMARK UNBOUND:                -0.526
REMARK SMILES C=CC(=O)CCCCC
REMARK SMILES IDX 6 1 7 2 8 3 9 4 5 5 3 6 4 7 2 8 1 9
REMARK H PARENT
REMARK Flexibility Score: inf
ROOT
ATOM      1  C   UNL     1       0.477 -14.146   9.312  1.00  0.00     0.008 C 
ENDROOT
BRANCH   1   2
ATOM      2  C   UNL     1       0.070 -15.549   8.839  1.00  0.00     0.000 C 
BRANCH   2   3
ATOM      3  C   UNL     1       1.098 -16.623   9.227  1.00  0.00    -0.003 C 
ATOM      4  C   UNL     1       1.866 -16.275  10.502  1.00  0.00     0.004 C 
ENDBRANCH   2   3
ENDBRANCH   1   2
BRANCH   1   5
ATOM      5  C   UNL     1       0.512 -13.160   8.139  1.00  0.00     0.080 C 
BRANCH   5   6
ATOM      6  C   UNL     1       1.919 -12.704   7.864  1.00  0.00     0.155 C 
ATOM      7  O   UNL     1       2.144 -12.037   6.819  1.00  0.00    -0.295 OA
BRANCH   6   8
ATOM      8  C   UNL     1       3.063 -13.030   8.745  1.00  0.00     0.039 C 
ATOM      9  C   UNL     1       4.088 -13.800   8.381  1.00  0.00     0.012 C 
ENDBRANCH   6   8
ENDBRANCH   5   6
ENDBRANCH   1   5
TORSDOF 5
ENDMDL
MODEL 2
REMARK VINA RESULT:    -3.266      2.351      3.599
REMARK INTER + INTRA:          -4.747
REMARK INTER:                  -4.199
REMARK INTRA:                  -0.548
REMARK UNBOUND:                -0.526
REMARK SMILES C=CC(=O)CCCCC
REMARK SMILES IDX 6 1 7 2 8 3 9 4 5 5 3 6 4 7 2 8 1 9
REMARK H PARENT
REMARK Flexibility Score: inf
ROOT
ATOM      1  C   UNL     1       1.301 -16.721   9.259  1.00  0.00     0.008 C 
ENDROOT
BRANCH   1   2
ATOM      2  C   UNL     1       0.132 -15.845   8.786  1.00  0.00     0.000 C 
BRANCH   2   3
ATOM      3  C   UNL     1       0.236 -14.398   9.292  1.00  0.00    -0.003 C 
ATOM      4  C   UNL     1       0.611 -13.410   8.188  1.00  0.00     0.004 C 
ENDBRANCH   2   3
ENDBRANCH   1   2
BRANCH   1   5
ATOM      5  C   UNL     1       1.828 -16.245  10.617  1.00  0.00     0.080 C 
BRANCH   5   6
ATOM      6  C   UNL     1       3.309 -15.984  10.555  1.00  0.00     0.155 C 
ATOM      7  O   UNL     1       3.972 -16.016  11.625  1.00  0.00    -0.295 OA
BRANCH   6   8
ATOM      8  C   UNL     1       4.022 -15.657   9.300  1.00  0.00     0.039 C 
ATOM      9  C   UNL     1       4.228 -14.415   8.863  1.00  0.00     0.012 C 
ENDBRANCH   6   8
ENDBRANCH   5   6
ENDBRANCH   1   5
TORSDOF 5
ENDMDL
MODEL 3
REMARK VINA RESULT:    -3.249      2.032      3.692
REMARK INTER + INTRA:          -4.725
REMARK INTER:                  -4.208
REMARK INTRA:                  -0.517
REMARK UNBOUND:                -0.526
REMARK SMILES C=CC(=O)CCCCC
REMARK SMILES IDX 6 1 7 2 8 3 9 4 5 5 3 6 4 7 2 8 1 9
REMARK H PARENT
REMARK Flexibility Score: inf
ROOT
ATOM      1  C   UNL     1       2.077 -16.324  10.882  1.00  0.00     0.008 C 
ENDROOT
BRANCH   1   2
ATOM      2  C   UNL     1       3.530 -15.836  10.788  1.00  0.00     0.000 C 
BRANCH   2   3
ATOM      3  C   UNL     1       4.083 -15.901   9.356  1.00  0.00    -0.003 C 
ATOM      4  C   UNL     1       4.339 -14.518   8.757  1.00  0.00     0.004 C 
ENDBRANCH   2   3
ENDBRANCH   1   2
BRANCH   1   5
ATOM      5  C   UNL     1       1.527 -16.675   9.495  1.00  0.00     0.080 C 
BRANCH   5   6
ATOM      6  C   UNL     1       0.429 -15.726   9.098  1.00  0.00     0.155 C 
ATOM      7  O   UNL     1      -0.556 -16.177   8.456  1.00  0.00    -0.295 OA
BRANCH   6   8
ATOM      8  C   UNL     1       0.464 -14.276   9.397  1.00  0.00     0.039 C 
ATOM      9  C   UNL     1       0.739 -13.337   8.493  1.00  0.00     0.012 C 
ENDBRANCH   6   8
ENDBRANCH   5   6
ENDBRANCH   1   5
TORSDOF 5
ENDMDL
MODEL 4
REMARK VINA RESULT:    -3.219      1.934      3.952
REMARK INTER + INTRA:          -4.686
REMARK INTER:                  -4.223
REMARK INTRA:                  -0.463
REMARK UNBOUND:                -0.526
REMARK SMILES C=CC(=O)CCCCC
REMARK SMILES IDX 6 1 7 2 8 3 9 4 5 5 3 6 4 7 2 8 1 9
REMARK H PARENT
REMARK Flexibility Score: inf
ROOT
ATOM      1  C   UNL     1       0.943 -12.220   9.021  1.00  0.00     0.008 C 
ENDROOT
BRANCH   1   2
ATOM      2  C   UNL     1       0.352 -12.344   7.609  1.00  0.00     0.000 C 
BRANCH   2   3
ATOM      3  C   UNL     1       1.354 -11.952   6.512  1.00  0.00    -0.003 C 
ATOM      4  C   UNL     1       2.808 -12.138   6.946  1.00  0.00     0.004 C 
ENDBRANCH   2   3
ENDBRANCH   1   2
BRANCH   1   5
ATOM      5  C   UNL     1       0.484 -13.380   9.911  1.00  0.00     0.080 C 
BRANCH   5   6
ATOM      6  C   UNL     1       1.264 -14.630   9.606  1.00  0.00     0.155 C 
ATOM      7  O   UNL     1       2.522 -14.581   9.648  1.00  0.00    -0.295 OA
BRANCH   6   8
ATOM      8  C   UNL     1       0.626 -15.911   9.226  1.00  0.00     0.039 C 
ATOM      9  C   UNL     1      -0.440 -16.004   8.430  1.00  0.00     0.012 C 
ENDBRANCH   6   8
ENDBRANCH   5   6
ENDBRANCH   1   5
TORSDOF 5
ENDMDL
MODEL 5
REMARK VINA RESULT:    -3.152      1.823      3.756
REMARK INTER + INTRA:          -4.600
REMARK INTER:                  -4.212
REMARK INTRA:                  -0.388
REMARK UNBOUND:                -0.526
REMARK SMILES C=CC(=O)CCCCC
REMARK SMILES IDX 6 1 7 2 8 3 9 4 5 5 3 6 4 7 2 8 1 9
REMARK H PARENT
REMARK Flexibility Score: inf
ROOT
ATOM      1  C   UNL     1       0.665 -13.277   8.101  1.00  0.00     0.008 C 
ENDROOT
BRANCH   1   2
ATOM      2  C   UNL     1       1.759 -12.219   8.303  1.00  0.00     0.000 C 
BRANCH   2   3
ATOM      3  C   UNL     1       2.940 -12.401   7.337  1.00  0.00    -0.003 C 
ATOM      4  C   UNL     1       4.068 -13.244   7.933  1.00  0.00     0.004 C 
ENDBRANCH   2   3
ENDBRANCH   1   2
BRANCH   1   5
ATOM      5  C   UNL     1       0.446 -14.091   9.382  1.00  0.00     0.080 C 
BRANCH   5   6
ATOM      6  C   UNL     1       0.403 -15.564   9.080  1.00  0.00     0.155 C 
ATOM      7  O   UNL     1      -0.561 -16.013   8.404  1.00  0.00    -0.295 OA
BRANCH   6   8
ATOM      8  C   UNL     1       1.422 -16.522   9.566  1.00  0.00     0.039 C 
ATOM      9  C   UNL     1       2.723 -16.246   9.650  1.00  0.00     0.012 C 
ENDBRANCH   6   8
ENDBRANCH   5   6
ENDBRANCH   1   5
TORSDOF 5
ENDMDL
MODEL 6
REMARK VINA RESULT:    -3.102      1.282      2.346
REMARK INTER + INTRA:          -4.534
REMARK INTER:                  -4.035
REMARK INTRA:                  -0.499
REMARK UNBOUND:                -0.526
REMARK SMILES C=CC(=O)CCCCC
REMARK SMILES IDX 6 1 7 2 8 3 9 4 5 5 3 6 4 7 2 8 1 9
REMARK H PARENT
REMARK Flexibility Score: inf
ROOT
ATOM      1  C   UNL     1       0.958 -14.361  10.386  1.00  0.00     0.008 C 
ENDROOT
BRANCH   1   2
ATOM      2  C   UNL     1       1.608 -15.742  10.209  1.00  0.00     0.000 C 
BRANCH   2   3
ATOM      3  C   UNL     1       0.909 -16.589   9.135  1.00  0.00    -0.003 C 
ATOM      4  C   UNL     1      -0.282 -15.873   8.498  1.00  0.00     0.004 C 
ENDBRANCH   2   3
ENDBRANCH   1   2
BRANCH   1   5
ATOM      5  C   UNL     1       1.996 -13.244  10.231  1.00  0.00     0.080 C 
BRANCH   5   6
ATOM      6  C   UNL     1       2.083 -12.789   8.799  1.00  0.00     0.155 C 
ATOM      7  O   UNL     1       3.100 -13.108   8.126  1.00  0.00    -0.295 OA
BRANCH   6   8
ATOM      8  C   UNL     1       1.047 -11.956   8.149  1.00  0.00     0.039 C 
ATOM      9  C   UNL     1       0.256 -12.384   7.166  1.00  0.00     0.012 C 
ENDBRANCH   6   8
ENDBRANCH   5   6
ENDBRANCH   1   5
TORSDOF 5
ENDMDL
MODEL 7
REMARK VINA RESULT:    -3.060      2.564      4.361
REMARK INTER + INTRA:          -4.481
REMARK INTER:                  -4.165
REMARK INTRA:                  -0.316
REMARK UNBOUND:                -0.526
REMARK SMILES C=CC(=O)CCCCC
REMARK SMILES IDX 6 1 7 2 8 3 9 4 5 5 3 6 4 7 2 8 1 9
REMARK H PARENT
REMARK Flexibility Score: inf
ROOT
ATOM      1  C   UNL     1       1.038 -16.447   9.374  1.00  0.00     0.008 C 
ENDROOT
BRANCH   1   2
ATOM      2  C   UNL     1       0.089 -15.382   8.807  1.00  0.00     0.000 C 
BRANCH   2   3
ATOM      3  C   UNL     1       0.610 -13.953   9.022  1.00  0.00    -0.003 C 
ATOM      4  C   UNL     1       0.457 -13.074   7.780  1.00  0.00     0.004 C 
ENDBRANCH   2   3
ENDBRANCH   1   2
BRANCH   1   5
ATOM      5  C   UNL     1       2.429 -15.857   9.636  1.00  0.00     0.080 C 
BRANCH   5   6
ATOM      6  C   UNL     1       2.843 -16.078  11.066  1.00  0.00     0.155 C 
ATOM      7  O   UNL     1       4.061 -15.964  11.366  1.00  0.00    -0.295 OA
BRANCH   6   8
ATOM      8  C   UNL     1       1.892 -16.458  12.136  1.00  0.00     0.039 C 
ATOM      9  C   UNL     1       2.188 -17.291  13.133  1.00  0.00     0.012 C 
ENDBRANCH   6   8
ENDBRANCH   5   6
ENDBRANCH   1   5
TORSDOF 5
ENDMDL
MODEL 8
REMARK VINA RESULT:    -3.022      2.221      3.607
REMARK INTER + INTRA:          -4.431
REMARK INTER:                  -4.054
REMARK INTRA:                  -0.378
REMARK UNBOUND:                -0.526
REMARK SMILES C=CC(=O)CCCCC
REMARK SMILES IDX 6 1 7 2 8 3 9 4 5 5 3 6 4 7 2 8 1 9
REMARK H PARENT
REMARK Flexibility Score: inf
ROOT
ATOM      1  C   UNL     1       2.829 -15.957   9.873  1.00  0.00     0.008 C 
ENDROOT
BRANCH   1   2
ATOM      2  C   UNL     1       3.186 -15.891  11.365  1.00  0.00     0.000 C 
BRANCH   2   3
ATOM      3  C   UNL     1       2.137 -16.575  12.254  1.00  0.00    -0.003 C 
ATOM      4  C   UNL     1       1.580 -15.648  13.335  1.00  0.00     0.004 C 
ENDBRANCH   2   3
ENDBRANCH   1   2
BRANCH   1   5
ATOM      5  C   UNL     1       1.457 -16.610   9.667  1.00  0.00     0.080 C 
BRANCH   5   6
ATOM      6  C   UNL     1       0.474 -15.622   9.099  1.00  0.00     0.155 C 
ATOM      7  O   UNL     1      -0.495 -16.057   8.421  1.00  0.00    -0.295 OA
BRANCH   6   8
ATOM      8  C   UNL     1       0.608 -14.157   9.267  1.00  0.00     0.039 C 
ATOM      9  C   UNL     1       0.594 -13.288   8.257  1.00  0.00     0.012 C 
ENDBRANCH   6   8
ENDBRANCH   5   6
ENDBRANCH   1   5
TORSDOF 5
ENDMDL
MODEL 9
REMARK VINA RESULT:    -2.957      1.490      3.737
REMARK INTER + INTRA:          -4.347
REMARK INTER:                  -3.942
REMARK INTRA:                  -0.405
REMARK UNBOUND:                -0.526
REMARK SMILES C=CC(=O)CCCCC
REMARK SMILES IDX 6 1 7 2 8 3 9 4 5 5 3 6 4 7 2 8 1 9
REMARK H PARENT
REMARK Flexibility Score: inf
ROOT
ATOM      1  C   UNL     1       1.129 -11.875   7.549  1.00  0.00     0.008 C 
ENDROOT
BRANCH   1   2
ATOM      2  C   UNL     1       2.318 -12.166   6.621  1.00  0.00     0.000 C 
BRANCH   2   3
ATOM      3  C   UNL     1       3.668 -12.090   7.351  1.00  0.00    -0.003 C 
ATOM      4  C   UNL     1       4.127 -13.445   7.890  1.00  0.00     0.004 C 
ENDBRANCH   2   3
ENDBRANCH   1   2
BRANCH   1   5
ATOM      5  C   UNL     1       0.231 -13.109   7.690  1.00  0.00     0.080 C 
BRANCH   5   6
ATOM      6  C   UNL     1       0.588 -13.893   8.924  1.00  0.00     0.155 C 
ATOM      7  O   UNL     1       1.139 -13.290   9.884  1.00  0.00    -0.295 OA
BRANCH   6   8
ATOM      8  C   UNL     1       0.354 -15.349   9.055  1.00  0.00     0.039 C 
ATOM      9  C   UNL     1       1.205 -16.189   9.645  1.00  0.00     0.012 C 
ENDBRANCH   6   8
ENDBRANCH   5   6
ENDBRANCH   1   5
TORSDOF 5
ENDMDL
