MODEL 1
REMARK VINA RESULT:    -3.792      0.000      0.000
REMARK INTER + INTRA:          -4.304
REMARK INTER:                  -4.235
REMARK INTRA:                  -0.069
REMARK UNBOUND:                -0.069
REMARK SMILES COc1cc2ccc(=O)oc2c(O)c1O
REMARK SMILES IDX 3 1 14 2 12 3 11 4 5 5 4 6 6 7 7 8 8 9 9 10 10 11 2 12 1 13
REMARK SMILES IDX 15 14 13 16
REMARK H PARENT 15 15 13 17
REMARK Flexibility Score: inf
ROOT
ATOM      1  C   UNL     1     -26.075  50.751  41.612  1.00  0.00     0.165 A 
ATOM      2  C   UNL     1     -25.378  51.742  40.894  1.00  0.00     0.204 A 
ATOM      3  C   UNL     1     -25.187  53.017  41.446  1.00  0.00     0.205 A 
ATOM      4  C   UNL     1     -25.691  53.313  42.721  1.00  0.00     0.184 A 
ATOM      5  C   UNL     1     -26.389  52.323  43.446  1.00  0.00     0.025 A 
ATOM      6  C   UNL     1     -26.579  51.050  42.893  1.00  0.00     0.062 A 
ATOM      7  C   UNL     1     -26.881  52.645  44.715  1.00  0.00     0.020 A 
ATOM      8  C   UNL     1     -26.671  53.925  45.227  1.00  0.00     0.094 A 
ATOM      9  C   UNL     1     -25.971  54.856  44.455  1.00  0.00     0.336 A 
ATOM     10  O   UNL     1     -25.769  56.016  44.898  1.00  0.00    -0.246 OA
ATOM     11  O   UNL     1     -25.514  54.522  43.250  1.00  0.00    -0.419 OA
ENDROOT
BRANCH   1  12
ATOM     12  O   UNL     1     -26.245  49.485  41.026  1.00  0.00    -0.493 OA
ATOM     13  C   UNL     1     -27.437  49.045  40.384  1.00  0.00     0.278 C 
ENDBRANCH   1  12
BRANCH   2  14
ATOM     14  O   UNL     1     -24.866  51.474  39.623  1.00  0.00    -0.502 OA
ATOM     15  H   UNL     1     -23.877  51.330  39.456  1.00  0.00     0.293 HD
ENDBRANCH   2  14
BRANCH   3  16
ATOM     16  O   UNL     1     -24.493  53.979  40.710  1.00  0.00    -0.502 OA
ATOM     17  H   UNL     1     -24.728  54.195  39.749  1.00  0.00     0.293 HD
ENDBRANCH   3  16
TORSDOF 3
ENDMDL
MODEL 2
REMARK VINA RESULT:    -3.625      2.387      4.081
REMARK INTER + INTRA:          -4.119
REMARK INTER:                  -4.066
REMARK INTRA:                  -0.052
REMARK UNBOUND:                -0.069
REMARK SMILES COc1cc2ccc(=O)oc2c(O)c1O
REMARK SMILES IDX 3 1 14 2 12 3 11 4 5 5 4 6 6 7 7 8 8 9 9 10 10 11 2 12 1 13
REMARK SMILES IDX 15 14 13 16
REMARK H PARENT 15 15 13 17
REMARK Flexibility Score: inf
ROOT
ATOM      1  C   UNL     1     -25.177  54.424  42.493  1.00  0.00     0.165 A 
ATOM      2  C   UNL     1     -26.055  53.405  42.911  1.00  0.00     0.204 A 
ATOM      3  C   UNL     1     -26.571  53.403  44.215  1.00  0.00     0.205 A 
ATOM      4  C   UNL     1     -26.215  54.421  45.112  1.00  0.00     0.184 A 
ATOM      5  C   UNL     1     -25.337  55.445  44.698  1.00  0.00     0.025 A 
ATOM      6  C   UNL     1     -24.822  55.445  43.395  1.00  0.00     0.062 A 
ATOM      7  C   UNL     1     -24.998  56.448  45.613  1.00  0.00     0.020 A 
ATOM      8  C   UNL     1     -25.532  56.410  46.900  1.00  0.00     0.094 A 
ATOM      9  C   UNL     1     -26.397  55.366  47.243  1.00  0.00     0.336 A 
ATOM     10  O   UNL     1     -26.891  55.313  48.399  1.00  0.00    -0.246 OA
ATOM     11  O   UNL     1     -26.702  54.425  46.352  1.00  0.00    -0.419 OA
ENDROOT
BRANCH   1  12
ATOM     12  O   UNL     1     -24.682  54.391  41.179  1.00  0.00    -0.493 OA
ATOM     13  C   UNL     1     -24.452  55.541  40.372  1.00  0.00     0.278 C 
ENDBRANCH   1  12
BRANCH   2  14
ATOM     14  O   UNL     1     -26.426  52.380  42.038  1.00  0.00    -0.502 OA
ATOM     15  H   UNL     1     -27.380  52.048  41.965  1.00  0.00     0.293 HD
ENDBRANCH   2  14
BRANCH   3  16
ATOM     16  O   UNL     1     -27.438  52.380  44.602  1.00  0.00    -0.502 OA
ATOM     17  H   UNL     1     -27.335  51.889  45.481  1.00  0.00     0.293 HD
ENDBRANCH   3  16
TORSDOF 3
ENDMDL
MODEL 3
REMARK VINA RESULT:    -3.549      4.176      5.212
REMARK INTER + INTRA:          -4.033
REMARK INTER:                  -3.976
REMARK INTRA:                  -0.057
REMARK UNBOUND:                -0.069
REMARK SMILES COc1cc2ccc(=O)oc2c(O)c1O
REMARK SMILES IDX 3 1 14 2 12 3 11 4 5 5 4 6 6 7 7 8 8 9 9 10 10 11 2 12 1 13
REMARK SMILES IDX 15 14 13 16
REMARK H PARENT 15 15 13 17
REMARK Flexibility Score: inf
ROOT
ATOM      1  C   UNL     1     -28.853  47.506  39.990  1.00  0.00     0.165 A 
ATOM      2  C   UNL     1     -28.256  48.748  39.698  1.00  0.00     0.204 A 
ATOM      3  C   UNL     1     -27.354  49.331  40.599  1.00  0.00     0.205 A 
ATOM      4  C   UNL     1     -27.040  48.678  41.800  1.00  0.00     0.184 A 
ATOM      5  C   UNL     1     -27.634  47.433  42.097  1.00  0.00     0.025 A 
ATOM      6  C   UNL     1     -28.535  46.852  41.196  1.00  0.00     0.062 A 
ATOM      7  C   UNL     1     -27.304  46.803  43.302  1.00  0.00     0.020 A 
ATOM      8  C   UNL     1     -26.403  47.417  44.171  1.00  0.00     0.094 A 
ATOM      9  C   UNL     1     -25.852  48.651  43.813  1.00  0.00     0.336 A 
ATOM     10  O   UNL     1     -25.036  49.222  44.582  1.00  0.00    -0.246 OA
ATOM     11  O   UNL     1     -26.184  49.227  42.660  1.00  0.00    -0.419 OA
ENDROOT
BRANCH   1  12
ATOM     12  O   UNL     1     -29.751  46.954  39.061  1.00  0.00    -0.493 OA
ATOM     13  C   UNL     1     -29.702  45.612  38.588  1.00  0.00     0.278 C 
ENDBRANCH   1  12
BRANCH   2  14
ATOM     14  O   UNL     1     -28.551  49.419  38.510  1.00  0.00    -0.502 OA
ATOM     15  H   UNL     1     -28.691  50.422  38.474  1.00  0.00     0.293 HD
ENDBRANCH   2  14
BRANCH   3  16
ATOM     16  O   UNL     1     -26.779  50.563  40.283  1.00  0.00    -0.502 OA
ATOM     17  H   UNL     1     -25.908  50.636  39.770  1.00  0.00     0.293 HD
ENDBRANCH   3  16
TORSDOF 3
ENDMDL
MODEL 4
REMARK VINA RESULT:    -3.518      1.849      5.810
REMARK INTER + INTRA:          -3.999
REMARK INTER:                  -3.929
REMARK INTRA:                  -0.069
REMARK UNBOUND:                -0.069
REMARK SMILES COc1cc2ccc(=O)oc2c(O)c1O
REMARK SMILES IDX 3 1 14 2 12 3 11 4 5 5 4 6 6 7 7 8 8 9 9 10 10 11 2 12 1 13
REMARK SMILES IDX 15 14 13 16
REMARK H PARENT 15 15 13 17
REMARK Flexibility Score: inf
ROOT
ATOM      1  C   UNL     1     -25.392  55.937  44.869  1.00  0.00     0.165 A 
ATOM      2  C   UNL     1     -26.394  55.011  45.220  1.00  0.00     0.204 A 
ATOM      3  C   UNL     1     -26.630  53.883  44.421  1.00  0.00     0.205 A 
ATOM      4  C   UNL     1     -25.865  53.670  43.264  1.00  0.00     0.184 A 
ATOM      5  C   UNL     1     -24.859  54.593  42.909  1.00  0.00     0.025 A 
ATOM      6  C   UNL     1     -24.625  55.720  43.708  1.00  0.00     0.062 A 
ATOM      7  C   UNL     1     -24.111  54.356  41.751  1.00  0.00     0.020 A 
ATOM      8  C   UNL     1     -24.376  53.223  40.983  1.00  0.00     0.094 A 
ATOM      9  C   UNL     1     -25.388  52.350  41.395  1.00  0.00     0.336 A 
ATOM     10  O   UNL     1     -25.644  51.321  40.718  1.00  0.00    -0.246 OA
ATOM     11  O   UNL     1     -26.084  52.600  42.501  1.00  0.00    -0.419 OA
ENDROOT
BRANCH   1  12
ATOM     12  O   UNL     1     -25.186  57.055  45.695  1.00  0.00    -0.493 OA
ATOM     13  C   UNL     1     -24.172  57.149  46.690  1.00  0.00     0.278 C 
ENDBRANCH   1  12
BRANCH   2  14
ATOM     14  O   UNL     1     -27.170  55.200  46.365  1.00  0.00    -0.502 OA
ATOM     15  H   UNL     1     -26.789  55.588  47.220  1.00  0.00     0.293 HD
ENDBRANCH   2  14
BRANCH   3  16
ATOM     16  O   UNL     1     -27.630  52.984  44.793  1.00  0.00    -0.502 OA
ATOM     17  H   UNL     1     -27.448  52.197  45.403  1.00  0.00     0.293 HD
ENDBRANCH   3  16
TORSDOF 3
ENDMDL
MODEL 5
REMARK VINA RESULT:    -3.448      3.293      5.437
REMARK INTER + INTRA:          -3.921
REMARK INTER:                  -3.870
REMARK INTRA:                  -0.050
REMARK UNBOUND:                -0.069
REMARK SMILES COc1cc2ccc(=O)oc2c(O)c1O
REMARK SMILES IDX 3 1 14 2 12 3 11 4 5 5 4 6 6 7 7 8 8 9 9 10 10 11 2 12 1 13
REMARK SMILES IDX 15 14 13 16
REMARK H PARENT 15 15 13 17
REMARK Flexibility Score: inf
ROOT
ATOM      1  C   UNL     1     -28.883  46.653  41.299  1.00  0.00     0.165 A 
ATOM      2  C   UNL     1     -29.125  47.407  40.134  1.00  0.00     0.204 A 
ATOM      3  C   UNL     1     -28.363  48.552  39.858  1.00  0.00     0.205 A 
ATOM      4  C   UNL     1     -27.352  48.953  40.745  1.00  0.00     0.184 A 
ATOM      5  C   UNL     1     -27.105  48.200  41.913  1.00  0.00     0.025 A 
ATOM      6  C   UNL     1     -27.867  47.057  42.186  1.00  0.00     0.062 A 
ATOM      7  C   UNL     1     -26.091  48.622  42.779  1.00  0.00     0.020 A 
ATOM      8  C   UNL     1     -25.357  49.766  42.469  1.00  0.00     0.094 A 
ATOM      9  C   UNL     1     -25.656  50.464  41.295  1.00  0.00     0.336 A 
ATOM     10  O   UNL     1     -25.005  51.498  40.995  1.00  0.00    -0.246 OA
ATOM     11  O   UNL     1     -26.625  50.039  40.489  1.00  0.00    -0.419 OA
ENDROOT
BRANCH   1  12
ATOM     12  O   UNL     1     -29.667  45.512  41.539  1.00  0.00    -0.493 OA
ATOM     13  C   UNL     1     -29.927  44.967  42.829  1.00  0.00     0.278 C 
ENDBRANCH   1  12
BRANCH   2  14
ATOM     14  O   UNL     1     -30.125  47.031  39.235  1.00  0.00    -0.502 OA
ATOM     15  H   UNL     1     -30.900  46.437  39.505  1.00  0.00     0.293 HD
ENDBRANCH   2  14
BRANCH   3  16
ATOM     16  O   UNL     1     -28.626  49.280  38.697  1.00  0.00    -0.502 OA
ATOM     17  H   UNL     1     -28.049  49.201  37.868  1.00  0.00     0.293 HD
ENDBRANCH   3  16
TORSDOF 3
ENDMDL
MODEL 6
REMARK VINA RESULT:    -3.435      2.809      6.326
REMARK INTER + INTRA:          -3.906
REMARK INTER:                  -3.838
REMARK INTRA:                  -0.068
REMARK UNBOUND:                -0.069
REMARK SMILES COc1cc2ccc(=O)oc2c(O)c1O
REMARK SMILES IDX 3 1 14 2 12 3 11 4 5 5 4 6 6 7 7 8 8 9 9 10 10 11 2 12 1 13
REMARK SMILES IDX 15 14 13 16
REMARK H PARENT 15 15 13 17
REMARK Flexibility Score: inf
ROOT
ATOM      1  C   UNL     1     -25.950  49.713  42.243  1.00  0.00     0.165 A 
ATOM      2  C   UNL     1     -26.535  50.049  41.006  1.00  0.00     0.204 A 
ATOM      3  C   UNL     1     -27.492  49.207  40.422  1.00  0.00     0.205 A 
ATOM      4  C   UNL     1     -27.874  48.022  41.068  1.00  0.00     0.184 A 
ATOM      5  C   UNL     1     -27.291  47.681  42.308  1.00  0.00     0.025 A 
ATOM      6  C   UNL     1     -26.335  48.523  42.890  1.00  0.00     0.062 A 
ATOM      7  C   UNL     1     -27.690  46.493  42.931  1.00  0.00     0.020 A 
ATOM      8  C   UNL     1     -28.644  45.684  42.316  1.00  0.00     0.094 A 
ATOM      9  C   UNL     1     -29.179  46.083  41.088  1.00  0.00     0.336 A 
ATOM     10  O   UNL     1     -30.042  45.368  40.516  1.00  0.00    -0.246 OA
ATOM     11  O   UNL     1     -28.782  47.218  40.518  1.00  0.00    -0.419 OA
ENDROOT
BRANCH   1  12
ATOM     12  O   UNL     1     -24.995  50.582  42.797  1.00  0.00    -0.493 OA
ATOM     13  C   UNL     1     -25.278  51.579  43.773  1.00  0.00     0.278 C 
ENDBRANCH   1  12
BRANCH   2  14
ATOM     14  O   UNL     1     -26.173  51.222  40.341  1.00  0.00    -0.502 OA
ATOM     15  H   UNL     1     -25.960  51.240  39.351  1.00  0.00     0.293 HD
ENDBRANCH   2  14
BRANCH   3  16
ATOM     16  O   UNL     1     -28.053  49.565  39.195  1.00  0.00    -0.502 OA
ATOM     17  H   UNL     1     -28.503  50.461  39.049  1.00  0.00     0.293 HD
ENDBRANCH   3  16
TORSDOF 3
ENDMDL
MODEL 7
REMARK VINA RESULT:    -3.403      1.895      3.007
REMARK INTER + INTRA:          -3.870
REMARK INTER:                  -3.804
REMARK INTRA:                  -0.066
REMARK UNBOUND:                -0.069
REMARK SMILES COc1cc2ccc(=O)oc2c(O)c1O
REMARK SMILES IDX 3 1 14 2 12 3 11 4 5 5 4 6 6 7 7 8 8 9 9 10 10 11 2 12 1 13
REMARK SMILES IDX 15 14 13 16
REMARK H PARENT 15 15 13 17
REMARK Flexibility Score: inf
ROOT
ATOM      1  C   UNL     1     -25.743  51.949  42.023  1.00  0.00     0.165 A 
ATOM      2  C   UNL     1     -25.923  50.992  43.042  1.00  0.00     0.204 A 
ATOM      3  C   UNL     1     -26.064  51.396  44.377  1.00  0.00     0.205 A 
ATOM      4  C   UNL     1     -26.027  52.759  44.707  1.00  0.00     0.184 A 
ATOM      5  C   UNL     1     -25.848  53.721  43.690  1.00  0.00     0.025 A 
ATOM      6  C   UNL     1     -25.707  53.316  42.357  1.00  0.00     0.062 A 
ATOM      7  C   UNL     1     -25.815  55.074  44.046  1.00  0.00     0.020 A 
ATOM      8  C   UNL     1     -25.958  55.433  45.386  1.00  0.00     0.094 A 
ATOM      9  C   UNL     1     -26.132  54.427  46.341  1.00  0.00     0.336 A 
ATOM     10  O   UNL     1     -26.264  54.729  47.555  1.00  0.00    -0.246 OA
ATOM     11  O   UNL     1     -26.160  53.148  45.973  1.00  0.00    -0.419 OA
ENDROOT
BRANCH   1  12
ATOM     12  O   UNL     1     -25.606  51.505  40.697  1.00  0.00    -0.493 OA
ATOM     13  C   UNL     1     -24.361  51.281  40.044  1.00  0.00     0.278 C 
ENDBRANCH   1  12
BRANCH   2  14
ATOM     14  O   UNL     1     -25.964  49.630  42.741  1.00  0.00    -0.502 OA
ATOM     15  H   UNL     1     -26.693  49.222  42.167  1.00  0.00     0.293 HD
ENDBRANCH   2  14
BRANCH   3  16
ATOM     16  O   UNL     1     -26.240  50.426  45.365  1.00  0.00    -0.502 OA
ATOM     17  H   UNL     1     -26.342  50.664  46.344  1.00  0.00     0.293 HD
ENDBRANCH   3  16
TORSDOF 3
ENDMDL
MODEL 8
REMARK VINA RESULT:    -3.392      2.303      5.018
REMARK INTER + INTRA:          -3.858
REMARK INTER:                  -3.809
REMARK INTRA:                  -0.049
REMARK UNBOUND:                -0.069
REMARK SMILES COc1cc2ccc(=O)oc2c(O)c1O
REMARK SMILES IDX 3 1 14 2 12 3 11 4 5 5 4 6 6 7 7 8 8 9 9 10 10 11 2 12 1 13
REMARK SMILES IDX 15 14 13 16
REMARK H PARENT 15 15 13 17
REMARK Flexibility Score: inf
ROOT
ATOM      1  C   UNL     1     -26.232  54.415  45.003  1.00  0.00     0.165 A 
ATOM      2  C   UNL     1     -26.591  53.335  44.173  1.00  0.00     0.204 A 
ATOM      3  C   UNL     1     -26.121  53.268  42.853  1.00  0.00     0.205 A 
ATOM      4  C   UNL     1     -25.289  54.279  42.351  1.00  0.00     0.184 A 
ATOM      5  C   UNL     1     -24.926  55.363  43.179  1.00  0.00     0.025 A 
ATOM      6  C   UNL     1     -25.396  55.429  44.497  1.00  0.00     0.062 A 
ATOM      7  C   UNL     1     -24.095  56.358  42.653  1.00  0.00     0.020 A 
ATOM      8  C   UNL     1     -23.651  56.254  41.335  1.00  0.00     0.094 A 
ATOM      9  C   UNL     1     -24.050  55.152  40.572  1.00  0.00     0.336 A 
ATOM     10  O   UNL     1     -23.659  55.038  39.382  1.00  0.00    -0.246 OA
ATOM     11  O   UNL     1     -24.841  54.221  41.099  1.00  0.00    -0.419 OA
ENDROOT
BRANCH   1  12
ATOM     12  O   UNL     1     -26.722  54.447  46.319  1.00  0.00    -0.493 OA
ATOM     13  C   UNL     1     -26.351  55.413  47.297  1.00  0.00     0.278 C 
ENDBRANCH   1  12
BRANCH   2  14
ATOM     14  O   UNL     1     -27.418  52.315  44.647  1.00  0.00    -0.502 OA
ATOM     15  H   UNL     1     -27.179  51.335  44.554  1.00  0.00     0.293 HD
ENDBRANCH   2  14
BRANCH   3  16
ATOM     16  O   UNL     1     -26.494  52.185  42.054  1.00  0.00    -0.502 OA
ATOM     17  H   UNL     1     -25.857  51.758  41.393  1.00  0.00     0.293 HD
ENDBRANCH   3  16
TORSDOF 3
ENDMDL
MODEL 9
REMARK VINA RESULT:    -3.383      8.478     10.287
REMARK INTER + INTRA:          -3.848
REMARK INTER:                  -3.779
REMARK INTRA:                  -0.069
REMARK UNBOUND:                -0.069
REMARK SMILES COc1cc2ccc(=O)oc2c(O)c1O
REMARK SMILES IDX 3 1 14 2 12 3 11 4 5 5 4 6 6 7 7 8 8 9 9 10 10 11 2 12 1 13
REMARK SMILES IDX 15 14 13 16
REMARK H PARENT 15 15 13 17
REMARK Flexibility Score: inf
ROOT
ATOM      1  C   UNL     1     -26.913  53.000  33.670  1.00  0.00     0.165 A 
ATOM      2  C   UNL     1     -28.164  52.970  33.024  1.00  0.00     0.204 A 
ATOM      3  C   UNL     1     -28.884  51.771  32.925  1.00  0.00     0.205 A 
ATOM      4  C   UNL     1     -28.360  50.590  33.472  1.00  0.00     0.184 A 
ATOM      5  C   UNL     1     -27.107  50.614  34.121  1.00  0.00     0.025 A 
ATOM      6  C   UNL     1     -26.390  51.813  34.218  1.00  0.00     0.062 A 
ATOM      7  C   UNL     1     -26.608  49.422  34.657  1.00  0.00     0.020 A 
ATOM      8  C   UNL     1     -27.355  48.251  34.537  1.00  0.00     0.094 A 
ATOM      9  C   UNL     1     -28.589  48.300  33.881  1.00  0.00     0.336 A 
ATOM     10  O   UNL     1     -29.280  47.255  33.763  1.00  0.00    -0.246 OA
ATOM     11  O   UNL     1     -29.040  49.448  33.381  1.00  0.00    -0.419 OA
ENDROOT
BRANCH   1  12
ATOM     12  O   UNL     1     -26.222  54.220  33.749  1.00  0.00    -0.493 OA
ATOM     13  C   UNL     1     -26.234  55.085  34.880  1.00  0.00     0.278 C 
ENDBRANCH   1  12
BRANCH   2  14
ATOM     14  O   UNL     1     -28.709  54.131  32.471  1.00  0.00    -0.502 OA
ATOM     15  H   UNL     1     -29.236  54.124  31.606  1.00  0.00     0.293 HD
ENDBRANCH   2  14
BRANCH   3  16
ATOM     16  O   UNL     1     -30.121  51.773  32.279  1.00  0.00    -0.502 OA
ATOM     17  H   UNL     1     -30.535  52.620  31.908  1.00  0.00     0.293 HD
ENDBRANCH   3  16
TORSDOF 3
ENDMDL
