MODEL 1
REMARK VINA RESULT:    -1.219      0.000      0.000
REMARK INTER + INTRA:          -1.384
REMARK INTER:                  -1.290
REMARK INTRA:                  -0.094
REMARK UNBOUND:                -0.094
REMARK SMILES CC1=C[C@H]2C(=C(C)CC[C@@H]2C(C)C)CC1
REMARK SMILES IDX 1 1 2 2 3 3 4 4 10 5 9 6 8 7 6 8 5 9 14 10 15 11 7 12 11 13
REMARK SMILES IDX 12 14 13 15
REMARK H PARENT
REMARK Flexibility Score: inf
ROOT
ATOM      1  C   UNL     1     143.224 142.071 131.245  1.00  0.00     0.039 C 
ATOM      2  C   UNL     1     143.955 143.072 132.097  1.00  0.00    -0.076 C 
ATOM      3  C   UNL     1     143.743 144.392 131.887  1.00  0.00    -0.020 C 
ATOM      4  C   UNL     1     144.397 145.492 132.714  1.00  0.00     0.041 C 
ATOM      5  C   UNL     1     144.682 146.755 131.843  1.00  0.00     0.003 C 
ATOM      6  C   UNL     1     145.743 147.641 132.521  1.00  0.00     0.009 C 
ATOM      7  C   UNL     1     147.042 146.862 132.684  1.00  0.00     0.031 C 
ATOM      8  C   UNL     1     146.833 145.572 133.443  1.00  0.00    -0.073 C 
ATOM      9  C   UNL     1     145.626 144.936 133.431  1.00  0.00    -0.064 C 
ATOM     10  C   UNL     1     145.383 143.614 134.124  1.00  0.00     0.036 C 
ATOM     11  C   UNL     1     145.005 142.572 133.072  1.00  0.00     0.035 C 
ATOM     12  C   UNL     1     148.042 144.969 134.118  1.00  0.00     0.039 C 
ENDROOT
BRANCH   5  13
ATOM     13  C   UNL     1     143.380 147.556 131.491  1.00  0.00    -0.013 C 
ATOM     14  C   UNL     1     142.713 147.122 130.173  1.00  0.00     0.007 C 
ATOM     15  C   UNL     1     142.357 147.497 132.637  1.00  0.00     0.007 C 
ENDBRANCH   5  13
TORSDOF 1
ENDMDL
MODEL 2
REMARK VINA RESULT:    -0.803      1.882      4.977
REMARK INTER + INTRA:          -0.944
REMARK INTER:                  -0.849
REMARK INTRA:                  -0.096
REMARK UNBOUND:                -0.094
REMARK SMILES CC1=C[C@H]2C(=C(C)CC[C@@H]2C(C)C)CC1
REMARK SMILES IDX 1 1 2 2 3 3 4 4 10 5 9 6 8 7 6 8 5 9 14 10 15 11 7 12 11 13
REMARK SMILES IDX 12 14 13 15
REMARK H PARENT
REMARK Flexibility Score: inf
ROOT
ATOM      1  C   UNL     1     147.392 148.748 131.246  1.00  0.00     0.039 C 
ATOM      2  C   UNL     1     146.681 147.733 132.099  1.00  0.00    -0.076 C 
ATOM      3  C   UNL     1     146.921 146.417 131.891  1.00  0.00    -0.020 C 
ATOM      4  C   UNL     1     146.290 145.305 132.720  1.00  0.00     0.041 C 
ATOM      5  C   UNL     1     146.033 144.034 131.851  1.00  0.00     0.003 C 
ATOM      6  C   UNL     1     144.989 143.128 132.529  1.00  0.00     0.009 C 
ATOM      7  C   UNL     1     143.675 143.880 132.690  1.00  0.00     0.031 C 
ATOM      8  C   UNL     1     143.855 145.175 133.447  1.00  0.00    -0.073 C 
ATOM      9  C   UNL     1     145.048 145.836 133.434  1.00  0.00    -0.064 C 
ATOM     10  C   UNL     1     145.263 147.164 134.125  1.00  0.00     0.036 C 
ATOM     11  C   UNL     1     145.620 148.213 133.072  1.00  0.00     0.035 C 
ATOM     12  C   UNL     1     142.633 145.753 134.120  1.00  0.00     0.039 C 
ENDROOT
BRANCH   5  13
ATOM     13  C   UNL     1     147.352 143.261 131.501  1.00  0.00    -0.013 C 
ATOM     14  C   UNL     1     148.000 143.693 130.173  1.00  0.00     0.007 C 
ATOM     15  C   UNL     1     148.380 143.361 132.639  1.00  0.00     0.007 C 
ENDBRANCH   5  13
TORSDOF 1
ENDMDL
MODEL 3
REMARK VINA RESULT:    -0.695      1.569      3.638
REMARK INTER + INTRA:          -0.830
REMARK INTER:                  -0.634
REMARK INTRA:                  -0.196
REMARK UNBOUND:                -0.094
REMARK SMILES CC1=C[C@H]2C(=C(C)CC[C@@H]2C(C)C)CC1
REMARK SMILES IDX 1 1 2 2 3 3 4 4 10 5 9 6 8 7 6 8 5 9 14 10 15 11 7 12 11 13
REMARK SMILES IDX 12 14 13 15
REMARK H PARENT
REMARK Flexibility Score: inf
ROOT
ATOM      1  C   UNL     1     142.127 147.256 130.645  1.00  0.00     0.039 C 
ATOM      2  C   UNL     1     143.139 146.779 131.651  1.00  0.00    -0.076 C 
ATOM      3  C   UNL     1     144.402 147.261 131.589  1.00  0.00    -0.020 C 
ATOM      4  C   UNL     1     145.497 146.880 132.578  1.00  0.00     0.041 C 
ATOM      5  C   UNL     1     146.894 146.845 131.883  1.00  0.00     0.003 C 
ATOM      6  C   UNL     1     147.885 146.016 132.721  1.00  0.00     0.009 C 
ATOM      7  C   UNL     1     147.377 144.587 132.861  1.00  0.00     0.031 C 
ATOM      8  C   UNL     1     145.985 144.538 133.446  1.00  0.00    -0.073 C 
ATOM      9  C   UNL     1     145.120 145.582 133.290  1.00  0.00    -0.064 C 
ATOM     10  C   UNL     1     143.698 145.559 133.804  1.00  0.00     0.036 C 
ATOM     11  C   UNL     1     142.745 145.676 132.615  1.00  0.00     0.035 C 
ATOM     12  C   UNL     1     145.564 143.249 134.110  1.00  0.00     0.039 C 
ENDROOT
BRANCH   5  13
ATOM     13  C   UNL     1     147.446 148.277 131.558  1.00  0.00    -0.013 C 
ATOM     14  C   UNL     1     148.905 148.503 131.995  1.00  0.00     0.007 C 
ATOM     15  C   UNL     1     147.291 148.612 130.066  1.00  0.00     0.007 C 
ENDBRANCH   5  13
TORSDOF 1
ENDMDL
MODEL 4
REMARK VINA RESULT:    -0.671      1.646      3.893
REMARK INTER + INTRA:          -0.804
REMARK INTER:                  -0.602
REMARK INTRA:                  -0.203
REMARK UNBOUND:                -0.094
REMARK SMILES CC1=C[C@H]2C(=C(C)CC[C@@H]2C(C)C)CC1
REMARK SMILES IDX 1 1 2 2 3 3 4 4 10 5 9 6 8 7 6 8 5 9 14 10 15 11 7 12 11 13
REMARK SMILES IDX 12 14 13 15
REMARK H PARENT
REMARK Flexibility Score: inf
ROOT
ATOM      1  C   UNL     1     148.636 143.497 130.762  1.00  0.00     0.039 C 
ATOM      2  C   UNL     1     147.605 143.983 131.744  1.00  0.00    -0.076 C 
ATOM      3  C   UNL     1     146.344 143.498 131.665  1.00  0.00    -0.020 C 
ATOM      4  C   UNL     1     145.230 143.887 132.630  1.00  0.00     0.041 C 
ATOM      5  C   UNL     1     143.846 143.914 131.910  1.00  0.00     0.003 C 
ATOM      6  C   UNL     1     142.840 144.749 132.721  1.00  0.00     0.009 C 
ATOM      7  C   UNL     1     143.343 146.180 132.857  1.00  0.00     0.031 C 
ATOM      8  C   UNL     1     144.724 146.237 133.466  1.00  0.00    -0.073 C 
ATOM      9  C   UNL     1     145.593 145.193 133.336  1.00  0.00    -0.064 C 
ATOM     10  C   UNL     1     147.006 145.223 133.875  1.00  0.00     0.036 C 
ATOM     11  C   UNL     1     147.980 145.095 132.704  1.00  0.00     0.035 C 
ATOM     12  C   UNL     1     145.133 147.533 134.125  1.00  0.00     0.039 C 
ENDROOT
BRANCH   5  13
ATOM     13  C   UNL     1     143.302 142.478 131.588  1.00  0.00    -0.013 C 
ATOM     14  C   UNL     1     141.840 142.250 132.015  1.00  0.00     0.007 C 
ATOM     15  C   UNL     1     143.470 142.135 130.099  1.00  0.00     0.007 C 
ENDBRANCH   5  13
TORSDOF 1
ENDMDL
MODEL 5
REMARK VINA RESULT:    -0.571      1.836      3.479
REMARK INTER + INTRA:          -0.698
REMARK INTER:                  -0.423
REMARK INTRA:                  -0.275
REMARK UNBOUND:                -0.094
REMARK SMILES CC1=C[C@H]2C(=C(C)CC[C@@H]2C(C)C)CC1
REMARK SMILES IDX 1 1 2 2 3 3 4 4 10 5 9 6 8 7 6 8 5 9 14 10 15 11 7 12 11 13
REMARK SMILES IDX 12 14 13 15
REMARK H PARENT
REMARK Flexibility Score: inf
ROOT
ATOM      1  C   UNL     1     148.171 142.544 132.250  1.00  0.00     0.039 C 
ATOM      2  C   UNL     1     147.012 143.501 132.209  1.00  0.00    -0.076 C 
ATOM      3  C   UNL     1     147.245 144.802 131.914  1.00  0.00    -0.020 C 
ATOM      4  C   UNL     1     146.144 145.850 131.805  1.00  0.00     0.041 C 
ATOM      5  C   UNL     1     146.649 147.246 132.287  1.00  0.00     0.003 C 
ATOM      6  C   UNL     1     145.455 148.154 132.632  1.00  0.00     0.009 C 
ATOM      7  C   UNL     1     144.630 147.525 133.747  1.00  0.00     0.031 C 
ATOM      8  C   UNL     1     144.176 146.128 133.393  1.00  0.00    -0.073 C 
ATOM      9  C   UNL     1     144.890 145.357 132.523  1.00  0.00    -0.064 C 
ATOM     10  C   UNL     1     144.512 143.933 132.182  1.00  0.00     0.036 C 
ATOM     11  C   UNL     1     145.641 143.005 132.629  1.00  0.00     0.035 C 
ATOM     12  C   UNL     1     142.969 145.591 134.125  1.00  0.00     0.039 C 
ENDROOT
BRANCH   5  13
ATOM     13  C   UNL     1     147.633 147.921 131.268  1.00  0.00    -0.013 C 
ATOM     14  C   UNL     1     146.966 148.374 129.956  1.00  0.00     0.007 C 
ATOM     15  C   UNL     1     148.379 149.103 131.908  1.00  0.00     0.007 C 
ENDBRANCH   5  13
TORSDOF 1
ENDMDL
MODEL 6
REMARK VINA RESULT:    -0.485      1.010      3.982
REMARK INTER + INTRA:          -0.607
REMARK INTER:                  -0.331
REMARK INTRA:                  -0.276
REMARK UNBOUND:                -0.094
REMARK SMILES CC1=C[C@H]2C(=C(C)CC[C@@H]2C(C)C)CC1
REMARK SMILES IDX 1 1 2 2 3 3 4 4 10 5 9 6 8 7 6 8 5 9 14 10 15 11 7 12 11 13
REMARK SMILES IDX 12 14 13 15
REMARK H PARENT
REMARK Flexibility Score: inf
ROOT
ATOM      1  C   UNL     1     142.620 148.199 132.247  1.00  0.00     0.039 C 
ATOM      2  C   UNL     1     143.758 147.216 132.207  1.00  0.00    -0.076 C 
ATOM      3  C   UNL     1     143.495 145.920 131.917  1.00  0.00    -0.020 C 
ATOM      4  C   UNL     1     144.571 144.846 131.810  1.00  0.00     0.041 C 
ATOM      5  C   UNL     1     144.036 143.464 132.297  1.00  0.00     0.003 C 
ATOM      6  C   UNL     1     145.210 142.531 132.644  1.00  0.00     0.009 C 
ATOM      7  C   UNL     1     146.051 143.145 133.756  1.00  0.00     0.031 C 
ATOM      8  C   UNL     1     146.535 144.529 133.397  1.00  0.00    -0.073 C 
ATOM      9  C   UNL     1     145.838 145.314 132.525  1.00  0.00    -0.064 C 
ATOM     10  C   UNL     1     146.247 146.728 132.178  1.00  0.00     0.036 C 
ATOM     11  C   UNL     1     145.140 147.682 132.624  1.00  0.00     0.035 C 
ATOM     12  C   UNL     1     147.755 145.042 134.125  1.00  0.00     0.039 C 
ENDROOT
BRANCH   5  13
ATOM     13  C   UNL     1     143.036 142.808 131.282  1.00  0.00    -0.013 C 
ATOM     14  C   UNL     1     143.685 142.364 129.959  1.00  0.00     0.007 C 
ATOM     15  C   UNL     1     142.287 141.626 131.918  1.00  0.00     0.007 C 
ENDBRANCH   5  13
TORSDOF 1
ENDMDL
MODEL 7
REMARK VINA RESULT:    -0.419      1.704      3.111
REMARK INTER + INTRA:          -0.537
REMARK INTER:                  -0.546
REMARK INTRA:                   0.008
REMARK UNBOUND:                -0.094
REMARK SMILES CC1=C[C@H]2C(=C(C)CC[C@@H]2C(C)C)CC1
REMARK SMILES IDX 1 1 2 2 3 3 4 4 10 5 9 6 8 7 6 8 5 9 14 10 15 11 7 12 11 13
REMARK SMILES IDX 12 14 13 15
REMARK H PARENT
REMARK Flexibility Score: inf
ROOT
ATOM      1  C   UNL     1     145.013 144.996 128.211  1.00  0.00     0.039 C 
ATOM      2  C   UNL     1     144.942 144.803 129.701  1.00  0.00    -0.076 C 
ATOM      3  C   UNL     1     145.506 145.730 130.510  1.00  0.00    -0.020 C 
ATOM      4  C   UNL     1     145.460 145.658 132.032  1.00  0.00     0.041 C 
ATOM      5  C   UNL     1     146.759 146.250 132.662  1.00  0.00     0.003 C 
ATOM      6  C   UNL     1     146.926 145.749 134.108  1.00  0.00     0.009 C 
ATOM      7  C   UNL     1     147.028 144.230 134.123  1.00  0.00     0.031 C 
ATOM      8  C   UNL     1     145.845 143.578 133.447  1.00  0.00    -0.073 C 
ATOM      9  C   UNL     1     145.147 144.228 132.471  1.00  0.00    -0.064 C 
ATOM     10  C   UNL     1     143.994 143.599 131.722  1.00  0.00     0.036 C 
ATOM     11  C   UNL     1     144.360 143.511 130.241  1.00  0.00     0.035 C 
ATOM     12  C   UNL     1     145.542 142.147 133.820  1.00  0.00     0.039 C 
ENDROOT
BRANCH   5  13
ATOM     13  C   UNL     1     146.822 147.814 132.565  1.00  0.00    -0.013 C 
ATOM     14  C   UNL     1     147.156 148.344 131.159  1.00  0.00     0.007 C 
ATOM     15  C   UNL     1     145.523 148.461 133.071  1.00  0.00     0.007 C 
ENDBRANCH   5  13
TORSDOF 1
ENDMDL
MODEL 8
REMARK VINA RESULT:     0.492      1.528      3.576
REMARK INTER + INTRA:           0.427
REMARK INTER:                   0.706
REMARK INTRA:                  -0.279
REMARK UNBOUND:                -0.094
REMARK SMILES CC1=C[C@H]2C(=C(C)CC[C@@H]2C(C)C)CC1
REMARK SMILES IDX 1 1 2 2 3 3 4 4 10 5 9 6 8 7 6 8 5 9 14 10 15 11 7 12 11 13
REMARK SMILES IDX 12 14 13 15
REMARK H PARENT
REMARK Flexibility Score: inf
ROOT
ATOM      1  C   UNL     1     148.205 148.466 131.876  1.00  0.00     0.039 C 
ATOM      2  C   UNL     1     147.254 147.303 131.941  1.00  0.00    -0.076 C 
ATOM      3  C   UNL     1     145.932 147.525 131.748  1.00  0.00    -0.020 C 
ATOM      4  C   UNL     1     144.883 146.419 131.752  1.00  0.00     0.041 C 
ATOM      5  C   UNL     1     143.529 146.931 132.334  1.00  0.00     0.003 C 
ATOM      6  C   UNL     1     142.659 145.743 132.781  1.00  0.00     0.009 C 
ATOM      7  C   UNL     1     143.380 144.948 133.861  1.00  0.00     0.031 C 
ATOM      8  C   UNL     1     144.746 144.490 133.406  1.00  0.00    -0.073 C 
ATOM      9  C   UNL     1     145.440 145.184 132.458  1.00  0.00    -0.064 C 
ATOM     10  C   UNL     1     146.834 144.802 132.012  1.00  0.00     0.036 C 
ATOM     11  C   UNL     1     147.789 145.945 132.354  1.00  0.00     0.035 C 
ATOM     12  C   UNL     1     145.347 143.304 134.122  1.00  0.00     0.039 C 
ENDROOT
BRANCH   5  13
ATOM     13  C   UNL     1     142.768 147.886 131.349  1.00  0.00    -0.013 C 
ATOM     14  C   UNL     1     142.327 147.214 130.036  1.00  0.00     0.007 C 
ATOM     15  C   UNL     1     141.558 148.545 132.030  1.00  0.00     0.007 C 
ENDBRANCH   5  13
TORSDOF 1
ENDMDL
