MODEL 1
REMARK VINA RESULT:    -2.942      0.000      0.000
REMARK INTER + INTRA:          -2.942
REMARK INTER:                  -2.942
REMARK INTRA:                   0.000
REMARK UNBOUND:                 0.000
REMARK SMILES CC1(C)C(=O)[C@@]2(C)CC[C@@H]1C2
REMARK SMILES IDX 1 1 2 2 10 3 9 4 8 5 6 6 11 7 4 8 5 9 7 10 3 11
REMARK H PARENT
REMARK Flexibility Score: inf
ROOT
ATOM      1  C   UNL     1     132.415 147.256 139.532  1.00  0.00     0.020 C 
ATOM      2  C   UNL     1     131.688 145.923 139.262  1.00  0.00     0.027 C 
ATOM      3  C   UNL     1     130.661 145.582 140.401  1.00  0.00     0.003 C 
ATOM      4  C   UNL     1     130.071 144.160 140.215  1.00  0.00     0.005 C 
ATOM      5  C   UNL     1     129.207 144.304 138.943  1.00  0.00     0.015 C 
ATOM      6  C   UNL     1     129.330 145.806 138.621  1.00  0.00     0.027 C 
ATOM      7  C   UNL     1     129.437 146.407 140.007  1.00  0.00     0.019 C 
ATOM      8  C   UNL     1     130.726 146.051 138.115  1.00  0.00     0.144 C 
ATOM      9  O   UNL     1     131.035 146.246 136.949  1.00  0.00    -0.298 OA
ATOM     10  C   UNL     1     128.209 146.386 137.755  1.00  0.00     0.020 C 
ATOM     11  C   UNL     1     132.735 144.818 139.000  1.00  0.00     0.020 C 
ENDROOT
TORSDOF 0
ENDMDL
MODEL 2
REMARK VINA RESULT:    -2.790      1.522      2.491
REMARK INTER + INTRA:          -2.790
REMARK INTER:                  -2.790
REMARK INTRA:                   0.000
REMARK UNBOUND:                 0.000
REMARK SMILES CC1(C)C(=O)[C@@]2(C)CC[C@@H]1C2
REMARK SMILES IDX 1 1 2 2 10 3 9 4 8 5 6 6 11 7 4 8 5 9 7 10 3 11
REMARK H PARENT
REMARK Flexibility Score: inf
ROOT
ATOM      1  C   UNL     1     132.353 143.656 137.681  1.00  0.00     0.020 C 
ATOM      2  C   UNL     1     131.798 144.467 138.871  1.00  0.00     0.027 C 
ATOM      3  C   UNL     1     131.965 146.013 138.647  1.00  0.00     0.003 C 
ATOM      4  C   UNL     1     131.573 146.807 139.919  1.00  0.00     0.005 C 
ATOM      5  C   UNL     1     130.045 146.590 140.010  1.00  0.00     0.015 C 
ATOM      6  C   UNL     1     129.743 145.787 138.729  1.00  0.00     0.027 C 
ATOM      7  C   UNL     1     130.764 146.355 137.765  1.00  0.00     0.019 C 
ATOM      8  C   UNL     1     130.298 144.401 138.919  1.00  0.00     0.144 C 
ATOM      9  O   UNL     1     129.639 143.398 139.152  1.00  0.00    -0.298 OA
ATOM     10  C   UNL     1     128.294 145.851 138.241  1.00  0.00     0.020 C 
ATOM     11  C   UNL     1     132.429 143.943 140.179  1.00  0.00     0.020 C 
ENDROOT
TORSDOF 0
ENDMDL
MODEL 3
REMARK VINA RESULT:    -2.696      1.730      2.744
REMARK INTER + INTRA:          -2.696
REMARK INTER:                  -2.696
REMARK INTRA:                   0.000
REMARK UNBOUND:                 0.000
REMARK SMILES CC1(C)C(=O)[C@@]2(C)CC[C@@H]1C2
REMARK SMILES IDX 1 1 2 2 10 3 9 4 8 5 6 6 11 7 4 8 5 9 7 10 3 11
REMARK H PARENT
REMARK Flexibility Score: inf
ROOT
ATOM      1  C   UNL     1     133.112 147.368 139.691  1.00  0.00     0.020 C 
ATOM      2  C   UNL     1     132.050 146.267 139.891  1.00  0.00     0.027 C 
ATOM      3  C   UNL     1     130.823 146.464 138.930  1.00  0.00     0.003 C 
ATOM      4  C   UNL     1     129.686 145.465 139.264  1.00  0.00     0.005 C 
ATOM      5  C   UNL     1     130.286 144.101 138.855  1.00  0.00     0.015 C 
ATOM      6  C   UNL     1     131.646 144.501 138.248  1.00  0.00     0.027 C 
ATOM      7  C   UNL     1     131.318 145.842 137.624  1.00  0.00     0.019 C 
ATOM      8  C   UNL     1     132.537 144.943 139.377  1.00  0.00     0.144 C 
ATOM      9  O   UNL     1     133.459 144.294 139.850  1.00  0.00    -0.298 OA
ATOM     10  C   UNL     1     132.262 143.481 137.289  1.00  0.00     0.020 C 
ATOM     11  C   UNL     1     131.678 146.190 141.388  1.00  0.00     0.020 C 
ENDROOT
TORSDOF 0
ENDMDL
MODEL 4
REMARK VINA RESULT:    -2.691      1.986      3.445
REMARK INTER + INTRA:          -2.691
REMARK INTER:                  -2.691
REMARK INTRA:                   0.000
REMARK UNBOUND:                 0.000
REMARK SMILES CC1(C)C(=O)[C@@]2(C)CC[C@@H]1C2
REMARK SMILES IDX 1 1 2 2 10 3 9 4 8 5 6 6 11 7 4 8 5 9 7 10 3 11
REMARK H PARENT
REMARK Flexibility Score: inf
ROOT
ATOM      1  C   UNL     1     131.073 146.301 137.803  1.00  0.00     0.020 C 
ATOM      2  C   UNL     1     131.838 145.923 139.088  1.00  0.00     0.027 C 
ATOM      3  C   UNL     1     132.935 146.990 139.445  1.00  0.00     0.003 C 
ATOM      4  C   UNL     1     133.816 146.513 140.628  1.00  0.00     0.005 C 
ATOM      5  C   UNL     1     132.840 146.542 141.826  1.00  0.00     0.015 C 
ATOM      6  C   UNL     1     131.557 147.126 141.199  1.00  0.00     0.027 C 
ATOM      7  C   UNL     1     132.128 148.072 140.163  1.00  0.00     0.019 C 
ATOM      8  C   UNL     1     130.967 146.072 140.303  1.00  0.00     0.144 C 
ATOM      9  O   UNL     1     129.983 145.394 140.557  1.00  0.00    -0.298 OA
ATOM     10  C   UNL     1     130.580 147.769 142.186  1.00  0.00     0.020 C 
ATOM     11  C   UNL     1     132.376 144.482 138.952  1.00  0.00     0.020 C 
ENDROOT
TORSDOF 0
ENDMDL
MODEL 5
REMARK VINA RESULT:    -2.684     11.334     12.867
REMARK INTER + INTRA:          -2.684
REMARK INTER:                  -2.684
REMARK INTRA:                   0.000
REMARK UNBOUND:                 0.000
REMARK SMILES CC1(C)C(=O)[C@@]2(C)CC[C@@H]1C2
REMARK SMILES IDX 1 1 2 2 10 3 9 4 8 5 6 6 11 7 4 8 5 9 7 10 3 11
REMARK H PARENT
REMARK Flexibility Score: inf
ROOT
ATOM      1  C   UNL     1     145.453 145.182 139.711  1.00  0.00     0.020 C 
ATOM      2  C   UNL     1     144.084 145.876 139.874  1.00  0.00     0.027 C 
ATOM      3  C   UNL     1     143.905 147.052 138.848  1.00  0.00     0.003 C 
ATOM      4  C   UNL     1     142.611 147.855 139.138  1.00  0.00     0.005 C 
ATOM      5  C   UNL     1     141.490 146.853 138.781  1.00  0.00     0.015 C 
ATOM      6  C   UNL     1     142.280 145.645 138.239  1.00  0.00     0.027 C 
ATOM      7  C   UNL     1     143.462 146.325 137.579  1.00  0.00     0.019 C 
ATOM      8  C   UNL     1     142.967 144.989 139.406  1.00  0.00     0.144 C 
ATOM      9  O   UNL     1     142.624 143.941 139.935  1.00  0.00    -0.298 OA
ATOM     10  C   UNL     1     141.491 144.702 137.328  1.00  0.00     0.020 C 
ATOM     11  C   UNL     1     143.898 146.288 141.351  1.00  0.00     0.020 C 
ENDROOT
TORSDOF 0
ENDMDL
MODEL 6
REMARK VINA RESULT:    -2.681     12.161     14.148
REMARK INTER + INTRA:          -2.681
REMARK INTER:                  -2.681
REMARK INTRA:                   0.000
REMARK UNBOUND:                 0.000
REMARK SMILES CC1(C)C(=O)[C@@]2(C)CC[C@@H]1C2
REMARK SMILES IDX 1 1 2 2 10 3 9 4 8 5 6 6 11 7 4 8 5 9 7 10 3 11
REMARK H PARENT
REMARK Flexibility Score: inf
ROOT
ATOM      1  C   UNL     1     143.783 146.711 137.830  1.00  0.00     0.020 C 
ATOM      2  C   UNL     1     143.682 145.915 139.148  1.00  0.00     0.027 C 
ATOM      3  C   UNL     1     145.013 145.143 139.463  1.00  0.00     0.003 C 
ATOM      4  C   UNL     1     144.841 144.207 140.686  1.00  0.00     0.005 C 
ATOM      5  C   UNL     1     144.676 145.195 141.863  1.00  0.00     0.015 C 
ATOM      6  C   UNL     1     144.875 146.564 141.182  1.00  0.00     0.027 C 
ATOM      7  C   UNL     1     145.883 146.224 140.104  1.00  0.00     0.019 C 
ATOM      8  C   UNL     1     143.660 146.833 140.337  1.00  0.00     0.144 C 
ATOM      9  O   UNL     1     142.763 147.617 140.612  1.00  0.00    -0.298 OA
ATOM     10  C   UNL     1     145.292 147.704 142.114  1.00  0.00     0.020 C 
ATOM     11  C   UNL     1     142.424 145.020 139.103  1.00  0.00     0.020 C 
ENDROOT
TORSDOF 0
ENDMDL
MODEL 7
REMARK VINA RESULT:    -2.667      1.557      3.760
REMARK INTER + INTRA:          -2.667
REMARK INTER:                  -2.667
REMARK INTRA:                   0.000
REMARK UNBOUND:                 0.000
REMARK SMILES CC1(C)C(=O)[C@@]2(C)CC[C@@H]1C2
REMARK SMILES IDX 1 1 2 2 10 3 9 4 8 5 6 6 11 7 4 8 5 9 7 10 3 11
REMARK H PARENT
REMARK Flexibility Score: inf
ROOT
ATOM      1  C   UNL     1     129.996 144.489 139.029  1.00  0.00     0.020 C 
ATOM      2  C   UNL     1     131.086 145.567 138.850  1.00  0.00     0.027 C 
ATOM      3  C   UNL     1     131.169 146.520 140.097  1.00  0.00     0.003 C 
ATOM      4  C   UNL     1     132.134 147.703 139.832  1.00  0.00     0.005 C 
ATOM      5  C   UNL     1     133.519 147.019 139.771  1.00  0.00     0.015 C 
ATOM      6  C   UNL     1     133.184 145.552 140.107  1.00  0.00     0.027 C 
ATOM      7  C   UNL     1     132.028 145.718 141.074  1.00  0.00     0.019 C 
ATOM      8  C   UNL     1     132.461 144.968 138.925  1.00  0.00     0.144 C 
ATOM      9  O   UNL     1     132.940 144.190 138.113  1.00  0.00    -0.298 OA
ATOM     10  C   UNL     1     134.351 144.718 140.639  1.00  0.00     0.020 C 
ATOM     11  C   UNL     1     130.859 146.297 137.508  1.00  0.00     0.020 C 
ENDROOT
TORSDOF 0
ENDMDL
MODEL 8
REMARK VINA RESULT:    -2.650      1.680      3.411
REMARK INTER + INTRA:          -2.650
REMARK INTER:                  -2.650
REMARK INTRA:                   0.000
REMARK UNBOUND:                 0.000
REMARK SMILES CC1(C)C(=O)[C@@]2(C)CC[C@@H]1C2
REMARK SMILES IDX 1 1 2 2 10 3 9 4 8 5 6 6 11 7 4 8 5 9 7 10 3 11
REMARK H PARENT
REMARK Flexibility Score: inf
ROOT
ATOM      1  C   UNL     1     128.764 144.967 139.061  1.00  0.00     0.020 C 
ATOM      2  C   UNL     1     130.230 144.690 139.454  1.00  0.00     0.027 C 
ATOM      3  C   UNL     1     131.190 144.784 138.214  1.00  0.00     0.003 C 
ATOM      4  C   UNL     1     132.625 144.326 138.582  1.00  0.00     0.005 C 
ATOM      5  C   UNL     1     133.113 145.439 139.537  1.00  0.00     0.015 C 
ATOM      6  C   UNL     1     131.939 146.438 139.516  1.00  0.00     0.027 C 
ATOM      7  C   UNL     1     131.437 146.287 138.095  1.00  0.00     0.019 C 
ATOM      8  C   UNL     1     130.797 145.816 140.271  1.00  0.00     0.144 C 
ATOM      9  O   UNL     1     130.437 146.125 141.397  1.00  0.00    -0.298 OA
ATOM     10  C   UNL     1     132.291 147.871 139.923  1.00  0.00     0.020 C 
ATOM     11  C   UNL     1     130.305 143.347 140.215  1.00  0.00     0.020 C 
ENDROOT
TORSDOF 0
ENDMDL
MODEL 9
REMARK VINA RESULT:    -2.586      1.719      2.816
REMARK INTER + INTRA:          -2.586
REMARK INTER:                  -2.586
REMARK INTRA:                   0.000
REMARK UNBOUND:                 0.000
REMARK SMILES CC1(C)C(=O)[C@@]2(C)CC[C@@H]1C2
REMARK SMILES IDX 1 1 2 2 10 3 9 4 8 5 6 6 11 7 4 8 5 9 7 10 3 11
REMARK H PARENT
REMARK Flexibility Score: inf
ROOT
ATOM      1  C   UNL     1     133.616 145.041 140.170  1.00  0.00     0.020 C 
ATOM      2  C   UNL     1     132.415 145.848 139.635  1.00  0.00     0.027 C 
ATOM      3  C   UNL     1     131.948 145.328 138.228  1.00  0.00     0.003 C 
ATOM      4  C   UNL     1     130.865 146.256 137.620  1.00  0.00     0.005 C 
ATOM      5  C   UNL     1     129.648 146.027 138.545  1.00  0.00     0.015 C 
ATOM      6  C   UNL     1     130.154 144.926 139.499  1.00  0.00     0.027 C 
ATOM      7  C   UNL     1     131.068 144.131 138.590  1.00  0.00     0.019 C 
ATOM      8  C   UNL     1     131.169 145.551 140.418  1.00  0.00     0.144 C 
ATOM      9  O   UNL     1     130.982 145.840 141.591  1.00  0.00    -0.298 OA
ATOM     10  C   UNL     1     129.063 144.105 140.190  1.00  0.00     0.020 C 
ATOM     11  C   UNL     1     132.761 147.353 139.672  1.00  0.00     0.020 C 
ENDROOT
TORSDOF 0
ENDMDL
