MODEL 1
REMARK VINA RESULT:    -3.261      0.000      0.000
REMARK INTER + INTRA:          -3.924
REMARK INTER:                  -3.832
REMARK INTRA:                  -0.092
REMARK UNBOUND:                -0.092
REMARK SMILES O=C([O-])CCC(=O)[O-]
REMARK SMILES IDX 4 1 2 2 1 3 3 4 5 5 6 6 7 7 8 8
REMARK H PARENT
REMARK Flexibility Score: inf
ROOT
ATOM      1  C   UNL     1      18.835 -37.557  -8.563  1.00  0.00     0.059 C 
ENDROOT
BRANCH   1   2
ATOM      2  C   UNL     1      19.829 -36.500  -8.923  1.00  0.00     0.042 C 
ATOM      3  O   UNL     1      20.779 -36.764  -9.706  1.00  0.00    -0.550 OA
ATOM      4  O   UNL     1      19.678 -35.208  -8.435  1.00  0.00    -0.550 OA
ENDBRANCH   1   2
BRANCH   1   5
ATOM      5  C   UNL     1      19.529 -38.735  -7.877  1.00  0.00     0.059 C 
BRANCH   5   6
ATOM      6  C   UNL     1      19.289 -38.699  -6.401  1.00  0.00     0.042 C 
ATOM      7  O   UNL     1      20.000 -37.968  -5.662  1.00  0.00    -0.550 OA
ATOM      8  O   UNL     1      18.314 -39.510  -5.835  1.00  0.00    -0.550 OA
ENDBRANCH   5   6
ENDBRANCH   1   5
TORSDOF 3
ENDMDL
MODEL 2
REMARK VINA RESULT:    -3.249      0.177      3.809
REMARK INTER + INTRA:          -3.911
REMARK INTER:                  -3.814
REMARK INTRA:                  -0.097
REMARK UNBOUND:                -0.092
REMARK SMILES O=C([O-])CCC(=O)[O-]
REMARK SMILES IDX 4 1 2 2 1 3 3 4 5 5 6 6 7 7 8 8
REMARK H PARENT
REMARK Flexibility Score: inf
ROOT
ATOM      1  C   UNL     1      19.625 -38.619  -7.902  1.00  0.00     0.059 C 
ENDROOT
BRANCH   1   2
ATOM      2  C   UNL     1      19.346 -38.641  -6.432  1.00  0.00     0.042 C 
ATOM      3  O   UNL     1      18.428 -39.371  -5.973  1.00  0.00    -0.550 OA
ATOM      4  O   UNL     1      20.132 -37.894  -5.564  1.00  0.00    -0.550 OA
ENDBRANCH   1   2
BRANCH   1   5
ATOM      5  C   UNL     1      18.879 -37.465  -8.573  1.00  0.00     0.059 C 
BRANCH   5   6
ATOM      6  C   UNL     1      19.823 -36.355  -8.910  1.00  0.00     0.042 C 
ATOM      7  O   UNL     1      20.730 -36.533  -9.766  1.00  0.00    -0.550 OA
ATOM      8  O   UNL     1      19.735 -35.140  -8.243  1.00  0.00    -0.550 OA
ENDBRANCH   5   6
ENDBRANCH   1   5
TORSDOF 3
ENDMDL
MODEL 3
REMARK VINA RESULT:    -3.234      2.453      3.837
REMARK INTER + INTRA:          -3.893
REMARK INTER:                  -3.796
REMARK INTRA:                  -0.097
REMARK UNBOUND:                -0.092
REMARK SMILES O=C([O-])CCC(=O)[O-]
REMARK SMILES IDX 4 1 2 2 1 3 3 4 5 5 6 6 7 7 8 8
REMARK H PARENT
REMARK Flexibility Score: inf
ROOT
ATOM      1  C   UNL     1      18.180 -40.206  -8.439  1.00  0.00     0.059 C 
ENDROOT
BRANCH   1   2
ATOM      2  C   UNL     1      18.886 -41.512  -8.618  1.00  0.00     0.042 C 
ATOM      3  O   UNL     1      18.428 -42.558  -8.087  1.00  0.00    -0.550 OA
ATOM      4  O   UNL     1      20.022 -41.585  -9.415  1.00  0.00    -0.550 OA
ENDBRANCH   1   2
BRANCH   1   5
ATOM      5  C   UNL     1      19.145 -39.142  -7.913  1.00  0.00     0.059 C 
BRANCH   5   6
ATOM      6  C   UNL     1      18.979 -38.966  -6.437  1.00  0.00     0.042 C 
ATOM      7  O   UNL     1      19.731 -38.179  -5.804  1.00  0.00    -0.550 OA
ATOM      8  O   UNL     1      18.026 -39.710  -5.752  1.00  0.00    -0.550 OA
ENDBRANCH   5   6
ENDBRANCH   1   5
TORSDOF 3
ENDMDL
MODEL 4
REMARK VINA RESULT:    -3.216      2.390      3.981
REMARK INTER + INTRA:          -3.871
REMARK INTER:                  -3.765
REMARK INTRA:                  -0.106
REMARK UNBOUND:                -0.092
REMARK SMILES O=C([O-])CCC(=O)[O-]
REMARK SMILES IDX 4 1 2 2 1 3 3 4 5 5 6 6 7 7 8 8
REMARK H PARENT
REMARK Flexibility Score: inf
ROOT
ATOM      1  C   UNL     1      18.672 -38.985  -7.911  1.00  0.00     0.059 C 
ENDROOT
BRANCH   1   2
ATOM      2  C   UNL     1      18.851 -38.964  -6.427  1.00  0.00     0.042 C 
ATOM      3  O   UNL     1      19.732 -38.230  -5.905  1.00  0.00    -0.550 OA
ATOM      4  O   UNL     1      18.011 -39.715  -5.615  1.00  0.00    -0.550 OA
ENDBRANCH   1   2
BRANCH   1   5
ATOM      5  C   UNL     1      19.380 -40.196  -8.520  1.00  0.00     0.059 C 
BRANCH   5   6
ATOM      6  C   UNL     1      18.405 -41.302  -8.771  1.00  0.00     0.042 C 
ATOM      7  O   UNL     1      18.546 -42.414  -8.196  1.00  0.00    -0.550 OA
ATOM      8  O   UNL     1      17.369 -41.123  -9.678  1.00  0.00    -0.550 OA
ENDBRANCH   5   6
ENDBRANCH   1   5
TORSDOF 3
ENDMDL
MODEL 5
REMARK VINA RESULT:    -3.214      2.450      4.104
REMARK INTER + INTRA:          -3.869
REMARK INTER:                  -3.765
REMARK INTRA:                  -0.105
REMARK UNBOUND:                -0.092
REMARK SMILES O=C([O-])CCC(=O)[O-]
REMARK SMILES IDX 4 1 2 2 1 3 3 4 5 5 6 6 7 7 8 8
REMARK H PARENT
REMARK Flexibility Score: inf
ROOT
ATOM      1  C   UNL     1      19.347 -40.413  -8.480  1.00  0.00     0.059 C 
ENDROOT
BRANCH   1   2
ATOM      2  C   UNL     1      18.380 -41.530  -8.714  1.00  0.00     0.042 C 
ATOM      3  O   UNL     1      18.494 -42.610  -8.077  1.00  0.00    -0.550 OA
ATOM      4  O   UNL     1      17.321 -41.359  -9.596  1.00  0.00    -0.550 OA
ENDBRANCH   1   2
BRANCH   1   5
ATOM      5  C   UNL     1      18.621 -39.177  -7.946  1.00  0.00     0.059 C 
BRANCH   5   6
ATOM      6  C   UNL     1      18.785 -39.072  -6.463  1.00  0.00     0.042 C 
ATOM      7  O   UNL     1      18.024 -39.716  -5.694  1.00  0.00    -0.550 OA
ATOM      8  O   UNL     1      19.746 -38.223  -5.929  1.00  0.00    -0.550 OA
ENDBRANCH   5   6
ENDBRANCH   1   5
TORSDOF 3
ENDMDL
MODEL 6
REMARK VINA RESULT:    -3.208      2.333      3.305
REMARK INTER + INTRA:          -3.863
REMARK INTER:                  -3.751
REMARK INTRA:                  -0.111
REMARK UNBOUND:                -0.092
REMARK SMILES O=C([O-])CCC(=O)[O-]
REMARK SMILES IDX 4 1 2 2 1 3 3 4 5 5 6 6 7 7 8 8
REMARK H PARENT
REMARK Flexibility Score: inf
ROOT
ATOM      1  C   UNL     1      18.576 -39.417  -6.573  1.00  0.00     0.059 C 
ENDROOT
BRANCH   1   2
ATOM      2  C   UNL     1      19.494 -38.237  -6.591  1.00  0.00     0.042 C 
ATOM      3  O   UNL     1      20.114 -37.899  -5.547  1.00  0.00    -0.550 OA
ATOM      4  O   UNL     1      19.706 -37.539  -7.773  1.00  0.00    -0.550 OA
ENDBRANCH   1   2
BRANCH   1   5
ATOM      5  C   UNL     1      18.192 -39.820  -7.997  1.00  0.00     0.059 C 
BRANCH   5   6
ATOM      6  C   UNL     1      18.913 -41.066  -8.403  1.00  0.00     0.042 C 
ATOM      7  O   UNL     1      19.977 -40.992  -9.072  1.00  0.00    -0.550 OA
ATOM      8  O   UNL     1      18.383 -42.310  -8.087  1.00  0.00    -0.550 OA
ENDBRANCH   5   6
ENDBRANCH   1   5
TORSDOF 3
ENDMDL
MODEL 7
REMARK VINA RESULT:    -3.096      2.414      3.998
REMARK INTER + INTRA:          -3.731
REMARK INTER:                  -3.644
REMARK INTRA:                  -0.087
REMARK UNBOUND:                -0.092
REMARK SMILES O=C([O-])CCC(=O)[O-]
REMARK SMILES IDX 4 1 2 2 1 3 3 4 5 5 6 6 7 7 8 8
REMARK H PARENT
REMARK Flexibility Score: inf
ROOT
ATOM      1  C   UNL     1      18.763 -39.018  -7.873  1.00  0.00     0.059 C 
ENDROOT
BRANCH   1   2
ATOM      2  C   UNL     1      18.856 -38.991  -6.380  1.00  0.00     0.042 C 
ATOM      3  O   UNL     1      19.691 -38.241  -5.810  1.00  0.00    -0.550 OA
ATOM      4  O   UNL     1      17.984 -39.757  -5.616  1.00  0.00    -0.550 OA
ENDBRANCH   1   2
BRANCH   1   5
ATOM      5  C   UNL     1      20.137 -39.282  -8.491  1.00  0.00     0.059 C 
BRANCH   5   6
ATOM      6  C   UNL     1      20.229 -40.691  -8.984  1.00  0.00     0.042 C 
ATOM      7  O   UNL     1      19.198 -41.413  -9.033  1.00  0.00    -0.550 OA
ATOM      8  O   UNL     1      21.461 -41.224  -9.342  1.00  0.00    -0.550 OA
ENDBRANCH   5   6
ENDBRANCH   1   5
TORSDOF 3
ENDMDL
MODEL 8
REMARK VINA RESULT:    -3.089      2.150      3.742
REMARK INTER + INTRA:          -3.723
REMARK INTER:                  -3.611
REMARK INTRA:                  -0.111
REMARK UNBOUND:                -0.092
REMARK SMILES O=C([O-])CCC(=O)[O-]
REMARK SMILES IDX 4 1 2 2 1 3 3 4 5 5 6 6 7 7 8 8
REMARK H PARENT
REMARK Flexibility Score: inf
ROOT
ATOM      1  C   UNL     1      19.563 -38.736  -7.892  1.00  0.00     0.059 C 
ENDROOT
BRANCH   1   2
ATOM      2  C   UNL     1      19.332 -38.671  -6.416  1.00  0.00     0.042 C 
ATOM      3  O   UNL     1      18.426 -39.367  -5.885  1.00  0.00    -0.550 OA
ATOM      4  O   UNL     1      20.150 -37.881  -5.618  1.00  0.00    -0.550 OA
ENDBRANCH   1   2
BRANCH   1   5
ATOM      5  C   UNL     1      18.626 -37.774  -8.625  1.00  0.00     0.059 C 
BRANCH   5   6
ATOM      6  C   UNL     1      17.409 -38.495  -9.110  1.00  0.00     0.042 C 
ATOM      7  O   UNL     1      17.423 -39.748  -9.236  1.00  0.00    -0.550 OA
ATOM      8  O   UNL     1      16.274 -37.779  -9.470  1.00  0.00    -0.550 OA
ENDBRANCH   5   6
ENDBRANCH   1   5
TORSDOF 3
ENDMDL
MODEL 9
REMARK VINA RESULT:    -3.076      2.273      3.096
REMARK INTER + INTRA:          -3.707
REMARK INTER:                  -3.614
REMARK INTRA:                  -0.093
REMARK UNBOUND:                -0.092
REMARK SMILES O=C([O-])CCC(=O)[O-]
REMARK SMILES IDX 4 1 2 2 1 3 3 4 5 5 6 6 7 7 8 8
REMARK H PARENT
REMARK Flexibility Score: inf
ROOT
ATOM      1  C   UNL     1      18.382 -39.607  -8.321  1.00  0.00     0.059 C 
ENDROOT
BRANCH   1   2
ATOM      2  C   UNL     1      17.273 -38.998  -9.118  1.00  0.00     0.042 C 
ATOM      3  O   UNL     1      17.082 -37.753  -9.090  1.00  0.00    -0.550 OA
ATOM      4  O   UNL     1      16.482 -39.798  -9.933  1.00  0.00    -0.550 OA
ENDBRANCH   1   2
BRANCH   1   5
ATOM      5  C   UNL     1      19.290 -38.518  -7.746  1.00  0.00     0.059 C 
BRANCH   5   6
ATOM      6  C   UNL     1      19.313 -38.590  -6.252  1.00  0.00     0.042 C 
ATOM      7  O   UNL     1      18.493 -39.323  -5.640  1.00  0.00    -0.550 OA
ATOM      8  O   UNL     1      20.207 -37.806  -5.533  1.00  0.00    -0.550 OA
ENDBRANCH   5   6
ENDBRANCH   1   5
TORSDOF 3
ENDMDL
