MODEL 1
REMARK VINA RESULT:    -7.354      0.000      0.000
REMARK INTER + INTRA:          -9.298
REMARK INTER:                  -8.858
REMARK INTRA:                  -0.440
REMARK UNBOUND:                -0.440
REMARK SMILES O=c1c(O)c(-c2ccc(O)cc2O)oc2cc(O)cc(O)c12
REMARK SMILES IDX 5 1 3 2 2 3 1 4 22 5 20 6 19 7 17 8 16 9 15 10 14 11 6 12
REMARK SMILES IDX 8 13 7 14 9 15 11 16 12 17 10 18 13 20 4 22 21 24 18 26
REMARK H PARENT 10 19 13 21 4 23 21 25 18 27
REMARK Flexibility Score: inf
ROOT
ATOM      1  C   UNL     1      37.370  28.963   8.960  1.00  0.00     0.184 A 
ATOM      2  C   UNL     1      36.378  28.195   8.328  1.00  0.00     0.208 A 
ATOM      3  C   UNL     1      35.585  28.792   7.334  1.00  0.00     0.238 A 
ATOM      4  O   UNL     1      34.661  28.115   6.812  1.00  0.00    -0.285 OA
ATOM      5  C   UNL     1      35.808  30.142   6.971  1.00  0.00     0.111 A 
ATOM      6  C   UNL     1      35.092  30.836   5.949  1.00  0.00     0.134 A 
ATOM      7  C   UNL     1      35.310  32.206   5.763  1.00  0.00     0.093 A 
ATOM      8  C   UNL     1      36.265  32.894   6.516  1.00  0.00     0.123 A 
ATOM      9  C   UNL     1      37.011  32.212   7.475  1.00  0.00     0.094 A 
ATOM     10  C   UNL     1      36.790  30.852   7.709  1.00  0.00     0.146 A 
ATOM     11  O   UNL     1      37.516  30.244   8.640  1.00  0.00    -0.451 OA
ENDROOT
BRANCH   1  12
ATOM     12  C   UNL     1      38.258  28.392   9.999  1.00  0.00     0.063 A 
ATOM     13  C   UNL     1      40.304  27.227  10.616  1.00  0.00     0.047 A 
ATOM     14  C   UNL     1      39.453  27.743   9.637  1.00  0.00     0.020 A 
ATOM     15  C   UNL     1      39.980  27.360  11.972  1.00  0.00     0.119 A 
ATOM     16  C   UNL     1      38.802  28.015  12.342  1.00  0.00     0.093 A 
ATOM     17  C   UNL     1      37.940  28.534  11.365  1.00  0.00     0.130 A 
BRANCH  15  18
ATOM     18  O   UNL     1      40.823  26.849  12.957  1.00  0.00    -0.508 OA
ATOM     19  H   UNL     1      40.586  26.010  13.473  1.00  0.00     0.293 HD
ENDBRANCH  15  18
BRANCH  17  20
ATOM     20  O   UNL     1      36.764  29.179  11.749  1.00  0.00    -0.507 OA
ATOM     21  H   UNL     1      36.769  29.939  12.419  1.00  0.00     0.293 HD
ENDBRANCH  17  20
ENDBRANCH   1  12
BRANCH   2  22
ATOM     22  O   UNL     1      36.167  26.869   8.713  1.00  0.00    -0.502 OA
ATOM     23  H   UNL     1      36.927  26.209   8.826  1.00  0.00     0.293 HD
ENDBRANCH   2  22
BRANCH   6  24
ATOM     24  O   UNL     1      34.184  30.224   5.081  1.00  0.00    -0.507 OA
ATOM     25  H   UNL     1      33.195  30.426   5.047  1.00  0.00     0.293 HD
ENDBRANCH   6  24
BRANCH   8  26
ATOM     26  O   UNL     1      36.486  34.254   6.313  1.00  0.00    -0.508 OA
ATOM     27  H   UNL     1      37.332  34.593   5.870  1.00  0.00     0.293 HD
ENDBRANCH   8  26
TORSDOF 6
ENDMDL
MODEL 2
REMARK VINA RESULT:    -6.895      2.716      6.463
REMARK INTER + INTRA:          -8.745
REMARK INTER:                  -8.369
REMARK INTRA:                  -0.376
REMARK UNBOUND:                -0.440
REMARK SMILES O=c1c(O)c(-c2ccc(O)cc2O)oc2cc(O)cc(O)c12
REMARK SMILES IDX 5 1 3 2 2 3 1 4 22 5 20 6 19 7 17 8 16 9 15 10 14 11 6 12
REMARK SMILES IDX 8 13 7 14 9 15 11 16 12 17 10 18 13 20 4 22 21 24 18 26
REMARK H PARENT 10 19 13 21 4 23 21 25 18 27
REMARK Flexibility Score: inf
ROOT
ATOM      1  C   UNL     1      36.958  29.505   7.497  1.00  0.00     0.184 A 
ATOM      2  C   UNL     1      37.360  29.270   8.823  1.00  0.00     0.208 A 
ATOM      3  C   UNL     1      38.641  28.748   9.065  1.00  0.00     0.238 A 
ATOM      4  O   UNL     1      38.973  28.486  10.250  1.00  0.00    -0.285 OA
ATOM      5  C   UNL     1      39.511  28.487   7.979  1.00  0.00     0.111 A 
ATOM      6  C   UNL     1      40.845  27.996   8.109  1.00  0.00     0.134 A 
ATOM      7  C   UNL     1      41.571  27.654   6.961  1.00  0.00     0.093 A 
ATOM      8  C   UNL     1      41.034  27.847   5.685  1.00  0.00     0.123 A 
ATOM      9  C   UNL     1      39.755  28.381   5.547  1.00  0.00     0.094 A 
ATOM     10  C   UNL     1      38.994  28.698   6.675  1.00  0.00     0.146 A 
ATOM     11  O   UNL     1      37.774  29.194   6.497  1.00  0.00    -0.451 OA
ENDROOT
BRANCH   1  12
ATOM     12  C   UNL     1      35.631  30.077   7.172  1.00  0.00     0.063 A 
ATOM     13  C   UNL     1      34.249  31.984   6.558  1.00  0.00     0.047 A 
ATOM     14  C   UNL     1      35.495  31.448   6.891  1.00  0.00     0.020 A 
ATOM     15  C   UNL     1      33.123  31.156   6.490  1.00  0.00     0.119 A 
ATOM     16  C   UNL     1      33.250  29.789   6.754  1.00  0.00     0.093 A 
ATOM     17  C   UNL     1      34.497  29.243   7.092  1.00  0.00     0.130 A 
BRANCH  15  18
ATOM     18  O   UNL     1      31.875  31.680   6.159  1.00  0.00    -0.508 OA
ATOM     19  H   UNL     1      31.669  32.666   6.268  1.00  0.00     0.293 HD
ENDBRANCH  15  18
BRANCH  17  20
ATOM     20  O   UNL     1      34.607  27.878   7.360  1.00  0.00    -0.507 OA
ATOM     21  H   UNL     1      33.795  27.272   7.373  1.00  0.00     0.293 HD
ENDBRANCH  17  20
ENDBRANCH   1  12
BRANCH   2  22
ATOM     22  O   UNL     1      36.478  29.522   9.877  1.00  0.00    -0.502 OA
ATOM     23  H   UNL     1      36.556  29.057  10.774  1.00  0.00     0.293 HD
ENDBRANCH   2  22
BRANCH   6  24
ATOM     24  O   UNL     1      41.508  27.853   9.331  1.00  0.00    -0.507 OA
ATOM     25  H   UNL     1      42.080  27.061   9.586  1.00  0.00     0.293 HD
ENDBRANCH   6  24
BRANCH   8  26
ATOM     26  O   UNL     1      41.768  27.519   4.549  1.00  0.00    -0.508 OA
ATOM     27  H   UNL     1      41.337  27.479   3.632  1.00  0.00     0.293 HD
ENDBRANCH   8  26
TORSDOF 6
ENDMDL
MODEL 3
REMARK VINA RESULT:    -6.873      1.615      3.163
REMARK INTER + INTRA:          -8.718
REMARK INTER:                  -8.271
REMARK INTRA:                  -0.448
REMARK UNBOUND:                -0.440
REMARK SMILES O=c1c(O)c(-c2ccc(O)cc2O)oc2cc(O)cc(O)c12
REMARK SMILES IDX 5 1 3 2 2 3 1 4 22 5 20 6 19 7 17 8 16 9 15 10 14 11 6 12
REMARK SMILES IDX 8 13 7 14 9 15 11 16 12 17 10 18 13 20 4 22 21 24 18 26
REMARK H PARENT 10 19 13 21 4 23 21 25 18 27
REMARK Flexibility Score: inf
ROOT
ATOM      1  C   UNL     1      38.522  29.289   9.426  1.00  0.00     0.184 A 
ATOM      2  C   UNL     1      39.352  30.273   8.863  1.00  0.00     0.208 A 
ATOM      3  C   UNL     1      38.797  31.199   7.964  1.00  0.00     0.238 A 
ATOM      4  O   UNL     1      39.557  32.041   7.419  1.00  0.00    -0.285 OA
ATOM      5  C   UNL     1      37.416  31.142   7.657  1.00  0.00     0.111 A 
ATOM      6  C   UNL     1      36.739  32.053   6.791  1.00  0.00     0.134 A 
ATOM      7  C   UNL     1      35.398  31.825   6.460  1.00  0.00     0.093 A 
ATOM      8  C   UNL     1      34.691  30.755   7.013  1.00  0.00     0.123 A 
ATOM      9  C   UNL     1      35.326  29.893   7.905  1.00  0.00     0.094 A 
ATOM     10  C   UNL     1      36.674  30.075   8.227  1.00  0.00     0.146 A 
ATOM     11  O   UNL     1      37.244  29.224   9.073  1.00  0.00    -0.451 OA
ENDROOT
BRANCH   1  12
ATOM     12  C   UNL     1      39.035  28.297  10.399  1.00  0.00     0.063 A 
ATOM     13  C   UNL     1      39.915  27.767  12.606  1.00  0.00     0.047 A 
ATOM     14  C   UNL     1      39.455  28.705  11.678  1.00  0.00     0.020 A 
ATOM     15  C   UNL     1      39.951  26.408  12.274  1.00  0.00     0.119 A 
ATOM     16  C   UNL     1      39.522  25.991  11.010  1.00  0.00     0.093 A 
ATOM     17  C   UNL     1      39.062  26.926  10.071  1.00  0.00     0.130 A 
BRANCH  15  18
ATOM     18  O   UNL     1      40.407  25.464  13.192  1.00  0.00    -0.508 OA
ATOM     19  H   UNL     1      39.953  25.336  14.089  1.00  0.00     0.293 HD
ENDBRANCH  15  18
BRANCH  17  20
ATOM     20  O   UNL     1      38.644  26.496   8.812  1.00  0.00    -0.507 OA
ATOM     21  H   UNL     1      39.138  25.770   8.307  1.00  0.00     0.293 HD
ENDBRANCH  17  20
ENDBRANCH   1  12
BRANCH   2  22
ATOM     22  O   UNL     1      40.714  30.301   9.171  1.00  0.00    -0.502 OA
ATOM     23  H   UNL     1      41.092  29.863  10.002  1.00  0.00     0.293 HD
ENDBRANCH   2  22
BRANCH   6  24
ATOM     24  O   UNL     1      37.327  33.204   6.258  1.00  0.00    -0.507 OA
ATOM     25  H   UNL     1      37.042  34.148   6.473  1.00  0.00     0.293 HD
ENDBRANCH   6  24
BRANCH   8  26
ATOM     26  O   UNL     1      33.353  30.544   6.690  1.00  0.00    -0.508 OA
ATOM     27  H   UNL     1      33.001  29.620   6.463  1.00  0.00     0.293 HD
ENDBRANCH   8  26
TORSDOF 6
ENDMDL
MODEL 4
REMARK VINA RESULT:    -6.782      1.648      1.987
REMARK INTER + INTRA:          -8.610
REMARK INTER:                  -8.222
REMARK INTRA:                  -0.388
REMARK UNBOUND:                -0.440
REMARK SMILES O=c1c(O)c(-c2ccc(O)cc2O)oc2cc(O)cc(O)c12
REMARK SMILES IDX 5 1 3 2 2 3 1 4 22 5 20 6 19 7 17 8 16 9 15 10 14 11 6 12
REMARK SMILES IDX 8 13 7 14 9 15 11 16 12 17 10 18 13 20 4 22 21 24 18 26
REMARK H PARENT 10 19 13 21 4 23 21 25 18 27
REMARK Flexibility Score: inf
ROOT
ATOM      1  C   UNL     1      37.551  30.020   7.751  1.00  0.00     0.184 A 
ATOM      2  C   UNL     1      37.325  29.500   6.465  1.00  0.00     0.208 A 
ATOM      3  C   UNL     1      36.747  30.327   5.488  1.00  0.00     0.238 A 
ATOM      4  O   UNL     1      36.495  29.838   4.356  1.00  0.00    -0.285 OA
ATOM      5  C   UNL     1      36.420  31.668   5.804  1.00  0.00     0.111 A 
ATOM      6  C   UNL     1      35.867  32.607   4.881  1.00  0.00     0.134 A 
ATOM      7  C   UNL     1      35.466  33.868   5.337  1.00  0.00     0.093 A 
ATOM      8  C   UNL     1      35.656  34.249   6.667  1.00  0.00     0.123 A 
ATOM      9  C   UNL     1      36.249  33.361   7.562  1.00  0.00     0.094 A 
ATOM     10  C   UNL     1      36.627  32.082   7.145  1.00  0.00     0.146 A 
ATOM     11  O   UNL     1      37.179  31.263   8.033  1.00  0.00    -0.451 OA
ENDROOT
BRANCH   1  12
ATOM     12  C   UNL     1      38.179  29.212   8.821  1.00  0.00     0.063 A 
ATOM     13  C   UNL     1      40.084  27.961   9.677  1.00  0.00     0.047 A 
ATOM     14  C   UNL     1      39.479  28.700   8.658  1.00  0.00     0.020 A 
ATOM     15  C   UNL     1      39.403  27.730  10.878  1.00  0.00     0.119 A 
ATOM     16  C   UNL     1      38.116  28.247  11.056  1.00  0.00     0.093 A 
ATOM     17  C   UNL     1      37.501  28.989  10.037  1.00  0.00     0.130 A 
BRANCH  15  18
ATOM     18  O   UNL     1      39.997  26.995  11.901  1.00  0.00    -0.508 OA
ATOM     19  H   UNL     1      39.798  27.187  12.876  1.00  0.00     0.293 HD
ENDBRANCH  15  18
BRANCH  17  20
ATOM     20  O   UNL     1      36.213  29.492  10.226  1.00  0.00    -0.507 OA
ATOM     21  H   UNL     1      35.743  30.033   9.510  1.00  0.00     0.293 HD
ENDBRANCH  17  20
ENDBRANCH   1  12
BRANCH   2  22
ATOM     22  O   UNL     1      37.643  28.170   6.181  1.00  0.00    -0.502 OA
ATOM     23  H   UNL     1      37.164  27.392   6.619  1.00  0.00     0.293 HD
ENDBRANCH   2  22
BRANCH   6  24
ATOM     24  O   UNL     1      35.718  32.361   3.513  1.00  0.00    -0.507 OA
ATOM     25  H   UNL     1      35.996  31.509   3.048  1.00  0.00     0.293 HD
ENDBRANCH   6  24
BRANCH   8  26
ATOM     26  O   UNL     1      35.268  35.511   7.108  1.00  0.00    -0.508 OA
ATOM     27  H   UNL     1      34.807  35.642   8.002  1.00  0.00     0.293 HD
ENDBRANCH   8  26
TORSDOF 6
ENDMDL
MODEL 5
REMARK VINA RESULT:    -6.744      4.563      6.077
REMARK INTER + INTRA:          -8.563
REMARK INTER:                  -8.297
REMARK INTRA:                  -0.266
REMARK UNBOUND:                -0.440
REMARK SMILES O=c1c(O)c(-c2ccc(O)cc2O)oc2cc(O)cc(O)c12
REMARK SMILES IDX 5 1 3 2 2 3 1 4 22 5 20 6 19 7 17 8 16 9 15 10 14 11 6 12
REMARK SMILES IDX 8 13 7 14 9 15 11 16 12 17 10 18 13 20 4 22 21 24 18 26
REMARK H PARENT 10 19 13 21 4 23 21 25 18 27
REMARK Flexibility Score: inf
ROOT
ATOM      1  C   UNL     1      40.597  28.285   6.323  1.00  0.00     0.184 A 
ATOM      2  C   UNL     1      40.486  28.091   7.710  1.00  0.00     0.208 A 
ATOM      3  C   UNL     1      39.208  28.029   8.290  1.00  0.00     0.238 A 
ATOM      4  O   UNL     1      39.117  27.913   9.540  1.00  0.00    -0.285 OA
ATOM      5  C   UNL     1      38.058  28.141   7.472  1.00  0.00     0.111 A 
ATOM      6  C   UNL     1      36.714  28.053   7.946  1.00  0.00     0.134 A 
ATOM      7  C   UNL     1      35.654  28.306   7.067  1.00  0.00     0.093 A 
ATOM      8  C   UNL     1      35.886  28.580   5.717  1.00  0.00     0.123 A 
ATOM      9  C   UNL     1      37.192  28.610   5.232  1.00  0.00     0.094 A 
ATOM     10  C   UNL     1      38.272  28.397   6.093  1.00  0.00     0.146 A 
ATOM     11  O   UNL     1      39.501  28.446   5.591  1.00  0.00    -0.451 OA
ENDROOT
BRANCH   1  12
ATOM     12  C   UNL     1      41.912  28.335   5.643  1.00  0.00     0.063 A 
ATOM     13  C   UNL     1      44.156  29.258   5.458  1.00  0.00     0.047 A 
ATOM     14  C   UNL     1      42.907  29.228   6.080  1.00  0.00     0.020 A 
ATOM     15  C   UNL     1      44.434  28.389   4.395  1.00  0.00     0.119 A 
ATOM     16  C   UNL     1      43.457  27.488   3.963  1.00  0.00     0.093 A 
ATOM     17  C   UNL     1      42.198  27.453   4.581  1.00  0.00     0.130 A 
BRANCH  15  18
ATOM     18  O   UNL     1      45.678  28.410   3.767  1.00  0.00    -0.508 OA
ATOM     19  H   UNL     1      45.761  28.445   2.758  1.00  0.00     0.293 HD
ENDBRANCH  15  18
BRANCH  17  20
ATOM     20  O   UNL     1      41.230  26.554   4.133  1.00  0.00    -0.507 OA
ATOM     21  H   UNL     1      40.665  26.016   4.779  1.00  0.00     0.293 HD
ENDBRANCH  17  20
ENDBRANCH   1  12
BRANCH   2  22
ATOM     22  O   UNL     1      41.636  27.996   8.498  1.00  0.00    -0.502 OA
ATOM     23  H   UNL     1      42.068  27.109   8.725  1.00  0.00     0.293 HD
ENDBRANCH   2  22
BRANCH   6  24
ATOM     24  O   UNL     1      36.370  27.696   9.253  1.00  0.00    -0.507 OA
ATOM     25  H   UNL     1      35.448  27.795   9.652  1.00  0.00     0.293 HD
ENDBRANCH   6  24
BRANCH   8  26
ATOM     26  O   UNL     1      34.825  28.815   4.847  1.00  0.00    -0.508 OA
ATOM     27  H   UNL     1      34.976  28.977   3.858  1.00  0.00     0.293 HD
ENDBRANCH   8  26
TORSDOF 6
ENDMDL
MODEL 6
REMARK VINA RESULT:    -6.687      1.727      3.122
REMARK INTER + INTRA:          -8.495
REMARK INTER:                  -8.074
REMARK INTRA:                  -0.421
REMARK UNBOUND:                -0.440
REMARK SMILES O=c1c(O)c(-c2ccc(O)cc2O)oc2cc(O)cc(O)c12
REMARK SMILES IDX 5 1 3 2 2 3 1 4 22 5 20 6 19 7 17 8 16 9 15 10 14 11 6 12
REMARK SMILES IDX 8 13 7 14 9 15 11 16 12 17 10 18 13 20 4 22 21 24 18 26
REMARK H PARENT 10 19 13 21 4 23 21 25 18 27
REMARK Flexibility Score: inf
ROOT
ATOM      1  C   UNL     1      38.032  29.345   8.397  1.00  0.00     0.184 A 
ATOM      2  C   UNL     1      38.515  30.609   8.022  1.00  0.00     0.208 A 
ATOM      3  C   UNL     1      38.074  31.177   6.815  1.00  0.00     0.238 A 
ATOM      4  O   UNL     1      38.554  32.284   6.457  1.00  0.00    -0.285 OA
ATOM      5  C   UNL     1      37.139  30.482   6.010  1.00  0.00     0.111 A 
ATOM      6  C   UNL     1      36.593  30.978   4.789  1.00  0.00     0.134 A 
ATOM      7  C   UNL     1      35.774  30.151   4.011  1.00  0.00     0.093 A 
ATOM      8  C   UNL     1      35.429  28.867   4.442  1.00  0.00     0.123 A 
ATOM      9  C   UNL     1      35.910  28.395   5.661  1.00  0.00     0.094 A 
ATOM     10  C   UNL     1      36.758  29.184   6.442  1.00  0.00     0.146 A 
ATOM     11  O   UNL     1      37.203  28.691   7.592  1.00  0.00    -0.451 OA
ENDROOT
BRANCH   1  12
ATOM     12  C   UNL     1      38.436  28.699   9.667  1.00  0.00     0.063 A 
ATOM     13  C   UNL     1      40.071  27.457  10.975  1.00  0.00     0.047 A 
ATOM     14  C   UNL     1      39.677  28.043   9.770  1.00  0.00     0.020 A 
ATOM     15  C   UNL     1      39.237  27.525  12.097  1.00  0.00     0.119 A 
ATOM     16  C   UNL     1      38.008  28.187  12.009  1.00  0.00     0.093 A 
ATOM     17  C   UNL     1      37.603  28.776  10.802  1.00  0.00     0.130 A 
BRANCH  15  18
ATOM     18  O   UNL     1      39.621  26.944  13.304  1.00  0.00    -0.508 OA
ATOM     19  H   UNL     1      39.323  26.010  13.560  1.00  0.00     0.293 HD
ENDBRANCH  15  18
BRANCH  17  20
ATOM     20  O   UNL     1      36.371  29.426  10.727  1.00  0.00    -0.507 OA
ATOM     21  H   UNL     1      35.685  29.184  10.023  1.00  0.00     0.293 HD
ENDBRANCH  17  20
ENDBRANCH   1  12
BRANCH   2  22
ATOM     22  O   UNL     1      39.447  31.270   8.826  1.00  0.00    -0.502 OA
ATOM     23  H   UNL     1      39.879  30.831   9.630  1.00  0.00     0.293 HD
ENDBRANCH   2  22
BRANCH   6  24
ATOM     24  O   UNL     1      36.800  32.276   4.313  1.00  0.00    -0.507 OA
ATOM     25  H   UNL     1      37.568  32.556   3.720  1.00  0.00     0.293 HD
ENDBRANCH   6  24
BRANCH   8  26
ATOM     26  O   UNL     1      34.602  28.057   3.670  1.00  0.00    -0.508 OA
ATOM     27  H   UNL     1      34.038  28.437   2.918  1.00  0.00     0.293 HD
ENDBRANCH   8  26
TORSDOF 6
ENDMDL
MODEL 7
REMARK VINA RESULT:    -6.618     12.558     13.815
REMARK INTER + INTRA:          -8.411
REMARK INTER:                  -7.938
REMARK INTRA:                  -0.473
REMARK UNBOUND:                -0.440
REMARK SMILES O=c1c(O)c(-c2ccc(O)cc2O)oc2cc(O)cc(O)c12
REMARK SMILES IDX 5 1 3 2 2 3 1 4 22 5 20 6 19 7 17 8 16 9 15 10 14 11 6 12
REMARK SMILES IDX 8 13 7 14 9 15 11 16 12 17 10 18 13 20 4 22 21 24 18 26
REMARK H PARENT 10 19 13 21 4 23 21 25 18 27
REMARK Flexibility Score: inf
ROOT
ATOM      1  C   UNL     1      47.887  37.964   9.454  1.00  0.00     0.184 A 
ATOM      2  C   UNL     1      46.760  37.126   9.485  1.00  0.00     0.208 A 
ATOM      3  C   UNL     1      45.862  37.152   8.405  1.00  0.00     0.238 A 
ATOM      4  O   UNL     1      44.825  36.441   8.465  1.00  0.00    -0.285 OA
ATOM      5  C   UNL     1      46.114  38.000   7.300  1.00  0.00     0.111 A 
ATOM      6  C   UNL     1      45.293  38.078   6.134  1.00  0.00     0.134 A 
ATOM      7  C   UNL     1      45.569  39.044   5.159  1.00  0.00     0.093 A 
ATOM      8  C   UNL     1      46.673  39.893   5.277  1.00  0.00     0.123 A 
ATOM      9  C   UNL     1      47.513  39.785   6.382  1.00  0.00     0.094 A 
ATOM     10  C   UNL     1      47.244  38.854   7.389  1.00  0.00     0.146 A 
ATOM     11  O   UNL     1      48.064  38.792   8.431  1.00  0.00    -0.451 OA
ENDROOT
BRANCH   1  12
ATOM     12  C   UNL     1      48.887  37.970  10.546  1.00  0.00     0.063 A 
ATOM     13  C   UNL     1      50.868  37.023  11.598  1.00  0.00     0.047 A 
ATOM     14  C   UNL     1      49.908  37.003  10.584  1.00  0.00     0.020 A 
ATOM     15  C   UNL     1      50.828  38.015  12.585  1.00  0.00     0.119 A 
ATOM     16  C   UNL     1      49.826  38.989  12.549  1.00  0.00     0.093 A 
ATOM     17  C   UNL     1      48.856  38.975  11.535  1.00  0.00     0.130 A 
BRANCH  15  18
ATOM     18  O   UNL     1      51.780  38.045  13.601  1.00  0.00    -0.508 OA
ATOM     19  H   UNL     1      52.579  38.666  13.559  1.00  0.00     0.293 HD
ENDBRANCH  15  18
BRANCH  17  20
ATOM     20  O   UNL     1      47.858  39.949  11.516  1.00  0.00    -0.507 OA
ATOM     21  H   UNL     1      47.030  39.851  10.940  1.00  0.00     0.293 HD
ENDBRANCH  17  20
ENDBRANCH   1  12
BRANCH   2  22
ATOM     22  O   UNL     1      46.525  36.308  10.593  1.00  0.00    -0.502 OA
ATOM     23  H   UNL     1      46.081  36.650  11.436  1.00  0.00     0.293 HD
ENDBRANCH   2  22
BRANCH   6  24
ATOM     24  O   UNL     1      44.222  37.218   5.875  1.00  0.00    -0.507 OA
ATOM     25  H   UNL     1      43.437  37.075   6.494  1.00  0.00     0.293 HD
ENDBRANCH   6  24
BRANCH   8  26
ATOM     26  O   UNL     1      46.948  40.841   4.294  1.00  0.00    -0.508 OA
ATOM     27  H   UNL     1      47.403  40.587   3.425  1.00  0.00     0.293 HD
ENDBRANCH   8  26
TORSDOF 6
ENDMDL
MODEL 8
REMARK VINA RESULT:    -6.595      4.203      5.325
REMARK INTER + INTRA:          -8.384
REMARK INTER:                  -8.082
REMARK INTRA:                  -0.303
REMARK UNBOUND:                -0.440
REMARK SMILES O=c1c(O)c(-c2ccc(O)cc2O)oc2cc(O)cc(O)c12
REMARK SMILES IDX 5 1 3 2 2 3 1 4 22 5 20 6 19 7 17 8 16 9 15 10 14 11 6 12
REMARK SMILES IDX 8 13 7 14 9 15 11 16 12 17 10 18 13 20 4 22 21 24 18 26
REMARK H PARENT 10 19 13 21 4 23 21 25 18 27
REMARK Flexibility Score: inf
ROOT
ATOM      1  C   UNL     1      39.906  28.580   6.400  1.00  0.00     0.184 A 
ATOM      2  C   UNL     1      39.744  28.164   7.732  1.00  0.00     0.208 A 
ATOM      3  C   UNL     1      38.632  28.624   8.458  1.00  0.00     0.238 A 
ATOM      4  O   UNL     1      38.523  28.294   9.667  1.00  0.00    -0.285 OA
ATOM      5  C   UNL     1      37.688  29.476   7.836  1.00  0.00     0.111 A 
ATOM      6  C   UNL     1      36.505  29.970   8.463  1.00  0.00     0.134 A 
ATOM      7  C   UNL     1      35.709  30.908   7.795  1.00  0.00     0.093 A 
ATOM      8  C   UNL     1      36.018  31.322   6.497  1.00  0.00     0.123 A 
ATOM      9  C   UNL     1      37.139  30.801   5.854  1.00  0.00     0.094 A 
ATOM     10  C   UNL     1      37.972  29.890   6.509  1.00  0.00     0.146 A 
ATOM     11  O   UNL     1      39.036  29.427   5.863  1.00  0.00    -0.451 OA
ENDROOT
BRANCH   1  12
ATOM     12  C   UNL     1      41.041  28.114   5.569  1.00  0.00     0.063 A 
ATOM     13  C   UNL     1      41.882  26.856   3.662  1.00  0.00     0.047 A 
ATOM     14  C   UNL     1      40.817  27.274   4.463  1.00  0.00     0.020 A 
ATOM     15  C   UNL     1      43.186  27.279   3.949  1.00  0.00     0.119 A 
ATOM     16  C   UNL     1      43.417  28.125   5.037  1.00  0.00     0.093 A 
ATOM     17  C   UNL     1      42.353  28.548   5.848  1.00  0.00     0.130 A 
BRANCH  15  18
ATOM     18  O   UNL     1      44.256  26.868   3.156  1.00  0.00    -0.508 OA
ATOM     19  H   UNL     1      45.016  27.497   2.927  1.00  0.00     0.293 HD
ENDBRANCH  15  18
BRANCH  17  20
ATOM     20  O   UNL     1      42.600  29.387   6.935  1.00  0.00    -0.507 OA
ATOM     21  H   UNL     1      42.635  29.031   7.883  1.00  0.00     0.293 HD
ENDBRANCH  17  20
ENDBRANCH   1  12
BRANCH   2  22
ATOM     22  O   UNL     1      40.696  27.334   8.328  1.00  0.00    -0.502 OA
ATOM     23  H   UNL     1      40.597  26.986   9.274  1.00  0.00     0.293 HD
ENDBRANCH   2  22
BRANCH   6  24
ATOM     24  O   UNL     1      36.056  29.553   9.720  1.00  0.00    -0.507 OA
ATOM     25  H   UNL     1      35.149  29.767  10.107  1.00  0.00     0.293 HD
ENDBRANCH   6  24
BRANCH   8  26
ATOM     26  O   UNL     1      35.213  32.244   5.834  1.00  0.00    -0.508 OA
ATOM     27  H   UNL     1      34.482  31.948   5.196  1.00  0.00     0.293 HD
ENDBRANCH   8  26
TORSDOF 6
ENDMDL
MODEL 9
REMARK VINA RESULT:    -6.591     12.555     15.004
REMARK INTER + INTRA:          -8.379
REMARK INTER:                  -8.099
REMARK INTRA:                  -0.280
REMARK UNBOUND:                -0.440
REMARK SMILES O=c1c(O)c(-c2ccc(O)cc2O)oc2cc(O)cc(O)c12
REMARK SMILES IDX 5 1 3 2 2 3 1 4 22 5 20 6 19 7 17 8 16 9 15 10 14 11 6 12
REMARK SMILES IDX 8 13 7 14 9 15 11 16 12 17 10 18 13 20 4 22 21 24 18 26
REMARK H PARENT 10 19 13 21 4 23 21 25 18 27
REMARK Flexibility Score: inf
ROOT
ATOM      1  C   UNL     1      46.909  38.710   8.523  1.00  0.00     0.184 A 
ATOM      2  C   UNL     1      46.244  39.137   9.685  1.00  0.00     0.208 A 
ATOM      3  C   UNL     1      46.706  38.695  10.936  1.00  0.00     0.238 A 
ATOM      4  O   UNL     1      46.071  39.035  11.968  1.00  0.00    -0.285 OA
ATOM      5  C   UNL     1      47.838  37.848  11.009  1.00  0.00     0.111 A 
ATOM      6  C   UNL     1      48.417  37.371  12.224  1.00  0.00     0.134 A 
ATOM      7  C   UNL     1      49.458  36.437  12.173  1.00  0.00     0.093 A 
ATOM      8  C   UNL     1      49.985  36.010  10.951  1.00  0.00     0.123 A 
ATOM      9  C   UNL     1      49.466  36.514   9.761  1.00  0.00     0.094 A 
ATOM     10  C   UNL     1      48.403  37.421   9.779  1.00  0.00     0.146 A 
ATOM     11  O   UNL     1      47.931  37.869   8.621  1.00  0.00    -0.451 OA
ENDROOT
BRANCH   1  12
ATOM     12  C   UNL     1      46.491  39.158   7.175  1.00  0.00     0.063 A 
ATOM     13  C   UNL     1      46.959  40.367   5.115  1.00  0.00     0.047 A 
ATOM     14  C   UNL     1      47.340  39.966   6.397  1.00  0.00     0.020 A 
ATOM     15  C   UNL     1      45.729  39.957   4.586  1.00  0.00     0.119 A 
ATOM     16  C   UNL     1      44.885  39.142   5.345  1.00  0.00     0.093 A 
ATOM     17  C   UNL     1      45.258  38.737   6.635  1.00  0.00     0.130 A 
BRANCH  15  18
ATOM     18  O   UNL     1      45.339  40.351   3.307  1.00  0.00    -0.508 OA
ATOM     19  H   UNL     1      45.581  39.805   2.489  1.00  0.00     0.293 HD
ENDBRANCH  15  18
BRANCH  17  20
ATOM     20  O   UNL     1      44.402  37.929   7.384  1.00  0.00    -0.507 OA
ATOM     21  H   UNL     1      43.597  38.312   7.866  1.00  0.00     0.293 HD
ENDBRANCH  17  20
ENDBRANCH   1  12
BRANCH   2  22
ATOM     22  O   UNL     1      45.121  39.962   9.587  1.00  0.00    -0.502 OA
ATOM     23  H   UNL     1      44.948  40.550   8.780  1.00  0.00     0.293 HD
ENDBRANCH   2  22
BRANCH   6  24
ATOM     24  O   UNL     1      48.027  37.802  13.495  1.00  0.00    -0.507 OA
ATOM     25  H   UNL     1      48.413  37.459  14.363  1.00  0.00     0.293 HD
ENDBRANCH   6  24
BRANCH   8  26
ATOM     26  O   UNL     1      51.031  35.092  10.910  1.00  0.00    -0.508 OA
ATOM     27  H   UNL     1      51.110  34.412  10.162  1.00  0.00     0.293 HD
ENDBRANCH   8  26
TORSDOF 6
ENDMDL
