MODEL 1
REMARK VINA RESULT:    -2.548      0.000      0.000
REMARK INTER + INTRA:          -2.548
REMARK INTER:                  -2.548
REMARK INTRA:                   0.000
REMARK UNBOUND:                 0.000
REMARK SMILES CC(=O)[O-]
REMARK SMILES IDX 1 1 2 2 3 3 4 4
REMARK H PARENT
REMARK Flexibility Score: inf
ROOT
ATOM      1  C   UNL     1      20.059 -20.542  14.852  1.00  0.00     0.063 C 
ATOM      2  C   UNL     1      20.048 -19.050  14.847  1.00  0.00     0.038 C 
ATOM      3  O   UNL     1      19.973 -18.416  15.932  1.00  0.00    -0.550 OA
ATOM      4  O   UNL     1      20.176 -18.357  13.650  1.00  0.00    -0.550 OA
ENDROOT
TORSDOF 0
ENDMDL
MODEL 2
REMARK VINA RESULT:    -2.545     14.906     15.155
REMARK INTER + INTRA:          -2.545
REMARK INTER:                  -2.545
REMARK INTRA:                   0.000
REMARK UNBOUND:                 0.000
REMARK SMILES CC(=O)[O-]
REMARK SMILES IDX 1 1 2 2 3 3 4 4
REMARK H PARENT
REMARK Flexibility Score: inf
ROOT
ATOM      1  C   UNL     1      22.405 -28.393  26.380  1.00  0.00     0.063 C 
ATOM      2  C   UNL     1      21.555 -29.423  25.716  1.00  0.00     0.038 C 
ATOM      3  O   UNL     1      20.479 -29.796  26.254  1.00  0.00    -0.550 OA
ATOM      4  O   UNL     1      21.920 -29.934  24.478  1.00  0.00    -0.550 OA
ENDROOT
TORSDOF 0
ENDMDL
MODEL 3
REMARK VINA RESULT:    -2.471     10.129     10.730
REMARK INTER + INTRA:          -2.471
REMARK INTER:                  -2.471
REMARK INTRA:                   0.000
REMARK UNBOUND:                 0.000
REMARK SMILES CC(=O)[O-]
REMARK SMILES IDX 1 1 2 2 3 3 4 4
REMARK H PARENT
REMARK Flexibility Score: inf
ROOT
ATOM      1  C   UNL     1      13.743 -23.276  20.113  1.00  0.00     0.063 C 
ATOM      2  C   UNL     1      13.307 -24.561  20.731  1.00  0.00     0.038 C 
ATOM      3  O   UNL     1      13.719 -25.656  20.268  1.00  0.00    -0.550 OA
ATOM      4  O   UNL     1      12.488 -24.550  21.853  1.00  0.00    -0.550 OA
ENDROOT
TORSDOF 0
ENDMDL
MODEL 4
REMARK VINA RESULT:    -2.394      1.327      2.168
REMARK INTER + INTRA:          -2.394
REMARK INTER:                  -2.394
REMARK INTRA:                   0.000
REMARK UNBOUND:                 0.000
REMARK SMILES CC(=O)[O-]
REMARK SMILES IDX 1 1 2 2 3 3 4 4
REMARK H PARENT
REMARK Flexibility Score: inf
ROOT
ATOM      1  C   UNL     1      20.021 -18.023  16.156  1.00  0.00     0.063 C 
ATOM      2  C   UNL     1      20.044 -18.949  14.988  1.00  0.00     0.038 C 
ATOM      3  O   UNL     1      20.091 -18.488  13.817  1.00  0.00    -0.550 OA
ATOM      4  O   UNL     1      20.068 -20.323  15.189  1.00  0.00    -0.550 OA
ENDROOT
TORSDOF 0
ENDMDL
MODEL 5
REMARK VINA RESULT:    -2.282      3.423      3.679
REMARK INTER + INTRA:          -2.282
REMARK INTER:                  -2.282
REMARK INTRA:                   0.000
REMARK UNBOUND:                 0.000
REMARK SMILES CC(=O)[O-]
REMARK SMILES IDX 1 1 2 2 3 3 4 4
REMARK H PARENT
REMARK Flexibility Score: inf
ROOT
ATOM      1  C   UNL     1      19.806 -20.815  14.761  1.00  0.00     0.063 C 
ATOM      2  C   UNL     1      20.144 -22.217  14.379  1.00  0.00     0.038 C 
ATOM      3  O   UNL     1      21.223 -22.734  14.769  1.00  0.00    -0.550 OA
ATOM      4  O   UNL     1      19.244 -22.972  13.639  1.00  0.00    -0.550 OA
ENDROOT
TORSDOF 0
ENDMDL
MODEL 6
REMARK VINA RESULT:    -2.281      4.168      4.673
REMARK INTER + INTRA:          -2.281
REMARK INTER:                  -2.281
REMARK INTRA:                   0.000
REMARK UNBOUND:                 0.000
REMARK SMILES CC(=O)[O-]
REMARK SMILES IDX 1 1 2 2 3 3 4 4
REMARK H PARENT
REMARK Flexibility Score: inf
ROOT
ATOM      1  C   UNL     1      20.115 -24.349  13.080  1.00  0.00     0.063 C 
ATOM      2  C   UNL     1      20.141 -23.358  14.194  1.00  0.00     0.038 C 
ATOM      3  O   UNL     1      20.036 -22.128  13.947  1.00  0.00    -0.550 OA
ATOM      4  O   UNL     1      20.225 -23.792  15.510  1.00  0.00    -0.550 OA
ENDROOT
TORSDOF 0
ENDMDL
MODEL 7
REMARK VINA RESULT:    -2.211     14.947     15.211
REMARK INTER + INTRA:          -2.211
REMARK INTER:                  -2.211
REMARK INTRA:                   0.000
REMARK UNBOUND:                 0.000
REMARK SMILES CC(=O)[O-]
REMARK SMILES IDX 1 1 2 2 3 3 4 4
REMARK H PARENT
REMARK Flexibility Score: inf
ROOT
ATOM      1  C   UNL     1      22.010 -29.946  24.554  1.00  0.00     0.063 C 
ATOM      2  C   UNL     1      21.638 -29.339  25.864  1.00  0.00     0.038 C 
ATOM      3  O   UNL     1      20.564 -29.673  26.432  1.00  0.00    -0.550 OA
ATOM      4  O   UNL     1      22.499 -28.447  26.489  1.00  0.00    -0.550 OA
ENDROOT
TORSDOF 0
ENDMDL
MODEL 8
REMARK VINA RESULT:    -2.184      9.737     10.244
REMARK INTER + INTRA:          -2.184
REMARK INTER:                  -2.184
REMARK INTRA:                   0.000
REMARK UNBOUND:                 0.000
REMARK SMILES CC(=O)[O-]
REMARK SMILES IDX 1 1 2 2 3 3 4 4
REMARK H PARENT
REMARK Flexibility Score: inf
ROOT
ATOM      1  C   UNL     1      12.618 -24.576  21.585  1.00  0.00     0.063 C 
ATOM      2  C   UNL     1      13.526 -24.337  20.426  1.00  0.00     0.038 C 
ATOM      3  O   UNL     1      13.967 -25.309  19.759  1.00  0.00    -0.550 OA
ATOM      4  O   UNL     1      13.843 -23.040  20.047  1.00  0.00    -0.550 OA
ENDROOT
TORSDOF 0
ENDMDL
MODEL 9
REMARK VINA RESULT:    -2.135      2.520      3.019
REMARK INTER + INTRA:          -2.135
REMARK INTER:                  -2.135
REMARK INTRA:                   0.000
REMARK UNBOUND:                 0.000
REMARK SMILES CC(=O)[O-]
REMARK SMILES IDX 1 1 2 2 3 3 4 4
REMARK H PARENT
REMARK Flexibility Score: inf
ROOT
ATOM      1  C   UNL     1      20.856 -22.894  14.768  1.00  0.00     0.063 C 
ATOM      2  C   UNL     1      19.999 -21.680  14.647  1.00  0.00     0.038 C 
ATOM      3  O   UNL     1      18.935 -21.723  13.975  1.00  0.00    -0.550 OA
ATOM      4  O   UNL     1      20.343 -20.516  15.320  1.00  0.00    -0.550 OA
ENDROOT
TORSDOF 0
ENDMDL
