MODEL 1
REMARK VINA RESULT:    -7.672      0.000      0.000
REMARK INTER + INTRA:         -12.354
REMARK INTER:                 -11.260
REMARK INTRA:                  -1.094
REMARK UNBOUND:                -1.094
REMARK SMILES Cc1cc2c(C(C)C)c(O)c(O)c(C=O)c2c(O)c1-c1c(C)cc2c(C(C)C)c(O)c(O)c(C=O)c2c1O
REMARK SMILES IDX 1 1 2 2 3 3 4 4 16 5 13 6 11 7 9 8 5 9 17 10 19 11 20 12
REMARK SMILES IDX 37 13 21 14 36 15 23 16 22 17 24 18 33 19 25 20 31 21 29 22
REMARK SMILES IDX 38 23 34 25 35 26 26 27 27 28 28 29 32 30 30 32 18 34 6 36
REMARK SMILES IDX 7 37 8 38 14 39 15 40 10 41 12 43
REMARK H PARENT 38 24 32 31 30 33 18 35 10 42 12 44
REMARK Flexibility Score: inf
ROOT
ATOM      1  C   UNL     1      33.484   1.201  76.207  1.00  0.00     0.045 C 
ATOM      2  C   UNL     1      34.442   0.211  75.587  1.00  0.00    -0.039 A 
ATOM      3  C   UNL     1      35.280   0.628  74.553  1.00  0.00     0.013 A 
ATOM      4  C   UNL     1      36.178  -0.257  73.916  1.00  0.00    -0.006 A 
ATOM      5  C   UNL     1      36.317  -1.583  74.428  1.00  0.00     0.039 A 
ATOM      6  C   UNL     1      37.326  -2.432  73.877  1.00  0.00     0.072 A 
ATOM      7  C   UNL     1      38.199  -1.937  72.886  1.00  0.00     0.169 A 
ATOM      8  C   UNL     1      38.042  -0.641  72.385  1.00  0.00     0.162 A 
ATOM      9  C   UNL     1      36.968   0.172  72.804  1.00  0.00     0.008 A 
ATOM     10  C   UNL     1      35.465  -2.002  75.498  1.00  0.00     0.132 A 
ATOM     11  C   UNL     1      34.527  -1.108  76.057  1.00  0.00     0.031 A 
ENDROOT
BRANCH  11  12
ATOM     12  C   UNL     1      33.638  -1.557  77.163  1.00  0.00     0.031 A 
ATOM     13  C   UNL     1      34.068  -1.447  78.503  1.00  0.00     0.132 A 
ATOM     14  C   UNL     1      32.372  -2.095  76.873  1.00  0.00    -0.039 A 
ATOM     15  C   UNL     1      33.242  -1.915  79.569  1.00  0.00     0.039 A 
ATOM     16  C   UNL     1      31.536  -2.488  77.918  1.00  0.00     0.013 A 
ATOM     17  C   UNL     1      31.911  -2.309  75.451  1.00  0.00     0.045 C 
ATOM     18  C   UNL     1      31.912  -2.337  79.271  1.00  0.00    -0.006 A 
ATOM     19  C   UNL     1      33.696  -1.970  80.921  1.00  0.00     0.072 A 
ATOM     20  C   UNL     1      30.996  -2.624  80.329  1.00  0.00     0.008 A 
ATOM     21  C   UNL     1      32.831  -2.438  81.932  1.00  0.00     0.169 A 
ATOM     22  C   UNL     1      31.500  -2.753  81.641  1.00  0.00     0.162 A 
BRANCH  13  23
ATOM     23  O   UNL     1      35.306  -0.850  78.776  1.00  0.00    -0.507 OA
ATOM     24  H   UNL     1      36.196  -1.229  78.475  1.00  0.00     0.293 HD
ENDBRANCH  13  23
BRANCH  19  25
ATOM     25  C   UNL     1      35.087  -1.638  81.294  1.00  0.00     0.264 C 
ATOM     26  O   UNL     1      35.941  -2.550  81.457  1.00  0.00    -0.298 OA
ENDBRANCH  19  25
BRANCH  20  27
ATOM     27  C   UNL     1      29.490  -2.814  80.065  1.00  0.00     0.017 C 
ATOM     28  C   UNL     1      28.861  -1.524  79.528  1.00  0.00     0.012 C 
ATOM     29  C   UNL     1      29.168  -4.017  79.158  1.00  0.00     0.012 C 
ENDBRANCH  20  27
BRANCH  21  30
ATOM     30  O   UNL     1      33.274  -2.624  83.248  1.00  0.00    -0.504 OA
ATOM     31  H   UNL     1      33.997  -2.069  83.687  1.00  0.00     0.293 HD
ENDBRANCH  21  30
BRANCH  22  32
ATOM     32  O   UNL     1      30.671  -3.226  82.662  1.00  0.00    -0.504 OA
ATOM     33  H   UNL     1      30.524  -4.212  82.842  1.00  0.00     0.293 HD
ENDBRANCH  22  32
ENDBRANCH  11  12
BRANCH  10  34
ATOM     34  O   UNL     1      35.558  -3.300  76.013  1.00  0.00    -0.507 OA
ATOM     35  H   UNL     1      34.844  -3.737  76.584  1.00  0.00     0.293 HD
ENDBRANCH  10  34
BRANCH   9  36
ATOM     36  C   UNL     1      36.684   1.495  72.066  1.00  0.00     0.017 C 
ATOM     37  C   UNL     1      35.605   1.303  70.997  1.00  0.00     0.012 C 
ATOM     38  C   UNL     1      36.344   2.668  73.005  1.00  0.00     0.012 C 
ENDBRANCH   9  36
BRANCH   6  39
ATOM     39  C   UNL     1      37.511  -3.826  74.329  1.00  0.00     0.264 C 
ATOM     40  O   UNL     1      38.441  -4.123  75.123  1.00  0.00    -0.298 OA
ENDBRANCH   6  39
BRANCH   8  41
ATOM     41  O   UNL     1      38.966  -0.154  71.456  1.00  0.00    -0.504 OA
ATOM     42  H   UNL     1      39.241   0.819  71.409  1.00  0.00     0.293 HD
ENDBRANCH   8  41
BRANCH   7  43
ATOM     43  O   UNL     1      39.223  -2.726  72.349  1.00  0.00    -0.504 OA
ATOM     44  H   UNL     1      39.080  -3.441  71.648  1.00  0.00     0.293 HD
ENDBRANCH   7  43
TORSDOF 11
ENDMDL
MODEL 2
REMARK VINA RESULT:    -7.607      7.096     14.250
REMARK INTER + INTRA:         -12.259
REMARK INTER:                 -11.120
REMARK INTRA:                  -1.138
REMARK UNBOUND:                -1.094
REMARK SMILES Cc1cc2c(C(C)C)c(O)c(O)c(C=O)c2c(O)c1-c1c(C)cc2c(C(C)C)c(O)c(O)c(C=O)c2c1O
REMARK SMILES IDX 1 1 2 2 3 3 4 4 16 5 13 6 11 7 9 8 5 9 17 10 19 11 20 12
REMARK SMILES IDX 37 13 21 14 36 15 23 16 22 17 24 18 33 19 25 20 31 21 29 22
REMARK SMILES IDX 38 23 34 25 35 26 26 27 27 28 28 29 32 30 30 32 18 34 6 36
REMARK SMILES IDX 7 37 8 38 14 39 15 40 10 41 12 43
REMARK H PARENT 38 24 32 31 30 33 18 35 10 42 12 44
REMARK Flexibility Score: inf
ROOT
ATOM      1  C   UNL     1      26.219   1.083  83.737  1.00  0.00     0.045 C 
ATOM      2  C   UNL     1      25.221   0.106  84.312  1.00  0.00    -0.039 A 
ATOM      3  C   UNL     1      24.369   0.522  85.335  1.00  0.00     0.013 A 
ATOM      4  C   UNL     1      23.432  -0.351  85.930  1.00  0.00    -0.006 A 
ATOM      5  C   UNL     1      23.271  -1.662  85.386  1.00  0.00     0.039 A 
ATOM      6  C   UNL     1      22.227  -2.495  85.893  1.00  0.00     0.072 A 
ATOM      7  C   UNL     1      21.343  -1.998  86.874  1.00  0.00     0.169 A 
ATOM      8  C   UNL     1      21.522  -0.718  87.407  1.00  0.00     0.162 A 
ATOM      9  C   UNL     1      22.627   0.074  87.032  1.00  0.00     0.008 A 
ATOM     10  C   UNL     1      24.137  -2.080  84.327  1.00  0.00     0.132 A 
ATOM     11  C   UNL     1      25.113  -1.200  83.811  1.00  0.00     0.031 A 
ENDROOT
BRANCH  11  12
ATOM     12  C   UNL     1      26.017  -1.648  82.717  1.00  0.00     0.031 A 
ATOM     13  C   UNL     1      25.616  -1.510  81.370  1.00  0.00     0.132 A 
ATOM     14  C   UNL     1      27.266  -2.214  83.024  1.00  0.00    -0.039 A 
ATOM     15  C   UNL     1      26.456  -1.978  80.314  1.00  0.00     0.039 A 
ATOM     16  C   UNL     1      28.116  -2.607  81.991  1.00  0.00     0.013 A 
ATOM     17  C   UNL     1      27.693  -2.458  84.453  1.00  0.00     0.045 C 
ATOM     18  C   UNL     1      27.772  -2.429  80.633  1.00  0.00    -0.006 A 
ATOM     19  C   UNL     1      26.030  -2.004  78.952  1.00  0.00     0.072 A 
ATOM     20  C   UNL     1      28.704  -2.717  79.590  1.00  0.00     0.008 A 
ATOM     21  C   UNL     1      26.908  -2.473  77.952  1.00  0.00     0.169 A 
ATOM     22  C   UNL     1      28.226  -2.817  78.266  1.00  0.00     0.162 A 
BRANCH  13  23
ATOM     23  O   UNL     1      24.396  -0.887  81.081  1.00  0.00    -0.507 OA
ATOM     24  H   UNL     1      24.111  -0.604  80.151  1.00  0.00     0.293 HD
ENDBRANCH  13  23
BRANCH  19  25
ATOM     25  C   UNL     1      24.653  -1.641  78.556  1.00  0.00     0.264 C 
ATOM     26  O   UNL     1      23.920  -2.470  77.953  1.00  0.00    -0.298 OA
ENDBRANCH  19  25
BRANCH  20  27
ATOM     27  C   UNL     1      30.200  -2.939  79.882  1.00  0.00     0.017 C 
ATOM     28  C   UNL     1      30.880  -1.626  80.287  1.00  0.00     0.012 C 
ATOM     29  C   UNL     1      30.472  -4.053  80.911  1.00  0.00     0.012 C 
ENDBRANCH  20  27
BRANCH  21  30
ATOM     30  O   UNL     1      26.489  -2.630  76.625  1.00  0.00    -0.504 OA
ATOM     31  H   UNL     1      25.877  -3.371  76.307  1.00  0.00     0.293 HD
ENDBRANCH  21  30
BRANCH  22  32
ATOM     32  O   UNL     1      29.068  -3.290  77.256  1.00  0.00    -0.504 OA
ATOM     33  H   UNL     1      28.737  -3.529  76.329  1.00  0.00     0.293 HD
ENDBRANCH  22  32
ENDBRANCH  11  12
BRANCH  10  34
ATOM     34  O   UNL     1      24.023  -3.364  83.781  1.00  0.00    -0.507 OA
ATOM     35  H   UNL     1      23.659  -4.165  84.284  1.00  0.00     0.293 HD
ENDBRANCH  10  34
BRANCH   9  36
ATOM     36  C   UNL     1      22.927   1.373  87.806  1.00  0.00     0.017 C 
ATOM     37  C   UNL     1      24.183   1.217  88.669  1.00  0.00     0.012 C 
ATOM     38  C   UNL     1      23.013   2.624  86.910  1.00  0.00     0.012 C 
ENDBRANCH   9  36
BRANCH   6  39
ATOM     39  C   UNL     1      22.017  -3.873  85.406  1.00  0.00     0.264 C 
ATOM     40  O   UNL     1      21.109  -4.125  84.570  1.00  0.00    -0.298 OA
ENDBRANCH   6  39
BRANCH   8  41
ATOM     41  O   UNL     1      20.589  -0.226  88.324  1.00  0.00    -0.504 OA
ATOM     42  H   UNL     1      19.909  -0.813  88.789  1.00  0.00     0.293 HD
ENDBRANCH   8  41
BRANCH   7  43
ATOM     43  O   UNL     1      20.286  -2.771  87.369  1.00  0.00    -0.504 OA
ATOM     44  H   UNL     1      19.312  -2.507  87.307  1.00  0.00     0.293 HD
ENDBRANCH   7  43
TORSDOF 11
ENDMDL
MODEL 3
REMARK VINA RESULT:    -7.442      1.511      8.969
REMARK INTER + INTRA:         -12.017
REMARK INTER:                 -10.764
REMARK INTRA:                  -1.253
REMARK UNBOUND:                -1.094
REMARK SMILES Cc1cc2c(C(C)C)c(O)c(O)c(C=O)c2c(O)c1-c1c(C)cc2c(C(C)C)c(O)c(O)c(C=O)c2c1O
REMARK SMILES IDX 1 1 2 2 3 3 4 4 16 5 13 6 11 7 9 8 5 9 17 10 19 11 20 12
REMARK SMILES IDX 37 13 21 14 36 15 23 16 22 17 24 18 33 19 25 20 31 21 29 22
REMARK SMILES IDX 38 23 34 25 35 26 26 27 27 28 28 29 32 30 30 32 18 34 6 36
REMARK SMILES IDX 7 37 8 38 14 39 15 40 10 41 12 43
REMARK H PARENT 38 24 32 31 30 33 18 35 10 42 12 44
REMARK Flexibility Score: inf
ROOT
ATOM      1  C   UNL     1      32.598  -2.489  74.746  1.00  0.00     0.045 C 
ATOM      2  C   UNL     1      32.935  -2.150  76.179  1.00  0.00    -0.039 A 
ATOM      3  C   UNL     1      31.941  -2.239  77.153  1.00  0.00     0.013 A 
ATOM      4  C   UNL     1      32.186  -1.911  78.505  1.00  0.00    -0.006 A 
ATOM      5  C   UNL     1      33.521  -1.597  78.905  1.00  0.00     0.039 A 
ATOM      6  C   UNL     1      33.796  -1.406  80.294  1.00  0.00     0.072 A 
ATOM      7  C   UNL     1      32.771  -1.584  81.246  1.00  0.00     0.169 A 
ATOM      8  C   UNL     1      31.467  -1.878  80.838  1.00  0.00     0.162 A 
ATOM      9  C   UNL     1      31.131  -1.931  79.469  1.00  0.00     0.008 A 
ATOM     10  C   UNL     1      34.540  -1.520  77.905  1.00  0.00     0.132 A 
ATOM     11  C   UNL     1      34.237  -1.782  76.551  1.00  0.00     0.031 A 
ENDROOT
BRANCH  11  12
ATOM     12  C   UNL     1      35.302  -1.689  75.517  1.00  0.00     0.031 A 
ATOM     13  C   UNL     1      35.482  -0.488  74.796  1.00  0.00     0.132 A 
ATOM     14  C   UNL     1      36.125  -2.798  75.253  1.00  0.00    -0.039 A 
ATOM     15  C   UNL     1      36.472  -0.402  73.770  1.00  0.00     0.039 A 
ATOM     16  C   UNL     1      37.137  -2.691  74.300  1.00  0.00     0.013 A 
ATOM     17  C   UNL     1      35.907  -4.125  75.941  1.00  0.00     0.045 C 
ATOM     18  C   UNL     1      37.383  -1.488  73.603  1.00  0.00    -0.006 A 
ATOM     19  C   UNL     1      36.587   0.731  72.911  1.00  0.00     0.072 A 
ATOM     20  C   UNL     1      38.503  -1.357  72.726  1.00  0.00     0.008 A 
ATOM     21  C   UNL     1      37.589   0.761  71.919  1.00  0.00     0.169 A 
ATOM     22  C   UNL     1      38.536  -0.265  71.833  1.00  0.00     0.162 A 
BRANCH  13  23
ATOM     23  O   UNL     1      34.696   0.625  75.116  1.00  0.00    -0.507 OA
ATOM     24  H   UNL     1      33.877   0.909  74.592  1.00  0.00     0.293 HD
ENDBRANCH  13  23
BRANCH  19  25
ATOM     25  C   UNL     1      35.624   1.852  72.962  1.00  0.00     0.264 C 
ATOM     26  O   UNL     1      36.002   3.006  73.299  1.00  0.00    -0.298 OA
ENDBRANCH  19  25
BRANCH  20  27
ATOM     27  C   UNL     1      39.651  -2.384  72.722  1.00  0.00     0.017 C 
ATOM     28  C   UNL     1      40.125  -2.682  74.149  1.00  0.00     0.012 C 
ATOM     29  C   UNL     1      39.319  -3.680  71.958  1.00  0.00     0.012 C 
ENDBRANCH  20  27
BRANCH  21  30
ATOM     30  O   UNL     1      37.659   1.796  70.978  1.00  0.00    -0.504 OA
ATOM     31  H   UNL     1      38.523   2.211  70.653  1.00  0.00     0.293 HD
ENDBRANCH  21  30
BRANCH  22  32
ATOM     32  O   UNL     1      39.509  -0.214  70.831  1.00  0.00    -0.504 OA
ATOM     33  H   UNL     1      39.688   0.614  70.278  1.00  0.00     0.293 HD
ENDBRANCH  22  32
ENDBRANCH  11  12
BRANCH  10  34
ATOM     34  O   UNL     1      35.856  -1.196  78.255  1.00  0.00    -0.507 OA
ATOM     35  H   UNL     1      36.667  -1.742  77.987  1.00  0.00     0.293 HD
ENDBRANCH  10  34
BRANCH   9  36
ATOM     36  C   UNL     1      29.650  -2.022  79.054  1.00  0.00     0.017 C 
ATOM     37  C   UNL     1      29.124  -3.452  79.214  1.00  0.00     0.012 C 
ATOM     38  C   UNL     1      28.740  -1.006  79.771  1.00  0.00     0.012 C 
ENDBRANCH   9  36
BRANCH   6  39
ATOM     39  C   UNL     1      35.142  -1.046  80.784  1.00  0.00     0.264 C 
ATOM     40  O   UNL     1      35.870  -1.906  81.345  1.00  0.00    -0.298 OA
ENDBRANCH   6  39
BRANCH   8  41
ATOM     41  O   UNL     1      30.489  -2.119  81.807  1.00  0.00    -0.504 OA
ATOM     42  H   UNL     1      29.953  -1.382  82.247  1.00  0.00     0.293 HD
ENDBRANCH   8  41
BRANCH   7  43
ATOM     43  O   UNL     1      33.011  -1.441  82.618  1.00  0.00    -0.504 OA
ATOM     44  H   UNL     1      32.297  -1.219  83.299  1.00  0.00     0.293 HD
ENDBRANCH   7  43
TORSDOF 11
ENDMDL
MODEL 4
REMARK VINA RESULT:    -7.283      1.523      3.180
REMARK INTER + INTRA:         -11.783
REMARK INTER:                 -11.030
REMARK INTRA:                  -0.753
REMARK UNBOUND:                -1.094
REMARK SMILES Cc1cc2c(C(C)C)c(O)c(O)c(C=O)c2c(O)c1-c1c(C)cc2c(C(C)C)c(O)c(O)c(C=O)c2c1O
REMARK SMILES IDX 1 1 2 2 3 3 4 4 16 5 13 6 11 7 9 8 5 9 17 10 19 11 20 12
REMARK SMILES IDX 37 13 21 14 36 15 23 16 22 17 24 18 33 19 25 20 31 21 29 22
REMARK SMILES IDX 38 23 34 25 35 26 26 27 27 28 28 29 32 30 30 32 18 34 6 36
REMARK SMILES IDX 7 37 8 38 14 39 15 40 10 41 12 43
REMARK H PARENT 38 24 32 31 30 33 18 35 10 42 12 44
REMARK Flexibility Score: inf
ROOT
ATOM      1  C   UNL     1      35.946  -4.125  76.292  1.00  0.00     0.045 C 
ATOM      2  C   UNL     1      36.094  -2.849  75.496  1.00  0.00    -0.039 A 
ATOM      3  C   UNL     1      37.143  -2.731  74.586  1.00  0.00     0.013 A 
ATOM      4  C   UNL     1      37.350  -1.555  73.831  1.00  0.00    -0.006 A 
ATOM      5  C   UNL     1      36.384  -0.505  73.915  1.00  0.00     0.039 A 
ATOM      6  C   UNL     1      36.514   0.621  73.046  1.00  0.00     0.072 A 
ATOM      7  C   UNL     1      37.551   0.657  72.090  1.00  0.00     0.169 A 
ATOM      8  C   UNL     1      38.497  -0.370  72.030  1.00  0.00     0.162 A 
ATOM      9  C   UNL     1      38.481  -1.425  72.966  1.00  0.00     0.008 A 
ATOM     10  C   UNL     1      35.300  -0.638  74.839  1.00  0.00     0.132 A 
ATOM     11  C   UNL     1      35.173  -1.799  75.631  1.00  0.00     0.031 A 
ENDROOT
BRANCH  11  12
ATOM     12  C   UNL     1      34.048  -1.922  76.597  1.00  0.00     0.031 A 
ATOM     13  C   UNL     1      34.264  -1.662  77.968  1.00  0.00     0.132 A 
ATOM     14  C   UNL     1      32.772  -2.303  76.147  1.00  0.00    -0.039 A 
ATOM     15  C   UNL     1      33.203  -1.821  78.911  1.00  0.00     0.039 A 
ATOM     16  C   UNL     1      31.719  -2.390  77.057  1.00  0.00     0.013 A 
ATOM     17  C   UNL     1      32.522  -2.673  74.704  1.00  0.00     0.045 C 
ATOM     18  C   UNL     1      31.887  -2.080  78.425  1.00  0.00    -0.006 A 
ATOM     19  C   UNL     1      33.411  -1.724  80.319  1.00  0.00     0.072 A 
ATOM     20  C   UNL     1      30.773  -2.050  79.317  1.00  0.00     0.008 A 
ATOM     21  C   UNL     1      32.321  -1.885  81.201  1.00  0.00     0.169 A 
ATOM     22  C   UNL     1      31.022  -2.038  80.707  1.00  0.00     0.162 A 
BRANCH  13  23
ATOM     23  O   UNL     1      35.526  -1.223  78.389  1.00  0.00    -0.507 OA
ATOM     24  H   UNL     1      35.677  -0.619  79.187  1.00  0.00     0.293 HD
ENDBRANCH  13  23
BRANCH  19  25
ATOM     25  C   UNL     1      34.758  -1.549  80.902  1.00  0.00     0.264 C 
ATOM     26  O   UNL     1      35.156  -2.302  81.831  1.00  0.00    -0.298 OA
ENDBRANCH  19  25
BRANCH  20  27
ATOM     27  C   UNL     1      29.322  -2.050  78.800  1.00  0.00     0.017 C 
ATOM     28  C   UNL     1      28.774  -3.479  78.709  1.00  0.00     0.012 C 
ATOM     29  C   UNL     1      28.378  -1.136  79.604  1.00  0.00     0.012 C 
ENDBRANCH  20  27
BRANCH  21  30
ATOM     30  O   UNL     1      32.501  -1.919  82.589  1.00  0.00    -0.504 OA
ATOM     31  H   UNL     1      32.079  -2.607  83.200  1.00  0.00     0.293 HD
ENDBRANCH  21  30
BRANCH  22  32
ATOM     32  O   UNL     1      29.965  -2.208  81.605  1.00  0.00    -0.504 OA
ATOM     33  H   UNL     1      29.474  -3.086  81.720  1.00  0.00     0.293 HD
ENDBRANCH  22  32
ENDBRANCH  11  12
BRANCH  10  34
ATOM     34  O   UNL     1      34.344   0.378  74.963  1.00  0.00    -0.507 OA
ATOM     35  H   UNL     1      34.261   1.160  74.324  1.00  0.00     0.293 HD
ENDBRANCH  10  34
BRANCH   9  36
ATOM     36  C   UNL     1      39.666  -2.409  73.023  1.00  0.00     0.017 C 
ATOM     37  C   UNL     1      40.125  -2.628  74.468  1.00  0.00     0.012 C 
ATOM     38  C   UNL     1      39.396  -3.747  72.310  1.00  0.00     0.012 C 
ENDBRANCH   9  36
BRANCH   6  39
ATOM     39  C   UNL     1      35.577   1.761  73.094  1.00  0.00     0.264 C 
ATOM     40  O   UNL     1      36.008   2.944  73.103  1.00  0.00    -0.298 OA
ENDBRANCH   6  39
BRANCH   8  41
ATOM     41  O   UNL     1      39.468  -0.343  71.026  1.00  0.00    -0.504 OA
ATOM     42  H   UNL     1      40.333  -0.866  71.078  1.00  0.00     0.293 HD
ENDBRANCH   8  41
BRANCH   7  43
ATOM     43  O   UNL     1      37.689   1.727  71.197  1.00  0.00    -0.504 OA
ATOM     44  H   UNL     1      38.572   2.034  70.812  1.00  0.00     0.293 HD
ENDBRANCH   7  43
TORSDOF 11
ENDMDL
MODEL 5
REMARK VINA RESULT:    -6.782     15.384     17.581
REMARK INTER + INTRA:         -11.048
REMARK INTER:                 -10.003
REMARK INTRA:                  -1.044
REMARK UNBOUND:                -1.094
REMARK SMILES Cc1cc2c(C(C)C)c(O)c(O)c(C=O)c2c(O)c1-c1c(C)cc2c(C(C)C)c(O)c(O)c(C=O)c2c1O
REMARK SMILES IDX 1 1 2 2 3 3 4 4 16 5 13 6 11 7 9 8 5 9 17 10 19 11 20 12
REMARK SMILES IDX 37 13 21 14 36 15 23 16 22 17 24 18 33 19 25 20 31 21 29 22
REMARK SMILES IDX 38 23 34 25 35 26 26 27 27 28 28 29 32 30 30 32 18 34 6 36
REMARK SMILES IDX 7 37 8 38 14 39 15 40 10 41 12 43
REMARK H PARENT 38 24 32 31 30 33 18 35 10 42 12 44
REMARK Flexibility Score: inf
ROOT
ATOM      1  C   UNL     1      30.107  16.098  77.821  1.00  0.00     0.045 C 
ATOM      2  C   UNL     1      30.746  15.214  78.866  1.00  0.00    -0.039 A 
ATOM      3  C   UNL     1      32.135  15.201  78.992  1.00  0.00     0.013 A 
ATOM      4  C   UNL     1      32.793  14.378  79.933  1.00  0.00    -0.006 A 
ATOM      5  C   UNL     1      32.006  13.631  80.862  1.00  0.00     0.039 A 
ATOM      6  C   UNL     1      32.670  12.912  81.904  1.00  0.00     0.072 A 
ATOM      7  C   UNL     1      34.072  12.994  82.034  1.00  0.00     0.169 A 
ATOM      8  C   UNL     1      34.829  13.718  81.108  1.00  0.00     0.162 A 
ATOM      9  C   UNL     1      34.220  14.320  79.987  1.00  0.00     0.008 A 
ATOM     10  C   UNL     1      30.582  13.659  80.738  1.00  0.00     0.132 A 
ATOM     11  C   UNL     1      29.965  14.436  79.734  1.00  0.00     0.031 A 
ENDROOT
BRANCH  11  12
ATOM     12  C   UNL     1      28.483  14.450  79.607  1.00  0.00     0.031 A 
ATOM     13  C   UNL     1      27.855  13.685  78.600  1.00  0.00     0.132 A 
ATOM     14  C   UNL     1      27.708  15.228  80.485  1.00  0.00    -0.039 A 
ATOM     15  C   UNL     1      26.436  13.726  78.440  1.00  0.00     0.039 A 
ATOM     16  C   UNL     1      26.318  15.212  80.374  1.00  0.00     0.013 A 
ATOM     17  C   UNL     1      28.348  16.125  81.519  1.00  0.00     0.045 C 
ATOM     18  C   UNL     1      25.655  14.413  79.417  1.00  0.00    -0.006 A 
ATOM     19  C   UNL     1      25.771  13.098  77.344  1.00  0.00     0.072 A 
ATOM     20  C   UNL     1      24.231  14.311  79.400  1.00  0.00     0.008 A 
ATOM     21  C   UNL     1      24.366  13.168  77.244  1.00  0.00     0.169 A 
ATOM     22  C   UNL     1      23.608  13.759  78.259  1.00  0.00     0.162 A 
BRANCH  13  23
ATOM     23  O   UNL     1      28.637  12.868  77.775  1.00  0.00    -0.507 OA
ATOM     24  H   UNL     1      29.365  12.251  78.116  1.00  0.00     0.293 HD
ENDBRANCH  13  23
BRANCH  19  25
ATOM     25  C   UNL     1      26.517  12.447  76.247  1.00  0.00     0.264 C 
ATOM     26  O   UNL     1      26.268  12.734  75.045  1.00  0.00    -0.298 OA
ENDBRANCH  19  25
BRANCH  20  27
ATOM     27  C   UNL     1      23.371  14.803  80.579  1.00  0.00     0.017 C 
ATOM     28  C   UNL     1      22.618  16.086  80.209  1.00  0.00     0.012 C 
ATOM     29  C   UNL     1      22.415  13.731  81.137  1.00  0.00     0.012 C 
ENDBRANCH  20  27
BRANCH  21  30
ATOM     30  O   UNL     1      23.686  12.674  76.124  1.00  0.00    -0.504 OA
ATOM     31  H   UNL     1      23.925  12.903  75.167  1.00  0.00     0.293 HD
ENDBRANCH  21  30
BRANCH  22  32
ATOM     32  O   UNL     1      22.219  13.825  78.125  1.00  0.00    -0.504 OA
ATOM     33  H   UNL     1      21.714  13.363  77.378  1.00  0.00     0.293 HD
ENDBRANCH  22  32
ENDBRANCH  11  12
BRANCH  10  34
ATOM     34  O   UNL     1      29.778  12.923  81.618  1.00  0.00    -0.507 OA
ATOM     35  H   UNL     1      28.840  12.607  81.400  1.00  0.00     0.293 HD
ENDBRANCH  10  34
BRANCH   9  36
ATOM     36  C   UNL     1      35.102  14.905  78.867  1.00  0.00     0.017 C 
ATOM     37  C   UNL     1      35.883  16.124  79.368  1.00  0.00     0.012 C 
ATOM     38  C   UNL     1      36.036  13.872  78.208  1.00  0.00     0.012 C 
ENDBRANCH   9  36
BRANCH   6  39
ATOM     39  C   UNL     1      31.930  12.089  82.882  1.00  0.00     0.264 C 
ATOM     40  O   UNL     1      31.901  12.414  84.098  1.00  0.00    -0.298 OA
ENDBRANCH   6  39
BRANCH   8  41
ATOM     41  O   UNL     1      36.207  13.840  81.304  1.00  0.00    -0.504 OA
ATOM     42  H   UNL     1      36.704  13.369  82.048  1.00  0.00     0.293 HD
ENDBRANCH   8  41
BRANCH   7  43
ATOM     43  O   UNL     1      34.753  12.333  83.062  1.00  0.00    -0.504 OA
ATOM     44  H   UNL     1      35.758  12.338  83.172  1.00  0.00     0.293 HD
ENDBRANCH   7  43
TORSDOF 11
ENDMDL
MODEL 6
REMARK VINA RESULT:    -6.763      1.519      3.075
REMARK INTER + INTRA:         -11.020
REMARK INTER:                 -10.078
REMARK INTRA:                  -0.942
REMARK UNBOUND:                -1.094
REMARK SMILES Cc1cc2c(C(C)C)c(O)c(O)c(C=O)c2c(O)c1-c1c(C)cc2c(C(C)C)c(O)c(O)c(C=O)c2c1O
REMARK SMILES IDX 1 1 2 2 3 3 4 4 16 5 13 6 11 7 9 8 5 9 17 10 19 11 20 12
REMARK SMILES IDX 37 13 21 14 36 15 23 16 22 17 24 18 33 19 25 20 31 21 29 22
REMARK SMILES IDX 38 23 34 25 35 26 26 27 27 28 28 29 32 30 30 32 18 34 6 36
REMARK SMILES IDX 7 37 8 38 14 39 15 40 10 41 12 43
REMARK H PARENT 38 24 32 31 30 33 18 35 10 42 12 44
REMARK Flexibility Score: inf
ROOT
ATOM      1  C   UNL     1      33.855   1.131  76.275  1.00  0.00     0.045 C 
ATOM      2  C   UNL     1      34.848   0.200  75.619  1.00  0.00    -0.039 A 
ATOM      3  C   UNL     1      35.537   0.627  74.484  1.00  0.00     0.013 A 
ATOM      4  C   UNL     1      36.459  -0.205  73.811  1.00  0.00    -0.006 A 
ATOM      5  C   UNL     1      36.783  -1.474  74.381  1.00  0.00     0.039 A 
ATOM      6  C   UNL     1      37.819  -2.254  73.781  1.00  0.00     0.072 A 
ATOM      7  C   UNL     1      38.538  -1.743  72.681  1.00  0.00     0.169 A 
ATOM      8  C   UNL     1      38.199  -0.506  72.125  1.00  0.00     0.162 A 
ATOM      9  C   UNL     1      37.090   0.224  72.602  1.00  0.00     0.008 A 
ATOM     10  C   UNL     1      36.085  -1.901  75.554  1.00  0.00     0.132 A 
ATOM     11  C   UNL     1      35.115  -1.069  76.153  1.00  0.00     0.031 A 
ENDROOT
BRANCH  11  12
ATOM     12  C   UNL     1      34.386  -1.528  77.367  1.00  0.00     0.031 A 
ATOM     13  C   UNL     1      33.144  -2.187  77.236  1.00  0.00     0.132 A 
ATOM     14  C   UNL     1      34.931  -1.300  78.642  1.00  0.00    -0.039 A 
ATOM     15  C   UNL     1      32.415  -2.591  78.396  1.00  0.00     0.039 A 
ATOM     16  C   UNL     1      34.252  -1.757  79.771  1.00  0.00     0.013 A 
ATOM     17  C   UNL     1      36.213  -0.523  78.826  1.00  0.00     0.045 C 
ATOM     18  C   UNL     1      33.037  -2.471  79.674  1.00  0.00    -0.006 A 
ATOM     19  C   UNL     1      31.090  -3.116  78.322  1.00  0.00     0.072 A 
ATOM     20  C   UNL     1      32.422  -3.043  80.829  1.00  0.00     0.008 A 
ATOM     21  C   UNL     1      30.422  -3.504  79.502  1.00  0.00     0.169 A 
ATOM     22  C   UNL     1      31.081  -3.474  80.735  1.00  0.00     0.162 A 
BRANCH  13  23
ATOM     23  O   UNL     1      32.647  -2.461  75.956  1.00  0.00    -0.507 OA
ATOM     24  H   UNL     1      32.893  -1.932  75.128  1.00  0.00     0.293 HD
ENDBRANCH  13  23
BRANCH  19  25
ATOM     25  C   UNL     1      30.346  -3.184  77.046  1.00  0.00     0.264 C 
ATOM     26  O   UNL     1      29.107  -2.957  77.015  1.00  0.00    -0.298 OA
ENDBRANCH  19  25
BRANCH  20  27
ATOM     27  C   UNL     1      33.178  -3.178  82.164  1.00  0.00     0.017 C 
ATOM     28  C   UNL     1      34.375  -4.125  82.023  1.00  0.00     0.012 C 
ATOM     29  C   UNL     1      33.597  -1.829  82.778  1.00  0.00     0.012 C 
ENDBRANCH  20  27
BRANCH  21  30
ATOM     30  O   UNL     1      29.081  -3.907  79.487  1.00  0.00    -0.504 OA
ATOM     31  H   UNL     1      28.735  -4.706  78.972  1.00  0.00     0.293 HD
ENDBRANCH  21  30
BRANCH  22  32
ATOM     32  O   UNL     1      30.389  -3.852  81.889  1.00  0.00    -0.504 OA
ATOM     33  H   UNL     1      29.738  -3.241  82.367  1.00  0.00     0.293 HD
ENDBRANCH  22  32
ENDBRANCH  11  12
BRANCH  10  34
ATOM     34  O   UNL     1      36.361  -3.147  76.131  1.00  0.00    -0.507 OA
ATOM     35  H   UNL     1      36.520  -3.291  77.122  1.00  0.00     0.293 HD
ENDBRANCH  10  34
BRANCH   9  36
ATOM     36  C   UNL     1      36.602   1.460  71.822  1.00  0.00     0.017 C 
ATOM     37  C   UNL     1      35.353   1.128  71.000  1.00  0.00     0.012 C 
ATOM     38  C   UNL     1      36.379   2.702  72.705  1.00  0.00     0.012 C 
ENDBRANCH   9  36
BRANCH   6  39
ATOM     39  C   UNL     1      38.190  -3.589  74.291  1.00  0.00     0.264 C 
ATOM     40  O   UNL     1      39.211  -3.737  75.013  1.00  0.00    -0.298 OA
ENDBRANCH   6  39
BRANCH   8  41
ATOM     41  O   UNL     1      38.975   0.007  71.081  1.00  0.00    -0.504 OA
ATOM     42  H   UNL     1      39.361  -0.570  70.344  1.00  0.00     0.293 HD
ENDBRANCH   8  41
BRANCH   7  43
ATOM     43  O   UNL     1      39.583  -2.462  72.089  1.00  0.00    -0.504 OA
ATOM     44  H   UNL     1      40.392  -2.803  72.589  1.00  0.00     0.293 HD
ENDBRANCH   7  43
TORSDOF 11
ENDMDL
MODEL 7
REMARK VINA RESULT:    -6.625     15.327     18.351
REMARK INTER + INTRA:         -10.817
REMARK INTER:                 -10.185
REMARK INTRA:                  -0.632
REMARK UNBOUND:                -1.094
REMARK SMILES Cc1cc2c(C(C)C)c(O)c(O)c(C=O)c2c(O)c1-c1c(C)cc2c(C(C)C)c(O)c(O)c(C=O)c2c1O
REMARK SMILES IDX 1 1 2 2 3 3 4 4 16 5 13 6 11 7 9 8 5 9 17 10 19 11 20 12
REMARK SMILES IDX 37 13 21 14 36 15 23 16 22 17 24 18 33 19 25 20 31 21 29 22
REMARK SMILES IDX 38 23 34 25 35 26 26 27 27 28 28 29 32 30 30 32 18 34 6 36
REMARK SMILES IDX 7 37 8 38 14 39 15 40 10 41 12 43
REMARK H PARENT 38 24 32 31 30 33 18 35 10 42 12 44
REMARK Flexibility Score: inf
ROOT
ATOM      1  C   UNL     1      27.976  15.996  81.563  1.00  0.00     0.045 C 
ATOM      2  C   UNL     1      27.299  15.165  80.498  1.00  0.00    -0.039 A 
ATOM      3  C   UNL     1      25.908  15.178  80.404  1.00  0.00     0.013 A 
ATOM      4  C   UNL     1      25.216  14.403  79.447  1.00  0.00    -0.006 A 
ATOM      5  C   UNL     1      25.970  13.682  78.470  1.00  0.00     0.039 A 
ATOM      6  C   UNL     1      25.272  13.016  77.416  1.00  0.00     0.072 A 
ATOM      7  C   UNL     1      23.869  13.123  77.323  1.00  0.00     0.169 A 
ATOM      8  C   UNL     1      23.144  13.820  78.294  1.00  0.00     0.162 A 
ATOM      9  C   UNL     1      23.787  14.368  79.424  1.00  0.00     0.008 A 
ATOM     10  C   UNL     1      27.397  13.685  78.562  1.00  0.00     0.132 A 
ATOM     11  C   UNL     1      28.048  14.412  79.581  1.00  0.00     0.031 A 
ENDROOT
BRANCH  11  12
ATOM     12  C   UNL     1      29.533  14.398  79.674  1.00  0.00     0.031 A 
ATOM     13  C   UNL     1      30.171  13.609  80.656  1.00  0.00     0.132 A 
ATOM     14  C   UNL     1      30.300  15.176  78.790  1.00  0.00    -0.039 A 
ATOM     15  C   UNL     1      31.593  13.623  80.783  1.00  0.00     0.039 A 
ATOM     16  C   UNL     1      31.692  15.136  78.869  1.00  0.00     0.013 A 
ATOM     17  C   UNL     1      29.653  16.099  77.785  1.00  0.00     0.045 C 
ATOM     18  C   UNL     1      32.363  14.312  79.799  1.00  0.00    -0.006 A 
ATOM     19  C   UNL     1      32.272  12.968  81.854  1.00  0.00     0.072 A 
ATOM     20  C   UNL     1      33.786  14.185  79.782  1.00  0.00     0.008 A 
ATOM     21  C   UNL     1      33.680  13.013  81.923  1.00  0.00     0.169 A 
ATOM     22  C   UNL     1      34.425  13.607  80.899  1.00  0.00     0.162 A 
BRANCH  13  23
ATOM     23  O   UNL     1      29.394  12.792  81.486  1.00  0.00    -0.507 OA
ATOM     24  H   UNL     1      29.331  12.903  82.491  1.00  0.00     0.293 HD
ENDBRANCH  13  23
BRANCH  19  25
ATOM     25  C   UNL     1      31.541  12.313  82.959  1.00  0.00     0.264 C 
ATOM     26  O   UNL     1      31.925  12.453  84.152  1.00  0.00    -0.298 OA
ENDBRANCH  19  25
BRANCH  20  27
ATOM     27  C   UNL     1      34.627  14.680  78.590  1.00  0.00     0.017 C 
ATOM     28  C   UNL     1      35.889  15.403  79.074  1.00  0.00     0.012 C 
ATOM     29  C   UNL     1      34.967  13.576  77.571  1.00  0.00     0.012 C 
ENDBRANCH  20  27
BRANCH  21  30
ATOM     30  O   UNL     1      34.377  12.491  83.020  1.00  0.00    -0.504 OA
ATOM     31  H   UNL     1      35.260  12.854  83.357  1.00  0.00     0.293 HD
ENDBRANCH  21  30
BRANCH  22  32
ATOM     32  O   UNL     1      35.818  13.647  81.002  1.00  0.00    -0.504 OA
ATOM     33  H   UNL     1      36.315  13.423  81.855  1.00  0.00     0.293 HD
ENDBRANCH  22  32
ENDBRANCH  11  12
BRANCH  10  34
ATOM     34  O   UNL     1      28.169  12.974  77.635  1.00  0.00    -0.507 OA
ATOM     35  H   UNL     1      28.686  13.405  76.877  1.00  0.00     0.293 HD
ENDBRANCH  10  34
BRANCH   9  36
ATOM     36  C   UNL     1      22.940  14.920  80.586  1.00  0.00     0.017 C 
ATOM     37  C   UNL     1      22.058  16.081  80.117  1.00  0.00     0.012 C 
ATOM     38  C   UNL     1      22.112  13.845  81.316  1.00  0.00     0.012 C 
ENDBRANCH   9  36
BRANCH   6  39
ATOM     39  C   UNL     1      25.976  12.223  76.389  1.00  0.00     0.264 C 
ATOM     40  O   UNL     1      26.154  12.689  75.232  1.00  0.00    -0.298 OA
ENDBRANCH   6  39
BRANCH   8  41
ATOM     41  O   UNL     1      21.763  13.971  78.135  1.00  0.00    -0.504 OA
ATOM     42  H   UNL     1      21.227  14.685  78.610  1.00  0.00     0.293 HD
ENDBRANCH   8  41
BRANCH   7  43
ATOM     43  O   UNL     1      23.154  12.515  76.284  1.00  0.00    -0.504 OA
ATOM     44  H   UNL     1      22.318  11.962  76.418  1.00  0.00     0.293 HD
ENDBRANCH   7  43
TORSDOF 11
ENDMDL
MODEL 8
REMARK VINA RESULT:    -6.429      7.301     11.998
REMARK INTER + INTRA:         -10.530
REMARK INTER:                 -10.210
REMARK INTRA:                  -0.319
REMARK UNBOUND:                -1.094
REMARK SMILES Cc1cc2c(C(C)C)c(O)c(O)c(C=O)c2c(O)c1-c1c(C)cc2c(C(C)C)c(O)c(O)c(C=O)c2c1O
REMARK SMILES IDX 1 1 2 2 3 3 4 4 16 5 13 6 11 7 9 8 5 9 17 10 19 11 20 12
REMARK SMILES IDX 37 13 21 14 36 15 23 16 22 17 24 18 33 19 25 20 31 21 29 22
REMARK SMILES IDX 38 23 34 25 35 26 26 27 27 28 28 29 32 30 30 32 18 34 6 36
REMARK SMILES IDX 7 37 8 38 14 39 15 40 10 41 12 43
REMARK H PARENT 38 24 32 31 30 33 18 35 10 42 12 44
REMARK Flexibility Score: inf
ROOT
ATOM      1  C   UNL     1      27.371  -1.321  84.124  1.00  0.00     0.045 C 
ATOM      2  C   UNL     1      26.841  -1.665  82.751  1.00  0.00    -0.039 A 
ATOM      3  C   UNL     1      27.724  -2.122  81.774  1.00  0.00     0.013 A 
ATOM      4  C   UNL     1      27.295  -2.435  80.465  1.00  0.00    -0.006 A 
ATOM      5  C   UNL     1      25.896  -2.398  80.173  1.00  0.00     0.039 A 
ATOM      6  C   UNL     1      25.448  -2.853  78.895  1.00  0.00     0.072 A 
ATOM      7  C   UNL     1      26.374  -3.378  77.969  1.00  0.00     0.169 A 
ATOM      8  C   UNL     1      27.740  -3.394  78.264  1.00  0.00     0.162 A 
ATOM      9  C   UNL     1      28.231  -2.823  79.457  1.00  0.00     0.008 A 
ATOM     10  C   UNL     1      24.993  -1.943  81.183  1.00  0.00     0.132 A 
ATOM     11  C   UNL     1      25.473  -1.566  82.456  1.00  0.00     0.031 A 
ENDROOT
BRANCH  11  12
ATOM     12  C   UNL     1      24.525  -1.083  83.497  1.00  0.00     0.031 A 
ATOM     13  C   UNL     1      24.209  -1.907  84.599  1.00  0.00     0.132 A 
ATOM     14  C   UNL     1      23.941   0.190  83.380  1.00  0.00    -0.039 A 
ATOM     15  C   UNL     1      23.267  -1.472  85.580  1.00  0.00     0.039 A 
ATOM     16  C   UNL     1      23.075   0.643  84.375  1.00  0.00     0.013 A 
ATOM     17  C   UNL     1      24.188   1.065  82.173  1.00  0.00     0.045 C 
ATOM     18  C   UNL     1      22.783  -0.131  85.520  1.00  0.00    -0.006 A 
ATOM     19  C   UNL     1      22.797  -2.327  86.622  1.00  0.00     0.072 A 
ATOM     20  C   UNL     1      21.998   0.399  86.588  1.00  0.00     0.008 A 
ATOM     21  C   UNL     1      21.870  -1.837  87.566  1.00  0.00     0.169 A 
ATOM     22  C   UNL     1      21.482  -0.494  87.553  1.00  0.00     0.162 A 
BRANCH  13  23
ATOM     23  O   UNL     1      24.848  -3.146  84.732  1.00  0.00    -0.507 OA
ATOM     24  H   UNL     1      25.602  -3.461  84.133  1.00  0.00     0.293 HD
ENDBRANCH  13  23
BRANCH  19  25
ATOM     25  C   UNL     1      23.181  -3.752  86.697  1.00  0.00     0.264 C 
ATOM     26  O   UNL     1      24.115  -4.125  87.456  1.00  0.00    -0.298 OA
ENDBRANCH  19  25
BRANCH  20  27
ATOM     27  C   UNL     1      21.688   1.904  86.696  1.00  0.00     0.017 C 
ATOM     28  C   UNL     1      22.964   2.738  86.536  1.00  0.00     0.012 C 
ATOM     29  C   UNL     1      20.582   2.379  85.736  1.00  0.00     0.012 C 
ENDBRANCH  20  27
BRANCH  21  30
ATOM     30  O   UNL     1      21.292  -2.675  88.528  1.00  0.00    -0.504 OA
ATOM     31  H   UNL     1      20.917  -2.353  89.411  1.00  0.00     0.293 HD
ENDBRANCH  21  30
BRANCH  22  32
ATOM     32  O   UNL     1      20.552  -0.042  88.493  1.00  0.00    -0.504 OA
ATOM     33  H   UNL     1      20.767   0.663  89.187  1.00  0.00     0.293 HD
ENDBRANCH  22  32
ENDBRANCH  11  12
BRANCH  10  34
ATOM     34  O   UNL     1      23.618  -1.874  80.928  1.00  0.00    -0.507 OA
ATOM     35  H   UNL     1      23.096  -2.587  80.430  1.00  0.00     0.293 HD
ENDBRANCH  10  34
BRANCH   9  36
ATOM     36  C   UNL     1      29.750  -2.644  79.645  1.00  0.00     0.017 C 
ATOM     37  C   UNL     1      30.097  -1.179  79.929  1.00  0.00     0.012 C 
ATOM     38  C   UNL     1      30.358  -3.581  80.705  1.00  0.00     0.012 C 
ENDBRANCH   9  36
BRANCH   6  39
ATOM     39  C   UNL     1      24.024  -2.815  78.504  1.00  0.00     0.264 C 
ATOM     40  O   UNL     1      23.589  -1.896  77.762  1.00  0.00    -0.298 OA
ENDBRANCH   6  39
BRANCH   8  41
ATOM     41  O   UNL     1      28.625  -3.986  77.358  1.00  0.00    -0.504 OA
ATOM     42  H   UNL     1      28.376  -4.199  76.401  1.00  0.00     0.293 HD
ENDBRANCH   8  41
BRANCH   7  43
ATOM     43  O   UNL     1      25.968  -3.865  76.721  1.00  0.00    -0.504 OA
ATOM     44  H   UNL     1      25.003  -3.975  76.441  1.00  0.00     0.293 HD
ENDBRANCH   7  43
TORSDOF 11
ENDMDL
