MODEL 1
REMARK VINA RESULT:    -5.954      0.000      0.000
REMARK INTER + INTRA:         -12.120
REMARK INTER:                 -10.827
REMARK INTRA:                  -1.293
REMARK UNBOUND:                -1.293
REMARK SMILES CCCCCCCCCCCCCC[C@@H](C)C(=O)[O-]
REMARK SMILES IDX 9 1 10 2 11 3 12 4 13 5 14 6 15 7 16 8 17 9 18 10 19 11 8 12
REMARK SMILES IDX 7 13 6 14 5 15 4 16 3 17 2 18 1 19
REMARK H PARENT
REMARK Flexibility Score: inf
ROOT
ATOM      1  C   UNL     1     -16.260  28.838  -0.151  1.00  0.00     0.000 C 
ENDROOT
BRANCH   1   2
ATOM      2  C   UNL     1     -17.094  27.557  -0.341  1.00  0.00     0.000 C 
BRANCH   2   3
ATOM      3  C   UNL     1     -17.010  26.612   0.868  1.00  0.00     0.000 C 
BRANCH   3   4
ATOM      4  C   UNL     1     -18.099  25.524   0.843  1.00  0.00     0.000 C 
BRANCH   4   5
ATOM      5  C   UNL     1     -18.113  24.733  -0.476  1.00  0.00     0.001 C 
BRANCH   5   6
ATOM      6  C   UNL     1     -18.725  23.329  -0.316  1.00  0.00     0.009 C 
BRANCH   6   7
ATOM      7  C   UNL     1     -19.869  23.063  -1.317  1.00  0.00     0.032 C 
ATOM      8  C   UNL     1     -19.690  21.737  -2.070  1.00  0.00     0.014 C 
BRANCH   7   9
ATOM      9  C   UNL     1     -21.186  23.051  -0.590  1.00  0.00     0.044 C 
ATOM     10  O   UNL     1     -21.495  24.003   0.176  1.00  0.00    -0.550 OA
ATOM     11  O   UNL     1     -22.071  21.992  -0.757  1.00  0.00    -0.550 OA
ENDBRANCH   7   9
ENDBRANCH   6   7
ENDBRANCH   5   6
ENDBRANCH   4   5
ENDBRANCH   3   4
ENDBRANCH   2   3
ENDBRANCH   1   2
BRANCH   1  12
ATOM     12  C   UNL     1     -16.109  29.233   1.327  1.00  0.00     0.000 C 
BRANCH  12  13
ATOM     13  C   UNL     1     -15.575  30.665   1.504  1.00  0.00    -0.000 C 
BRANCH  13  14
ATOM     14  C   UNL     1     -16.662  31.730   1.291  1.00  0.00    -0.000 C 
BRANCH  14  15
ATOM     15  C   UNL     1     -16.153  32.950   0.508  1.00  0.00    -0.000 C 
BRANCH  15  16
ATOM     16  C   UNL     1     -17.058  33.250  -0.693  1.00  0.00    -0.000 C 
BRANCH  16  17
ATOM     17  C   UNL     1     -18.201  32.228  -0.788  1.00  0.00    -0.000 C 
BRANCH  17  18
ATOM     18  C   UNL     1     -18.221  31.488  -2.134  1.00  0.00    -0.003 C 
ATOM     19  C   UNL     1     -19.072  30.219  -2.098  1.00  0.00     0.004 C 
ENDBRANCH  17  18
ENDBRANCH  16  17
ENDBRANCH  15  16
ENDBRANCH  14  15
ENDBRANCH  13  14
ENDBRANCH  12  13
ENDBRANCH   1  12
TORSDOF 14
ENDMDL
MODEL 2
REMARK VINA RESULT:    -5.771      1.105      1.509
REMARK INTER + INTRA:         -11.787
REMARK INTER:                 -10.434
REMARK INTRA:                  -1.353
REMARK UNBOUND:                -1.293
REMARK SMILES CCCCCCCCCCCCCC[C@@H](C)C(=O)[O-]
REMARK SMILES IDX 9 1 10 2 11 3 12 4 13 5 14 6 15 7 16 8 17 9 18 10 19 11 8 12
REMARK SMILES IDX 7 13 6 14 5 15 4 16 3 17 2 18 1 19
REMARK H PARENT
REMARK Flexibility Score: inf
ROOT
ATOM      1  C   UNL     1     -16.239  29.098   0.143  1.00  0.00     0.000 C 
ENDROOT
BRANCH   1   2
ATOM      2  C   UNL     1     -16.941  27.727   0.076  1.00  0.00     0.000 C 
BRANCH   2   3
ATOM      3  C   UNL     1     -16.596  26.827   1.272  1.00  0.00     0.000 C 
BRANCH   3   4
ATOM      4  C   UNL     1     -17.578  25.652   1.429  1.00  0.00     0.000 C 
BRANCH   4   5
ATOM      5  C   UNL     1     -18.531  25.516   0.229  1.00  0.00     0.001 C 
BRANCH   5   6
ATOM      6  C   UNL     1     -18.308  24.210  -0.556  1.00  0.00     0.009 C 
BRANCH   6   7
ATOM      7  C   UNL     1     -19.349  23.124  -0.212  1.00  0.00     0.032 C 
ATOM      8  C   UNL     1     -20.739  23.713   0.060  1.00  0.00     0.014 C 
BRANCH   7   9
ATOM      9  C   UNL     1     -19.438  22.131  -1.340  1.00  0.00     0.044 C 
ATOM     10  O   UNL     1     -18.518  21.288  -1.514  1.00  0.00    -0.550 OA
ATOM     11  O   UNL     1     -20.533  22.138  -2.195  1.00  0.00    -0.550 OA
ENDBRANCH   7   9
ENDBRANCH   6   7
ENDBRANCH   5   6
ENDBRANCH   4   5
ENDBRANCH   3   4
ENDBRANCH   2   3
ENDBRANCH   1   2
BRANCH   1  12
ATOM     12  C   UNL     1     -15.939  29.539   1.584  1.00  0.00     0.000 C 
BRANCH  12  13
ATOM     13  C   UNL     1     -15.517  31.016   1.674  1.00  0.00    -0.000 C 
BRANCH  13  14
ATOM     14  C   UNL     1     -16.667  31.978   1.335  1.00  0.00    -0.000 C 
BRANCH  14  15
ATOM     15  C   UNL     1     -16.213  33.165   0.472  1.00  0.00    -0.000 C 
BRANCH  15  16
ATOM     16  C   UNL     1     -17.065  33.277  -0.798  1.00  0.00    -0.000 C 
BRANCH  16  17
ATOM     17  C   UNL     1     -18.207  32.249  -0.787  1.00  0.00    -0.000 C 
BRANCH  17  18
ATOM     18  C   UNL     1     -18.261  31.412  -2.074  1.00  0.00    -0.003 C 
ATOM     19  C   UNL     1     -19.029  30.102  -1.895  1.00  0.00     0.004 C 
ENDBRANCH  17  18
ENDBRANCH  16  17
ENDBRANCH  15  16
ENDBRANCH  14  15
ENDBRANCH  13  14
ENDBRANCH  12  13
ENDBRANCH   1  12
TORSDOF 14
ENDMDL
MODEL 3
REMARK VINA RESULT:    -5.723      0.889      1.901
REMARK INTER + INTRA:         -11.700
REMARK INTER:                 -10.657
REMARK INTRA:                  -1.043
REMARK UNBOUND:                -1.293
REMARK SMILES CCCCCCCCCCCCCC[C@@H](C)C(=O)[O-]
REMARK SMILES IDX 9 1 10 2 11 3 12 4 13 5 14 6 15 7 16 8 17 9 18 10 19 11 8 12
REMARK SMILES IDX 7 13 6 14 5 15 4 16 3 17 2 18 1 19
REMARK H PARENT
REMARK Flexibility Score: inf
ROOT
ATOM      1  C   UNL     1     -16.716  27.068   0.080  1.00  0.00     0.000 C 
ENDROOT
BRANCH   1   2
ATOM      2  C   UNL     1     -17.200  26.208   1.263  1.00  0.00     0.000 C 
BRANCH   2   3
ATOM      3  C   UNL     1     -18.230  25.148   0.841  1.00  0.00     0.000 C 
BRANCH   3   4
ATOM      4  C   UNL     1     -18.163  24.825  -0.662  1.00  0.00     0.000 C 
BRANCH   4   5
ATOM      5  C   UNL     1     -18.337  23.324  -0.952  1.00  0.00     0.001 C 
BRANCH   5   6
ATOM      6  C   UNL     1     -19.621  23.022  -1.747  1.00  0.00     0.009 C 
BRANCH   6   7
ATOM      7  C   UNL     1     -20.662  22.240  -0.918  1.00  0.00     0.032 C 
ATOM      8  C   UNL     1     -20.039  21.552   0.304  1.00  0.00     0.014 C 
BRANCH   7   9
ATOM      9  C   UNL     1     -21.754  23.172  -0.466  1.00  0.00     0.044 C 
ATOM     10  O   UNL     1     -21.492  24.118   0.323  1.00  0.00    -0.550 OA
ATOM     11  O   UNL     1     -23.057  22.995  -0.916  1.00  0.00    -0.550 OA
ENDBRANCH   7   9
ENDBRANCH   6   7
ENDBRANCH   5   6
ENDBRANCH   4   5
ENDBRANCH   3   4
ENDBRANCH   2   3
ENDBRANCH   1   2
BRANCH   1  12
ATOM     12  C   UNL     1     -16.252  28.467   0.516  1.00  0.00     0.000 C 
BRANCH  12  13
ATOM     13  C   UNL     1     -16.242  28.635   2.045  1.00  0.00    -0.000 C 
BRANCH  13  14
ATOM     14  C   UNL     1     -15.678  29.996   2.485  1.00  0.00    -0.000 C 
BRANCH  14  15
ATOM     15  C   UNL     1     -15.518  30.979   1.316  1.00  0.00    -0.000 C 
BRANCH  15  16
ATOM     16  C   UNL     1     -16.613  32.052   1.348  1.00  0.00    -0.000 C 
BRANCH  16  17
ATOM     17  C   UNL     1     -16.291  33.195   0.374  1.00  0.00    -0.000 C 
BRANCH  17  18
ATOM     18  C   UNL     1     -17.324  33.315  -0.758  1.00  0.00    -0.003 C 
ATOM     19  C   UNL     1     -18.075  32.009  -1.013  1.00  0.00     0.004 C 
ENDBRANCH  17  18
ENDBRANCH  16  17
ENDBRANCH  15  16
ENDBRANCH  14  15
ENDBRANCH  13  14
ENDBRANCH  12  13
ENDBRANCH   1  12
TORSDOF 14
ENDMDL
MODEL 4
REMARK VINA RESULT:    -5.607      0.779      2.276
REMARK INTER + INTRA:         -11.489
REMARK INTER:                 -10.590
REMARK INTRA:                  -0.899
REMARK UNBOUND:                -1.293
REMARK SMILES CCCCCCCCCCCCCC[C@@H](C)C(=O)[O-]
REMARK SMILES IDX 9 1 10 2 11 3 12 4 13 5 14 6 15 7 16 8 17 9 18 10 19 11 8 12
REMARK SMILES IDX 7 13 6 14 5 15 4 16 3 17 2 18 1 19
REMARK H PARENT
REMARK Flexibility Score: inf
ROOT
ATOM      1  C   UNL     1     -16.092  28.056   0.118  1.00  0.00     0.000 C 
ENDROOT
BRANCH   1   2
ATOM      2  C   UNL     1     -16.548  27.476   1.471  1.00  0.00     0.000 C 
BRANCH   2   3
ATOM      3  C   UNL     1     -16.790  25.960   1.413  1.00  0.00     0.000 C 
BRANCH   3   4
ATOM      4  C   UNL     1     -18.192  25.606   0.884  1.00  0.00     0.000 C 
BRANCH   4   5
ATOM      5  C   UNL     1     -18.150  24.958  -0.510  1.00  0.00     0.001 C 
BRANCH   5   6
ATOM      6  C   UNL     1     -18.537  23.467  -0.480  1.00  0.00     0.009 C 
BRANCH   6   7
ATOM      7  C   UNL     1     -19.744  23.149  -1.389  1.00  0.00     0.032 C 
ATOM      8  C   UNL     1     -19.621  21.775  -2.062  1.00  0.00     0.014 C 
BRANCH   7   9
ATOM      9  C   UNL     1     -21.013  23.200  -0.583  1.00  0.00     0.044 C 
ATOM     10  O   UNL     1     -21.003  23.676   0.584  1.00  0.00    -0.550 OA
ATOM     11  O   UNL     1     -22.204  22.724  -1.119  1.00  0.00    -0.550 OA
ENDBRANCH   7   9
ENDBRANCH   6   7
ENDBRANCH   5   6
ENDBRANCH   4   5
ENDBRANCH   3   4
ENDBRANCH   2   3
ENDBRANCH   1   2
BRANCH   1  12
ATOM     12  C   UNL     1     -16.961  29.237  -0.343  1.00  0.00     0.000 C 
BRANCH  12  13
ATOM     13  C   UNL     1     -18.236  28.782  -1.074  1.00  0.00    -0.000 C 
BRANCH  13  14
ATOM     14  C   UNL     1     -19.040  29.960  -1.647  1.00  0.00    -0.000 C 
BRANCH  14  15
ATOM     15  C   UNL     1     -18.169  31.195  -1.923  1.00  0.00    -0.000 C 
BRANCH  15  16
ATOM     16  C   UNL     1     -18.270  32.206  -0.775  1.00  0.00    -0.000 C 
BRANCH  16  17
ATOM     17  C   UNL     1     -17.152  33.255  -0.865  1.00  0.00    -0.000 C 
BRANCH  17  18
ATOM     18  C   UNL     1     -16.336  33.362   0.432  1.00  0.00    -0.003 C 
ATOM     19  C   UNL     1     -16.601  32.203   1.394  1.00  0.00     0.004 C 
ENDBRANCH  17  18
ENDBRANCH  16  17
ENDBRANCH  15  16
ENDBRANCH  14  15
ENDBRANCH  13  14
ENDBRANCH  12  13
ENDBRANCH   1  12
TORSDOF 14
ENDMDL
MODEL 5
REMARK VINA RESULT:    -5.380      2.151      4.800
REMARK INTER + INTRA:         -11.076
REMARK INTER:                  -9.500
REMARK INTRA:                  -1.577
REMARK UNBOUND:                -1.293
REMARK SMILES CCCCCCCCCCCCCC[C@@H](C)C(=O)[O-]
REMARK SMILES IDX 9 1 10 2 11 3 12 4 13 5 14 6 15 7 16 8 17 9 18 10 19 11 8 12
REMARK SMILES IDX 7 13 6 14 5 15 4 16 3 17 2 18 1 19
REMARK H PARENT
REMARK Flexibility Score: inf
ROOT
ATOM      1  C   UNL     1     -18.148  32.460  -0.679  1.00  0.00     0.000 C 
ENDROOT
BRANCH   1   2
ATOM      2  C   UNL     1     -18.231  31.612  -1.963  1.00  0.00     0.000 C 
BRANCH   2   3
ATOM      3  C   UNL     1     -18.550  30.136  -1.678  1.00  0.00     0.000 C 
BRANCH   3   4
ATOM      4  C   UNL     1     -17.445  29.439  -0.865  1.00  0.00     0.000 C 
BRANCH   4   5
ATOM      5  C   UNL     1     -17.845  28.023  -0.417  1.00  0.00     0.001 C 
BRANCH   5   6
ATOM      6  C   UNL     1     -16.680  27.021  -0.518  1.00  0.00     0.009 C 
BRANCH   6   7
ATOM      7  C   UNL     1     -16.762  25.904   0.545  1.00  0.00     0.032 C 
ATOM      8  C   UNL     1     -16.726  26.456   1.976  1.00  0.00     0.014 C 
BRANCH   7   9
ATOM      9  C   UNL     1     -18.024  25.109   0.347  1.00  0.00     0.044 C 
ATOM     10  O   UNL     1     -18.236  24.519  -0.746  1.00  0.00    -0.550 OA
ATOM     11  O   UNL     1     -18.964  25.020   1.367  1.00  0.00    -0.550 OA
ENDBRANCH   7   9
ENDBRANCH   6   7
ENDBRANCH   5   6
ENDBRANCH   4   5
ENDBRANCH   3   4
ENDBRANCH   2   3
ENDBRANCH   1   2
BRANCH   1  12
ATOM     12  C   UNL     1     -16.912  33.373  -0.652  1.00  0.00     0.000 C 
BRANCH  12  13
ATOM     13  C   UNL     1     -16.162  33.313   0.690  1.00  0.00    -0.000 C 
BRANCH  13  14
ATOM     14  C   UNL     1     -16.523  32.064   1.511  1.00  0.00    -0.000 C 
BRANCH  14  15
ATOM     15  C   UNL     1     -15.476  30.947   1.385  1.00  0.00    -0.000 C 
BRANCH  15  16
ATOM     16  C   UNL     1     -15.497  30.034   2.616  1.00  0.00    -0.000 C 
BRANCH  16  17
ATOM     17  C   UNL     1     -16.494  30.547   3.666  1.00  0.00    -0.000 C 
BRANCH  17  18
ATOM     18  C   UNL     1     -15.831  30.825   5.024  1.00  0.00    -0.003 C 
ATOM     19  C   UNL     1     -16.049  32.259   5.505  1.00  0.00     0.004 C 
ENDBRANCH  17  18
ENDBRANCH  16  17
ENDBRANCH  15  16
ENDBRANCH  14  15
ENDBRANCH  13  14
ENDBRANCH  12  13
ENDBRANCH   1  12
TORSDOF 14
ENDMDL
MODEL 6
REMARK VINA RESULT:    -5.380      1.395      3.298
REMARK INTER + INTRA:         -11.076
REMARK INTER:                  -9.776
REMARK INTRA:                  -1.300
REMARK UNBOUND:                -1.293
REMARK SMILES CCCCCCCCCCCCCC[C@@H](C)C(=O)[O-]
REMARK SMILES IDX 9 1 10 2 11 3 12 4 13 5 14 6 15 7 16 8 17 9 18 10 19 11 8 12
REMARK SMILES IDX 7 13 6 14 5 15 4 16 3 17 2 18 1 19
REMARK H PARENT
REMARK Flexibility Score: inf
ROOT
ATOM      1  C   UNL     1     -18.508  29.948  -1.703  1.00  0.00     0.000 C 
ENDROOT
BRANCH   1   2
ATOM      2  C   UNL     1     -17.553  29.300  -0.682  1.00  0.00     0.000 C 
BRANCH   2   3
ATOM      3  C   UNL     1     -17.763  27.784  -0.554  1.00  0.00     0.000 C 
BRANCH   3   4
ATOM      4  C   UNL     1     -16.690  27.111   0.320  1.00  0.00     0.000 C 
BRANCH   4   5
ATOM      5  C   UNL     1     -17.118  25.719   0.814  1.00  0.00     0.001 C 
BRANCH   5   6
ATOM      6  C   UNL     1     -17.731  24.857  -0.306  1.00  0.00     0.009 C 
BRANCH   6   7
ATOM      7  C   UNL     1     -18.830  23.905   0.212  1.00  0.00     0.032 C 
ATOM      8  C   UNL     1     -20.175  24.617   0.411  1.00  0.00     0.014 C 
BRANCH   7   9
ATOM      9  C   UNL     1     -19.006  22.763  -0.752  1.00  0.00     0.044 C 
ATOM     10  O   UNL     1     -18.488  21.641  -0.505  1.00  0.00    -0.550 OA
ATOM     11  O   UNL     1     -19.741  22.937  -1.919  1.00  0.00    -0.550 OA
ENDBRANCH   7   9
ENDBRANCH   6   7
ENDBRANCH   5   6
ENDBRANCH   4   5
ENDBRANCH   3   4
ENDBRANCH   2   3
ENDBRANCH   1   2
BRANCH   1  12
ATOM     12  C   UNL     1     -18.173  31.424  -1.973  1.00  0.00     0.000 C 
BRANCH  12  13
ATOM     13  C   UNL     1     -18.176  32.274  -0.691  1.00  0.00    -0.000 C 
BRANCH  13  14
ATOM     14  C   UNL     1     -17.051  33.321  -0.676  1.00  0.00    -0.000 C 
BRANCH  14  15
ATOM     15  C   UNL     1     -16.214  33.276   0.612  1.00  0.00    -0.000 C 
BRANCH  15  16
ATOM     16  C   UNL     1     -16.579  32.052   1.461  1.00  0.00    -0.000 C 
BRANCH  16  17
ATOM     17  C   UNL     1     -15.473  30.989   1.397  1.00  0.00    -0.000 C 
BRANCH  17  18
ATOM     18  C   UNL     1     -15.170  30.369   2.770  1.00  0.00    -0.003 C 
ATOM     19  C   UNL     1     -16.230  29.359   3.209  1.00  0.00     0.004 C 
ENDBRANCH  17  18
ENDBRANCH  16  17
ENDBRANCH  15  16
ENDBRANCH  14  15
ENDBRANCH  13  14
ENDBRANCH  12  13
ENDBRANCH   1  12
TORSDOF 14
ENDMDL
MODEL 7
REMARK VINA RESULT:    -5.253      2.738      7.519
REMARK INTER + INTRA:         -10.846
REMARK INTER:                  -9.965
REMARK INTRA:                  -0.882
REMARK UNBOUND:                -1.293
REMARK SMILES CCCCCCCCCCCCCC[C@@H](C)C(=O)[O-]
REMARK SMILES IDX 9 1 10 2 11 3 12 4 13 5 14 6 15 7 16 8 17 9 18 10 19 11 8 12
REMARK SMILES IDX 7 13 6 14 5 15 4 16 3 17 2 18 1 19
REMARK H PARENT
REMARK Flexibility Score: inf
ROOT
ATOM      1  C   UNL     1     -16.276  28.035   1.885  1.00  0.00     0.000 C 
ENDROOT
BRANCH   1   2
ATOM      2  C   UNL     1     -16.261  28.732   3.259  1.00  0.00     0.000 C 
BRANCH   2   3
ATOM      3  C   UNL     1     -15.930  30.229   3.159  1.00  0.00     0.000 C 
BRANCH   3   4
ATOM      4  C   UNL     1     -15.385  30.622   1.775  1.00  0.00     0.000 C 
BRANCH   4   5
ATOM      5  C   UNL     1     -16.378  31.480   0.972  1.00  0.00     0.001 C 
BRANCH   5   6
ATOM      6  C   UNL     1     -16.965  30.728  -0.237  1.00  0.00     0.009 C 
BRANCH   6   7
ATOM      7  C   UNL     1     -18.145  31.480  -0.889  1.00  0.00     0.032 C 
ATOM      8  C   UNL     1     -17.823  32.958  -1.150  1.00  0.00     0.014 C 
BRANCH   7   9
ATOM      9  C   UNL     1     -18.517  30.812  -2.185  1.00  0.00     0.044 C 
ATOM     10  O   UNL     1     -18.185  31.333  -3.283  1.00  0.00    -0.550 OA
ATOM     11  O   UNL     1     -19.228  29.618  -2.180  1.00  0.00    -0.550 OA
ENDBRANCH   7   9
ENDBRANCH   6   7
ENDBRANCH   5   6
ENDBRANCH   4   5
ENDBRANCH   3   4
ENDBRANCH   2   3
ENDBRANCH   1   2
BRANCH   1  12
ATOM     12  C   UNL     1     -16.564  26.528   1.989  1.00  0.00     0.000 C 
BRANCH  12  13
ATOM     13  C   UNL     1     -16.317  25.788   0.663  1.00  0.00    -0.000 C 
BRANCH  13  14
ATOM     14  C   UNL     1     -17.579  25.705  -0.211  1.00  0.00    -0.000 C 
BRANCH  14  15
ATOM     15  C   UNL     1     -18.816  25.246   0.575  1.00  0.00    -0.000 C 
BRANCH  15  16
ATOM     16  C   UNL     1     -19.315  23.887   0.069  1.00  0.00    -0.000 C 
BRANCH  16  17
ATOM     17  C   UNL     1     -18.985  23.699  -1.419  1.00  0.00    -0.000 C 
BRANCH  17  18
ATOM     18  C   UNL     1     -19.454  22.340  -1.960  1.00  0.00    -0.003 C 
ATOM     19  C   UNL     1     -18.514  21.196  -1.578  1.00  0.00     0.004 C 
ENDBRANCH  17  18
ENDBRANCH  16  17
ENDBRANCH  15  16
ENDBRANCH  14  15
ENDBRANCH  13  14
ENDBRANCH  12  13
ENDBRANCH   1  12
TORSDOF 14
ENDMDL
MODEL 8
REMARK VINA RESULT:    -5.117      1.441      3.357
REMARK INTER + INTRA:         -10.599
REMARK INTER:                  -9.579
REMARK INTRA:                  -1.020
REMARK UNBOUND:                -1.293
REMARK SMILES CCCCCCCCCCCCCC[C@@H](C)C(=O)[O-]
REMARK SMILES IDX 9 1 10 2 11 3 12 4 13 5 14 6 15 7 16 8 17 9 18 10 19 11 8 12
REMARK SMILES IDX 7 13 6 14 5 15 4 16 3 17 2 18 1 19
REMARK H PARENT
REMARK Flexibility Score: inf
ROOT
ATOM      1  C   UNL     1     -17.836  25.729   1.255  1.00  0.00     0.000 C 
ENDROOT
BRANCH   1   2
ATOM      2  C   UNL     1     -18.701  24.704   0.498  1.00  0.00     0.000 C 
BRANCH   2   3
ATOM      3  C   UNL     1     -18.067  24.260  -0.830  1.00  0.00     0.000 C 
BRANCH   3   4
ATOM      4  C   UNL     1     -19.002  23.364  -1.660  1.00  0.00     0.000 C 
BRANCH   4   5
ATOM      5  C   UNL     1     -19.089  21.930  -1.109  1.00  0.00     0.001 C 
BRANCH   5   6
ATOM      6  C   UNL     1     -20.482  21.304  -1.311  1.00  0.00     0.009 C 
BRANCH   6   7
ATOM      7  C   UNL     1     -21.368  21.407  -0.052  1.00  0.00     0.032 C 
ATOM      8  C   UNL     1     -20.544  21.564   1.232  1.00  0.00     0.014 C 
BRANCH   7   9
ATOM      9  C   UNL     1     -22.308  22.575  -0.189  1.00  0.00     0.044 C 
ATOM     10  O   UNL     1     -23.488  22.393  -0.592  1.00  0.00    -0.550 OA
ATOM     11  O   UNL     1     -21.882  23.859   0.129  1.00  0.00    -0.550 OA
ENDBRANCH   7   9
ENDBRANCH   6   7
ENDBRANCH   5   6
ENDBRANCH   4   5
ENDBRANCH   3   4
ENDBRANCH   2   3
ENDBRANCH   1   2
BRANCH   1  12
ATOM     12  C   UNL     1     -16.697  26.295   0.392  1.00  0.00     0.000 C 
BRANCH  12  13
ATOM     13  C   UNL     1     -17.054  27.651  -0.241  1.00  0.00    -0.000 C 
BRANCH  13  14
ATOM     14  C   UNL     1     -16.205  28.805   0.316  1.00  0.00    -0.000 C 
BRANCH  14  15
ATOM     15  C   UNL     1     -16.151  28.815   1.851  1.00  0.00    -0.000 C 
BRANCH  15  16
ATOM     16  C   UNL     1     -15.788  30.209   2.378  1.00  0.00    -0.000 C 
BRANCH  16  17
ATOM     17  C   UNL     1     -15.659  31.216   1.225  1.00  0.00    -0.000 C 
BRANCH  17  18
ATOM     18  C   UNL     1     -16.690  32.353   1.317  1.00  0.00    -0.003 C 
ATOM     19  C   UNL     1     -16.743  33.205   0.050  1.00  0.00     0.004 C 
ENDBRANCH  17  18
ENDBRANCH  16  17
ENDBRANCH  15  16
ENDBRANCH  14  15
ENDBRANCH  13  14
ENDBRANCH  12  13
ENDBRANCH   1  12
TORSDOF 14
ENDMDL
MODEL 9
REMARK VINA RESULT:    -5.066      3.135      8.612
REMARK INTER + INTRA:         -10.506
REMARK INTER:                  -9.557
REMARK INTRA:                  -0.949
REMARK UNBOUND:                -1.293
REMARK SMILES CCCCCCCCCCCCCC[C@@H](C)C(=O)[O-]
REMARK SMILES IDX 9 1 10 2 11 3 12 4 13 5 14 6 15 7 16 8 17 9 18 10 19 11 8 12
REMARK SMILES IDX 7 13 6 14 5 15 4 16 3 17 2 18 1 19
REMARK H PARENT
REMARK Flexibility Score: inf
ROOT
ATOM      1  C   UNL     1     -16.651  26.048   0.912  1.00  0.00     0.000 C 
ENDROOT
BRANCH   1   2
ATOM      2  C   UNL     1     -16.228  27.096  -0.136  1.00  0.00     0.000 C 
BRANCH   2   3
ATOM      3  C   UNL     1     -16.562  28.532   0.295  1.00  0.00     0.000 C 
BRANCH   3   4
ATOM      4  C   UNL     1     -16.224  28.799   1.772  1.00  0.00     0.000 C 
BRANCH   4   5
ATOM      5  C   UNL     1     -15.779  30.250   2.023  1.00  0.00     0.001 C 
BRANCH   5   6
ATOM      6  C   UNL     1     -15.800  31.104   0.742  1.00  0.00     0.009 C 
BRANCH   6   7
ATOM      7  C   UNL     1     -16.826  32.256   0.813  1.00  0.00     0.032 C 
ATOM      8  C   UNL     1     -16.154  33.630   0.936  1.00  0.00     0.014 C 
BRANCH   7   9
ATOM      9  C   UNL     1     -17.699  32.233  -0.412  1.00  0.00     0.044 C 
ATOM     10  O   UNL     1     -18.059  33.313  -0.952  1.00  0.00    -0.550 OA
ATOM     11  O   UNL     1     -18.112  31.023  -0.957  1.00  0.00    -0.550 OA
ENDBRANCH   7   9
ENDBRANCH   6   7
ENDBRANCH   5   6
ENDBRANCH   4   5
ENDBRANCH   3   4
ENDBRANCH   2   3
ENDBRANCH   1   2
BRANCH   1  12
ATOM     12  C   UNL     1     -18.161  25.760   0.884  1.00  0.00     0.000 C 
BRANCH  12  13
ATOM     13  C   UNL     1     -18.509  24.514   0.052  1.00  0.00    -0.000 C 
BRANCH  13  14
ATOM     14  C   UNL     1     -19.965  24.061   0.248  1.00  0.00    -0.000 C 
BRANCH  14  15
ATOM     15  C   UNL     1     -20.093  22.880   1.221  1.00  0.00    -0.000 C 
BRANCH  15  16
ATOM     16  C   UNL     1     -19.760  21.556   0.524  1.00  0.00    -0.000 C 
BRANCH  16  17
ATOM     17  C   UNL     1     -20.572  21.396  -0.770  1.00  0.00    -0.000 C 
BRANCH  17  18
ATOM     18  C   UNL     1     -19.682  21.150  -1.999  1.00  0.00    -0.003 C 
ATOM     19  C   UNL     1     -18.190  21.214  -1.670  1.00  0.00     0.004 C 
ENDBRANCH  17  18
ENDBRANCH  16  17
ENDBRANCH  15  16
ENDBRANCH  14  15
ENDBRANCH  13  14
ENDBRANCH  12  13
ENDBRANCH   1  12
TORSDOF 14
ENDMDL
