MODEL 1
REMARK VINA RESULT:    -5.779      0.000      0.000
REMARK INTER + INTRA:          -5.779
REMARK INTER:                  -5.779
REMARK INTRA:                   0.000
REMARK UNBOUND:                 0.000
REMARK SMILES C[C@H]1C(=O)CC[C@H]2[C@]3(C)CC[C@@]4(C)[C@H]5CC(C)(C)CC[C@@]5(C)CC[C@]4(C)[C@@H]3CC[C@]21C
REMARK SMILES IDX 1 1 2 2 3 3 4 4 5 5 6 6 7 7 30 8 29 9 28 10 27 11 8 12 10 13
REMARK SMILES IDX 11 14 12 15 25 16 24 17 23 18 21 19 14 20 15 21 16 22 19 23
REMARK SMILES IDX 20 24 17 25 18 26 22 27 26 28 13 29 9 30 31 31
REMARK H PARENT
REMARK Flexibility Score: inf
ROOT
ATOM      1  C   UNL     1      -4.173  22.110   5.205  1.00  0.00     0.016 C 
ATOM      2  C   UNL     1      -4.714  23.463   5.727  1.00  0.00     0.059 C 
ATOM      3  C   UNL     1      -5.920  23.906   4.973  1.00  0.00     0.136 C 
ATOM      4  O   UNL     1      -6.595  23.145   4.293  1.00  0.00    -0.299 OA
ATOM      5  C   UNL     1      -6.322  25.311   5.183  1.00  0.00     0.076 C 
ATOM      6  C   UNL     1      -6.750  25.441   6.632  1.00  0.00     0.012 C 
ATOM      7  C   UNL     1      -5.719  24.925   7.722  1.00  0.00     0.002 C 
ATOM      8  C   UNL     1      -4.916  23.604   7.301  1.00  0.00    -0.020 C 
ATOM      9  C   UNL     1      -5.619  22.348   7.911  1.00  0.00     0.008 C 
ATOM     10  C   UNL     1      -7.126  22.500   8.227  1.00  0.00     0.005 C 
ATOM     11  C   UNL     1      -7.560  23.710   9.143  1.00  0.00     0.002 C 
ATOM     12  C   UNL     1      -6.461  24.857   9.156  1.00  0.00    -0.026 C 
ATOM     13  C   UNL     1      -5.501  24.584  10.361  1.00  0.00     0.008 C 
ATOM     14  C   UNL     1      -6.213  24.388  11.726  1.00  0.00     0.008 C 
ATOM     15  C   UNL     1      -7.215  23.183  11.747  1.00  0.00    -0.024 C 
ATOM     16  C   UNL     1      -8.258  23.379  10.569  1.00  0.00    -0.024 C 
ATOM     17  C   UNL     1      -9.139  22.096  10.512  1.00  0.00     0.008 C 
ATOM     18  C   UNL     1      -9.982  21.864  11.779  1.00  0.00     0.007 C 
ATOM     19  C   UNL     1      -9.244  22.034  13.165  1.00  0.00    -0.029 C 
ATOM     20  C   UNL     1      -7.943  22.989  13.165  1.00  0.00     0.002 C 
ATOM     21  C   UNL     1      -8.138  24.298  14.002  1.00  0.00     0.011 C 
ATOM     22  C   UNL     1      -8.651  24.058  15.460  1.00  0.00    -0.035 C 
ATOM     23  C   UNL     1      -9.716  22.923  15.532  1.00  0.00     0.007 C 
ATOM     24  C   UNL     1     -10.311  22.593  14.162  1.00  0.00     0.007 C 
ATOM     25  C   UNL     1      -7.465  23.700  16.387  1.00  0.00     0.011 C 
ATOM     26  C   UNL     1      -9.273  25.376  15.976  1.00  0.00     0.011 C 
ATOM     27  C   UNL     1      -8.866  20.600  13.657  1.00  0.00     0.011 C 
ATOM     28  C   UNL     1      -9.249  24.567  10.867  1.00  0.00     0.012 C 
ATOM     29  C   UNL     1      -6.345  21.895  11.559  1.00  0.00     0.012 C 
ATOM     30  C   UNL     1      -7.070  26.290   9.376  1.00  0.00     0.012 C 
ATOM     31  C   UNL     1      -3.455  23.697   7.866  1.00  0.00     0.012 C 
ENDROOT
TORSDOF 0
ENDMDL
MODEL 2
REMARK VINA RESULT:    -5.501      2.470      7.690
REMARK INTER + INTRA:          -5.501
REMARK INTER:                  -5.501
REMARK INTRA:                   0.000
REMARK UNBOUND:                 0.000
REMARK SMILES C[C@H]1C(=O)CC[C@H]2[C@]3(C)CC[C@@]4(C)[C@H]5CC(C)(C)CC[C@@]5(C)CC[C@]4(C)[C@@H]3CC[C@]21C
REMARK SMILES IDX 1 1 2 2 3 3 4 4 5 5 6 6 7 7 30 8 29 9 28 10 27 11 8 12 10 13
REMARK SMILES IDX 11 14 12 15 25 16 24 17 23 18 21 19 14 20 15 21 16 22 19 23
REMARK SMILES IDX 20 24 17 25 18 26 22 27 26 28 13 29 9 30 31 31
REMARK H PARENT
REMARK Flexibility Score: inf
ROOT
ATOM      1  C   UNL     1      -9.734  19.875  13.640  1.00  0.00     0.016 C 
ATOM      2  C   UNL     1      -9.935  21.398  13.458  1.00  0.00     0.059 C 
ATOM      3  C   UNL     1      -9.405  22.170  14.616  1.00  0.00     0.136 C 
ATOM      4  O   UNL     1      -8.608  21.703  15.417  1.00  0.00    -0.299 OA
ATOM      5  C   UNL     1      -9.820  23.585  14.681  1.00  0.00     0.076 C 
ATOM      6  C   UNL     1      -9.205  24.287  13.486  1.00  0.00     0.012 C 
ATOM      7  C   UNL     1      -9.475  23.631  12.067  1.00  0.00     0.002 C 
ATOM      8  C   UNL     1      -9.476  22.028  12.068  1.00  0.00    -0.020 C 
ATOM      9  C   UNL     1      -8.070  21.504  11.629  1.00  0.00     0.008 C 
ATOM     10  C   UNL     1      -6.882  22.467  11.865  1.00  0.00     0.005 C 
ATOM     11  C   UNL     1      -6.994  23.923  11.265  1.00  0.00     0.002 C 
ATOM     12  C   UNL     1      -8.504  24.322  10.975  1.00  0.00    -0.026 C 
ATOM     13  C   UNL     1      -8.824  23.932   9.495  1.00  0.00     0.008 C 
ATOM     14  C   UNL     1      -7.822  24.484   8.447  1.00  0.00     0.008 C 
ATOM     15  C   UNL     1      -6.348  23.997   8.666  1.00  0.00    -0.024 C 
ATOM     16  C   UNL     1      -5.912  24.373  10.144  1.00  0.00    -0.024 C 
ATOM     17  C   UNL     1      -4.509  23.741  10.387  1.00  0.00     0.008 C 
ATOM     18  C   UNL     1      -3.407  24.304   9.472  1.00  0.00     0.007 C 
ATOM     19  C   UNL     1      -3.755  24.438   7.938  1.00  0.00    -0.029 C 
ATOM     20  C   UNL     1      -5.323  24.573   7.574  1.00  0.00     0.002 C 
ATOM     21  C   UNL     1      -5.697  25.970   6.974  1.00  0.00     0.011 C 
ATOM     22  C   UNL     1      -4.806  26.411   5.766  1.00  0.00    -0.035 C 
ATOM     23  C   UNL     1      -3.309  26.027   5.966  1.00  0.00     0.007 C 
ATOM     24  C   UNL     1      -2.981  25.694   7.422  1.00  0.00     0.007 C 
ATOM     25  C   UNL     1      -5.326  25.765   4.460  1.00  0.00     0.011 C 
ATOM     26  C   UNL     1      -4.924  27.945   5.614  1.00  0.00     0.011 C 
ATOM     27  C   UNL     1      -3.137  23.194   7.222  1.00  0.00     0.011 C 
ATOM     28  C   UNL     1      -5.718  25.928  10.310  1.00  0.00     0.012 C 
ATOM     29  C   UNL     1      -6.366  22.450   8.429  1.00  0.00     0.012 C 
ATOM     30  C   UNL     1      -8.767  25.866  11.106  1.00  0.00     0.012 C 
ATOM     31  C   UNL     1     -10.553  21.521  11.045  1.00  0.00     0.012 C 
ENDROOT
TORSDOF 0
ENDMDL
MODEL 3
REMARK VINA RESULT:    -5.416      1.590      2.822
REMARK INTER + INTRA:          -5.416
REMARK INTER:                  -5.416
REMARK INTRA:                   0.000
REMARK UNBOUND:                 0.000
REMARK SMILES C[C@H]1C(=O)CC[C@H]2[C@]3(C)CC[C@@]4(C)[C@H]5CC(C)(C)CC[C@@]5(C)CC[C@]4(C)[C@@H]3CC[C@]21C
REMARK SMILES IDX 1 1 2 2 3 3 4 4 5 5 6 6 7 7 30 8 29 9 28 10 27 11 8 12 10 13
REMARK SMILES IDX 11 14 12 15 25 16 24 17 23 18 21 19 14 20 15 21 16 22 19 23
REMARK SMILES IDX 20 24 17 25 18 26 22 27 26 28 13 29 9 30 31 31
REMARK H PARENT
REMARK Flexibility Score: inf
ROOT
ATOM      1  C   UNL     1      -2.981  25.142   7.003  1.00  0.00     0.016 C 
ATOM      2  C   UNL     1      -4.379  24.617   6.600  1.00  0.00     0.059 C 
ATOM      3  C   UNL     1      -4.322  23.218   6.095  1.00  0.00     0.136 C 
ATOM      4  O   UNL     1      -3.376  22.473   6.308  1.00  0.00    -0.299 OA
ATOM      5  C   UNL     1      -5.536  22.740   5.403  1.00  0.00     0.076 C 
ATOM      6  C   UNL     1      -6.647  22.691   6.434  1.00  0.00     0.012 C 
ATOM      7  C   UNL     1      -6.895  24.019   7.267  1.00  0.00     0.002 C 
ATOM      8  C   UNL     1      -5.560  24.818   7.651  1.00  0.00    -0.020 C 
ATOM      9  C   UNL     1      -5.118  24.433   9.100  1.00  0.00     0.008 C 
ATOM     10  C   UNL     1      -5.595  23.053   9.612  1.00  0.00     0.005 C 
ATOM     11  C   UNL     1      -7.143  22.747   9.549  1.00  0.00     0.002 C 
ATOM     12  C   UNL     1      -7.882  23.686   8.503  1.00  0.00    -0.026 C 
ATOM     13  C   UNL     1      -8.392  24.948   9.272  1.00  0.00     0.008 C 
ATOM     14  C   UNL     1      -9.236  24.640  10.538  1.00  0.00     0.008 C 
ATOM     15  C   UNL     1      -8.467  23.810  11.622  1.00  0.00    -0.024 C 
ATOM     16  C   UNL     1      -7.927  22.482  10.944  1.00  0.00    -0.024 C 
ATOM     17  C   UNL     1      -7.036  21.755  11.995  1.00  0.00     0.008 C 
ATOM     18  C   UNL     1      -7.801  21.300  13.250  1.00  0.00     0.007 C 
ATOM     19  C   UNL     1      -8.781  22.350  13.906  1.00  0.00    -0.029 C 
ATOM     20  C   UNL     1      -9.350  23.500  12.926  1.00  0.00     0.002 C 
ATOM     21  C   UNL     1     -10.893  23.393  12.681  1.00  0.00     0.011 C 
ATOM     22  C   UNL     1     -11.746  23.304  13.989  1.00  0.00    -0.035 C 
ATOM     23  C   UNL     1     -11.069  22.420  15.077  1.00  0.00     0.007 C 
ATOM     24  C   UNL     1      -9.969  21.527  14.502  1.00  0.00     0.007 C 
ATOM     25  C   UNL     1     -11.986  24.721  14.563  1.00  0.00     0.011 C 
ATOM     26  C   UNL     1     -13.124  22.704  13.625  1.00  0.00     0.011 C 
ATOM     27  C   UNL     1      -8.019  22.991  15.111  1.00  0.00     0.011 C 
ATOM     28  C   UNL     1      -9.101  21.484  10.613  1.00  0.00     0.012 C 
ATOM     29  C   UNL     1      -7.307  24.731  12.127  1.00  0.00     0.012 C 
ATOM     30  C   UNL     1      -9.144  23.008   7.854  1.00  0.00     0.012 C 
ATOM     31  C   UNL     1      -5.859  26.358   7.600  1.00  0.00     0.012 C 
ENDROOT
TORSDOF 0
ENDMDL
MODEL 4
REMARK VINA RESULT:    -5.397      2.613      7.692
REMARK INTER + INTRA:          -5.397
REMARK INTER:                  -5.397
REMARK INTRA:                   0.000
REMARK UNBOUND:                 0.000
REMARK SMILES C[C@H]1C(=O)CC[C@H]2[C@]3(C)CC[C@@]4(C)[C@H]5CC(C)(C)CC[C@@]5(C)CC[C@]4(C)[C@@H]3CC[C@]21C
REMARK SMILES IDX 1 1 2 2 3 3 4 4 5 5 6 6 7 7 30 8 29 9 28 10 27 11 8 12 10 13
REMARK SMILES IDX 11 14 12 15 25 16 24 17 23 18 21 19 14 20 15 21 16 22 19 23
REMARK SMILES IDX 20 24 17 25 18 26 22 27 26 28 13 29 9 30 31 31
REMARK H PARENT
REMARK Flexibility Score: inf
ROOT
ATOM      1  C   UNL     1      -9.191  21.998  15.509  1.00  0.00     0.016 C 
ATOM      2  C   UNL     1      -9.733  21.984  14.059  1.00  0.00     0.059 C 
ATOM      3  C   UNL     1     -10.826  22.977  13.866  1.00  0.00     0.136 C 
ATOM      4  O   UNL     1     -11.016  23.912  14.632  1.00  0.00    -0.299 OA
ATOM      5  C   UNL     1     -11.609  22.829  12.624  1.00  0.00     0.076 C 
ATOM      6  C   UNL     1     -10.671  23.116  11.468  1.00  0.00     0.012 C 
ATOM      7  C   UNL     1      -9.313  22.296  11.441  1.00  0.00     0.002 C 
ATOM      8  C   UNL     1      -8.660  22.050  12.884  1.00  0.00    -0.020 C 
ATOM      9  C   UNL     1      -7.568  23.135  13.156  1.00  0.00     0.008 C 
ATOM     10  C   UNL     1      -7.727  24.467  12.385  1.00  0.00     0.005 C 
ATOM     11  C   UNL     1      -7.859  24.389  10.813  1.00  0.00     0.002 C 
ATOM     12  C   UNL     1      -8.328  22.948  10.337  1.00  0.00    -0.026 C 
ATOM     13  C   UNL     1      -7.046  22.101  10.045  1.00  0.00     0.008 C 
ATOM     14  C   UNL     1      -6.029  22.775   9.085  1.00  0.00     0.008 C 
ATOM     15  C   UNL     1      -5.478  24.145   9.609  1.00  0.00    -0.024 C 
ATOM     16  C   UNL     1      -6.711  25.096   9.912  1.00  0.00    -0.024 C 
ATOM     17  C   UNL     1      -6.147  26.386  10.579  1.00  0.00     0.008 C 
ATOM     18  C   UNL     1      -5.210  27.198   9.666  1.00  0.00     0.007 C 
ATOM     19  C   UNL     1      -4.107  26.389   8.879  1.00  0.00    -0.029 C 
ATOM     20  C   UNL     1      -4.427  24.830   8.608  1.00  0.00     0.002 C 
ATOM     21  C   UNL     1      -4.631  24.497   7.092  1.00  0.00     0.011 C 
ATOM     22  C   UNL     1      -3.476  24.997   6.163  1.00  0.00    -0.035 C 
ATOM     23  C   UNL     1      -2.942  26.398   6.587  1.00  0.00     0.007 C 
ATOM     24  C   UNL     1      -3.907  27.133   7.519  1.00  0.00     0.007 C 
ATOM     25  C   UNL     1      -2.306  23.983   6.178  1.00  0.00     0.011 C 
ATOM     26  C   UNL     1      -4.018  25.071   4.717  1.00  0.00     0.011 C 
ATOM     27  C   UNL     1      -2.774  26.538   9.682  1.00  0.00     0.011 C 
ATOM     28  C   UNL     1      -7.414  25.570   8.585  1.00  0.00     0.012 C 
ATOM     29  C   UNL     1      -4.655  23.814  10.898  1.00  0.00     0.012 C 
ATOM     30  C   UNL     1      -9.164  22.982   9.006  1.00  0.00     0.012 C 
ATOM     31  C   UNL     1      -7.988  20.632  12.901  1.00  0.00     0.012 C 
ENDROOT
TORSDOF 0
ENDMDL
MODEL 5
REMARK VINA RESULT:    -5.362      1.502      2.976
REMARK INTER + INTRA:          -5.362
REMARK INTER:                  -5.362
REMARK INTRA:                   0.000
REMARK UNBOUND:                 0.000
REMARK SMILES C[C@H]1C(=O)CC[C@H]2[C@]3(C)CC[C@@]4(C)[C@H]5CC(C)(C)CC[C@@]5(C)CC[C@]4(C)[C@@H]3CC[C@]21C
REMARK SMILES IDX 1 1 2 2 3 3 4 4 5 5 6 6 7 7 30 8 29 9 28 10 27 11 8 12 10 13
REMARK SMILES IDX 11 14 12 15 25 16 24 17 23 18 21 19 14 20 15 21 16 22 19 23
REMARK SMILES IDX 20 24 17 25 18 26 22 27 26 28 13 29 9 30 31 31
REMARK H PARENT
REMARK Flexibility Score: inf
ROOT
ATOM      1  C   UNL     1      -6.004  23.868   4.335  1.00  0.00     0.016 C 
ATOM      2  C   UNL     1      -5.002  23.715   5.504  1.00  0.00     0.059 C 
ATOM      3  C   UNL     1      -4.079  24.881   5.599  1.00  0.00     0.136 C 
ATOM      4  O   UNL     1      -4.313  25.957   5.068  1.00  0.00    -0.299 OA
ATOM      5  C   UNL     1      -2.903  24.692   6.471  1.00  0.00     0.076 C 
ATOM      6  C   UNL     1      -3.418  24.541   7.889  1.00  0.00     0.012 C 
ATOM      7  C   UNL     1      -4.538  23.441   8.119  1.00  0.00     0.002 C 
ATOM      8  C   UNL     1      -5.601  23.319   6.926  1.00  0.00    -0.020 C 
ATOM      9  C   UNL     1      -6.875  24.155   7.273  1.00  0.00     0.008 C 
ATOM     10  C   UNL     1      -6.671  25.325   8.264  1.00  0.00     0.005 C 
ATOM     11  C   UNL     1      -5.995  24.995   9.652  1.00  0.00     0.002 C 
ATOM     12  C   UNL     1      -5.171  23.638   9.593  1.00  0.00    -0.026 C 
ATOM     13  C   UNL     1      -6.125  22.481  10.039  1.00  0.00     0.008 C 
ATOM     14  C   UNL     1      -6.841  22.718  11.396  1.00  0.00     0.008 C 
ATOM     15  C   UNL     1      -7.746  23.997  11.417  1.00  0.00    -0.024 C 
ATOM     16  C   UNL     1      -6.858  25.244  11.002  1.00  0.00    -0.024 C 
ATOM     17  C   UNL     1      -7.812  26.470  10.877  1.00  0.00     0.008 C 
ATOM     18  C   UNL     1      -8.492  26.865  12.200  1.00  0.00     0.007 C 
ATOM     19  C   UNL     1      -9.115  25.695  13.057  1.00  0.00    -0.029 C 
ATOM     20  C   UNL     1      -8.482  24.228  12.825  1.00  0.00     0.002 C 
ATOM     21  C   UNL     1      -7.719  23.681  14.078  1.00  0.00     0.011 C 
ATOM     22  C   UNL     1      -8.547  23.726  15.404  1.00  0.00    -0.035 C 
ATOM     23  C   UNL     1      -9.406  25.020  15.521  1.00  0.00     0.007 C 
ATOM     24  C   UNL     1      -8.949  26.113  14.554  1.00  0.00     0.007 C 
ATOM     25  C   UNL     1      -9.476  22.491  15.492  1.00  0.00     0.011 C 
ATOM     26  C   UNL     1      -7.559  23.658  16.592  1.00  0.00     0.011 C 
ATOM     27  C   UNL     1     -10.649  25.679  12.755  1.00  0.00     0.011 C 
ATOM     28  C   UNL     1      -5.824  25.617  12.131  1.00  0.00     0.012 C 
ATOM     29  C   UNL     1      -8.901  23.725  10.396  1.00  0.00     0.012 C 
ATOM     30  C   UNL     1      -3.945  23.620  10.576  1.00  0.00     0.012 C 
ATOM     31  C   UNL     1      -6.007  21.812   6.762  1.00  0.00     0.012 C 
ENDROOT
TORSDOF 0
ENDMDL
MODEL 6
REMARK VINA RESULT:    -5.313      2.174      3.273
REMARK INTER + INTRA:          -5.313
REMARK INTER:                  -5.313
REMARK INTRA:                   0.000
REMARK UNBOUND:                 0.000
REMARK SMILES C[C@H]1C(=O)CC[C@H]2[C@]3(C)CC[C@@]4(C)[C@H]5CC(C)(C)CC[C@@]5(C)CC[C@]4(C)[C@@H]3CC[C@]21C
REMARK SMILES IDX 1 1 2 2 3 3 4 4 5 5 6 6 7 7 30 8 29 9 28 10 27 11 8 12 10 13
REMARK SMILES IDX 11 14 12 15 25 16 24 17 23 18 21 19 14 20 15 21 16 22 19 23
REMARK SMILES IDX 20 24 17 25 18 26 22 27 26 28 13 29 9 30 31 31
REMARK H PARENT
REMARK Flexibility Score: inf
ROOT
ATOM      1  C   UNL     1      -3.293  26.079   5.054  1.00  0.00     0.016 C 
ATOM      2  C   UNL     1      -3.017  26.290   6.562  1.00  0.00     0.059 C 
ATOM      3  C   UNL     1      -3.248  27.701   6.977  1.00  0.00     0.136 C 
ATOM      4  O   UNL     1      -3.907  28.489   6.312  1.00  0.00    -0.299 OA
ATOM      5  C   UNL     1      -2.721  28.069   8.306  1.00  0.00     0.076 C 
ATOM      6  C   UNL     1      -3.503  27.273   9.332  1.00  0.00     0.012 C 
ATOM      7  C   UNL     1      -3.567  25.703   9.108  1.00  0.00     0.002 C 
ATOM      8  C   UNL     1      -3.689  25.258   7.573  1.00  0.00    -0.020 C 
ATOM      9  C   UNL     1      -5.189  24.996   7.222  1.00  0.00     0.008 C 
ATOM     10  C   UNL     1      -6.231  25.734   8.096  1.00  0.00     0.005 C 
ATOM     11  C   UNL     1      -6.128  25.553   9.662  1.00  0.00     0.002 C 
ATOM     12  C   UNL     1      -4.678  25.076  10.101  1.00  0.00    -0.026 C 
ATOM     13  C   UNL     1      -4.684  23.513  10.148  1.00  0.00     0.008 C 
ATOM     14  C   UNL     1      -5.827  22.894  10.996  1.00  0.00     0.008 C 
ATOM     15  C   UNL     1      -7.262  23.272  10.493  1.00  0.00    -0.024 C 
ATOM     16  C   UNL     1      -7.370  24.854  10.434  1.00  0.00    -0.024 C 
ATOM     17  C   UNL     1      -8.743  25.200   9.783  1.00  0.00     0.008 C 
ATOM     18  C   UNL     1      -9.956  24.730  10.605  1.00  0.00     0.007 C 
ATOM     19  C   UNL     1      -9.906  23.256  11.169  1.00  0.00    -0.029 C 
ATOM     20  C   UNL     1      -8.435  22.624  11.376  1.00  0.00     0.002 C 
ATOM     21  C   UNL     1      -8.079  22.372  12.880  1.00  0.00     0.011 C 
ATOM     22  C   UNL     1      -9.153  21.549  13.665  1.00  0.00    -0.035 C 
ATOM     23  C   UNL     1     -10.607  21.943  13.266  1.00  0.00     0.007 C 
ATOM     24  C   UNL     1     -10.668  23.284  12.534  1.00  0.00     0.007 C 
ATOM     25  C   UNL     1      -8.950  20.036  13.414  1.00  0.00     0.011 C 
ATOM     26  C   UNL     1      -8.950  21.809  15.176  1.00  0.00     0.011 C 
ATOM     27  C   UNL     1     -10.746  22.368  10.195  1.00  0.00     0.011 C 
ATOM     28  C   UNL     1      -7.409  25.483  11.878  1.00  0.00     0.012 C 
ATOM     29  C   UNL     1      -7.410  22.616   9.079  1.00  0.00     0.012 C 
ATOM     30  C   UNL     1      -4.277  25.573  11.538  1.00  0.00     0.012 C 
ATOM     31  C   UNL     1      -2.875  23.933   7.364  1.00  0.00     0.012 C 
ENDROOT
TORSDOF 0
ENDMDL
MODEL 7
REMARK VINA RESULT:    -5.306      2.456      7.855
REMARK INTER + INTRA:          -5.306
REMARK INTER:                  -5.306
REMARK INTRA:                   0.000
REMARK UNBOUND:                 0.000
REMARK SMILES C[C@H]1C(=O)CC[C@H]2[C@]3(C)CC[C@@]4(C)[C@H]5CC(C)(C)CC[C@@]5(C)CC[C@]4(C)[C@@H]3CC[C@]21C
REMARK SMILES IDX 1 1 2 2 3 3 4 4 5 5 6 6 7 7 30 8 29 9 28 10 27 11 8 12 10 13
REMARK SMILES IDX 11 14 12 15 25 16 24 17 23 18 21 19 14 20 15 21 16 22 19 23
REMARK SMILES IDX 20 24 17 25 18 26 22 27 26 28 13 29 9 30 31 31
REMARK H PARENT
REMARK Flexibility Score: inf
ROOT
ATOM      1  C   UNL     1      -8.633  23.486  16.061  1.00  0.00     0.016 C 
ATOM      2  C   UNL     1      -9.482  23.283  14.784  1.00  0.00     0.059 C 
ATOM      3  C   UNL     1     -10.411  24.423  14.548  1.00  0.00     0.136 C 
ATOM      4  O   UNL     1     -10.266  25.517  15.075  1.00  0.00    -0.299 OA
ATOM      5  C   UNL     1     -11.467  24.186  13.544  1.00  0.00     0.076 C 
ATOM      6  C   UNL     1     -10.780  24.015  12.204  1.00  0.00     0.012 C 
ATOM      7  C   UNL     1      -9.617  22.937  12.139  1.00  0.00     0.002 C 
ATOM      8  C   UNL     1      -8.705  22.868  13.456  1.00  0.00    -0.020 C 
ATOM      9  C   UNL     1      -7.416  23.727  13.245  1.00  0.00     0.008 C 
ATOM     10  C   UNL     1      -7.523  24.869  12.207  1.00  0.00     0.005 C 
ATOM     11  C   UNL     1      -8.017  24.491  10.755  1.00  0.00     0.002 C 
ATOM     12  C   UNL     1      -8.812  23.115  10.749  1.00  0.00    -0.026 C 
ATOM     13  C   UNL     1      -7.787  21.973  10.452  1.00  0.00     0.008 C 
ATOM     14  C   UNL     1      -6.916  22.195   9.187  1.00  0.00     0.008 C 
ATOM     15  C   UNL     1      -6.042  23.495   9.243  1.00  0.00    -0.024 C 
ATOM     16  C   UNL     1      -7.001  24.729   9.515  1.00  0.00    -0.024 C 
ATOM     17  C   UNL     1      -6.096  25.980   9.723  1.00  0.00     0.008 C 
ATOM     18  C   UNL     1      -5.268  26.361   8.483  1.00  0.00     0.007 C 
ATOM     19  C   UNL     1      -4.519  25.188   7.739  1.00  0.00    -0.029 C 
ATOM     20  C   UNL     1      -5.145  23.712   7.930  1.00  0.00     0.002 C 
ATOM     21  C   UNL     1      -5.738  23.118   6.608  1.00  0.00     0.011 C 
ATOM     22  C   UNL     1      -4.755  23.152   5.391  1.00  0.00    -0.035 C 
ATOM     23  C   UNL     1      -3.916  24.464   5.346  1.00  0.00     0.007 C 
ATOM     24  C   UNL     1      -4.511  25.567   6.222  1.00  0.00     0.007 C 
ATOM     25  C   UNL     1      -3.797  21.939   5.449  1.00  0.00     0.011 C 
ATOM     26  C   UNL     1      -5.589  23.034   4.094  1.00  0.00     0.011 C 
ATOM     27  C   UNL     1      -3.034  25.215   8.225  1.00  0.00     0.011 C 
ATOM     28  C   UNL     1      -7.897  25.052   8.260  1.00  0.00     0.012 C 
ATOM     29  C   UNL     1      -5.016  23.275  10.404  1.00  0.00     0.012 C 
ATOM     30  C   UNL     1      -9.909  23.046   9.624  1.00  0.00     0.012 C 
ATOM     31  C   UNL     1      -8.290  21.375  13.707  1.00  0.00     0.012 C 
ENDROOT
TORSDOF 0
ENDMDL
MODEL 8
REMARK VINA RESULT:    -5.090      2.474      4.765
REMARK INTER + INTRA:          -5.090
REMARK INTER:                  -5.090
REMARK INTRA:                   0.000
REMARK UNBOUND:                 0.000
REMARK SMILES C[C@H]1C(=O)CC[C@H]2[C@]3(C)CC[C@@]4(C)[C@H]5CC(C)(C)CC[C@@]5(C)CC[C@]4(C)[C@@H]3CC[C@]21C
REMARK SMILES IDX 1 1 2 2 3 3 4 4 5 5 6 6 7 7 30 8 29 9 28 10 27 11 8 12 10 13
REMARK SMILES IDX 11 14 12 15 25 16 24 17 23 18 21 19 14 20 15 21 16 22 19 23
REMARK SMILES IDX 20 24 17 25 18 26 22 27 26 28 13 29 9 30 31 31
REMARK H PARENT
REMARK Flexibility Score: inf
ROOT
ATOM      1  C   UNL     1     -11.665  21.651   7.787  1.00  0.00     0.016 C 
ATOM      2  C   UNL     1     -10.191  21.528   8.242  1.00  0.00     0.059 C 
ATOM      3  C   UNL     1      -9.281  22.358   7.405  1.00  0.00     0.136 C 
ATOM      4  O   UNL     1      -9.679  23.277   6.702  1.00  0.00    -0.299 OA
ATOM      5  C   UNL     1      -7.841  22.074   7.557  1.00  0.00     0.076 C 
ATOM      6  C   UNL     1      -7.456  22.459   8.972  1.00  0.00     0.012 C 
ATOM      7  C   UNL     1      -8.334  21.832  10.136  1.00  0.00     0.002 C 
ATOM      8  C   UNL     1      -9.896  21.712   9.797  1.00  0.00    -0.020 C 
ATOM      9  C   UNL     1     -10.656  22.942  10.391  1.00  0.00     0.008 C 
ATOM     10  C   UNL     1      -9.813  24.221  10.608  1.00  0.00     0.005 C 
ATOM     11  C   UNL     1      -8.494  24.088  11.467  1.00  0.00     0.002 C 
ATOM     12  C   UNL     1      -7.982  22.585  11.523  1.00  0.00    -0.026 C 
ATOM     13  C   UNL     1      -8.606  21.916  12.791  1.00  0.00     0.008 C 
ATOM     14  C   UNL     1      -8.385  22.698  14.112  1.00  0.00     0.008 C 
ATOM     15  C   UNL     1      -8.992  24.143  14.099  1.00  0.00    -0.024 C 
ATOM     16  C   UNL     1      -8.396  24.924  12.853  1.00  0.00    -0.024 C 
ATOM     17  C   UNL     1      -9.132  26.294  12.772  1.00  0.00     0.008 C 
ATOM     18  C   UNL     1      -8.888  27.204  13.988  1.00  0.00     0.007 C 
ATOM     19  C   UNL     1      -9.007  26.535  15.413  1.00  0.00    -0.029 C 
ATOM     20  C   UNL     1      -8.759  24.941  15.472  1.00  0.00     0.002 C 
ATOM     21  C   UNL     1      -7.467  24.547  16.265  1.00  0.00     0.011 C 
ATOM     22  C   UNL     1      -7.373  25.178  17.693  1.00  0.00    -0.035 C 
ATOM     23  C   UNL     1      -7.886  26.648  17.724  1.00  0.00     0.007 C 
ATOM     24  C   UNL     1      -7.972  27.266  16.328  1.00  0.00     0.007 C 
ATOM     25  C   UNL     1      -8.189  24.334  18.701  1.00  0.00     0.011 C 
ATOM     26  C   UNL     1      -5.892  25.143  18.138  1.00  0.00     0.011 C 
ATOM     27  C   UNL     1     -10.429  26.884  15.961  1.00  0.00     0.011 C 
ATOM     28  C   UNL     1      -6.873  25.265  13.062  1.00  0.00     0.012 C 
ATOM     29  C   UNL     1     -10.543  23.958  13.996  1.00  0.00     0.012 C 
ATOM     30  C   UNL     1      -6.421  22.473  11.670  1.00  0.00     0.012 C 
ATOM     31  C   UNL     1     -10.457  20.400  10.450  1.00  0.00     0.012 C 
ENDROOT
TORSDOF 0
ENDMDL
