MODEL 1
REMARK VINA RESULT:    -7.481      0.000      0.000
REMARK INTER + INTRA:         -13.748
REMARK INTER:                 -11.855
REMARK INTRA:                  -1.893
REMARK UNBOUND:                -1.893
REMARK SMILES C[C@@H]1O[C@H](O[C@H]2[C@H](Oc3cc(O)c4c(c3)O[C@H](c3ccc(O)cc3)CC4=O)O[C@H](CO)[C@H](O)[C@@H]2O)[C@H](O)[C@H](O)[C@H]1O
REMARK SMILES IDX 6 1 34 2 32 3 29 4 28 5 7 6 5 7 4 8 1 9 2 10 40 11 3 12
REMARK SMILES IDX 38 13 36 14 41 15 39 17 37 19 35 21 8 23 9 24 10 25 15 26
REMARK SMILES IDX 11 27 14 28 13 29 16 30 26 31 17 32 27 33 25 34 12 35 18 37
REMARK SMILES IDX 19 38 24 39 20 40 23 41 21 42 22 43 33 45 30 47 31 48
REMARK H PARENT 41 16 39 18 37 20 35 22 12 36 22 44 33 46 31 49
REMARK Flexibility Score: inf
ROOT
ATOM      1  C   UNL     1       3.595  -3.898   7.103  1.00  0.00     0.221 C 
ATOM      2  C   UNL     1       4.272  -4.774   8.169  1.00  0.00     0.181 C 
ATOM      3  C   UNL     1       5.029  -3.869   9.149  1.00  0.00     0.177 C 
ATOM      4  C   UNL     1       6.031  -2.969   8.397  1.00  0.00     0.179 C 
ATOM      5  O   UNL     1       5.407  -2.206   7.366  1.00  0.00    -0.332 OA
ATOM      6  C   UNL     1       4.608  -2.957   6.444  1.00  0.00     0.339 C 
ENDROOT
BRANCH   1   7
ATOM      7  O   UNL     1       2.499  -3.194   7.691  1.00  0.00    -0.337 OA
BRANCH   7   8
ATOM      8  C   UNL     1       2.620  -1.774   7.658  1.00  0.00     0.282 C 
ATOM      9  C   UNL     1       0.970   0.564   5.329  1.00  0.00     0.041 C 
ATOM     10  C   UNL     1       1.443   0.040   6.687  1.00  0.00     0.150 C 
ATOM     11  C   UNL     1       0.275  -0.029   7.699  1.00  0.00     0.174 C 
ATOM     12  O   UNL     1       1.990  -1.243   6.488  1.00  0.00    -0.344 OA
ATOM     13  C   UNL     1       0.715  -0.640   9.057  1.00  0.00     0.179 C 
ATOM     14  C   UNL     1       2.198  -1.112   9.009  1.00  0.00     0.202 C 
BRANCH  11  15
ATOM     15  O   UNL     1      -0.237   1.262   7.898  1.00  0.00    -0.388 OA
ATOM     16  H   UNL     1      -0.818   1.210   8.703  1.00  0.00     0.211 HD
ENDBRANCH  11  15
BRANCH  13  17
ATOM     17  O   UNL     1      -0.135  -1.696   9.443  1.00  0.00    -0.387 OA
ATOM     18  H   UNL     1      -0.509  -1.464  10.335  1.00  0.00     0.211 HD
ENDBRANCH  13  17
BRANCH  14  19
ATOM     19  O   UNL     1       2.585  -1.874  10.125  1.00  0.00    -0.385 OA
ATOM     20  H   UNL     1       3.575  -1.959  10.119  1.00  0.00     0.211 HD
ENDBRANCH  14  19
ENDBRANCH   7   8
ENDBRANCH   1   7
BRANCH   2  21
ATOM     21  O   UNL     1       5.112  -5.699   7.530  1.00  0.00    -0.387 OA
ATOM     22  H   UNL     1       4.542  -6.348   7.020  1.00  0.00     0.211 HD
ENDBRANCH   2  21
BRANCH   6  23
ATOM     23  O   UNL     1       5.432  -3.708   5.559  1.00  0.00    -0.462 OA
BRANCH  23  24
ATOM     24  C   UNL     1       6.145  -3.161   4.488  1.00  0.00     0.130 A 
ATOM     25  C   UNL     1       5.471  -2.528   3.441  1.00  0.00     0.093 A 
ATOM     26  C   UNL     1       7.534  -3.062   4.566  1.00  0.00     0.094 A 
ATOM     27  C   UNL     1       6.125  -1.620   2.602  1.00  0.00     0.133 A 
ATOM     28  C   UNL     1       8.220  -2.198   3.714  1.00  0.00     0.138 A 
ATOM     29  C   UNL     1       7.522  -1.407   2.782  1.00  0.00     0.102 A 
ATOM     30  O   UNL     1       9.598  -2.017   3.857  1.00  0.00    -0.484 OA
ATOM     31  C   UNL     1       8.313  -0.339   2.096  1.00  0.00     0.174 C 
ATOM     32  C   UNL     1      10.125  -0.693   3.879  1.00  0.00     0.211 C 
ATOM     33  O   UNL     1       7.866   0.252   1.077  1.00  0.00    -0.294 OA
ATOM     34  C   UNL     1       9.673   0.085   2.611  1.00  0.00     0.131 C 
BRANCH  27  35
ATOM     35  O   UNL     1       5.341  -0.922   1.669  1.00  0.00    -0.507 OA
ATOM     36  H   UNL     1       4.543  -1.325   1.206  1.00  0.00     0.293 HD
ENDBRANCH  27  35
BRANCH  32  37
ATOM     37  C   UNL     1       9.734  -0.060   5.198  1.00  0.00    -0.007 A 
ATOM     38  C   UNL     1       8.803   0.985   5.271  1.00  0.00     0.011 A 
ATOM     39  C   UNL     1      10.049  -0.753   6.386  1.00  0.00     0.011 A 
ATOM     40  C   UNL     1       8.148   1.277   6.471  1.00  0.00     0.046 A 
ATOM     41  C   UNL     1       9.381  -0.470   7.572  1.00  0.00     0.046 A 
ATOM     42  C   UNL     1       8.401   0.520   7.618  1.00  0.00     0.115 A 
BRANCH  42  43
ATOM     43  O   UNL     1       7.663   0.740   8.779  1.00  0.00    -0.508 OA
ATOM     44  H   UNL     1       8.026   0.488   9.693  1.00  0.00     0.293 HD
ENDBRANCH  42  43
ENDBRANCH  32  37
ENDBRANCH  23  24
ENDBRANCH   6  23
BRANCH   3  45
ATOM     45  O   UNL     1       5.682  -4.634  10.125  1.00  0.00    -0.387 OA
ATOM     46  H   UNL     1       5.456  -5.585   9.958  1.00  0.00     0.211 HD
ENDBRANCH   3  45
BRANCH   4  47
ATOM     47  C   UNL     1       7.319  -3.702   7.935  1.00  0.00     0.191 C 
BRANCH  47  48
ATOM     48  O   UNL     1       8.315  -3.620   8.910  1.00  0.00    -0.394 OA
ATOM     49  H   UNL     1       8.306  -4.491   9.386  1.00  0.00     0.210 HD
ENDBRANCH  47  48
ENDBRANCH   4  47
TORSDOF 14
ENDMDL
MODEL 2
REMARK VINA RESULT:    -7.336      2.516      7.771
REMARK INTER + INTRA:         -13.517
REMARK INTER:                 -10.769
REMARK INTRA:                  -2.748
REMARK UNBOUND:                -1.893
REMARK SMILES C[C@@H]1O[C@H](O[C@H]2[C@H](Oc3cc(O)c4c(c3)O[C@H](c3ccc(O)cc3)CC4=O)O[C@H](CO)[C@H](O)[C@@H]2O)[C@H](O)[C@H](O)[C@H]1O
REMARK SMILES IDX 6 1 34 2 32 3 29 4 28 5 7 6 5 7 4 8 1 9 2 10 40 11 3 12
REMARK SMILES IDX 38 13 36 14 41 15 39 17 37 19 35 21 8 23 9 24 10 25 15 26
REMARK SMILES IDX 11 27 14 28 13 29 16 30 26 31 17 32 27 33 25 34 12 35 18 37
REMARK SMILES IDX 19 38 24 39 20 40 23 41 21 42 22 43 33 45 30 47 31 48
REMARK H PARENT 41 16 39 18 37 20 35 22 12 36 22 44 33 46 31 49
REMARK Flexibility Score: inf
ROOT
ATOM      1  C   UNL     1       8.140   0.781   3.843  1.00  0.00     0.221 C 
ATOM      2  C   UNL     1       9.326  -0.146   4.153  1.00  0.00     0.181 C 
ATOM      3  C   UNL     1       9.071  -1.513   3.506  1.00  0.00     0.177 C 
ATOM      4  C   UNL     1       7.723  -2.097   3.979  1.00  0.00     0.179 C 
ATOM      5  O   UNL     1       6.634  -1.205   3.748  1.00  0.00    -0.332 OA
ATOM      6  C   UNL     1       6.815   0.127   4.246  1.00  0.00     0.339 C 
ENDROOT
BRANCH   1   7
ATOM      7  O   UNL     1       8.169   1.147   2.462  1.00  0.00    -0.337 OA
BRANCH   7   8
ATOM      8  C   UNL     1       7.145   2.057   2.068  1.00  0.00     0.282 C 
ATOM      9  C   UNL     1       7.567   5.494   0.795  1.00  0.00     0.041 C 
ATOM     10  C   UNL     1       7.005   4.072   0.826  1.00  0.00     0.150 C 
ATOM     11  C   UNL     1       7.177   3.371  -0.543  1.00  0.00     0.174 C 
ATOM     12  O   UNL     1       7.694   3.357   1.827  1.00  0.00    -0.344 OA
ATOM     13  C   UNL     1       6.692   1.896  -0.509  1.00  0.00     0.179 C 
ATOM     14  C   UNL     1       6.249   1.481   0.925  1.00  0.00     0.202 C 
BRANCH  11  15
ATOM     15  O   UNL     1       6.464   4.087  -1.517  1.00  0.00    -0.388 OA
ATOM     16  H   UNL     1       7.003   4.035  -2.351  1.00  0.00     0.211 HD
ENDBRANCH  11  15
BRANCH  13  17
ATOM     17  O   UNL     1       7.681   1.022  -1.001  1.00  0.00    -0.387 OA
ATOM     18  H   UNL     1       8.531   1.242  -0.534  1.00  0.00     0.211 HD
ENDBRANCH  13  17
BRANCH  14  19
ATOM     19  O   UNL     1       6.016   0.103   1.067  1.00  0.00    -0.385 OA
ATOM     20  H   UNL     1       5.272  -0.154   0.461  1.00  0.00     0.211 HD
ENDBRANCH  14  19
ENDBRANCH   7   8
ENDBRANCH   1   7
BRANCH   2  21
ATOM     21  O   UNL     1       9.487  -0.229   5.544  1.00  0.00    -0.387 OA
ATOM     22  H   UNL     1       8.934  -0.992   5.885  1.00  0.00     0.211 HD
ENDBRANCH   2  21
BRANCH   6  23
ATOM     23  O   UNL     1       6.696   0.153   5.665  1.00  0.00    -0.462 OA
BRANCH  23  24
ATOM     24  C   UNL     1       5.481   0.211   6.355  1.00  0.00     0.130 A 
ATOM     25  C   UNL     1       4.277   0.322   5.655  1.00  0.00     0.093 A 
ATOM     26  C   UNL     1       5.455  -0.052   7.724  1.00  0.00     0.094 A 
ATOM     27  C   UNL     1       3.061  -0.042   6.244  1.00  0.00     0.133 A 
ATOM     28  C   UNL     1       4.252  -0.375   8.349  1.00  0.00     0.138 A 
ATOM     29  C   UNL     1       3.058  -0.456   7.606  1.00  0.00     0.102 A 
ATOM     30  O   UNL     1       4.236  -0.741   9.697  1.00  0.00    -0.484 OA
ATOM     31  C   UNL     1       1.880  -1.050   8.311  1.00  0.00     0.174 C 
ATOM     32  C   UNL     1       3.518  -1.908  10.091  1.00  0.00     0.211 C 
ATOM     33  O   UNL     1       0.716  -0.942   7.841  1.00  0.00    -0.294 OA
ATOM     34  C   UNL     1       2.044  -1.819   9.606  1.00  0.00     0.131 C 
BRANCH  27  35
ATOM     35  O   UNL     1       1.919  -0.036   5.425  1.00  0.00    -0.507 OA
ATOM     36  H   UNL     1       1.366  -0.857   5.242  1.00  0.00     0.293 HD
ENDBRANCH  27  35
BRANCH  32  37
ATOM     37  C   UNL     1       4.289  -3.114   9.597  1.00  0.00    -0.007 A 
ATOM     38  C   UNL     1       3.738  -4.020   8.682  1.00  0.00     0.011 A 
ATOM     39  C   UNL     1       5.686  -3.137   9.798  1.00  0.00     0.011 A 
ATOM     40  C   UNL     1       4.560  -4.866   7.930  1.00  0.00     0.046 A 
ATOM     41  C   UNL     1       6.499  -3.968   9.034  1.00  0.00     0.046 A 
ATOM     42  C   UNL     1       5.949  -4.811   8.071  1.00  0.00     0.115 A 
BRANCH  42  43
ATOM     43  O   UNL     1       6.767  -5.572   7.238  1.00  0.00    -0.508 OA
ATOM     44  H   UNL     1       6.380  -6.262   6.602  1.00  0.00     0.293 HD
ENDBRANCH  42  43
ENDBRANCH  32  37
ENDBRANCH  23  24
ENDBRANCH   6  23
BRANCH   3  45
ATOM     45  O   UNL     1      10.122  -2.397   3.786  1.00  0.00    -0.387 OA
ATOM     46  H   UNL     1      10.323  -2.894   2.952  1.00  0.00     0.211 HD
ENDBRANCH   3  45
BRANCH   4  47
ATOM     47  C   UNL     1       7.754  -2.679   5.418  1.00  0.00     0.191 C 
BRANCH  47  48
ATOM     48  O   UNL     1       8.256  -3.983   5.416  1.00  0.00    -0.394 OA
ATOM     49  H   UNL     1       9.010  -3.988   6.061  1.00  0.00     0.210 HD
ENDBRANCH  47  48
ENDBRANCH   4  47
TORSDOF 14
ENDMDL
MODEL 3
REMARK VINA RESULT:    -7.282      1.971      6.100
REMARK INTER + INTRA:         -13.432
REMARK INTER:                 -10.487
REMARK INTRA:                  -2.945
REMARK UNBOUND:                -1.893
REMARK SMILES C[C@@H]1O[C@H](O[C@H]2[C@H](Oc3cc(O)c4c(c3)O[C@H](c3ccc(O)cc3)CC4=O)O[C@H](CO)[C@H](O)[C@@H]2O)[C@H](O)[C@H](O)[C@H]1O
REMARK SMILES IDX 6 1 34 2 32 3 29 4 28 5 7 6 5 7 4 8 1 9 2 10 40 11 3 12
REMARK SMILES IDX 38 13 36 14 41 15 39 17 37 19 35 21 8 23 9 24 10 25 15 26
REMARK SMILES IDX 11 27 14 28 13 29 16 30 26 31 17 32 27 33 25 34 12 35 18 37
REMARK SMILES IDX 19 38 24 39 20 40 23 41 21 42 22 43 33 45 30 47 31 48
REMARK H PARENT 41 16 39 18 37 20 35 22 12 36 22 44 33 46 31 49
REMARK Flexibility Score: inf
ROOT
ATOM      1  C   UNL     1       4.307  -1.123   7.047  1.00  0.00     0.221 C 
ATOM      2  C   UNL     1       2.891  -1.299   6.479  1.00  0.00     0.181 C 
ATOM      3  C   UNL     1       1.973  -0.232   7.089  1.00  0.00     0.177 C 
ATOM      4  C   UNL     1       2.006  -0.303   8.630  1.00  0.00     0.179 C 
ATOM      5  O   UNL     1       3.330  -0.203   9.149  1.00  0.00    -0.332 OA
ATOM      6  C   UNL     1       4.284  -1.109   8.579  1.00  0.00     0.339 C 
ENDROOT
BRANCH   1   7
ATOM      7  O   UNL     1       4.897   0.058   6.501  1.00  0.00    -0.337 OA
BRANCH   7   8
ATOM      8  C   UNL     1       6.020  -0.176   5.655  1.00  0.00     0.282 C 
ATOM      9  C   UNL     1       6.803  -3.247   3.766  1.00  0.00     0.041 C 
ATOM     10  C   UNL     1       6.629  -1.743   3.982  1.00  0.00     0.150 C 
ATOM     11  C   UNL     1       5.705  -1.124   2.907  1.00  0.00     0.174 C 
ATOM     12  O   UNL     1       6.077  -1.553   5.265  1.00  0.00    -0.344 OA
ATOM     13  C   UNL     1       5.445   0.386   3.159  1.00  0.00     0.179 C 
ATOM     14  C   UNL     1       6.108   0.858   4.487  1.00  0.00     0.202 C 
BRANCH  11  15
ATOM     15  O   UNL     1       6.286  -1.305   1.643  1.00  0.00    -0.388 OA
ATOM     16  H   UNL     1       5.840  -2.098   1.242  1.00  0.00     0.211 HD
ENDBRANCH  11  15
BRANCH  13  17
ATOM     17  O   UNL     1       4.067   0.676   3.157  1.00  0.00    -0.387 OA
ATOM     18  H   UNL     1       3.612  -0.052   2.654  1.00  0.00     0.211 HD
ENDBRANCH  13  17
BRANCH  14  19
ATOM     19  O   UNL     1       5.722   2.150   4.883  1.00  0.00    -0.385 OA
ATOM     20  H   UNL     1       5.846   2.765   4.112  1.00  0.00     0.211 HD
ENDBRANCH  14  19
ENDBRANCH   7   8
ENDBRANCH   1   7
BRANCH   2  21
ATOM     21  O   UNL     1       2.453  -2.605   6.746  1.00  0.00    -0.387 OA
ATOM     22  H   UNL     1       2.005  -2.965   5.924  1.00  0.00     0.211 HD
ENDBRANCH   2  21
BRANCH   6  23
ATOM     23  O   UNL     1       4.065  -2.433   9.053  1.00  0.00    -0.462 OA
BRANCH  23  24
ATOM     24  C   UNL     1       5.082  -3.355   9.319  1.00  0.00     0.130 A 
ATOM     25  C   UNL     1       4.887  -4.714   9.065  1.00  0.00     0.093 A 
ATOM     26  C   UNL     1       6.359  -2.896   9.641  1.00  0.00     0.094 A 
ATOM     27  C   UNL     1       5.970  -5.584   8.906  1.00  0.00     0.133 A 
ATOM     28  C   UNL     1       7.454  -3.751   9.535  1.00  0.00     0.138 A 
ATOM     29  C   UNL     1       7.288  -5.076   9.088  1.00  0.00     0.102 A 
ATOM     30  O   UNL     1       8.747  -3.269   9.755  1.00  0.00    -0.484 OA
ATOM     31  C   UNL     1       8.540  -5.829   8.770  1.00  0.00     0.174 C 
ATOM     32  C   UNL     1       9.772  -3.577   8.814  1.00  0.00     0.211 C 
ATOM     33  O   UNL     1       8.528  -7.079   8.609  1.00  0.00    -0.294 OA
ATOM     34  C   UNL     1       9.868  -5.116   8.611  1.00  0.00     0.131 C 
BRANCH  27  35
ATOM     35  O   UNL     1       5.688  -6.902   8.510  1.00  0.00    -0.507 OA
ATOM     36  H   UNL     1       6.237  -7.406   7.832  1.00  0.00     0.293 HD
ENDBRANCH  27  35
BRANCH  32  37
ATOM     37  C   UNL     1       9.504  -2.776   7.558  1.00  0.00    -0.007 A 
ATOM     38  C   UNL     1       9.283  -1.393   7.595  1.00  0.00     0.011 A 
ATOM     39  C   UNL     1       9.817  -3.367   6.314  1.00  0.00     0.011 A 
ATOM     40  C   UNL     1       9.448  -0.611   6.447  1.00  0.00     0.046 A 
ATOM     41  C   UNL     1       9.997  -2.581   5.181  1.00  0.00     0.046 A 
ATOM     42  C   UNL     1       9.851  -1.197   5.244  1.00  0.00     0.115 A 
BRANCH  42  43
ATOM     43  O   UNL     1      10.125  -0.399   4.135  1.00  0.00    -0.508 OA
ATOM     44  H   UNL     1       9.439  -0.263   3.398  1.00  0.00     0.293 HD
ENDBRANCH  42  43
ENDBRANCH  32  37
ENDBRANCH  23  24
ENDBRANCH   6  23
BRANCH   3  45
ATOM     45  O   UNL     1       0.663  -0.375   6.611  1.00  0.00    -0.387 OA
ATOM     46  H   UNL     1       0.380   0.504   6.250  1.00  0.00     0.211 HD
ENDBRANCH   3  45
BRANCH   4  47
ATOM     47  C   UNL     1       1.190  -1.480   9.228  1.00  0.00     0.191 C 
BRANCH  47  48
ATOM     48  O   UNL     1      -0.177  -1.302   9.005  1.00  0.00    -0.394 OA
ATOM     49  H   UNL     1      -0.459  -0.559   9.598  1.00  0.00     0.210 HD
ENDBRANCH  47  48
ENDBRANCH   4  47
TORSDOF 14
ENDMDL
MODEL 4
REMARK VINA RESULT:    -6.841      2.074      5.092
REMARK INTER + INTRA:         -12.734
REMARK INTER:                 -11.380
REMARK INTRA:                  -1.354
REMARK UNBOUND:                -1.893
REMARK SMILES C[C@@H]1O[C@H](O[C@H]2[C@H](Oc3cc(O)c4c(c3)O[C@H](c3ccc(O)cc3)CC4=O)O[C@H](CO)[C@H](O)[C@@H]2O)[C@H](O)[C@H](O)[C@H]1O
REMARK SMILES IDX 6 1 34 2 32 3 29 4 28 5 7 6 5 7 4 8 1 9 2 10 40 11 3 12
REMARK SMILES IDX 38 13 36 14 41 15 39 17 37 19 35 21 8 23 9 24 10 25 15 26
REMARK SMILES IDX 11 27 14 28 13 29 16 30 26 31 17 32 27 33 25 34 12 35 18 37
REMARK SMILES IDX 19 38 24 39 20 40 23 41 21 42 22 43 33 45 30 47 31 48
REMARK H PARENT 41 16 39 18 37 20 35 22 12 36 22 44 33 46 31 49
REMARK Flexibility Score: inf
ROOT
ATOM      1  C   UNL     1       4.404  -2.926   8.241  1.00  0.00     0.221 C 
ATOM      2  C   UNL     1       3.540  -2.131   9.232  1.00  0.00     0.181 C 
ATOM      3  C   UNL     1       2.068  -2.253   8.819  1.00  0.00     0.177 C 
ATOM      4  C   UNL     1       1.872  -1.791   7.360  1.00  0.00     0.179 C 
ATOM      5  O   UNL     1       2.724  -2.487   6.452  1.00  0.00    -0.332 OA
ATOM      6  C   UNL     1       4.114  -2.499   6.798  1.00  0.00     0.339 C 
ENDROOT
BRANCH   1   7
ATOM      7  O   UNL     1       4.201  -4.325   8.446  1.00  0.00    -0.337 OA
BRANCH   7   8
ATOM      8  C   UNL     1       5.214  -4.965   9.219  1.00  0.00     0.282 C 
ATOM      9  C   UNL     1       5.624  -8.581   9.827  1.00  0.00     0.041 C 
ATOM     10  C   UNL     1       6.070  -7.162   9.470  1.00  0.00     0.150 C 
ATOM     11  C   UNL     1       6.840  -7.136   8.128  1.00  0.00     0.174 C 
ATOM     12  O   UNL     1       4.917  -6.356   9.384  1.00  0.00    -0.344 OA
ATOM     13  C   UNL     1       7.226  -5.693   7.704  1.00  0.00     0.179 C 
ATOM     14  C   UNL     1       6.650  -4.640   8.697  1.00  0.00     0.202 C 
BRANCH  11  15
ATOM     15  O   UNL     1       7.994  -7.926   8.246  1.00  0.00    -0.388 OA
ATOM     16  H   UNL     1       8.207  -8.245   7.329  1.00  0.00     0.211 HD
ENDBRANCH  11  15
BRANCH  13  17
ATOM     17  O   UNL     1       6.810  -5.419   6.386  1.00  0.00    -0.387 OA
ATOM     18  H   UNL     1       6.565  -4.455   6.347  1.00  0.00     0.211 HD
ENDBRANCH  13  17
BRANCH  14  19
ATOM     19  O   UNL     1       6.772  -3.314   8.248  1.00  0.00    -0.385 OA
ATOM     20  H   UNL     1       7.455  -2.856   8.805  1.00  0.00     0.211 HD
ENDBRANCH  14  19
ENDBRANCH   7   8
ENDBRANCH   1   7
BRANCH   2  21
ATOM     21  O   UNL     1       3.986  -0.801   9.258  1.00  0.00    -0.387 OA
ATOM     22  H   UNL     1       4.897  -0.762   8.842  1.00  0.00     0.211 HD
ENDBRANCH   2  21
BRANCH   6  23
ATOM     23  O   UNL     1       4.701  -1.224   6.564  1.00  0.00    -0.462 OA
BRANCH  23  24
ATOM     24  C   UNL     1       5.485  -0.908   5.449  1.00  0.00     0.130 A 
ATOM     25  C   UNL     1       5.552   0.408   4.985  1.00  0.00     0.093 A 
ATOM     26  C   UNL     1       6.358  -1.862   4.930  1.00  0.00     0.094 A 
ATOM     27  C   UNL     1       6.614   0.839   4.183  1.00  0.00     0.133 A 
ATOM     28  C   UNL     1       7.400  -1.470   4.092  1.00  0.00     0.138 A 
ATOM     29  C   UNL     1       7.592  -0.112   3.775  1.00  0.00     0.102 A 
ATOM     30  O   UNL     1       8.340  -2.406   3.653  1.00  0.00    -0.484 OA
ATOM     31  C   UNL     1       8.872   0.231   3.082  1.00  0.00     0.174 C 
ATOM     32  C   UNL     1       9.727  -2.095   3.749  1.00  0.00     0.211 C 
ATOM     33  O   UNL     1       9.037   1.353   2.532  1.00  0.00    -0.294 OA
ATOM     34  C   UNL     1      10.026  -0.750   3.030  1.00  0.00     0.131 C 
BRANCH  27  35
ATOM     35  O   UNL     1       6.681   2.210   3.881  1.00  0.00    -0.507 OA
ATOM     36  H   UNL     1       7.441   2.803   4.171  1.00  0.00     0.293 HD
ENDBRANCH  27  35
BRANCH  32  37
ATOM     37  C   UNL     1      10.111  -2.144   5.213  1.00  0.00    -0.007 A 
ATOM     38  C   UNL     1      10.125  -0.994   6.014  1.00  0.00     0.011 A 
ATOM     39  C   UNL     1      10.125  -3.401   5.854  1.00  0.00     0.011 A 
ATOM     40  C   UNL     1      10.070  -1.092   7.407  1.00  0.00     0.046 A 
ATOM     41  C   UNL     1      10.053  -3.492   7.241  1.00  0.00     0.046 A 
ATOM     42  C   UNL     1       9.988  -2.343   8.026  1.00  0.00     0.115 A 
BRANCH  42  43
ATOM     43  O   UNL     1       9.819  -2.431   9.406  1.00  0.00    -0.508 OA
ATOM     44  H   UNL     1      10.498  -2.036  10.049  1.00  0.00     0.293 HD
ENDBRANCH  42  43
ENDBRANCH  32  37
ENDBRANCH  23  24
ENDBRANCH   6  23
BRANCH   3  45
ATOM     45  O   UNL     1       1.248  -1.520   9.688  1.00  0.00    -0.387 OA
ATOM     46  H   UNL     1       1.253  -0.578   9.378  1.00  0.00     0.211 HD
ENDBRANCH   3  45
BRANCH   4  47
ATOM     47  C   UNL     1       1.894  -0.251   7.174  1.00  0.00     0.191 C 
BRANCH  47  48
ATOM     48  O   UNL     1       2.004   0.086   5.823  1.00  0.00    -0.394 OA
ATOM     49  H   UNL     1       2.971   0.047   5.607  1.00  0.00     0.210 HD
ENDBRANCH  47  48
ENDBRANCH   4  47
TORSDOF 14
ENDMDL
MODEL 5
REMARK VINA RESULT:    -6.638      2.081      6.541
REMARK INTER + INTRA:         -12.412
REMARK INTER:                 -10.504
REMARK INTRA:                  -1.908
REMARK UNBOUND:                -1.893
REMARK SMILES C[C@@H]1O[C@H](O[C@H]2[C@H](Oc3cc(O)c4c(c3)O[C@H](c3ccc(O)cc3)CC4=O)O[C@H](CO)[C@H](O)[C@@H]2O)[C@H](O)[C@H](O)[C@H]1O
REMARK SMILES IDX 6 1 34 2 32 3 29 4 28 5 7 6 5 7 4 8 1 9 2 10 40 11 3 12
REMARK SMILES IDX 38 13 36 14 41 15 39 17 37 19 35 21 8 23 9 24 10 25 15 26
REMARK SMILES IDX 11 27 14 28 13 29 16 30 26 31 17 32 27 33 25 34 12 35 18 37
REMARK SMILES IDX 19 38 24 39 20 40 23 41 21 42 22 43 33 45 30 47 31 48
REMARK H PARENT 41 16 39 18 37 20 35 22 12 36 22 44 33 46 31 49
REMARK Flexibility Score: inf
ROOT
ATOM      1  C   UNL     1       4.295  -1.450   7.424  1.00  0.00     0.221 C 
ATOM      2  C   UNL     1       2.910  -1.620   6.781  1.00  0.00     0.181 C 
ATOM      3  C   UNL     1       2.019  -0.444   7.200  1.00  0.00     0.177 C 
ATOM      4  C   UNL     1       1.949  -0.335   8.737  1.00  0.00     0.179 C 
ATOM      5  O   UNL     1       3.241  -0.242   9.334  1.00  0.00    -0.332 OA
ATOM      6  C   UNL     1       4.174  -1.255   8.939  1.00  0.00     0.339 C 
ENDROOT
BRANCH   1   7
ATOM      7  O   UNL     1       4.986  -0.373   6.789  1.00  0.00    -0.337 OA
BRANCH   7   8
ATOM      8  C   UNL     1       5.701  -0.739   5.611  1.00  0.00     0.282 C 
ATOM      9  C   UNL     1       5.064   0.392   2.158  1.00  0.00     0.041 C 
ATOM     10  C   UNL     1       5.908   0.069   3.392  1.00  0.00     0.150 C 
ATOM     11  C   UNL     1       6.800   1.269   3.792  1.00  0.00     0.174 C 
ATOM     12  O   UNL     1       5.028  -0.255   4.444  1.00  0.00    -0.344 OA
ATOM     13  C   UNL     1       7.601   0.992   5.094  1.00  0.00     0.179 C 
ATOM     14  C   UNL     1       7.221  -0.388   5.708  1.00  0.00     0.202 C 
BRANCH  11  15
ATOM     15  O   UNL     1       7.682   1.556   2.739  1.00  0.00    -0.388 OA
ATOM     16  H   UNL     1       7.412   0.971   1.983  1.00  0.00     0.211 HD
ENDBRANCH  11  15
BRANCH  13  17
ATOM     17  O   UNL     1       7.421   2.025   6.034  1.00  0.00    -0.387 OA
ATOM     18  H   UNL     1       7.351   1.601   6.931  1.00  0.00     0.211 HD
ENDBRANCH  13  17
BRANCH  14  19
ATOM     19  O   UNL     1       7.740  -0.595   6.997  1.00  0.00    -0.385 OA
ATOM     20  H   UNL     1       7.317  -1.409   7.379  1.00  0.00     0.211 HD
ENDBRANCH  14  19
ENDBRANCH   7   8
ENDBRANCH   1   7
BRANCH   2  21
ATOM     21  O   UNL     1       2.380  -2.862   7.164  1.00  0.00    -0.387 OA
ATOM     22  H   UNL     1       3.044  -3.322   7.758  1.00  0.00     0.211 HD
ENDBRANCH   2  21
BRANCH   6  23
ATOM     23  O   UNL     1       3.849  -2.502   9.544  1.00  0.00    -0.462 OA
BRANCH  23  24
ATOM     24  C   UNL     1       4.787  -3.477   9.899  1.00  0.00     0.130 A 
ATOM     25  C   UNL     1       4.407  -4.817   9.999  1.00  0.00     0.093 A 
ATOM     26  C   UNL     1       6.140  -3.143   9.949  1.00  0.00     0.094 A 
ATOM     27  C   UNL     1       5.353  -5.845   9.923  1.00  0.00     0.133 A 
ATOM     28  C   UNL     1       7.106  -4.146   9.920  1.00  0.00     0.138 A 
ATOM     29  C   UNL     1       6.731  -5.500   9.823  1.00  0.00     0.102 A 
ATOM     30  O   UNL     1       8.462  -3.815   9.864  1.00  0.00    -0.484 OA
ATOM     31  C   UNL     1       7.833  -6.473   9.547  1.00  0.00     0.174 C 
ATOM     32  C   UNL     1       9.297  -4.464   8.909  1.00  0.00     0.211 C 
ATOM     33  O   UNL     1       7.659  -7.714   9.688  1.00  0.00    -0.294 OA
ATOM     34  C   UNL     1       9.192  -6.007   9.067  1.00  0.00     0.131 C 
BRANCH  27  35
ATOM     35  O   UNL     1       4.872  -7.165   9.887  1.00  0.00    -0.507 OA
ATOM     36  H   UNL     1       4.407  -7.562   9.088  1.00  0.00     0.293 HD
ENDBRANCH  27  35
BRANCH  32  37
ATOM     37  C   UNL     1       8.936  -3.930   7.539  1.00  0.00    -0.007 A 
ATOM     38  C   UNL     1       9.884  -3.312   6.713  1.00  0.00     0.011 A 
ATOM     39  C   UNL     1       7.725  -4.360   6.956  1.00  0.00     0.011 A 
ATOM     40  C   UNL     1       9.668  -3.200   5.336  1.00  0.00     0.046 A 
ATOM     41  C   UNL     1       7.524  -4.262   5.584  1.00  0.00     0.046 A 
ATOM     42  C   UNL     1       8.505  -3.716   4.758  1.00  0.00     0.115 A 
BRANCH  42  43
ATOM     43  O   UNL     1       8.347  -3.705   3.374  1.00  0.00    -0.508 OA
ATOM     44  H   UNL     1       9.125  -3.896   2.750  1.00  0.00     0.293 HD
ENDBRANCH  42  43
ENDBRANCH  32  37
ENDBRANCH  23  24
ENDBRANCH   6  23
BRANCH   3  45
ATOM     45  O   UNL     1       0.736  -0.575   6.651  1.00  0.00    -0.387 OA
ATOM     46  H   UNL     1       0.087  -0.257   7.331  1.00  0.00     0.211 HD
ENDBRANCH   3  45
BRANCH   4  47
ATOM     47  C   UNL     1       1.030  -1.390   9.407  1.00  0.00     0.191 C 
BRANCH  47  48
ATOM     48  O   UNL     1      -0.307  -1.178   9.061  1.00  0.00    -0.394 OA
ATOM     49  H   UNL     1      -0.758  -2.057   9.153  1.00  0.00     0.210 HD
ENDBRANCH  47  48
ENDBRANCH   4  47
TORSDOF 14
ENDMDL
MODEL 6
REMARK VINA RESULT:    -6.580      1.847      7.542
REMARK INTER + INTRA:         -12.321
REMARK INTER:                 -10.992
REMARK INTRA:                  -1.328
REMARK UNBOUND:                -1.893
REMARK SMILES C[C@@H]1O[C@H](O[C@H]2[C@H](Oc3cc(O)c4c(c3)O[C@H](c3ccc(O)cc3)CC4=O)O[C@H](CO)[C@H](O)[C@@H]2O)[C@H](O)[C@H](O)[C@H]1O
REMARK SMILES IDX 6 1 34 2 32 3 29 4 28 5 7 6 5 7 4 8 1 9 2 10 40 11 3 12
REMARK SMILES IDX 38 13 36 14 41 15 39 17 37 19 35 21 8 23 9 24 10 25 15 26
REMARK SMILES IDX 11 27 14 28 13 29 16 30 26 31 17 32 27 33 25 34 12 35 18 37
REMARK SMILES IDX 19 38 24 39 20 40 23 41 21 42 22 43 33 45 30 47 31 48
REMARK H PARENT 41 16 39 18 37 20 35 22 12 36 22 44 33 46 31 49
REMARK Flexibility Score: inf
ROOT
ATOM      1  C   UNL     1       8.344  -0.915   4.810  1.00  0.00     0.221 C 
ATOM      2  C   UNL     1       8.386  -1.159   3.294  1.00  0.00     0.181 C 
ATOM      3  C   UNL     1       8.530   0.188   2.576  1.00  0.00     0.177 C 
ATOM      4  C   UNL     1       7.397   1.150   2.990  1.00  0.00     0.179 C 
ATOM      5  O   UNL     1       7.322   1.323   4.404  1.00  0.00    -0.332 OA
ATOM      6  C   UNL     1       7.265   0.112   5.169  1.00  0.00     0.339 C 
ENDROOT
BRANCH   1   7
ATOM      7  O   UNL     1       9.641  -0.526   5.266  1.00  0.00    -0.337 OA
BRANCH   7   8
ATOM      8  C   UNL     1       9.994  -1.033   6.551  1.00  0.00     0.282 C 
ATOM      9  C   UNL     1       8.591  -0.044   9.817  1.00  0.00     0.041 C 
ATOM     10  C   UNL     1       9.068  -1.013   8.734  1.00  0.00     0.150 C 
ATOM     11  C   UNL     1       7.983  -2.065   8.405  1.00  0.00     0.174 C 
ATOM     12  O   UNL     1       9.377  -0.258   7.584  1.00  0.00    -0.344 OA
ATOM     13  C   UNL     1       8.413  -3.006   7.246  1.00  0.00     0.179 C 
ATOM     14  C   UNL     1       9.790  -2.578   6.655  1.00  0.00     0.202 C 
BRANCH  11  15
ATOM     15  O   UNL     1       7.710  -2.819   9.557  1.00  0.00    -0.388 OA
ATOM     16  H   UNL     1       6.829  -2.505   9.892  1.00  0.00     0.211 HD
ENDBRANCH  11  15
BRANCH  13  17
ATOM     17  O   UNL     1       7.430  -3.060   6.239  1.00  0.00    -0.387 OA
ATOM     18  H   UNL     1       7.899  -3.224   5.376  1.00  0.00     0.211 HD
ENDBRANCH  13  17
BRANCH  14  19
ATOM     19  O   UNL     1      10.125  -3.246   5.465  1.00  0.00    -0.385 OA
ATOM     20  H   UNL     1       9.775  -2.718   4.699  1.00  0.00     0.211 HD
ENDBRANCH  14  19
ENDBRANCH   7   8
ENDBRANCH   1   7
BRANCH   2  21
ATOM     21  O   UNL     1       7.227  -1.853   2.912  1.00  0.00    -0.387 OA
ATOM     22  H   UNL     1       7.089  -2.617   3.546  1.00  0.00     0.211 HD
ENDBRANCH   2  21
BRANCH   6  23
ATOM     23  O   UNL     1       5.985  -0.498   5.051  1.00  0.00    -0.462 OA
BRANCH  23  24
ATOM     24  C   UNL     1       4.891  -0.205   5.873  1.00  0.00     0.130 A 
ATOM     25  C   UNL     1       3.654   0.119   5.311  1.00  0.00     0.093 A 
ATOM     26  C   UNL     1       4.980  -0.439   7.244  1.00  0.00     0.094 A 
ATOM     27  C   UNL     1       2.471  -0.005   6.047  1.00  0.00     0.133 A 
ATOM     28  C   UNL     1       3.822  -0.523   8.014  1.00  0.00     0.138 A 
ATOM     29  C   UNL     1       2.553  -0.391   7.415  1.00  0.00     0.102 A 
ATOM     30  O   UNL     1       3.899  -0.860   9.367  1.00  0.00    -0.484 OA
ATOM     31  C   UNL     1       1.379  -0.744   8.271  1.00  0.00     0.174 C 
ATOM     32  C   UNL     1       3.031  -1.867   9.882  1.00  0.00     0.211 C 
ATOM     33  O   UNL     1       0.206  -0.428   7.933  1.00  0.00    -0.294 OA
ATOM     34  C   UNL     1       1.551  -1.512   9.565  1.00  0.00     0.131 C 
BRANCH  27  35
ATOM     35  O   UNL     1       1.261   0.202   5.364  1.00  0.00    -0.507 OA
ATOM     36  H   UNL     1       0.390   0.401   5.830  1.00  0.00     0.293 HD
ENDBRANCH  27  35
BRANCH  32  37
ATOM     37  C   UNL     1       3.503  -3.202   9.348  1.00  0.00    -0.007 A 
ATOM     38  C   UNL     1       3.331  -3.566   8.006  1.00  0.00     0.011 A 
ATOM     39  C   UNL     1       4.422  -3.940  10.125  1.00  0.00     0.011 A 
ATOM     40  C   UNL     1       4.109  -4.577   7.434  1.00  0.00     0.046 A 
ATOM     41  C   UNL     1       5.204  -4.934   9.545  1.00  0.00     0.046 A 
ATOM     42  C   UNL     1       5.082  -5.236   8.191  1.00  0.00     0.115 A 
BRANCH  42  43
ATOM     43  O   UNL     1       5.931  -6.161   7.586  1.00  0.00    -0.508 OA
ATOM     44  H   UNL     1       6.535  -6.763   8.137  1.00  0.00     0.293 HD
ENDBRANCH  42  43
ENDBRANCH  32  37
ENDBRANCH  23  24
ENDBRANCH   6  23
BRANCH   3  45
ATOM     45  O   UNL     1       8.549   0.010   1.187  1.00  0.00    -0.387 OA
ATOM     46  H   UNL     1       8.778  -0.939   1.011  1.00  0.00     0.211 HD
ENDBRANCH   3  45
BRANCH   4  47
ATOM     47  C   UNL     1       6.028   0.840   2.329  1.00  0.00     0.191 C 
BRANCH  47  48
ATOM     48  O   UNL     1       6.054   1.146   0.966  1.00  0.00    -0.394 OA
ATOM     49  H   UNL     1       6.965   1.489   0.778  1.00  0.00     0.210 HD
ENDBRANCH  47  48
ENDBRANCH   4  47
TORSDOF 14
ENDMDL
MODEL 7
REMARK VINA RESULT:    -6.318      1.662      2.508
REMARK INTER + INTRA:         -11.905
REMARK INTER:                  -9.581
REMARK INTRA:                  -2.324
REMARK UNBOUND:                -1.893
REMARK SMILES C[C@@H]1O[C@H](O[C@H]2[C@H](Oc3cc(O)c4c(c3)O[C@H](c3ccc(O)cc3)CC4=O)O[C@H](CO)[C@H](O)[C@@H]2O)[C@H](O)[C@H](O)[C@H]1O
REMARK SMILES IDX 6 1 34 2 32 3 29 4 28 5 7 6 5 7 4 8 1 9 2 10 40 11 3 12
REMARK SMILES IDX 38 13 36 14 41 15 39 17 37 19 35 21 8 23 9 24 10 25 15 26
REMARK SMILES IDX 11 27 14 28 13 29 16 30 26 31 17 32 27 33 25 34 12 35 18 37
REMARK SMILES IDX 19 38 24 39 20 40 23 41 21 42 22 43 33 45 30 47 31 48
REMARK H PARENT 41 16 39 18 37 20 35 22 12 36 22 44 33 46 31 49
REMARK Flexibility Score: inf
ROOT
ATOM      1  C   UNL     1       5.698  -4.141   7.767  1.00  0.00     0.221 C 
ATOM      2  C   UNL     1       5.699  -5.617   8.193  1.00  0.00     0.181 C 
ATOM      3  C   UNL     1       6.464  -5.752   9.516  1.00  0.00     0.177 C 
ATOM      4  C   UNL     1       7.887  -5.172   9.384  1.00  0.00     0.179 C 
ATOM      5  O   UNL     1       7.883  -3.822   8.926  1.00  0.00    -0.332 OA
ATOM      6  C   UNL     1       7.123  -3.579   7.735  1.00  0.00     0.339 C 
ENDROOT
BRANCH   1   7
ATOM      7  O   UNL     1       4.838  -3.396   8.631  1.00  0.00    -0.337 OA
BRANCH   7   8
ATOM      8  C   UNL     1       3.509  -3.227   8.143  1.00  0.00     0.282 C 
ATOM      9  C   UNL     1       0.443  -2.692  10.125  1.00  0.00     0.041 C 
ATOM     10  C   UNL     1       1.441  -2.438   8.994  1.00  0.00     0.150 C 
ATOM     11  C   UNL     1       1.857  -0.949   8.937  1.00  0.00     0.174 C 
ATOM     12  O   UNL     1       2.570  -3.250   9.224  1.00  0.00    -0.344 OA
ATOM     13  C   UNL     1       2.936  -0.685   7.852  1.00  0.00     0.179 C 
ATOM     14  C   UNL     1       3.386  -2.011   7.170  1.00  0.00     0.202 C 
BRANCH  11  15
ATOM     15  O   UNL     1       0.722  -0.164   8.685  1.00  0.00    -0.388 OA
ATOM     16  H   UNL     1      -0.064  -0.741   8.879  1.00  0.00     0.211 HD
ENDBRANCH  11  15
BRANCH  13  17
ATOM     17  O   UNL     1       4.043   0.004   8.387  1.00  0.00    -0.387 OA
ATOM     18  H   UNL     1       4.335   0.668   7.707  1.00  0.00     0.211 HD
ENDBRANCH  13  17
BRANCH  14  19
ATOM     19  O   UNL     1       4.514  -1.867   6.344  1.00  0.00    -0.385 OA
ATOM     20  H   UNL     1       4.296  -1.215   5.626  1.00  0.00     0.211 HD
ENDBRANCH  14  19
ENDBRANCH   7   8
ENDBRANCH   1   7
BRANCH   2  21
ATOM     21  O   UNL     1       6.262  -6.387   7.163  1.00  0.00    -0.387 OA
ATOM     22  H   UNL     1       5.525  -6.884   6.698  1.00  0.00     0.211 HD
ENDBRANCH   2  21
BRANCH   6  23
ATOM     23  O   UNL     1       7.800  -4.094   6.594  1.00  0.00    -0.462 OA
BRANCH  23  24
ATOM     24  C   UNL     1       7.839  -3.461   5.347  1.00  0.00     0.130 A 
ATOM     25  C   UNL     1       6.809  -3.655   4.425  1.00  0.00     0.093 A 
ATOM     26  C   UNL     1       8.798  -2.478   5.105  1.00  0.00     0.094 A 
ATOM     27  C   UNL     1       6.586  -2.746   3.385  1.00  0.00     0.133 A 
ATOM     28  C   UNL     1       8.628  -1.584   4.050  1.00  0.00     0.138 A 
ATOM     29  C   UNL     1       7.484  -1.652   3.230  1.00  0.00     0.102 A 
ATOM     30  O   UNL     1       9.529  -0.532   3.866  1.00  0.00    -0.484 OA
ATOM     31  C   UNL     1       7.272  -0.505   2.295  1.00  0.00     0.174 C 
ATOM     32  C   UNL     1       9.027   0.784   3.654  1.00  0.00     0.211 C 
ATOM     33  O   UNL     1       6.438  -0.576   1.353  1.00  0.00    -0.294 OA
ATOM     34  C   UNL     1       8.037   0.793   2.456  1.00  0.00     0.131 C 
BRANCH  27  35
ATOM     35  O   UNL     1       5.443  -2.938   2.592  1.00  0.00    -0.507 OA
ATOM     36  H   UNL     1       5.454  -2.894   1.586  1.00  0.00     0.293 HD
ENDBRANCH  27  35
BRANCH  32  37
ATOM     37  C   UNL     1       8.456   1.279   4.966  1.00  0.00    -0.007 A 
ATOM     38  C   UNL     1       7.147   1.770   5.066  1.00  0.00     0.011 A 
ATOM     39  C   UNL     1       9.126   0.926   6.157  1.00  0.00     0.011 A 
ATOM     40  C   UNL     1       6.498   1.831   6.303  1.00  0.00     0.046 A 
ATOM     41  C   UNL     1       8.469   0.972   7.382  1.00  0.00     0.046 A 
ATOM     42  C   UNL     1       7.142   1.389   7.462  1.00  0.00     0.115 A 
BRANCH  42  43
ATOM     43  O   UNL     1       6.452   1.344   8.672  1.00  0.00    -0.508 OA
ATOM     44  H   UNL     1       6.063   0.476   9.028  1.00  0.00     0.293 HD
ENDBRANCH  42  43
ENDBRANCH  32  37
ENDBRANCH  23  24
ENDBRANCH   6  23
BRANCH   3  45
ATOM     45  O   UNL     1       6.508  -7.091   9.927  1.00  0.00    -0.387 OA
ATOM     46  H   UNL     1       7.450  -7.393   9.859  1.00  0.00     0.211 HD
ENDBRANCH   3  45
BRANCH   4  47
ATOM     47  C   UNL     1       8.876  -6.086   8.612  1.00  0.00     0.191 C 
BRANCH  47  48
ATOM     48  O   UNL     1       9.373  -7.094   9.442  1.00  0.00    -0.394 OA
ATOM     49  H   UNL     1       8.939  -7.935   9.144  1.00  0.00     0.210 HD
ENDBRANCH  47  48
ENDBRANCH   4  47
TORSDOF 14
ENDMDL
MODEL 8
REMARK VINA RESULT:    -6.181      1.989      6.922
REMARK INTER + INTRA:         -11.687
REMARK INTER:                 -10.707
REMARK INTRA:                  -0.980
REMARK UNBOUND:                -1.893
REMARK SMILES C[C@@H]1O[C@H](O[C@H]2[C@H](Oc3cc(O)c4c(c3)O[C@H](c3ccc(O)cc3)CC4=O)O[C@H](CO)[C@H](O)[C@@H]2O)[C@H](O)[C@H](O)[C@H]1O
REMARK SMILES IDX 6 1 34 2 32 3 29 4 28 5 7 6 5 7 4 8 1 9 2 10 40 11 3 12
REMARK SMILES IDX 38 13 36 14 41 15 39 17 37 19 35 21 8 23 9 24 10 25 15 26
REMARK SMILES IDX 11 27 14 28 13 29 16 30 26 31 17 32 27 33 25 34 12 35 18 37
REMARK SMILES IDX 19 38 24 39 20 40 23 41 21 42 22 43 33 45 30 47 31 48
REMARK H PARENT 41 16 39 18 37 20 35 22 12 36 22 44 33 46 31 49
REMARK Flexibility Score: inf
ROOT
ATOM      1  C   UNL     1       7.299  -1.812   6.588  1.00  0.00     0.221 C 
ATOM      2  C   UNL     1       7.957  -1.313   7.884  1.00  0.00     0.181 C 
ATOM      3  C   UNL     1       9.481  -1.359   7.717  1.00  0.00     0.177 C 
ATOM      4  C   UNL     1       9.944  -2.778   7.326  1.00  0.00     0.179 C 
ATOM      5  O   UNL     1       9.282  -3.262   6.160  1.00  0.00    -0.332 OA
ATOM      6  C   UNL     1       7.851  -3.184   6.188  1.00  0.00     0.339 C 
ENDROOT
BRANCH   1   7
ATOM      7  O   UNL     1       7.469  -0.835   5.560  1.00  0.00    -0.337 OA
BRANCH   7   8
ATOM      8  C   UNL     1       7.640  -1.374   4.251  1.00  0.00     0.282 C 
ATOM      9  C   UNL     1       5.448  -0.893   1.323  1.00  0.00     0.041 C 
ATOM     10  C   UNL     1       6.773  -0.961   2.083  1.00  0.00     0.150 C 
ATOM     11  C   UNL     1       7.609   0.324   1.872  1.00  0.00     0.174 C 
ATOM     12  O   UNL     1       6.478  -1.129   3.451  1.00  0.00    -0.344 OA
ATOM     13  C   UNL     1       8.919   0.312   2.705  1.00  0.00     0.179 C 
ATOM     14  C   UNL     1       9.001  -0.952   3.610  1.00  0.00     0.202 C 
BRANCH  11  15
ATOM     15  O   UNL     1       7.910   0.456   0.507  1.00  0.00    -0.388 OA
ATOM     16  H   UNL     1       7.716   1.402   0.270  1.00  0.00     0.211 HD
ENDBRANCH  11  15
BRANCH  13  17
ATOM     17  O   UNL     1       9.049   1.487   3.471  1.00  0.00    -0.387 OA
ATOM     18  H   UNL     1       8.668   2.234   2.935  1.00  0.00     0.211 HD
ENDBRANCH  13  17
BRANCH  14  19
ATOM     19  O   UNL     1      10.046  -0.909   4.548  1.00  0.00    -0.385 OA
ATOM     20  H   UNL     1      10.518  -1.783   4.532  1.00  0.00     0.211 HD
ENDBRANCH  14  19
ENDBRANCH   7   8
ENDBRANCH   1   7
BRANCH   2  21
ATOM     21  O   UNL     1       7.507  -2.100   8.955  1.00  0.00    -0.387 OA
ATOM     22  H   UNL     1       8.161  -2.846   9.099  1.00  0.00     0.211 HD
ENDBRANCH   2  21
BRANCH   6  23
ATOM     23  O   UNL     1       7.310  -4.174   7.055  1.00  0.00    -0.462 OA
BRANCH  23  24
ATOM     24  C   UNL     1       5.952  -4.299   7.362  1.00  0.00     0.130 A 
ATOM     25  C   UNL     1       5.536  -5.147   8.391  1.00  0.00     0.093 A 
ATOM     26  C   UNL     1       5.033  -3.424   6.784  1.00  0.00     0.094 A 
ATOM     27  C   UNL     1       4.289  -4.985   9.004  1.00  0.00     0.133 A 
ATOM     28  C   UNL     1       3.767  -3.273   7.344  1.00  0.00     0.138 A 
ATOM     29  C   UNL     1       3.407  -3.985   8.505  1.00  0.00     0.102 A 
ATOM     30  O   UNL     1       2.880  -2.323   6.832  1.00  0.00    -0.484 OA
ATOM     31  C   UNL     1       2.132  -3.570   9.167  1.00  0.00     0.174 C 
ATOM     32  C   UNL     1       2.210  -1.443   7.732  1.00  0.00     0.211 C 
ATOM     33  O   UNL     1       1.591  -4.288  10.049  1.00  0.00    -0.294 OA
ATOM     34  C   UNL     1       1.454  -2.261   8.817  1.00  0.00     0.131 C 
BRANCH  27  35
ATOM     35  O   UNL     1       4.010  -5.786  10.124  1.00  0.00    -0.507 OA
ATOM     36  H   UNL     1       4.349  -5.579  11.049  1.00  0.00     0.293 HD
ENDBRANCH  27  35
BRANCH  32  37
ATOM     37  C   UNL     1       3.229  -0.456   8.260  1.00  0.00    -0.007 A 
ATOM     38  C   UNL     1       3.395  -0.227   9.632  1.00  0.00     0.011 A 
ATOM     39  C   UNL     1       4.246  -0.020   7.385  1.00  0.00     0.011 A 
ATOM     40  C   UNL     1       4.573   0.343  10.125  1.00  0.00     0.046 A 
ATOM     41  C   UNL     1       5.422   0.531   7.882  1.00  0.00     0.046 A 
ATOM     42  C   UNL     1       5.612   0.684   9.254  1.00  0.00     0.115 A 
BRANCH  42  43
ATOM     43  O   UNL     1       6.826   1.145   9.759  1.00  0.00    -0.508 OA
ATOM     44  H   UNL     1       7.006   1.175  10.758  1.00  0.00     0.293 HD
ENDBRANCH  42  43
ENDBRANCH  32  37
ENDBRANCH  23  24
ENDBRANCH   6  23
BRANCH   3  45
ATOM     45  O   UNL     1      10.120  -0.932   8.889  1.00  0.00    -0.387 OA
ATOM     46  H   UNL     1      11.098  -0.975   8.729  1.00  0.00     0.211 HD
ENDBRANCH   3  45
BRANCH   4  47
ATOM     47  C   UNL     1       9.949  -3.790   8.503  1.00  0.00     0.191 C 
BRANCH  47  48
ATOM     48  O   UNL     1      10.124  -5.095   8.036  1.00  0.00    -0.394 OA
ATOM     49  H   UNL     1       9.248  -5.547   8.147  1.00  0.00     0.210 HD
ENDBRANCH  47  48
ENDBRANCH   4  47
TORSDOF 14
ENDMDL
