MODEL 1
REMARK VINA RESULT:    -4.829      0.000      0.000
REMARK INTER + INTRA:         -10.179
REMARK INTER:                  -8.216
REMARK INTRA:                  -1.963
REMARK UNBOUND:                -1.963
REMARK SMILES CCCCCCCCCCCCCC(=O)[O-]
REMARK SMILES IDX 8 1 9 2 10 3 11 4 12 5 13 6 14 7 15 8 16 9 7 10 6 11 5 12
REMARK SMILES IDX 4 13 3 14 2 15 1 16
REMARK H PARENT
REMARK Flexibility Score: inf
ROOT
ATOM      1  C   UNL     1       6.773   4.293   7.684  1.00  0.00     0.000 C 
ENDROOT
BRANCH   1   2
ATOM      2  C   UNL     1       5.455   4.985   8.075  1.00  0.00     0.000 C 
BRANCH   2   3
ATOM      3  C   UNL     1       4.265   4.511   7.225  1.00  0.00     0.000 C 
BRANCH   3   4
ATOM      4  C   UNL     1       3.037   5.422   7.362  1.00  0.00     0.000 C 
BRANCH   4   5
ATOM      5  C   UNL     1       3.442   6.817   7.862  1.00  0.00     0.006 C 
BRANCH   5   6
ATOM      6  C   UNL     1       2.650   7.935   7.172  1.00  0.00     0.053 C 
BRANCH   6   7
ATOM      7  C   UNL     1       2.820   9.250   7.871  1.00  0.00     0.041 C 
ATOM      8  O   UNL     1       2.357   9.417   9.029  1.00  0.00    -0.550 OA
ATOM      9  O   UNL     1       3.521  10.278   7.254  1.00  0.00    -0.550 OA
ENDBRANCH   6   7
ENDBRANCH   5   6
ENDBRANCH   4   5
ENDBRANCH   3   4
ENDBRANCH   2   3
ENDBRANCH   1   2
BRANCH   1  10
ATOM     10  C   UNL     1       8.009   5.048   8.203  1.00  0.00     0.000 C 
BRANCH  10  11
ATOM     11  C   UNL     1       7.894   6.570   8.009  1.00  0.00    -0.000 C 
BRANCH  11  12
ATOM     12  C   UNL     1       8.732   7.089   6.827  1.00  0.00    -0.000 C 
BRANCH  12  13
ATOM     13  C   UNL     1       7.981   8.002   5.840  1.00  0.00    -0.000 C 
BRANCH  13  14
ATOM     14  C   UNL     1       6.475   8.095   6.135  1.00  0.00    -0.000 C 
BRANCH  14  15
ATOM     15  C   UNL     1       5.613   7.601   4.963  1.00  0.00    -0.003 C 
ATOM     16  C   UNL     1       6.057   6.237   4.434  1.00  0.00     0.004 C 
ENDBRANCH  14  15
ENDBRANCH  13  14
ENDBRANCH  12  13
ENDBRANCH  11  12
ENDBRANCH  10  11
ENDBRANCH   1  10
TORSDOF 12
ENDMDL
MODEL 2
REMARK VINA RESULT:    -4.790      3.925      6.957
REMARK INTER + INTRA:         -10.113
REMARK INTER:                  -8.383
REMARK INTRA:                  -1.730
REMARK UNBOUND:                -1.963
REMARK SMILES CCCCCCCCCCCCCC(=O)[O-]
REMARK SMILES IDX 8 1 9 2 10 3 11 4 12 5 13 6 14 7 15 8 16 9 7 10 6 11 5 12
REMARK SMILES IDX 4 13 3 14 2 15 1 16
REMARK H PARENT
REMARK Flexibility Score: inf
ROOT
ATOM      1  C   UNL     1       2.036   9.627  10.245  1.00  0.00     0.000 C 
ENDROOT
BRANCH   1   2
ATOM      2  C   UNL     1       2.105   8.707   9.014  1.00  0.00     0.000 C 
BRANCH   2   3
ATOM      3  C   UNL     1       3.480   8.742   8.326  1.00  0.00     0.000 C 
BRANCH   3   4
ATOM      4  C   UNL     1       3.779   7.462   7.533  1.00  0.00     0.000 C 
BRANCH   4   5
ATOM      5  C   UNL     1       3.203   6.228   8.243  1.00  0.00     0.006 C 
BRANCH   5   6
ATOM      6  C   UNL     1       2.660   5.188   7.255  1.00  0.00     0.053 C 
BRANCH   6   7
ATOM      7  C   UNL     1       2.898   3.788   7.736  1.00  0.00     0.041 C 
ATOM      8  O   UNL     1       1.980   3.152   8.315  1.00  0.00    -0.550 OA
ATOM      9  O   UNL     1       4.125   3.177   7.512  1.00  0.00    -0.550 OA
ENDBRANCH   6   7
ENDBRANCH   5   6
ENDBRANCH   4   5
ENDBRANCH   3   4
ENDBRANCH   2   3
ENDBRANCH   1   2
BRANCH   1  10
ATOM     10  C   UNL     1       1.194   9.024  11.383  1.00  0.00     0.000 C 
BRANCH  10  11
ATOM     11  C   UNL     1       1.578   7.566  11.690  1.00  0.00    -0.000 C 
BRANCH  11  12
ATOM     12  C   UNL     1       0.515   6.829  12.526  1.00  0.00    -0.000 C 
BRANCH  12  13
ATOM     13  C   UNL     1      -0.352   5.824  11.747  1.00  0.00    -0.000 C 
BRANCH  13  14
ATOM     14  C   UNL     1       0.278   5.395  10.411  1.00  0.00    -0.000 C 
BRANCH  14  15
ATOM     15  C   UNL     1      -0.690   5.549   9.227  1.00  0.00    -0.003 C 
ATOM     16  C   UNL     1      -1.256   6.964   9.104  1.00  0.00     0.004 C 
ENDBRANCH  14  15
ENDBRANCH  13  14
ENDBRANCH  12  13
ENDBRANCH  11  12
ENDBRANCH  10  11
ENDBRANCH   1  10
TORSDOF 12
ENDMDL
MODEL 3
REMARK VINA RESULT:    -4.768      1.240      1.786
REMARK INTER + INTRA:         -10.075
REMARK INTER:                  -8.286
REMARK INTRA:                  -1.789
REMARK UNBOUND:                -1.963
REMARK SMILES CCCCCCCCCCCCCC(=O)[O-]
REMARK SMILES IDX 8 1 9 2 10 3 11 4 12 5 13 6 14 7 15 8 16 9 7 10 6 11 5 12
REMARK SMILES IDX 4 13 3 14 2 15 1 16
REMARK H PARENT
REMARK Flexibility Score: inf
ROOT
ATOM      1  C   UNL     1       5.470   4.114   8.206  1.00  0.00     0.000 C 
ENDROOT
BRANCH   1   2
ATOM      2  C   UNL     1       4.205   4.515   7.428  1.00  0.00     0.000 C 
BRANCH   2   3
ATOM      3  C   UNL     1       3.341   5.533   8.191  1.00  0.00     0.000 C 
BRANCH   3   4
ATOM      4  C   UNL     1       4.171   6.462   9.089  1.00  0.00     0.000 C 
BRANCH   4   5
ATOM      5  C   UNL     1       4.094   7.915   8.594  1.00  0.00     0.006 C 
BRANCH   5   6
ATOM      6  C   UNL     1       2.666   8.323   8.210  1.00  0.00     0.053 C 
BRANCH   6   7
ATOM      7  C   UNL     1       1.860   8.720   9.410  1.00  0.00     0.041 C 
ATOM      8  O   UNL     1       0.751   8.172   9.639  1.00  0.00    -0.550 OA
ATOM      9  O   UNL     1       2.354   9.673  10.292  1.00  0.00    -0.550 OA
ENDBRANCH   6   7
ENDBRANCH   5   6
ENDBRANCH   4   5
ENDBRANCH   3   4
ENDBRANCH   2   3
ENDBRANCH   1   2
BRANCH   1  10
ATOM     10  C   UNL     1       6.758   4.354   7.398  1.00  0.00     0.000 C 
BRANCH  10  11
ATOM     11  C   UNL     1       7.917   4.857   8.275  1.00  0.00    -0.000 C 
BRANCH  11  12
ATOM     12  C   UNL     1       8.464   6.223   7.820  1.00  0.00    -0.000 C 
BRANCH  12  13
ATOM     13  C   UNL     1       7.412   7.200   7.265  1.00  0.00    -0.000 C 
BRANCH  13  14
ATOM     14  C   UNL     1       7.774   7.745   5.872  1.00  0.00    -0.000 C 
BRANCH  14  15
ATOM     15  C   UNL     1       6.807   7.259   4.781  1.00  0.00    -0.003 C 
ATOM     16  C   UNL     1       5.345   7.292   5.225  1.00  0.00     0.004 C 
ENDBRANCH  14  15
ENDBRANCH  13  14
ENDBRANCH  12  13
ENDBRANCH  11  12
ENDBRANCH  10  11
ENDBRANCH   1  10
TORSDOF 12
ENDMDL
MODEL 4
REMARK VINA RESULT:    -4.710      3.985      6.224
REMARK INTER + INTRA:          -9.976
REMARK INTER:                  -8.282
REMARK INTRA:                  -1.695
REMARK UNBOUND:                -1.963
REMARK SMILES CCCCCCCCCCCCCC(=O)[O-]
REMARK SMILES IDX 8 1 9 2 10 3 11 4 12 5 13 6 14 7 15 8 16 9 7 10 6 11 5 12
REMARK SMILES IDX 4 13 3 14 2 15 1 16
REMARK H PARENT
REMARK Flexibility Score: inf
ROOT
ATOM      1  C   UNL     1       0.750   6.255  11.949  1.00  0.00     0.000 C 
ENDROOT
BRANCH   1   2
ATOM      2  C   UNL     1      -0.698   5.794  11.707  1.00  0.00     0.000 C 
BRANCH   2   3
ATOM      3  C   UNL     1      -0.988   5.513  10.224  1.00  0.00     0.000 C 
BRANCH   3   4
ATOM      4  C   UNL     1      -0.477   6.626   9.297  1.00  0.00     0.000 C 
BRANCH   4   5
ATOM      5  C   UNL     1       0.443   6.055   8.208  1.00  0.00     0.006 C 
BRANCH   5   6
ATOM      6  C   UNL     1       1.342   4.930   8.738  1.00  0.00     0.053 C 
BRANCH   6   7
ATOM      7  C   UNL     1       2.401   4.553   7.747  1.00  0.00     0.041 C 
ATOM      8  O   UNL     1       2.846   3.376   7.712  1.00  0.00    -0.550 OA
ATOM      9  O   UNL     1       2.871   5.495   6.841  1.00  0.00    -0.550 OA
ENDBRANCH   6   7
ENDBRANCH   5   6
ENDBRANCH   4   5
ENDBRANCH   3   4
ENDBRANCH   2   3
ENDBRANCH   1   2
BRANCH   1  10
ATOM     10  C   UNL     1       0.842   7.378  12.997  1.00  0.00     0.000 C 
BRANCH  10  11
ATOM     11  C   UNL     1       1.724   8.548  12.529  1.00  0.00    -0.000 C 
BRANCH  11  12
ATOM     12  C   UNL     1       1.156   9.271  11.294  1.00  0.00    -0.000 C 
BRANCH  12  13
ATOM     13  C   UNL     1       2.165   9.525  10.159  1.00  0.00    -0.000 C 
BRANCH  13  14
ATOM     14  C   UNL     1       2.887   8.246   9.700  1.00  0.00    -0.000 C 
BRANCH  14  15
ATOM     15  C   UNL     1       3.691   8.456   8.407  1.00  0.00    -0.003 C 
ATOM     16  C   UNL     1       2.863   9.092   7.291  1.00  0.00     0.004 C 
ENDBRANCH  14  15
ENDBRANCH  13  14
ENDBRANCH  12  13
ENDBRANCH  11  12
ENDBRANCH  10  11
ENDBRANCH   1  10
TORSDOF 12
ENDMDL
MODEL 5
REMARK VINA RESULT:    -4.697      1.645      2.429
REMARK INTER + INTRA:          -9.954
REMARK INTER:                  -8.244
REMARK INTRA:                  -1.710
REMARK UNBOUND:                -1.963
REMARK SMILES CCCCCCCCCCCCCC(=O)[O-]
REMARK SMILES IDX 8 1 9 2 10 3 11 4 12 5 13 6 14 7 15 8 16 9 7 10 6 11 5 12
REMARK SMILES IDX 4 13 3 14 2 15 1 16
REMARK H PARENT
REMARK Flexibility Score: inf
ROOT
ATOM      1  C   UNL     1       7.284   4.433   7.807  1.00  0.00     0.000 C 
ENDROOT
BRANCH   1   2
ATOM      2  C   UNL     1       5.849   3.912   7.998  1.00  0.00     0.000 C 
BRANCH   2   3
ATOM      3  C   UNL     1       4.806   5.042   7.998  1.00  0.00     0.000 C 
BRANCH   3   4
ATOM      4  C   UNL     1       3.392   4.544   8.333  1.00  0.00     0.000 C 
BRANCH   4   5
ATOM      5  C   UNL     1       2.439   4.764   7.148  1.00  0.00     0.006 C 
BRANCH   5   6
ATOM      6  C   UNL     1       1.998   6.228   7.020  1.00  0.00     0.053 C 
BRANCH   6   7
ATOM      7  C   UNL     1       1.138   6.651   8.172  1.00  0.00     0.041 C 
ATOM      8  O   UNL     1       1.362   7.738   8.766  1.00  0.00    -0.550 OA
ATOM      9  O   UNL     1       0.066   5.859   8.565  1.00  0.00    -0.550 OA
ENDBRANCH   6   7
ENDBRANCH   5   6
ENDBRANCH   4   5
ENDBRANCH   3   4
ENDBRANCH   2   3
ENDBRANCH   1   2
BRANCH   1  10
ATOM     10  C   UNL     1       7.414   5.932   8.132  1.00  0.00     0.000 C 
BRANCH  10  11
ATOM     11  C   UNL     1       8.468   6.633   7.260  1.00  0.00    -0.000 C 
BRANCH  11  12
ATOM     12  C   UNL     1       7.856   7.656   6.284  1.00  0.00    -0.000 C 
BRANCH  12  13
ATOM     13  C   UNL     1       6.655   7.145   5.466  1.00  0.00    -0.000 C 
BRANCH  13  14
ATOM     14  C   UNL     1       5.359   7.922   5.754  1.00  0.00    -0.000 C 
BRANCH  14  15
ATOM     15  C   UNL     1       5.527   8.949   6.886  1.00  0.00    -0.003 C 
ATOM     16  C   UNL     1       4.736   8.582   8.141  1.00  0.00     0.004 C 
ENDBRANCH  14  15
ENDBRANCH  13  14
ENDBRANCH  12  13
ENDBRANCH  11  12
ENDBRANCH  10  11
ENDBRANCH   1  10
TORSDOF 12
ENDMDL
MODEL 6
REMARK VINA RESULT:    -4.689      2.780      4.246
REMARK INTER + INTRA:          -9.940
REMARK INTER:                  -8.260
REMARK INTRA:                  -1.681
REMARK UNBOUND:                -1.963
REMARK SMILES CCCCCCCCCCCCCC(=O)[O-]
REMARK SMILES IDX 8 1 9 2 10 3 11 4 12 5 13 6 14 7 15 8 16 9 7 10 6 11 5 12
REMARK SMILES IDX 4 13 3 14 2 15 1 16
REMARK H PARENT
REMARK Flexibility Score: inf
ROOT
ATOM      1  C   UNL     1       2.475   7.417   6.367  1.00  0.00     0.000 C 
ENDROOT
BRANCH   1   2
ATOM      2  C   UNL     1       1.775   6.146   6.880  1.00  0.00     0.000 C 
BRANCH   2   3
ATOM      3  C   UNL     1       2.770   5.082   7.372  1.00  0.00     0.000 C 
BRANCH   3   4
ATOM      4  C   UNL     1       3.242   5.330   8.812  1.00  0.00     0.000 C 
BRANCH   4   5
ATOM      5  C   UNL     1       2.276   4.693   9.823  1.00  0.00     0.006 C 
BRANCH   5   6
ATOM      6  C   UNL     1       1.417   5.739  10.545  1.00  0.00     0.053 C 
BRANCH   6   7
ATOM      7  C   UNL     1      -0.031   5.353  10.560  1.00  0.00     0.041 C 
ATOM      8  O   UNL     1      -0.767   5.690  11.524  1.00  0.00    -0.550 OA
ATOM      9  O   UNL     1      -0.573   4.650   9.491  1.00  0.00    -0.550 OA
ENDBRANCH   6   7
ENDBRANCH   5   6
ENDBRANCH   4   5
ENDBRANCH   3   4
ENDBRANCH   2   3
ENDBRANCH   1   2
BRANCH   1  10
ATOM     10  C   UNL     1       2.492   8.542   7.417  1.00  0.00     0.000 C 
BRANCH  10  11
ATOM     11  C   UNL     1       3.828   9.305   7.440  1.00  0.00    -0.000 C 
BRANCH  11  12
ATOM     12  C   UNL     1       4.990   8.460   7.994  1.00  0.00    -0.000 C 
BRANCH  12  13
ATOM     13  C   UNL     1       6.123   8.165   6.994  1.00  0.00    -0.000 C 
BRANCH  13  14
ATOM     14  C   UNL     1       6.523   6.680   6.962  1.00  0.00    -0.000 C 
BRANCH  14  15
ATOM     15  C   UNL     1       5.915   5.932   5.765  1.00  0.00    -0.003 C 
ATOM     16  C   UNL     1       6.054   6.701   4.452  1.00  0.00     0.004 C 
ENDBRANCH  14  15
ENDBRANCH  13  14
ENDBRANCH  12  13
ENDBRANCH  11  12
ENDBRANCH  10  11
ENDBRANCH   1  10
TORSDOF 12
ENDMDL
MODEL 7
REMARK VINA RESULT:    -4.678      3.476      6.585
REMARK INTER + INTRA:          -9.922
REMARK INTER:                  -8.118
REMARK INTRA:                  -1.804
REMARK UNBOUND:                -1.963
REMARK SMILES CCCCCCCCCCCCCC(=O)[O-]
REMARK SMILES IDX 8 1 9 2 10 3 11 4 12 5 13 6 14 7 15 8 16 9 7 10 6 11 5 12
REMARK SMILES IDX 4 13 3 14 2 15 1 16
REMARK H PARENT
REMARK Flexibility Score: inf
ROOT
ATOM      1  C   UNL     1       2.080   9.419  10.132  1.00  0.00     0.000 C 
ENDROOT
BRANCH   1   2
ATOM      2  C   UNL     1       2.746   8.312   9.296  1.00  0.00     0.000 C 
BRANCH   2   3
ATOM      3  C   UNL     1       2.254   8.294   7.840  1.00  0.00     0.000 C 
BRANCH   3   4
ATOM      4  C   UNL     1       2.329   6.898   7.205  1.00  0.00     0.000 C 
BRANCH   4   5
ATOM      5  C   UNL     1       3.421   6.049   7.873  1.00  0.00     0.006 C 
BRANCH   5   6
ATOM      6  C   UNL     1       4.558   5.697   6.904  1.00  0.00     0.053 C 
BRANCH   6   7
ATOM      7  C   UNL     1       5.525   6.831   6.747  1.00  0.00     0.041 C 
ATOM      8  O   UNL     1       5.327   7.718   5.876  1.00  0.00    -0.550 OA
ATOM      9  O   UNL     1       6.627   6.924   7.587  1.00  0.00    -0.550 OA
ENDBRANCH   6   7
ENDBRANCH   5   6
ENDBRANCH   4   5
ENDBRANCH   3   4
ENDBRANCH   2   3
ENDBRANCH   1   2
BRANCH   1  10
ATOM     10  C   UNL     1       1.172   8.854  11.239  1.00  0.00     0.000 C 
BRANCH  10  11
ATOM     11  C   UNL     1       1.609   7.453  11.700  1.00  0.00    -0.000 C 
BRANCH  11  12
ATOM     12  C   UNL     1       0.503   6.702  12.464  1.00  0.00    -0.000 C 
BRANCH  12  13
ATOM     13  C   UNL     1      -0.436   5.849  11.591  1.00  0.00    -0.000 C 
BRANCH  13  14
ATOM     14  C   UNL     1       0.251   5.302  10.328  1.00  0.00    -0.000 C 
BRANCH  14  15
ATOM     15  C   UNL     1      -0.525   5.635   9.044  1.00  0.00    -0.003 C 
ATOM     16  C   UNL     1      -1.306   6.945   9.146  1.00  0.00     0.004 C 
ENDBRANCH  14  15
ENDBRANCH  13  14
ENDBRANCH  12  13
ENDBRANCH  11  12
ENDBRANCH  10  11
ENDBRANCH   1  10
TORSDOF 12
ENDMDL
MODEL 8
REMARK VINA RESULT:    -4.659      2.972      5.994
REMARK INTER + INTRA:          -9.891
REMARK INTER:                  -8.101
REMARK INTRA:                  -1.790
REMARK UNBOUND:                -1.963
REMARK SMILES CCCCCCCCCCCCCC(=O)[O-]
REMARK SMILES IDX 8 1 9 2 10 3 11 4 12 5 13 6 14 7 15 8 16 9 7 10 6 11 5 12
REMARK SMILES IDX 4 13 3 14 2 15 1 16
REMARK H PARENT
REMARK Flexibility Score: inf
ROOT
ATOM      1  C   UNL     1       2.742   7.336   6.305  1.00  0.00     0.000 C 
ENDROOT
BRANCH   1   2
ATOM      2  C   UNL     1       2.570   8.489   7.308  1.00  0.00     0.000 C 
BRANCH   2   3
ATOM      3  C   UNL     1       3.668   8.505   8.385  1.00  0.00     0.000 C 
BRANCH   3   4
ATOM      4  C   UNL     1       5.081   8.599   7.790  1.00  0.00     0.000 C 
BRANCH   4   5
ATOM      5  C   UNL     1       5.832   7.268   7.950  1.00  0.00     0.006 C 
BRANCH   5   6
ATOM      6  C   UNL     1       6.496   6.815   6.643  1.00  0.00     0.053 C 
BRANCH   6   7
ATOM      7  C   UNL     1       7.900   7.326   6.527  1.00  0.00     0.041 C 
ATOM      8  O   UNL     1       8.212   8.121   5.603  1.00  0.00    -0.550 OA
ATOM      9  O   UNL     1       8.855   6.947   7.462  1.00  0.00    -0.550 OA
ENDBRANCH   6   7
ENDBRANCH   5   6
ENDBRANCH   4   5
ENDBRANCH   3   4
ENDBRANCH   2   3
ENDBRANCH   1   2
BRANCH   1  10
ATOM     10  C   UNL     1       1.898   6.103   6.675  1.00  0.00     0.000 C 
BRANCH  10  11
ATOM     11  C   UNL     1       2.743   4.976   7.293  1.00  0.00    -0.000 C 
BRANCH  11  12
ATOM     12  C   UNL     1       2.185   4.477   8.639  1.00  0.00    -0.000 C 
BRANCH  12  13
ATOM     13  C   UNL     1       2.404   5.425   9.833  1.00  0.00    -0.000 C 
BRANCH  13  14
ATOM     14  C   UNL     1       1.097   5.792  10.556  1.00  0.00    -0.000 C 
BRANCH  14  15
ATOM     15  C   UNL     1       0.430   7.045   9.968  1.00  0.00    -0.003 C 
ATOM     16  C   UNL     1      -0.841   6.726   9.181  1.00  0.00     0.004 C 
ENDBRANCH  14  15
ENDBRANCH  13  14
ENDBRANCH  12  13
ENDBRANCH  11  12
ENDBRANCH  10  11
ENDBRANCH   1  10
TORSDOF 12
ENDMDL
MODEL 9
REMARK VINA RESULT:    -4.572      2.909      5.910
REMARK INTER + INTRA:          -9.742
REMARK INTER:                  -7.865
REMARK INTRA:                  -1.878
REMARK UNBOUND:                -1.963
REMARK SMILES CCCCCCCCCCCCCC(=O)[O-]
REMARK SMILES IDX 8 1 9 2 10 3 11 4 12 5 13 6 14 7 15 8 16 9 7 10 6 11 5 12
REMARK SMILES IDX 4 13 3 14 2 15 1 16
REMARK H PARENT
REMARK Flexibility Score: inf
ROOT
ATOM      1  C   UNL     1       3.334   5.979   8.664  1.00  0.00     0.000 C 
ENDROOT
BRANCH   1   2
ATOM      2  C   UNL     1       2.730   6.006   7.249  1.00  0.00     0.000 C 
BRANCH   2   3
ATOM      3  C   UNL     1       2.924   7.361   6.550  1.00  0.00     0.000 C 
BRANCH   3   4
ATOM      4  C   UNL     1       3.325   8.480   7.524  1.00  0.00     0.000 C 
BRANCH   4   5
ATOM      5  C   UNL     1       4.660   9.116   7.109  1.00  0.00     0.006 C 
BRANCH   5   6
ATOM      6  C   UNL     1       5.411   8.269   6.074  1.00  0.00     0.053 C 
BRANCH   6   7
ATOM      7  C   UNL     1       6.679   7.701   6.636  1.00  0.00     0.041 C 
ATOM      8  O   UNL     1       6.638   6.863   7.574  1.00  0.00    -0.550 OA
ATOM      9  O   UNL     1       7.904   8.075   6.099  1.00  0.00    -0.550 OA
ENDBRANCH   6   7
ENDBRANCH   5   6
ENDBRANCH   4   5
ENDBRANCH   3   4
ENDBRANCH   2   3
ENDBRANCH   1   2
BRANCH   1  10
ATOM     10  C   UNL     1       2.779   4.826   9.518  1.00  0.00     0.000 C 
BRANCH  10  11
ATOM     11  C   UNL     1       1.342   4.441   9.124  1.00  0.00    -0.000 C 
BRANCH  11  12
ATOM     12  C   UNL     1       0.275   5.229   9.907  1.00  0.00    -0.000 C 
BRANCH  12  13
ATOM     13  C   UNL     1      -0.493   6.285   9.091  1.00  0.00    -0.000 C 
BRANCH  13  14
ATOM     14  C   UNL     1      -0.108   7.727   9.464  1.00  0.00    -0.000 C 
BRANCH  14  15
ATOM     15  C   UNL     1       0.802   7.793  10.701  1.00  0.00    -0.003 C 
ATOM     16  C   UNL     1       1.590   9.100  10.788  1.00  0.00     0.004 C 
ENDBRANCH  14  15
ENDBRANCH  13  14
ENDBRANCH  12  13
ENDBRANCH  11  12
ENDBRANCH  10  11
ENDBRANCH   1  10
TORSDOF 12
ENDMDL
