MODEL 1
REMARK VINA RESULT:    -7.369      0.000      0.000
REMARK INTER + INTRA:          -8.280
REMARK INTER:                  -8.016
REMARK INTRA:                  -0.264
REMARK UNBOUND:                -0.264
REMARK SMILES C=C(C)[C@H]1CC[C@]2(C)CC[C@]3(C)[C@H](CC[C@H]4[C@@]5(C)CC[C@@H](O)C(C)(C)[C@H]5CC[C@]43C)[C@@H]12
REMARK SMILES IDX 4 1 5 2 6 3 7 4 31 5 13 6 14 7 15 8 16 9 17 10 19 11 20 12
REMARK SMILES IDX 21 13 23 14 26 15 27 16 28 17 29 18 11 19 10 20 9 21 12 22
REMARK SMILES IDX 30 23 24 24 25 25 18 26 8 27 2 28 3 29 1 30 22 31
REMARK H PARENT 22 32
REMARK Flexibility Score: inf
ROOT
ATOM      1  C   UNL     1     113.610 123.228 129.222  1.00  0.00     0.018 C 
ATOM      2  C   UNL     1     112.465 123.014 130.234  1.00  0.00     0.009 C 
ATOM      3  C   UNL     1     113.123 122.883 131.622  1.00  0.00     0.008 C 
ATOM      4  C   UNL     1     114.505 122.281 131.334  1.00  0.00    -0.029 C 
ATOM      5  C   UNL     1     114.902 123.038 130.056  1.00  0.00     0.006 C 
ATOM      6  C   UNL     1     116.263 122.588 129.455  1.00  0.00    -0.000 C 
ATOM      7  C   UNL     1     116.593 123.369 128.169  1.00  0.00     0.005 C 
ATOM      8  C   UNL     1     118.074 123.320 127.753  1.00  0.00     0.005 C 
ATOM      9  C   UNL     1     118.902 122.124 128.334  1.00  0.00     0.002 C 
ATOM     10  C   UNL     1     120.421 122.107 127.784  1.00  0.00    -0.026 C 
ATOM     11  C   UNL     1     121.053 123.548 127.724  1.00  0.00     0.010 C 
ATOM     12  C   UNL     1     122.580 123.630 127.950  1.00  0.00     0.033 C 
ATOM     13  C   UNL     1     123.343 122.399 127.435  1.00  0.00     0.120 C 
ATOM     14  C   UNL     1     122.886 121.070 128.141  1.00  0.00    -0.006 C 
ATOM     15  C   UNL     1     121.362 121.173 128.653  1.00  0.00     0.003 C 
ATOM     16  C   UNL     1     121.261 121.515 130.180  1.00  0.00     0.005 C 
ATOM     17  C   UNL     1     120.013 122.281 130.631  1.00  0.00     0.008 C 
ATOM     18  C   UNL     1     118.710 121.878 129.903  1.00  0.00    -0.024 C 
ATOM     19  C   UNL     1     117.440 122.680 130.517  1.00  0.00    -0.024 C 
ATOM     20  C   UNL     1     116.969 122.088 131.916  1.00  0.00     0.008 C 
ATOM     21  C   UNL     1     115.581 122.582 132.401  1.00  0.00     0.007 C 
ATOM     22  C   UNL     1     117.808 124.178 130.830  1.00  0.00     0.012 C 
ATOM     23  C   UNL     1     118.511 120.333 130.129  1.00  0.00     0.012 C 
ATOM     24  C   UNL     1     123.037 119.893 127.133  1.00  0.00     0.014 C 
ATOM     25  C   UNL     1     123.868 120.700 129.299  1.00  0.00     0.014 C 
ATOM     26  C   UNL     1     120.329 121.544 126.328  1.00  0.00     0.012 C 
ATOM     27  C   UNL     1     114.333 120.738 131.194  1.00  0.00     0.011 C 
ENDROOT
BRANCH   1  28
ATOM     28  C   UNL     1     113.430 122.439 127.921  1.00  0.00    -0.077 C 
ATOM     29  C   UNL     1     113.752 120.965 127.910  1.00  0.00     0.039 C 
ATOM     30  C   UNL     1     113.017 122.989 126.769  1.00  0.00     0.008 C 
ENDBRANCH   1  28
BRANCH  13  31
ATOM     31  O   UNL     1     124.739 122.593 127.513  1.00  0.00    -0.393 OA
ATOM     32  H   UNL     1     125.044 123.039 126.681  1.00  0.00     0.210 HD
ENDBRANCH  13  31
TORSDOF 2
ENDMDL
MODEL 2
REMARK VINA RESULT:    -7.097      2.012      3.236
REMARK INTER + INTRA:          -7.983
REMARK INTER:                  -7.516
REMARK INTRA:                  -0.467
REMARK UNBOUND:                -0.264
REMARK SMILES C=C(C)[C@H]1CC[C@]2(C)CC[C@]3(C)[C@H](CC[C@H]4[C@@]5(C)CC[C@@H](O)C(C)(C)[C@H]5CC[C@]43C)[C@@H]12
REMARK SMILES IDX 4 1 5 2 6 3 7 4 31 5 13 6 14 7 15 8 16 9 17 10 19 11 20 12
REMARK SMILES IDX 21 13 23 14 26 15 27 16 28 17 29 18 11 19 10 20 9 21 12 22
REMARK SMILES IDX 30 23 24 24 25 25 18 26 8 27 2 28 3 29 1 30 22 31
REMARK H PARENT 22 32
REMARK Flexibility Score: inf
ROOT
ATOM      1  C   UNL     1     114.630 121.593 128.238  1.00  0.00     0.018 C 
ATOM      2  C   UNL     1     113.190 122.145 128.303  1.00  0.00     0.009 C 
ATOM      3  C   UNL     1     113.309 123.650 128.614  1.00  0.00     0.008 C 
ATOM      4  C   UNL     1     114.604 123.770 129.428  1.00  0.00    -0.029 C 
ATOM      5  C   UNL     1     115.519 122.781 128.687  1.00  0.00     0.006 C 
ATOM      6  C   UNL     1     116.922 122.616 129.333  1.00  0.00    -0.000 C 
ATOM      7  C   UNL     1     117.780 121.599 128.557  1.00  0.00     0.005 C 
ATOM      8  C   UNL     1     119.291 121.689 128.838  1.00  0.00     0.005 C 
ATOM      9  C   UNL     1     119.689 122.381 130.186  1.00  0.00     0.002 C 
ATOM     10  C   UNL     1     121.286 122.361 130.435  1.00  0.00    -0.026 C 
ATOM     11  C   UNL     1     122.101 122.664 129.123  1.00  0.00     0.010 C 
ATOM     12  C   UNL     1     123.455 123.385 129.314  1.00  0.00     0.033 C 
ATOM     13  C   UNL     1     124.161 123.023 130.631  1.00  0.00     0.120 C 
ATOM     14  C   UNL     1     123.304 123.397 131.895  1.00  0.00    -0.006 C 
ATOM     15  C   UNL     1     121.729 123.389 131.558  1.00  0.00     0.003 C 
ATOM     16  C   UNL     1     121.164 124.825 131.281  1.00  0.00     0.005 C 
ATOM     17  C   UNL     1     119.961 124.919 130.336  1.00  0.00     0.008 C 
ATOM     18  C   UNL     1     118.941 123.765 130.473  1.00  0.00    -0.024 C 
ATOM     19  C   UNL     1     117.667 124.008 129.497  1.00  0.00    -0.024 C 
ATOM     20  C   UNL     1     116.668 125.105 130.068  1.00  0.00     0.008 C 
ATOM     21  C   UNL     1     115.284 125.158 129.370  1.00  0.00     0.007 C 
ATOM     22  C   UNL     1     118.118 124.580 128.102  1.00  0.00     0.012 C 
ATOM     23  C   UNL     1     118.455 123.751 131.970  1.00  0.00     0.012 C 
ATOM     24  C   UNL     1     123.618 122.378 133.029  1.00  0.00     0.014 C 
ATOM     25  C   UNL     1     123.768 124.769 132.485  1.00  0.00     0.014 C 
ATOM     26  C   UNL     1     121.615 120.905 130.900  1.00  0.00     0.012 C 
ATOM     27  C   UNL     1     114.270 123.421 130.910  1.00  0.00     0.011 C 
ENDROOT
BRANCH   1  28
ATOM     28  C   UNL     1     114.793 120.231 128.918  1.00  0.00    -0.077 C 
ATOM     29  C   UNL     1     115.299 119.064 128.105  1.00  0.00     0.039 C 
ATOM     30  C   UNL     1     114.491 120.001 130.206  1.00  0.00     0.008 C 
ENDBRANCH   1  28
BRANCH  13  31
ATOM     31  O   UNL     1     125.459 123.575 130.683  1.00  0.00    -0.393 OA
ATOM     32  H   UNL     1     125.967 123.267 129.888  1.00  0.00     0.210 HD
ENDBRANCH  13  31
TORSDOF 2
ENDMDL
MODEL 3
REMARK VINA RESULT:    -6.979      3.133      5.241
REMARK INTER + INTRA:          -7.855
REMARK INTER:                  -7.923
REMARK INTRA:                   0.068
REMARK UNBOUND:                -0.264
REMARK SMILES C=C(C)[C@H]1CC[C@]2(C)CC[C@]3(C)[C@H](CC[C@H]4[C@@]5(C)CC[C@@H](O)C(C)(C)[C@H]5CC[C@]43C)[C@@H]12
REMARK SMILES IDX 4 1 5 2 6 3 7 4 31 5 13 6 14 7 15 8 16 9 17 10 19 11 20 12
REMARK SMILES IDX 21 13 23 14 26 15 27 16 28 17 29 18 11 19 10 20 9 21 12 22
REMARK SMILES IDX 30 23 24 24 25 25 18 26 8 27 2 28 3 29 1 30 22 31
REMARK H PARENT 22 32
REMARK Flexibility Score: inf
ROOT
ATOM      1  C   UNL     1     118.444 126.924 130.457  1.00  0.00     0.018 C 
ATOM      2  C   UNL     1     117.575 128.088 130.979  1.00  0.00     0.009 C 
ATOM      3  C   UNL     1     116.365 127.448 131.689  1.00  0.00     0.008 C 
ATOM      4  C   UNL     1     116.152 126.117 130.956  1.00  0.00    -0.029 C 
ATOM      5  C   UNL     1     117.603 125.655 130.743  1.00  0.00     0.006 C 
ATOM      6  C   UNL     1     117.731 124.332 129.937  1.00  0.00    -0.000 C 
ATOM      7  C   UNL     1     119.207 123.936 129.741  1.00  0.00     0.005 C 
ATOM      8  C   UNL     1     119.428 122.462 129.358  1.00  0.00     0.005 C 
ATOM      9  C   UNL     1     118.194 121.734 128.724  1.00  0.00     0.002 C 
ATOM     10  C   UNL     1     118.539 120.219 128.282  1.00  0.00    -0.026 C 
ATOM     11  C   UNL     1     119.435 119.474 129.340  1.00  0.00     0.010 C 
ATOM     12  C   UNL     1     119.229 117.946 129.452  1.00  0.00     0.033 C 
ATOM     13  C   UNL     1     118.841 117.282 128.121  1.00  0.00     0.120 C 
ATOM     14  C   UNL     1     117.494 117.845 127.537  1.00  0.00    -0.006 C 
ATOM     15  C   UNL     1     117.233 119.358 128.024  1.00  0.00     0.003 C 
ATOM     16  C   UNL     1     116.242 119.438 129.237  1.00  0.00     0.005 C 
ATOM     17  C   UNL     1     116.420 120.622 130.193  1.00  0.00     0.008 C 
ATOM     18  C   UNL     1     116.816 121.951 129.506  1.00  0.00    -0.024 C 
ATOM     19  C   UNL     1     116.888 123.156 130.591  1.00  0.00    -0.024 C 
ATOM     20  C   UNL     1     115.447 123.678 131.013  1.00  0.00     0.008 C 
ATOM     21  C   UNL     1     115.438 125.024 131.784  1.00  0.00     0.007 C 
ATOM     22  C   UNL     1     117.539 122.671 131.940  1.00  0.00     0.012 C 
ATOM     23  C   UNL     1     115.702 122.273 128.443  1.00  0.00     0.012 C 
ATOM     24  C   UNL     1     117.561 117.784 125.982  1.00  0.00     0.014 C 
ATOM     25  C   UNL     1     116.303 116.900 127.899  1.00  0.00     0.014 C 
ATOM     26  C   UNL     1     119.348 120.349 126.950  1.00  0.00     0.012 C 
ATOM     27  C   UNL     1     115.326 126.410 129.667  1.00  0.00     0.011 C 
ENDROOT
BRANCH   1  28
ATOM     28  C   UNL     1     118.997 127.161 129.048  1.00  0.00    -0.077 C 
ATOM     29  C   UNL     1     118.266 126.570 127.868  1.00  0.00     0.039 C 
ATOM     30  C   UNL     1     120.118 127.855 128.795  1.00  0.00     0.008 C 
ENDBRANCH   1  28
BRANCH  13  31
ATOM     31  O   UNL     1     118.826 115.875 128.237  1.00  0.00    -0.393 OA
ATOM     32  H   UNL     1     119.759 115.554 128.334  1.00  0.00     0.210 HD
ENDBRANCH  13  31
TORSDOF 2
ENDMDL
MODEL 4
REMARK VINA RESULT:    -6.869      3.311      6.411
REMARK INTER + INTRA:          -7.735
REMARK INTER:                  -7.281
REMARK INTRA:                  -0.454
REMARK UNBOUND:                -0.264
REMARK SMILES C=C(C)[C@H]1CC[C@]2(C)CC[C@]3(C)[C@H](CC[C@H]4[C@@]5(C)CC[C@@H](O)C(C)(C)[C@H]5CC[C@]43C)[C@@H]12
REMARK SMILES IDX 4 1 5 2 6 3 7 4 31 5 13 6 14 7 15 8 16 9 17 10 19 11 20 12
REMARK SMILES IDX 21 13 23 14 26 15 27 16 28 17 29 18 11 19 10 20 9 21 12 22
REMARK SMILES IDX 30 23 24 24 25 25 18 26 8 27 2 28 3 29 1 30 22 31
REMARK H PARENT 22 32
REMARK Flexibility Score: inf
ROOT
ATOM      1  C   UNL     1     118.022 117.005 128.257  1.00  0.00     0.018 C 
ATOM      2  C   UNL     1     119.074 115.875 128.225  1.00  0.00     0.009 C 
ATOM      3  C   UNL     1     120.193 116.290 129.202  1.00  0.00     0.008 C 
ATOM      4  C   UNL     1     120.179 117.823 129.169  1.00  0.00    -0.029 C 
ATOM      5  C   UNL     1     118.670 118.111 129.128  1.00  0.00     0.006 C 
ATOM      6  C   UNL     1     118.318 119.620 129.013  1.00  0.00    -0.000 C 
ATOM      7  C   UNL     1     116.794 119.838 128.956  1.00  0.00     0.005 C 
ATOM      8  C   UNL     1     116.340 121.272 129.282  1.00  0.00     0.005 C 
ATOM      9  C   UNL     1     117.430 122.384 129.106  1.00  0.00     0.002 C 
ATOM     10  C   UNL     1     116.846 123.863 129.392  1.00  0.00    -0.026 C 
ATOM     11  C   UNL     1     115.879 123.896 130.634  1.00  0.00     0.010 C 
ATOM     12  C   UNL     1     115.855 125.214 131.441  1.00  0.00     0.033 C 
ATOM     13  C   UNL     1     116.097 126.465 130.581  1.00  0.00     0.120 C 
ATOM     14  C   UNL     1     117.496 126.439 129.862  1.00  0.00    -0.006 C 
ATOM     15  C   UNL     1     117.998 124.929 129.614  1.00  0.00     0.003 C 
ATOM     16  C   UNL     1     119.025 124.449 130.698  1.00  0.00     0.005 C 
ATOM     17  C   UNL     1     119.058 122.947 130.996  1.00  0.00     0.008 C 
ATOM     18  C   UNL     1     118.848 122.039 129.760  1.00  0.00    -0.024 C 
ATOM     19  C   UNL     1     118.992 120.475 130.169  1.00  0.00    -0.024 C 
ATOM     20  C   UNL     1     120.507 120.038 130.368  1.00  0.00     0.008 C 
ATOM     21  C   UNL     1     120.744 118.507 130.436  1.00  0.00     0.007 C 
ATOM     22  C   UNL     1     118.315 120.184 131.560  1.00  0.00     0.012 C 
ATOM     23  C   UNL     1     119.966 122.411 128.717  1.00  0.00     0.012 C 
ATOM     24  C   UNL     1     117.375 127.196 128.508  1.00  0.00     0.014 C 
ATOM     25  C   UNL     1     118.540 127.278 130.669  1.00  0.00     0.014 C 
ATOM     26  C   UNL     1     116.027 124.240 128.114  1.00  0.00     0.012 C 
ATOM     27  C   UNL     1     121.001 118.281 127.926  1.00  0.00     0.011 C 
ENDROOT
BRANCH   1  28
ATOM     28  C   UNL     1     117.470 117.362 126.873  1.00  0.00    -0.077 C 
ATOM     29  C   UNL     1     116.029 117.044 126.558  1.00  0.00     0.039 C 
ATOM     30  C   UNL     1     118.203 117.930 125.903  1.00  0.00     0.008 C 
ENDBRANCH   1  28
BRANCH  13  31
ATOM     31  O   UNL     1     115.902 127.645 131.329  1.00  0.00    -0.393 OA
ATOM     32  H   UNL     1     116.756 127.882 131.776  1.00  0.00     0.210 HD
ENDBRANCH  13  31
TORSDOF 2
ENDMDL
MODEL 5
REMARK VINA RESULT:    -6.847      3.127      4.645
REMARK INTER + INTRA:          -7.712
REMARK INTER:                  -7.329
REMARK INTRA:                  -0.383
REMARK UNBOUND:                -0.264
REMARK SMILES C=C(C)[C@H]1CC[C@]2(C)CC[C@]3(C)[C@H](CC[C@H]4[C@@]5(C)CC[C@@H](O)C(C)(C)[C@H]5CC[C@]43C)[C@@H]12
REMARK SMILES IDX 4 1 5 2 6 3 7 4 31 5 13 6 14 7 15 8 16 9 17 10 19 11 20 12
REMARK SMILES IDX 21 13 23 14 26 15 27 16 28 17 29 18 11 19 10 20 9 21 12 22
REMARK SMILES IDX 30 23 24 24 25 25 18 26 8 27 2 28 3 29 1 30 22 31
REMARK H PARENT 22 32
REMARK Flexibility Score: inf
ROOT
ATOM      1  C   UNL     1     115.236 124.451 129.557  1.00  0.00     0.018 C 
ATOM      2  C   UNL     1     113.872 124.293 128.851  1.00  0.00     0.009 C 
ATOM      3  C   UNL     1     113.217 123.028 129.441  1.00  0.00     0.008 C 
ATOM      4  C   UNL     1     114.399 122.131 129.831  1.00  0.00    -0.029 C 
ATOM      5  C   UNL     1     115.382 123.163 130.407  1.00  0.00     0.006 C 
ATOM      6  C   UNL     1     116.749 122.560 130.836  1.00  0.00    -0.000 C 
ATOM      7  C   UNL     1     117.693 123.647 131.384  1.00  0.00     0.005 C 
ATOM      8  C   UNL     1     118.866 123.111 132.224  1.00  0.00     0.005 C 
ATOM      9  C   UNL     1     119.243 121.609 131.981  1.00  0.00     0.002 C 
ATOM     10  C   UNL     1     120.532 121.155 132.843  1.00  0.00    -0.026 C 
ATOM     11  C   UNL     1     120.509 121.735 134.306  1.00  0.00     0.010 C 
ATOM     12  C   UNL     1     121.176 120.863 135.394  1.00  0.00     0.033 C 
ATOM     13  C   UNL     1     122.369 120.043 134.876  1.00  0.00     0.120 C 
ATOM     14  C   UNL     1     121.961 119.046 133.730  1.00  0.00    -0.006 C 
ATOM     15  C   UNL     1     120.674 119.578 132.922  1.00  0.00     0.003 C 
ATOM     16  C   UNL     1     119.341 118.903 133.399  1.00  0.00     0.005 C 
ATOM     17  C   UNL     1     118.060 119.730 133.248  1.00  0.00     0.008 C 
ATOM     18  C   UNL     1     118.001 120.602 131.971  1.00  0.00    -0.024 C 
ATOM     19  C   UNL     1     116.572 121.363 131.863  1.00  0.00    -0.024 C 
ATOM     20  C   UNL     1     115.405 120.394 131.386  1.00  0.00     0.008 C 
ATOM     21  C   UNL     1     114.099 121.107 130.949  1.00  0.00     0.007 C 
ATOM     22  C   UNL     1     116.095 121.885 133.270  1.00  0.00     0.012 C 
ATOM     23  C   UNL     1     118.172 119.635 130.741  1.00  0.00     0.012 C 
ATOM     24  C   UNL     1     123.170 118.874 132.765  1.00  0.00     0.014 C 
ATOM     25  C   UNL     1     121.736 117.611 134.308  1.00  0.00     0.014 C 
ATOM     26  C   UNL     1     121.766 121.753 132.091  1.00  0.00     0.012 C 
ATOM     27  C   UNL     1     114.866 121.375 128.550  1.00  0.00     0.011 C 
ENDROOT
BRANCH   1  28
ATOM     28  C   UNL     1     116.368 124.863 128.611  1.00  0.00    -0.077 C 
ATOM     29  C   UNL     1     116.868 126.286 128.646  1.00  0.00     0.039 C 
ATOM     30  C   UNL     1     116.938 124.030 127.726  1.00  0.00     0.008 C 
ENDBRANCH   1  28
BRANCH  13  31
ATOM     31  O   UNL     1     123.042 119.395 135.934  1.00  0.00    -0.393 OA
ATOM     32  H   UNL     1     123.725 118.786 135.550  1.00  0.00     0.210 HD
ENDBRANCH  13  31
TORSDOF 2
ENDMDL
MODEL 6
REMARK VINA RESULT:    -6.747      3.335      7.278
REMARK INTER + INTRA:          -7.603
REMARK INTER:                  -7.137
REMARK INTRA:                  -0.466
REMARK UNBOUND:                -0.264
REMARK SMILES C=C(C)[C@H]1CC[C@]2(C)CC[C@]3(C)[C@H](CC[C@H]4[C@@]5(C)CC[C@@H](O)C(C)(C)[C@H]5CC[C@]43C)[C@@H]12
REMARK SMILES IDX 4 1 5 2 6 3 7 4 31 5 13 6 14 7 15 8 16 9 17 10 19 11 20 12
REMARK SMILES IDX 21 13 23 14 26 15 27 16 28 17 29 18 11 19 10 20 9 21 12 22
REMARK SMILES IDX 30 23 24 24 25 25 18 26 8 27 2 28 3 29 1 30 22 31
REMARK H PARENT 22 32
REMARK Flexibility Score: inf
ROOT
ATOM      1  C   UNL     1     121.721 119.457 125.274  1.00  0.00     0.018 C 
ATOM      2  C   UNL     1     122.515 118.148 125.476  1.00  0.00     0.009 C 
ATOM      3  C   UNL     1     122.127 117.611 126.869  1.00  0.00     0.008 C 
ATOM      4  C   UNL     1     121.791 118.867 127.683  1.00  0.00    -0.029 C 
ATOM      5  C   UNL     1     121.036 119.708 126.640  1.00  0.00     0.006 C 
ATOM      6  C   UNL     1     120.613 121.114 127.151  1.00  0.00    -0.000 C 
ATOM      7  C   UNL     1     119.880 121.911 126.056  1.00  0.00     0.005 C 
ATOM      8  C   UNL     1     119.053 123.100 126.575  1.00  0.00     0.005 C 
ATOM      9  C   UNL     1     119.464 123.648 127.984  1.00  0.00     0.002 C 
ATOM     10  C   UNL     1     118.598 124.943 128.413  1.00  0.00    -0.026 C 
ATOM     11  C   UNL     1     117.076 124.797 128.038  1.00  0.00     0.010 C 
ATOM     12  C   UNL     1     116.073 125.511 128.973  1.00  0.00     0.033 C 
ATOM     13  C   UNL     1     116.626 126.806 129.590  1.00  0.00     0.120 C 
ATOM     14  C   UNL     1     117.910 126.556 130.464  1.00  0.00    -0.006 C 
ATOM     15  C   UNL     1     118.713 125.252 129.964  1.00  0.00     0.003 C 
ATOM     16  C   UNL     1     118.399 123.982 130.829  1.00  0.00     0.005 C 
ATOM     17  C   UNL     1     118.512 122.626 130.125  1.00  0.00     0.008 C 
ATOM     18  C   UNL     1     119.669 122.525 129.103  1.00  0.00    -0.024 C 
ATOM     19  C   UNL     1     119.757 121.026 128.486  1.00  0.00    -0.024 C 
ATOM     20  C   UNL     1     120.416 119.992 129.498  1.00  0.00     0.008 C 
ATOM     21  C   UNL     1     120.829 118.635 128.871  1.00  0.00     0.007 C 
ATOM     22  C   UNL     1     118.324 120.439 128.206  1.00  0.00     0.012 C 
ATOM     23  C   UNL     1     121.001 122.849 129.877  1.00  0.00     0.012 C 
ATOM     24  C   UNL     1     118.822 127.815 130.381  1.00  0.00     0.014 C 
ATOM     25  C   UNL     1     117.532 126.465 131.978  1.00  0.00     0.014 C 
ATOM     26  C   UNL     1     119.199 126.134 127.598  1.00  0.00     0.012 C 
ATOM     27  C   UNL     1     123.129 119.466 128.211  1.00  0.00     0.011 C 
ENDROOT
BRANCH   1  28
ATOM     28  C   UNL     1     122.545 120.574 124.627  1.00  0.00    -0.077 C 
ATOM     29  C   UNL     1     122.152 121.072 123.256  1.00  0.00     0.039 C 
ATOM     30  C   UNL     1     123.621 121.135 125.201  1.00  0.00     0.008 C 
ENDBRANCH   1  28
BRANCH  13  31
ATOM     31  O   UNL     1     115.624 127.502 130.299  1.00  0.00    -0.393 OA
ATOM     32  H   UNL     1     115.781 128.476 130.197  1.00  0.00     0.210 HD
ENDBRANCH  13  31
TORSDOF 2
ENDMDL
MODEL 7
REMARK VINA RESULT:    -6.739      2.399      4.316
REMARK INTER + INTRA:          -7.594
REMARK INTER:                  -7.126
REMARK INTRA:                  -0.469
REMARK UNBOUND:                -0.264
REMARK SMILES C=C(C)[C@H]1CC[C@]2(C)CC[C@]3(C)[C@H](CC[C@H]4[C@@]5(C)CC[C@@H](O)C(C)(C)[C@H]5CC[C@]43C)[C@@H]12
REMARK SMILES IDX 4 1 5 2 6 3 7 4 31 5 13 6 14 7 15 8 16 9 17 10 19 11 20 12
REMARK SMILES IDX 21 13 23 14 26 15 27 16 28 17 29 18 11 19 10 20 9 21 12 22
REMARK SMILES IDX 30 23 24 24 25 25 18 26 8 27 2 28 3 29 1 30 22 31
REMARK H PARENT 22 32
REMARK Flexibility Score: inf
ROOT
ATOM      1  C   UNL     1     114.622 121.776 129.764  1.00  0.00     0.018 C 
ATOM      2  C   UNL     1     113.566 122.493 128.896  1.00  0.00     0.009 C 
ATOM      3  C   UNL     1     114.342 123.372 127.896  1.00  0.00     0.008 C 
ATOM      4  C   UNL     1     115.637 123.737 128.632  1.00  0.00    -0.029 C 
ATOM      5  C   UNL     1     115.969 122.410 129.333  1.00  0.00     0.006 C 
ATOM      6  C   UNL     1     117.225 122.476 130.246  1.00  0.00    -0.000 C 
ATOM      7  C   UNL     1     117.492 121.123 130.932  1.00  0.00     0.005 C 
ATOM      8  C   UNL     1     118.917 120.957 131.488  1.00  0.00     0.005 C 
ATOM      9  C   UNL     1     119.700 122.288 131.756  1.00  0.00     0.002 C 
ATOM     10  C   UNL     1     121.152 122.021 132.411  1.00  0.00    -0.026 C 
ATOM     11  C   UNL     1     121.888 120.792 131.758  1.00  0.00     0.010 C 
ATOM     12  C   UNL     1     123.431 120.868 131.715  1.00  0.00     0.033 C 
ATOM     13  C   UNL     1     124.041 121.627 132.905  1.00  0.00     0.120 C 
ATOM     14  C   UNL     1     123.550 123.119 132.982  1.00  0.00    -0.006 C 
ATOM     15  C   UNL     1     122.096 123.292 132.311  1.00  0.00     0.003 C 
ATOM     16  C   UNL     1     122.169 123.840 130.844  1.00  0.00     0.005 C 
ATOM     17  C   UNL     1     121.036 123.429 129.899  1.00  0.00     0.008 C 
ATOM     18  C   UNL     1     119.640 123.350 130.562  1.00  0.00    -0.024 C 
ATOM     19  C   UNL     1     118.503 122.997 129.459  1.00  0.00    -0.024 C 
ATOM     20  C   UNL     1     118.124 124.251 128.558  1.00  0.00     0.008 C 
ATOM     21  C   UNL     1     116.832 124.085 127.715  1.00  0.00     0.007 C 
ATOM     22  C   UNL     1     119.017 121.920 128.432  1.00  0.00     0.012 C 
ATOM     23  C   UNL     1     119.342 124.763 131.185  1.00  0.00     0.012 C 
ATOM     24  C   UNL     1     123.509 123.555 134.476  1.00  0.00     0.014 C 
ATOM     25  C   UNL     1     124.607 124.076 132.341  1.00  0.00     0.014 C 
ATOM     26  C   UNL     1     120.876 121.694 133.915  1.00  0.00     0.012 C 
ATOM     27  C   UNL     1     115.331 124.949 129.563  1.00  0.00     0.011 C 
ENDROOT
BRANCH   1  28
ATOM     28  C   UNL     1     114.256 121.722 131.250  1.00  0.00    -0.077 C 
ATOM     29  C   UNL     1     114.125 120.376 131.921  1.00  0.00     0.039 C 
ATOM     30  C   UNL     1     114.022 122.810 132.000  1.00  0.00     0.008 C 
ENDBRANCH   1  28
BRANCH  13  31
ATOM     31  O   UNL     1     125.449 121.527 132.908  1.00  0.00    -0.393 OA
ATOM     32  H   UNL     1     125.708 120.714 133.414  1.00  0.00     0.210 HD
ENDBRANCH  13  31
TORSDOF 2
ENDMDL
MODEL 8
REMARK VINA RESULT:    -6.716      8.951     11.483
REMARK INTER + INTRA:          -7.569
REMARK INTER:                  -7.099
REMARK INTRA:                  -0.469
REMARK UNBOUND:                -0.264
REMARK SMILES C=C(C)[C@H]1CC[C@]2(C)CC[C@]3(C)[C@H](CC[C@H]4[C@@]5(C)CC[C@@H](O)C(C)(C)[C@H]5CC[C@]43C)[C@@H]12
REMARK SMILES IDX 4 1 5 2 6 3 7 4 31 5 13 6 14 7 15 8 16 9 17 10 19 11 20 12
REMARK SMILES IDX 21 13 23 14 26 15 27 16 28 17 29 18 11 19 10 20 9 21 12 22
REMARK SMILES IDX 30 23 24 24 25 25 18 26 8 27 2 28 3 29 1 30 22 31
REMARK H PARENT 22 32
REMARK Flexibility Score: inf
ROOT
ATOM      1  C   UNL     1     125.541 121.877 120.267  1.00  0.00     0.018 C 
ATOM      2  C   UNL     1     124.576 121.612 119.092  1.00  0.00     0.009 C 
ATOM      3  C   UNL     1     123.495 120.649 119.620  1.00  0.00     0.008 C 
ATOM      4  C   UNL     1     124.208 119.831 120.704  1.00  0.00    -0.029 C 
ATOM      5  C   UNL     1     125.065 120.912 121.382  1.00  0.00     0.006 C 
ATOM      6  C   UNL     1     125.988 120.369 122.509  1.00  0.00    -0.000 C 
ATOM      7  C   UNL     1     126.833 121.496 123.133  1.00  0.00     0.005 C 
ATOM      8  C   UNL     1     127.431 121.160 124.510  1.00  0.00     0.005 C 
ATOM      9  C   UNL     1     127.556 119.634 124.841  1.00  0.00     0.002 C 
ATOM     10  C   UNL     1     128.265 119.374 126.269  1.00  0.00    -0.026 C 
ATOM     11  C   UNL     1     127.774 120.381 127.374  1.00  0.00     0.010 C 
ATOM     12  C   UNL     1     127.752 119.844 128.824  1.00  0.00     0.033 C 
ATOM     13  C   UNL     1     128.857 118.813 129.111  1.00  0.00     0.120 C 
ATOM     14  C   UNL     1     128.749 117.542 128.191  1.00  0.00    -0.006 C 
ATOM     15  C   UNL     1     128.035 117.894 126.790  1.00  0.00     0.003 C 
ATOM     16  C   UNL     1     126.516 117.507 126.774  1.00  0.00     0.005 C 
ATOM     17  C   UNL     1     125.604 118.342 125.869  1.00  0.00     0.008 C 
ATOM     18  C   UNL     1     126.245 118.773 124.529  1.00  0.00    -0.024 C 
ATOM     19  C   UNL     1     125.170 119.570 123.611  1.00  0.00    -0.024 C 
ATOM     20  C   UNL     1     124.122 118.594 122.921  1.00  0.00     0.008 C 
ATOM     21  C   UNL     1     123.279 119.234 121.786  1.00  0.00     0.007 C 
ATOM     22  C   UNL     1     124.286 120.541 124.479  1.00  0.00     0.012 C 
ATOM     23  C   UNL     1     126.693 117.460 123.786  1.00  0.00     0.012 C 
ATOM     24  C   UNL     1     130.181 116.985 127.941  1.00  0.00     0.014 C 
ATOM     25  C   UNL     1     128.020 116.382 128.944  1.00  0.00     0.014 C 
ATOM     26  C   UNL     1     129.792 119.609 126.024  1.00  0.00     0.012 C 
ATOM     27  C   UNL     1     124.984 118.679 119.998  1.00  0.00     0.011 C 
ENDROOT
BRANCH   1  28
ATOM     28  C   UNL     1     127.017 121.884 119.855  1.00  0.00    -0.077 C 
ATOM     29  C   UNL     1     127.807 123.162 119.990  1.00  0.00     0.039 C 
ATOM     30  C   UNL     1     127.655 120.814 119.356  1.00  0.00     0.008 C 
ENDBRANCH   1  28
BRANCH  13  31
ATOM     31  O   UNL     1     128.898 118.478 130.482  1.00  0.00    -0.393 OA
ATOM     32  H   UNL     1     129.719 118.868 130.879  1.00  0.00     0.210 HD
ENDBRANCH  13  31
TORSDOF 2
ENDMDL
MODEL 9
REMARK VINA RESULT:    -6.687      3.311      8.018
REMARK INTER + INTRA:          -7.537
REMARK INTER:                  -7.069
REMARK INTRA:                  -0.468
REMARK UNBOUND:                -0.264
REMARK SMILES C=C(C)[C@H]1CC[C@]2(C)CC[C@]3(C)[C@H](CC[C@H]4[C@@]5(C)CC[C@@H](O)C(C)(C)[C@H]5CC[C@]43C)[C@@H]12
REMARK SMILES IDX 4 1 5 2 6 3 7 4 31 5 13 6 14 7 15 8 16 9 17 10 19 11 20 12
REMARK SMILES IDX 21 13 23 14 26 15 27 16 28 17 29 18 11 19 10 20 9 21 12 22
REMARK SMILES IDX 30 23 24 24 25 25 18 26 8 27 2 28 3 29 1 30 22 31
REMARK H PARENT 22 32
REMARK Flexibility Score: inf
ROOT
ATOM      1  C   UNL     1     122.715 121.481 133.895  1.00  0.00     0.018 C 
ATOM      2  C   UNL     1     124.228 121.629 133.627  1.00  0.00     0.009 C 
ATOM      3  C   UNL     1     124.373 122.639 132.471  1.00  0.00     0.008 C 
ATOM      4  C   UNL     1     123.090 122.463 131.647  1.00  0.00    -0.029 C 
ATOM      5  C   UNL     1     122.041 122.290 132.758  1.00  0.00     0.006 C 
ATOM      6  C   UNL     1     120.606 122.011 132.231  1.00  0.00    -0.000 C 
ATOM      7  C   UNL     1     119.608 121.827 133.390  1.00  0.00     0.005 C 
ATOM      8  C   UNL     1     118.130 121.986 132.994  1.00  0.00     0.005 C 
ATOM      9  C   UNL     1     117.811 121.784 131.473  1.00  0.00     0.002 C 
ATOM     10  C   UNL     1     116.229 121.890 131.161  1.00  0.00    -0.026 C 
ATOM     11  C   UNL     1     115.535 123.052 131.965  1.00  0.00     0.010 C 
ATOM     12  C   UNL     1     114.330 123.731 131.276  1.00  0.00     0.033 C 
ATOM     13  C   UNL     1     113.517 122.777 130.385  1.00  0.00     0.120 C 
ATOM     14  C   UNL     1     114.377 122.164 129.218  1.00  0.00    -0.006 C 
ATOM     15  C   UNL     1     115.936 122.093 129.616  1.00  0.00     0.003 C 
ATOM     16  C   UNL     1     116.764 123.286 129.025  1.00  0.00     0.005 C 
ATOM     17  C   UNL     1     118.000 123.724 129.818  1.00  0.00     0.008 C 
ATOM     18  C   UNL     1     118.787 122.566 130.476  1.00  0.00    -0.024 C 
ATOM     19  C   UNL     1     120.122 123.127 131.210  1.00  0.00    -0.024 C 
ATOM     20  C   UNL     1     121.281 123.472 130.178  1.00  0.00     0.008 C 
ATOM     21  C   UNL     1     122.677 123.698 130.813  1.00  0.00     0.007 C 
ATOM     22  C   UNL     1     119.838 124.488 131.948  1.00  0.00     0.012 C 
ATOM     23  C   UNL     1     119.201 121.574 129.327  1.00  0.00     0.012 C 
ATOM     24  C   UNL     1     113.837 120.740 128.897  1.00  0.00     0.014 C 
ATOM     25  C   UNL     1     114.147 122.961 127.893  1.00  0.00     0.014 C 
ATOM     26  C   UNL     1     115.621 120.528 131.632  1.00  0.00     0.012 C 
ATOM     27  C   UNL     1     123.296 121.244 130.698  1.00  0.00     0.011 C 
ENDROOT
BRANCH   1  28
ATOM     28  C   UNL     1     122.280 120.035 134.152  1.00  0.00    -0.077 C 
ATOM     29  C   UNL     1     121.675 119.681 135.489  1.00  0.00     0.039 C 
ATOM     30  C   UNL     1     122.422 119.045 133.258  1.00  0.00     0.008 C 
ENDBRANCH   1  28
BRANCH  13  31
ATOM     31  O   UNL     1     112.341 123.397 129.912  1.00  0.00    -0.393 OA
ATOM     32  H   UNL     1     111.630 122.710 129.831  1.00  0.00     0.210 HD
ENDBRANCH  13  31
TORSDOF 2
ENDMDL
