MODEL 1
REMARK VINA RESULT:    -2.640      0.000      0.000
REMARK INTER + INTRA:          -4.176
REMARK INTER:                  -3.566
REMARK INTRA:                  -0.610
REMARK UNBOUND:                -0.610
REMARK SMILES [NH3+]CCCC[C@H]([NH3+])C(=O)[O-]
REMARK SMILES IDX 4 1 3 2 2 3 1 4 5 8 6 9 7 10 8 14 9 15 10 16
REMARK H PARENT 1 5 1 6 1 7 7 11 7 12 7 13
REMARK Flexibility Score: inf
ROOT
ATOM      1  C   UNL     1       1.368 -39.053  -4.117  1.00  0.00     0.012 C 
ENDROOT
BRANCH   1   2
ATOM      2  C   UNL     1       2.490 -38.024  -3.942  1.00  0.00     0.061 C 
BRANCH   2   3
ATOM      3  C   UNL     1       3.868 -38.673  -4.134  1.00  0.00     0.258 C 
BRANCH   3   4
ATOM      4  N   UNL     1       4.325 -38.530  -5.516  1.00  0.00    -0.358 N 
ATOM      5  H   UNL     1       4.797 -39.408  -5.830  1.00  0.00     0.344 HD
ATOM      6  H   UNL     1       5.009 -37.740  -5.569  1.00  0.00     0.344 HD
ATOM      7  H   UNL     1       3.514 -38.319  -6.142  1.00  0.00     0.344 HD
ENDBRANCH   3   4
ENDBRANCH   2   3
ENDBRANCH   1   2
BRANCH   1   8
ATOM      8  C   UNL     1       0.530 -38.748  -5.368  1.00  0.00     0.072 C 
BRANCH   8   9
ATOM      9  C   UNL     1       0.781 -39.765  -6.502  1.00  0.00     0.227 C 
BRANCH   9  10
ATOM     10  N   UNL     1       1.613 -40.874  -6.021  1.00  0.00    -0.350 N 
ATOM     11  H   UNL     1       2.585 -40.779  -6.399  1.00  0.00     0.345 HD
ATOM     12  H   UNL     1       1.652 -40.881  -4.975  1.00  0.00     0.345 HD
ATOM     13  H   UNL     1       1.221 -41.783  -6.355  1.00  0.00     0.345 HD
ENDBRANCH   9  10
BRANCH   9  14
ATOM     14  C   UNL     1       1.438 -39.104  -7.687  1.00  0.00     0.099 C 
ATOM     15  O   UNL     1       1.327 -39.610  -8.835  1.00  0.00    -0.544 OA
ATOM     16  O   UNL     1       2.165 -37.932  -7.521  1.00  0.00    -0.544 OA
ENDBRANCH   9  14
ENDBRANCH   8   9
ENDBRANCH   1   8
TORSDOF 7
ENDMDL
MODEL 2
REMARK VINA RESULT:    -2.638      2.316      3.465
REMARK INTER + INTRA:          -4.174
REMARK INTER:                  -3.750
REMARK INTRA:                  -0.424
REMARK UNBOUND:                -0.610
REMARK SMILES [NH3+]CCCC[C@H]([NH3+])C(=O)[O-]
REMARK SMILES IDX 4 1 3 2 2 3 1 4 5 8 6 9 7 10 8 14 9 15 10 16
REMARK H PARENT 1 5 1 6 1 7 7 11 7 12 7 13
REMARK Flexibility Score: inf
ROOT
ATOM      1  C   UNL     1       4.636 -39.267  -4.454  1.00  0.00     0.012 C 
ENDROOT
BRANCH   1   2
ATOM      2  C   UNL     1       4.937 -40.640  -5.066  1.00  0.00     0.061 C 
BRANCH   2   3
ATOM      3  C   UNL     1       3.970 -40.956  -6.215  1.00  0.00     0.258 C 
BRANCH   3   4
ATOM      4  N   UNL     1       3.136 -42.114  -5.893  1.00  0.00    -0.358 N 
ATOM      5  H   UNL     1       3.275 -42.865  -6.606  1.00  0.00     0.344 HD
ATOM      6  H   UNL     1       2.131 -41.823  -5.898  1.00  0.00     0.344 HD
ATOM      7  H   UNL     1       3.378 -42.478  -4.942  1.00  0.00     0.344 HD
ENDBRANCH   3   4
ENDBRANCH   2   3
ENDBRANCH   1   2
BRANCH   1   8
ATOM      8  C   UNL     1       3.620 -38.494  -5.309  1.00  0.00     0.072 C 
BRANCH   8   9
ATOM      9  C   UNL     1       2.451 -37.938  -4.469  1.00  0.00     0.227 C 
BRANCH   9  10
ATOM     10  N   UNL     1       2.701 -38.151  -3.038  1.00  0.00    -0.350 N 
ATOM     11  H   UNL     1       2.653 -39.173  -2.817  1.00  0.00     0.345 HD
ATOM     12  H   UNL     1       3.645 -37.786  -2.770  1.00  0.00     0.345 HD
ATOM     13  H   UNL     1       1.971 -37.660  -2.473  1.00  0.00     0.345 HD
ENDBRANCH   9  10
BRANCH   9  14
ATOM     14  C   UNL     1       1.147 -38.582  -4.864  1.00  0.00     0.099 C 
ATOM     15  O   UNL     1       1.066 -39.835  -4.971  1.00  0.00    -0.544 OA
ATOM     16  O   UNL     1       0.025 -37.800  -5.110  1.00  0.00    -0.544 OA
ENDBRANCH   9  14
ENDBRANCH   8   9
ENDBRANCH   1   8
TORSDOF 7
ENDMDL
MODEL 3
REMARK VINA RESULT:    -2.616      2.338      2.409
REMARK INTER + INTRA:          -4.143
REMARK INTER:                  -3.636
REMARK INTRA:                  -0.507
REMARK UNBOUND:                -0.610
REMARK SMILES [NH3+]CCCC[C@H]([NH3+])C(=O)[O-]
REMARK SMILES IDX 4 1 3 2 2 3 1 4 5 8 6 9 7 10 8 14 9 15 10 16
REMARK H PARENT 1 5 1 6 1 7 7 11 7 12 7 13
REMARK Flexibility Score: inf
ROOT
ATOM      1  C   UNL     1       1.297 -38.709  -4.052  1.00  0.00     0.012 C 
ENDROOT
BRANCH   1   2
ATOM      2  C   UNL     1       2.281 -37.563  -4.315  1.00  0.00     0.061 C 
BRANCH   2   3
ATOM      3  C   UNL     1       3.253 -37.390  -3.140  1.00  0.00     0.258 C 
BRANCH   3   4
ATOM      4  N   UNL     1       4.380 -38.316  -3.253  1.00  0.00    -0.358 N 
ATOM      5  H   UNL     1       4.815 -38.237  -4.200  1.00  0.00     0.344 HD
ATOM      6  H   UNL     1       4.033 -39.295  -3.121  1.00  0.00     0.344 HD
ATOM      7  H   UNL     1       5.092 -38.107  -2.516  1.00  0.00     0.344 HD
ENDBRANCH   3   4
ENDBRANCH   2   3
ENDBRANCH   1   2
BRANCH   1   8
ATOM      8  C   UNL     1       1.259 -39.686  -5.238  1.00  0.00     0.072 C 
BRANCH   8   9
ATOM      9  C   UNL     1       2.461 -39.498  -6.188  1.00  0.00     0.227 C 
BRANCH   9  10
ATOM     10  N   UNL     1       2.011 -39.480  -7.585  1.00  0.00    -0.350 N 
ATOM     11  H   UNL     1       0.966 -39.431  -7.623  1.00  0.00     0.345 HD
ATOM     12  H   UNL     1       2.412 -38.655  -8.092  1.00  0.00     0.345 HD
ATOM     13  H   UNL     1       2.314 -40.357  -8.067  1.00  0.00     0.345 HD
ENDBRANCH   9  10
BRANCH   9  14
ATOM     14  C   UNL     1       3.483 -40.588  -5.991  1.00  0.00     0.099 C 
ATOM     15  O   UNL     1       3.181 -41.788  -6.224  1.00  0.00    -0.544 OA
ATOM     16  O   UNL     1       4.765 -40.276  -5.554  1.00  0.00    -0.544 OA
ENDBRANCH   9  14
ENDBRANCH   8   9
ENDBRANCH   1   8
TORSDOF 7
ENDMDL
MODEL 4
REMARK VINA RESULT:    -2.588      1.845      2.033
REMARK INTER + INTRA:          -4.106
REMARK INTER:                  -3.877
REMARK INTRA:                  -0.229
REMARK UNBOUND:                -0.610
REMARK SMILES [NH3+]CCCC[C@H]([NH3+])C(=O)[O-]
REMARK SMILES IDX 4 1 3 2 2 3 1 4 5 8 6 9 7 10 8 14 9 15 10 16
REMARK H PARENT 1 5 1 6 1 7 7 11 7 12 7 13
REMARK Flexibility Score: inf
ROOT
ATOM      1  C   UNL     1       0.382 -38.398  -5.112  1.00  0.00     0.012 C 
ENDROOT
BRANCH   1   2
ATOM      2  C   UNL     1       1.292 -38.699  -3.916  1.00  0.00     0.061 C 
BRANCH   2   3
ATOM      3  C   UNL     1       2.582 -37.870  -3.983  1.00  0.00     0.258 C 
BRANCH   3   4
ATOM      4  N   UNL     1       3.087 -37.581  -2.641  1.00  0.00    -0.358 N 
ATOM      5  H   UNL     1       4.110 -37.787  -2.590  1.00  0.00     0.344 HD
ATOM      6  H   UNL     1       2.585 -38.185  -1.949  1.00  0.00     0.344 HD
ATOM      7  H   UNL     1       2.915 -36.577  -2.400  1.00  0.00     0.344 HD
ENDBRANCH   3   4
ENDBRANCH   2   3
ENDBRANCH   1   2
BRANCH   1   8
ATOM      8  C   UNL     1       1.208 -38.035  -6.356  1.00  0.00     0.072 C 
BRANCH   8   9
ATOM      9  C   UNL     1       1.456 -39.255  -7.269  1.00  0.00     0.227 C 
BRANCH   9  10
ATOM     10  N   UNL     1       0.396 -40.254  -7.089  1.00  0.00    -0.350 N 
ATOM     11  H   UNL     1       0.753 -41.051  -6.511  1.00  0.00     0.345 HD
ATOM     12  H   UNL     1      -0.435 -39.830  -6.613  1.00  0.00     0.345 HD
ATOM     13  H   UNL     1       0.102 -40.631  -8.019  1.00  0.00     0.345 HD
ENDBRANCH   9  10
BRANCH   9  14
ATOM     14  C   UNL     1       2.801 -39.875  -6.991  1.00  0.00     0.099 C 
ATOM     15  O   UNL     1       2.873 -41.019  -6.469  1.00  0.00    -0.544 OA
ATOM     16  O   UNL     1       3.968 -39.193  -7.313  1.00  0.00    -0.544 OA
ENDBRANCH   9  14
ENDBRANCH   8   9
ENDBRANCH   1   8
TORSDOF 7
ENDMDL
MODEL 5
REMARK VINA RESULT:    -2.465      2.490      3.281
REMARK INTER + INTRA:          -3.939
REMARK INTER:                  -3.441
REMARK INTRA:                  -0.498
REMARK UNBOUND:                -0.610
REMARK SMILES [NH3+]CCCC[C@H]([NH3+])C(=O)[O-]
REMARK SMILES IDX 4 1 3 2 2 3 1 4 5 8 6 9 7 10 8 14 9 15 10 16
REMARK H PARENT 1 5 1 6 1 7 7 11 7 12 7 13
REMARK Flexibility Score: inf
ROOT
ATOM      1  C   UNL     1       1.218 -39.424  -6.576  1.00  0.00     0.012 C 
ENDROOT
BRANCH   1   2
ATOM      2  C   UNL     1       0.243 -38.785  -5.581  1.00  0.00     0.061 C 
BRANCH   2   3
ATOM      3  C   UNL     1       0.531 -37.288  -5.410  1.00  0.00     0.258 C 
BRANCH   3   4
ATOM      4  N   UNL     1       1.535 -37.065  -4.370  1.00  0.00    -0.358 N 
ATOM      5  H   UNL     1       1.405 -36.121  -3.941  1.00  0.00     0.344 HD
ATOM      6  H   UNL     1       2.489 -37.113  -4.799  1.00  0.00     0.344 HD
ATOM      7  H   UNL     1       1.459 -37.803  -3.632  1.00  0.00     0.344 HD
ENDBRANCH   3   4
ENDBRANCH   2   3
ENDBRANCH   1   2
BRANCH   1   8
ATOM      8  C   UNL     1       1.934 -40.630  -5.948  1.00  0.00     0.072 C 
BRANCH   8   9
ATOM      9  C   UNL     1       3.456 -40.605  -6.204  1.00  0.00     0.227 C 
BRANCH   9  10
ATOM     10  N   UNL     1       4.085 -41.822  -5.677  1.00  0.00    -0.350 N 
ATOM     11  H   UNL     1       3.348 -42.492  -5.353  1.00  0.00     0.345 HD
ATOM     12  H   UNL     1       4.669 -42.284  -6.413  1.00  0.00     0.345 HD
ATOM     13  H   UNL     1       4.691 -41.583  -4.859  1.00  0.00     0.345 HD
ENDBRANCH   9  10
BRANCH   9  14
ATOM     14  C   UNL     1       4.089 -39.387  -5.580  1.00  0.00     0.099 C 
ATOM     15  O   UNL     1       4.865 -38.662  -6.257  1.00  0.00    -0.544 OA
ATOM     16  O   UNL     1       3.818 -39.055  -4.259  1.00  0.00    -0.544 OA
ENDBRANCH   9  14
ENDBRANCH   8   9
ENDBRANCH   1   8
TORSDOF 7
ENDMDL
MODEL 6
REMARK VINA RESULT:    -2.460      2.301      3.761
REMARK INTER + INTRA:          -3.933
REMARK INTER:                  -3.532
REMARK INTRA:                  -0.401
REMARK UNBOUND:                -0.610
REMARK SMILES [NH3+]CCCC[C@H]([NH3+])C(=O)[O-]
REMARK SMILES IDX 4 1 3 2 2 3 1 4 5 8 6 9 7 10 8 14 9 15 10 16
REMARK H PARENT 1 5 1 6 1 7 7 11 7 12 7 13
REMARK Flexibility Score: inf
ROOT
ATOM      1  C   UNL     1       0.847 -38.109  -5.018  1.00  0.00     0.012 C 
ENDROOT
BRANCH   1   2
ATOM      2  C   UNL     1       0.325 -39.258  -5.887  1.00  0.00     0.061 C 
BRANCH   2   3
ATOM      3  C   UNL     1       1.466 -39.919  -6.671  1.00  0.00     0.258 C 
BRANCH   3   4
ATOM      4  N   UNL     1       1.933 -41.129  -5.994  1.00  0.00    -0.358 N 
ATOM      5  H   UNL     1       2.005 -40.959  -4.965  1.00  0.00     0.344 HD
ATOM      6  H   UNL     1       2.879 -41.383  -6.362  1.00  0.00     0.344 HD
ATOM      7  H   UNL     1       1.274 -41.920  -6.178  1.00  0.00     0.344 HD
ENDBRANCH   3   4
ENDBRANCH   2   3
ENDBRANCH   1   2
BRANCH   1   8
ATOM      8  C   UNL     1       1.555 -38.645  -3.764  1.00  0.00     0.072 C 
BRANCH   8   9
ATOM      9  C   UNL     1       2.881 -37.908  -3.480  1.00  0.00     0.227 C 
BRANCH   9  10
ATOM     10  N   UNL     1       2.683 -36.455  -3.542  1.00  0.00    -0.350 N 
ATOM     11  H   UNL     1       3.397 -36.025  -4.176  1.00  0.00     0.345 HD
ATOM     12  H   UNL     1       1.726 -36.227  -3.900  1.00  0.00     0.345 HD
ATOM     13  H   UNL     1       2.800 -36.040  -2.590  1.00  0.00     0.345 HD
ENDBRANCH   9  10
BRANCH   9  14
ATOM     14  C   UNL     1       3.951 -38.323  -4.457  1.00  0.00     0.099 C 
ATOM     15  O   UNL     1       4.250 -39.540  -4.587  1.00  0.00    -0.544 OA
ATOM     16  O   UNL     1       4.611 -37.369  -5.222  1.00  0.00    -0.544 OA
ENDBRANCH   9  14
ENDBRANCH   8   9
ENDBRANCH   1   8
TORSDOF 7
ENDMDL
MODEL 7
REMARK VINA RESULT:    -2.444      2.549      3.267
REMARK INTER + INTRA:          -3.911
REMARK INTER:                  -3.727
REMARK INTRA:                  -0.184
REMARK UNBOUND:                -0.610
REMARK SMILES [NH3+]CCCC[C@H]([NH3+])C(=O)[O-]
REMARK SMILES IDX 4 1 3 2 2 3 1 4 5 8 6 9 7 10 8 14 9 15 10 16
REMARK H PARENT 1 5 1 6 1 7 7 11 7 12 7 13
REMARK Flexibility Score: inf
ROOT
ATOM      1  C   UNL     1       1.798 -40.547  -5.916  1.00  0.00     0.012 C 
ENDROOT
BRANCH   1   2
ATOM      2  C   UNL     1       3.330 -40.569  -5.969  1.00  0.00     0.061 C 
BRANCH   2   3
ATOM      3  C   UNL     1       3.860 -42.009  -6.003  1.00  0.00     0.258 C 
BRANCH   3   4
ATOM      4  N   UNL     1       5.104 -42.125  -5.243  1.00  0.00    -0.358 N 
ATOM      5  H   UNL     1       4.927 -41.931  -4.231  1.00  0.00     0.344 HD
ATOM      6  H   UNL     1       5.793 -41.425  -5.605  1.00  0.00     0.344 HD
ATOM      7  H   UNL     1       5.506 -43.084  -5.355  1.00  0.00     0.344 HD
ENDBRANCH   3   4
ENDBRANCH   2   3
ENDBRANCH   1   2
BRANCH   1   8
ATOM      8  C   UNL     1       1.296 -39.491  -4.919  1.00  0.00     0.072 C 
BRANCH   8   9
ATOM      9  C   UNL     1       2.392 -38.470  -4.547  1.00  0.00     0.227 C 
BRANCH   9  10
ATOM     10  N   UNL     1       2.392 -38.220  -3.101  1.00  0.00    -0.350 N 
ATOM     11  H   UNL     1       2.164 -39.104  -2.588  1.00  0.00     0.345 HD
ATOM     12  H   UNL     1       3.328 -37.872  -2.786  1.00  0.00     0.345 HD
ATOM     13  H   UNL     1       1.664 -37.508  -2.864  1.00  0.00     0.345 HD
ENDBRANCH   9  10
BRANCH   9  14
ATOM     14  C   UNL     1       2.201 -37.174  -5.293  1.00  0.00     0.099 C 
ATOM     15  O   UNL     1       2.713 -37.019  -6.434  1.00  0.00    -0.544 OA
ATOM     16  O   UNL     1       1.455 -36.145  -4.730  1.00  0.00    -0.544 OA
ENDBRANCH   9  14
ENDBRANCH   8   9
ENDBRANCH   1   8
TORSDOF 7
ENDMDL
MODEL 8
REMARK VINA RESULT:    -2.426      2.035      3.528
REMARK INTER + INTRA:          -3.887
REMARK INTER:                  -3.343
REMARK INTRA:                  -0.544
REMARK UNBOUND:                -0.610
REMARK SMILES [NH3+]CCCC[C@H]([NH3+])C(=O)[O-]
REMARK SMILES IDX 4 1 3 2 2 3 1 4 5 8 6 9 7 10 8 14 9 15 10 16
REMARK H PARENT 1 5 1 6 1 7 7 11 7 12 7 13
REMARK Flexibility Score: inf
ROOT
ATOM      1  C   UNL     1       0.605 -38.972  -5.393  1.00  0.00     0.012 C 
ENDROOT
BRANCH   1   2
ATOM      2  C   UNL     1       1.368 -40.054  -6.166  1.00  0.00     0.061 C 
BRANCH   2   3
ATOM      3  C   UNL     1       1.894 -39.511  -7.502  1.00  0.00     0.258 C 
BRANCH   3   4
ATOM      4  N   UNL     1       3.343 -39.316  -7.452  1.00  0.00    -0.358 N 
ATOM      5  H   UNL     1       3.564 -38.363  -7.082  1.00  0.00     0.344 HD
ATOM      6  H   UNL     1       3.733 -39.402  -8.419  1.00  0.00     0.344 HD
ATOM      7  H   UNL     1       3.783 -40.044  -6.843  1.00  0.00     0.344 HD
ENDBRANCH   3   4
ENDBRANCH   2   3
ENDBRANCH   1   2
BRANCH   1   8
ATOM      8  C   UNL     1       1.218 -38.754  -4.001  1.00  0.00     0.072 C 
BRANCH   8   9
ATOM      9  C   UNL     1       2.582 -38.035  -4.068  1.00  0.00     0.227 C 
BRANCH   9  10
ATOM     10  N   UNL     1       3.077 -37.747  -2.717  1.00  0.00    -0.350 N 
ATOM     11  H   UNL     1       3.778 -38.470  -2.433  1.00  0.00     0.345 HD
ATOM     12  H   UNL     1       3.525 -36.801  -2.681  1.00  0.00     0.345 HD
ATOM     13  H   UNL     1       2.285 -37.776  -2.035  1.00  0.00     0.345 HD
ENDBRANCH   9  10
BRANCH   9  14
ATOM     14  C   UNL     1       2.483 -36.759  -4.863  1.00  0.00     0.099 C 
ATOM     15  O   UNL     1       1.746 -35.819  -4.460  1.00  0.00    -0.544 OA
ATOM     16  O   UNL     1       3.205 -36.608  -6.040  1.00  0.00    -0.544 OA
ENDBRANCH   9  14
ENDBRANCH   8   9
ENDBRANCH   1   8
TORSDOF 7
ENDMDL
MODEL 9
REMARK VINA RESULT:    -2.417      2.112      2.875
REMARK INTER + INTRA:          -3.874
REMARK INTER:                  -3.408
REMARK INTRA:                  -0.466
REMARK UNBOUND:                -0.610
REMARK SMILES [NH3+]CCCC[C@H]([NH3+])C(=O)[O-]
REMARK SMILES IDX 4 1 3 2 2 3 1 4 5 8 6 9 7 10 8 14 9 15 10 16
REMARK H PARENT 1 5 1 6 1 7 7 11 7 12 7 13
REMARK Flexibility Score: inf
ROOT
ATOM      1  C   UNL     1       4.791 -39.006  -4.130  1.00  0.00     0.012 C 
ENDROOT
BRANCH   1   2
ATOM      2  C   UNL     1       4.373 -37.564  -4.439  1.00  0.00     0.061 C 
BRANCH   2   3
ATOM      3  C   UNL     1       2.942 -37.290  -3.956  1.00  0.00     0.258 C 
BRANCH   3   4
ATOM      4  N   UNL     1       2.495 -38.329  -3.030  1.00  0.00    -0.358 N 
ATOM      5  H   UNL     1       3.297 -38.662  -2.449  1.00  0.00     0.344 HD
ATOM      6  H   UNL     1       2.117 -39.136  -3.579  1.00  0.00     0.344 HD
ATOM      7  H   UNL     1       1.738 -37.958  -2.410  1.00  0.00     0.344 HD
ENDBRANCH   3   4
ENDBRANCH   2   3
ENDBRANCH   1   2
BRANCH   1   8
ATOM      8  C   UNL     1       4.750 -39.875  -5.396  1.00  0.00     0.072 C 
BRANCH   8   9
ATOM      9  C   UNL     1       3.530 -40.820  -5.418  1.00  0.00     0.227 C 
BRANCH   9  10
ATOM     10  N   UNL     1       3.890 -42.107  -6.025  1.00  0.00    -0.350 N 
ATOM     11  H   UNL     1       3.352 -42.245  -6.912  1.00  0.00     0.345 HD
ATOM     12  H   UNL     1       4.915 -42.143  -6.236  1.00  0.00     0.345 HD
ATOM     13  H   UNL     1       3.648 -42.887  -5.372  1.00  0.00     0.345 HD
ENDBRANCH   9  10
BRANCH   9  14
ATOM     14  C   UNL     1       2.379 -40.201  -6.169  1.00  0.00     0.099 C 
ATOM     15  O   UNL     1       1.285 -39.985  -5.583  1.00  0.00    -0.544 OA
ATOM     16  O   UNL     1       2.518 -39.861  -7.509  1.00  0.00    -0.544 OA
ENDBRANCH   9  14
ENDBRANCH   8   9
ENDBRANCH   1   8
TORSDOF 7
ENDMDL
