MODEL 1
REMARK VINA RESULT:    -2.580      0.000      0.000
REMARK INTER + INTRA:          -2.580
REMARK INTER:                  -2.580
REMARK INTRA:                   0.000
REMARK UNBOUND:                 0.000
REMARK SMILES CC(=O)[O-]
REMARK SMILES IDX 1 1 2 2 3 3 4 4
REMARK H PARENT
REMARK Flexibility Score: inf
ROOT
ATOM      1  C   UNL     1      29.885  32.385  81.980  1.00  0.00     0.063 C 
ATOM      2  C   UNL     1      30.438  31.260  81.172  1.00  0.00     0.038 C 
ATOM      3  O   UNL     1      29.667  30.523  80.505  1.00  0.00    -0.550 OA
ATOM      4  O   UNL     1      31.801  30.989  81.197  1.00  0.00    -0.550 OA
ENDROOT
TORSDOF 0
ENDMDL
MODEL 2
REMARK VINA RESULT:    -2.267     11.074     11.389
REMARK INTER + INTRA:          -2.267
REMARK INTER:                  -2.267
REMARK INTRA:                   0.000
REMARK UNBOUND:                 0.000
REMARK SMILES CC(=O)[O-]
REMARK SMILES IDX 1 1 2 2 3 3 4 4
REMARK H PARENT
REMARK Flexibility Score: inf
ROOT
ATOM      1  C   UNL     1      25.129  41.937  82.115  1.00  0.00     0.063 C 
ATOM      2  C   UNL     1      26.456  41.911  81.435  1.00  0.00     0.038 C 
ATOM      3  O   UNL     1      26.555  42.251  80.228  1.00  0.00    -0.550 OA
ATOM      4  O   UNL     1      27.578  41.458  82.118  1.00  0.00    -0.550 OA
ENDROOT
TORSDOF 0
ENDMDL
MODEL 3
REMARK VINA RESULT:    -2.234     11.335     11.742
REMARK INTER + INTRA:          -2.234
REMARK INTER:                  -2.234
REMARK INTRA:                   0.000
REMARK UNBOUND:                 0.000
REMARK SMILES CC(=O)[O-]
REMARK SMILES IDX 1 1 2 2 3 3 4 4
REMARK H PARENT
REMARK Flexibility Score: inf
ROOT
ATOM      1  C   UNL     1      27.520  41.448  81.778  1.00  0.00     0.063 C 
ATOM      2  C   UNL     1      26.462  42.170  81.015  1.00  0.00     0.038 C 
ATOM      3  O   UNL     1      26.656  42.488  79.813  1.00  0.00    -0.550 OA
ATOM      4  O   UNL     1      25.281  42.541  81.645  1.00  0.00    -0.550 OA
ENDROOT
TORSDOF 0
ENDMDL
MODEL 4
REMARK VINA RESULT:    -2.215     14.526     14.754
REMARK INTER + INTRA:          -2.215
REMARK INTER:                  -2.215
REMARK INTRA:                   0.000
REMARK UNBOUND:                 0.000
REMARK SMILES CC(=O)[O-]
REMARK SMILES IDX 1 1 2 2 3 3 4 4
REMARK H PARENT
REMARK Flexibility Score: inf
ROOT
ATOM      1  C   UNL     1      18.615  38.828  81.725  1.00  0.00     0.063 C 
ATOM      2  C   UNL     1      17.456  38.163  81.063  1.00  0.00     0.038 C 
ATOM      3  O   UNL     1      16.793  37.288  81.679  1.00  0.00    -0.550 OA
ATOM      4  O   UNL     1      17.138  38.468  79.746  1.00  0.00    -0.550 OA
ENDROOT
TORSDOF 0
ENDMDL
MODEL 5
REMARK VINA RESULT:    -2.213     14.587     14.784
REMARK INTER + INTRA:          -2.213
REMARK INTER:                  -2.213
REMARK INTRA:                   0.000
REMARK UNBOUND:                 0.000
REMARK SMILES CC(=O)[O-]
REMARK SMILES IDX 1 1 2 2 3 3 4 4
REMARK H PARENT
REMARK Flexibility Score: inf
ROOT
ATOM      1  C   UNL     1      18.567  38.797  81.717  1.00  0.00     0.063 C 
ATOM      2  C   UNL     1      17.430  38.133  81.017  1.00  0.00     0.038 C 
ATOM      3  O   UNL     1      17.143  38.452  79.835  1.00  0.00    -0.550 OA
ATOM      4  O   UNL     1      16.650  37.200  81.688  1.00  0.00    -0.550 OA
ENDROOT
TORSDOF 0
ENDMDL
MODEL 6
REMARK VINA RESULT:    -2.193     11.165     11.596
REMARK INTER + INTRA:          -2.193
REMARK INTER:                  -2.193
REMARK INTRA:                   0.000
REMARK UNBOUND:                 0.000
REMARK SMILES CC(=O)[O-]
REMARK SMILES IDX 1 1 2 2 3 3 4 4
REMARK H PARENT
REMARK Flexibility Score: inf
ROOT
ATOM      1  C   UNL     1      26.884  42.562  80.029  1.00  0.00     0.063 C 
ATOM      2  C   UNL     1      26.438  41.946  81.312  1.00  0.00     0.038 C 
ATOM      3  O   UNL     1      27.286  41.496  82.125  1.00  0.00    -0.550 OA
ATOM      4  O   UNL     1      25.082  41.817  81.587  1.00  0.00    -0.550 OA
ENDROOT
TORSDOF 0
ENDMDL
MODEL 7
REMARK VINA RESULT:    -2.089     14.652     15.334
REMARK INTER + INTRA:          -2.089
REMARK INTER:                  -2.089
REMARK INTRA:                   0.000
REMARK UNBOUND:                 0.000
REMARK SMILES CC(=O)[O-]
REMARK SMILES IDX 1 1 2 2 3 3 4 4
REMARK H PARENT
REMARK Flexibility Score: inf
ROOT
ATOM      1  C   UNL     1      17.103  37.642  80.348  1.00  0.00     0.063 C 
ATOM      2  C   UNL     1      17.335  38.862  81.174  1.00  0.00     0.038 C 
ATOM      3  O   UNL     1      18.449  39.047  81.729  1.00  0.00    -0.550 OA
ATOM      4  O   UNL     1      16.304  39.771  81.377  1.00  0.00    -0.550 OA
ENDROOT
TORSDOF 0
ENDMDL
MODEL 8
REMARK VINA RESULT:    -2.086     14.906     15.437
REMARK INTER + INTRA:          -2.086
REMARK INTER:                  -2.086
REMARK INTRA:                   0.000
REMARK UNBOUND:                 0.000
REMARK SMILES CC(=O)[O-]
REMARK SMILES IDX 1 1 2 2 3 3 4 4
REMARK H PARENT
REMARK Flexibility Score: inf
ROOT
ATOM      1  C   UNL     1      15.996  39.701  81.339  1.00  0.00     0.063 C 
ATOM      2  C   UNL     1      17.186  38.926  80.883  1.00  0.00     0.038 C 
ATOM      3  O   UNL     1      18.228  38.896  81.588  1.00  0.00    -0.550 OA
ATOM      4  O   UNL     1      17.167  38.281  79.653  1.00  0.00    -0.550 OA
ENDROOT
TORSDOF 0
ENDMDL
MODEL 9
REMARK VINA RESULT:    -2.050      9.780     10.146
REMARK INTER + INTRA:          -2.050
REMARK INTER:                  -2.050
REMARK INTRA:                   0.000
REMARK UNBOUND:                 0.000
REMARK SMILES CC(=O)[O-]
REMARK SMILES IDX 1 1 2 2 3 3 4 4
REMARK H PARENT
REMARK Flexibility Score: inf
ROOT
ATOM      1  C   UNL     1      27.246  41.492  81.773  1.00  0.00     0.063 C 
ATOM      2  C   UNL     1      28.631  41.128  81.358  1.00  0.00     0.038 C 
ATOM      3  O   UNL     1      29.620  41.702  81.883  1.00  0.00    -0.550 OA
ATOM      4  O   UNL     1      28.832  40.194  80.350  1.00  0.00    -0.550 OA
ENDROOT
TORSDOF 0
ENDMDL
