MODEL 1
REMARK VINA RESULT:    -1.580      0.000      0.000
REMARK INTER + INTRA:          -1.513
REMARK INTER:                  -2.227
REMARK INTRA:                   0.714
REMARK UNBOUND:                 0.714
REMARK SMILES CC1=CCC(=C(C)C)C(=O)CC(C)=CCC1
REMARK SMILES IDX 12 1 14 2 13 3 15 4 16 5 2 6 1 7 3 8 11 10 9 11 10 12 5 13
REMARK SMILES IDX 6 14 7 15 8 16 4 17
REMARK H PARENT
REMARK Flexibility Score: 60.00
ROOT
ATOM      1  C   UNL     1      10.021  16.645  13.164  1.00  0.00    -0.070 C 
ATOM      2  C   UNL     1       9.840  16.733  11.825  1.00  0.00    -0.027 C 
ATOM      3  C   UNL     1       8.801  16.389  14.016  1.00  0.00     0.039 C 
ENDROOT
BRANCH   2   4
ATOM      4  C   UNL     1      10.924  16.878  10.785  1.00  0.00     0.032 C 
BRANCH   4   5
ATOM      5  C   UNL     1      11.675  15.558  10.523  1.00  0.00     0.034 C 
BRANCH   5   6
ATOM      6  C   UNL     1      13.158  15.677  10.819  1.00  0.00    -0.077 C 
ATOM      7  C   UNL     1      13.997  16.558   9.927  1.00  0.00     0.039 C 
ATOM      8  C   UNL     1      13.778  15.019  11.824  1.00  0.00    -0.023 CG0
ATOM      9  G   UNL     1      13.120  14.070  12.796  1.00  0.00     0.000 G0
ENDBRANCH   5   6
ENDBRANCH   4   5
ENDBRANCH   2   4
BRANCH   1  10
ATOM     10  C   UNL     1      11.380  16.723  13.840  1.00  0.00     0.111 C 
BRANCH  10  11
ATOM     11  C   UNL     1      11.746  15.419  14.505  1.00  0.00     0.163 C 
ATOM     12  O   UNL     1      10.972  14.969  15.393  1.00  0.00    -0.294 OA
BRANCH  11  13
ATOM     13  C   UNL     1      13.011  14.691  14.179  1.00  0.00    -0.002 C 
ATOM     14  C   UNL     1      14.009  14.534  15.101  1.00  0.00    -0.069 C 
ATOM     15  C   UNL     1      15.301  13.828  14.751  1.00  0.00     0.039 C 
ATOM     16  C   UNL     1      13.857  15.022  16.524  1.00  0.00     0.039 C 
BRANCH  13  17
ATOM     17  C   UNL     1      13.112  14.066  12.799  1.00  0.00     0.066 CG0
ATOM     18  G   UNL     1      13.781  15.029  11.848  1.00  0.00     0.000 G0
ENDBRANCH  13  17
ENDBRANCH  11  13
ENDBRANCH  10  11
ENDBRANCH   1  10
TORSDOF 0
ENDMDL
MODEL 2
REMARK VINA RESULT:    -1.266      1.696      3.387
REMARK INTER + INTRA:          -1.070
REMARK INTER:                  -2.120
REMARK INTRA:                   1.051
REMARK UNBOUND:                 0.714
REMARK SMILES CC1=CCC(=C(C)C)C(=O)CC(C)=CCC1
REMARK SMILES IDX 12 1 14 2 13 3 15 4 16 5 2 6 1 7 3 8 11 10 9 11 10 12 5 13
REMARK SMILES IDX 6 14 7 15 8 16 4 17
REMARK H PARENT
REMARK Flexibility Score: 60.00
ROOT
ATOM      1  C   UNL     1      13.457  15.747  10.468  1.00  0.00    -0.070 C 
ATOM      2  C   UNL     1      12.152  15.631  10.128  1.00  0.00    -0.027 C 
ATOM      3  C   UNL     1      14.231  16.898   9.875  1.00  0.00     0.039 C 
ENDROOT
BRANCH   2   4
ATOM      4  C   UNL     1      11.169  14.627  10.680  1.00  0.00     0.032 C 
BRANCH   4   5
ATOM      5  C   UNL     1       9.934  15.293  11.316  1.00  0.00     0.034 C 
BRANCH   5   6
ATOM      6  C   UNL     1      10.313  16.248  12.432  1.00  0.00    -0.077 C 
ATOM      7  C   UNL     1       9.747  17.646  12.400  1.00  0.00     0.039 C 
ATOM      8  C   UNL     1      11.148  15.926  13.445  1.00  0.00    -0.023 CG0
ATOM      9  G   UNL     1      11.838  14.597  13.631  1.00  0.00     0.000 G0
ENDBRANCH   5   6
ENDBRANCH   4   5
ENDBRANCH   2   4
BRANCH   1  10
ATOM     10  C   UNL     1      14.156  14.827  11.456  1.00  0.00     0.111 C 
BRANCH  10  11
ATOM     11  C   UNL     1      14.153  15.405  12.850  1.00  0.00     0.163 C 
ATOM     12  O   UNL     1      14.916  16.381  13.089  1.00  0.00    -0.294 OA
BRANCH  11  13
ATOM     13  C   UNL     1      13.322  14.820  13.948  1.00  0.00    -0.002 C 
ATOM     14  C   UNL     1      13.845  14.558  15.184  1.00  0.00    -0.069 C 
ATOM     15  C   UNL     1      13.007  13.932  16.278  1.00  0.00     0.039 C 
ATOM     16  C   UNL     1      15.272  14.915  15.533  1.00  0.00     0.039 C 
BRANCH  13  17
ATOM     17  C   UNL     1      11.850  14.597  13.654  1.00  0.00     0.066 CG0
ATOM     18  G   UNL     1      11.161  15.924  13.449  1.00  0.00     0.000 G0
ENDBRANCH  13  17
ENDBRANCH  11  13
ENDBRANCH  10  11
ENDBRANCH   1  10
TORSDOF 0
ENDMDL
MODEL 3
REMARK VINA RESULT:    -1.192      2.207      5.828
REMARK INTER + INTRA:          -0.966
REMARK INTER:                  -3.372
REMARK INTRA:                   2.407
REMARK UNBOUND:                 0.714
REMARK SMILES CC1=CCC(=C(C)C)C(=O)CC(C)=CCC1
REMARK SMILES IDX 12 1 14 2 13 3 15 4 16 5 2 6 1 7 3 8 11 10 9 11 10 12 5 13
REMARK SMILES IDX 6 14 7 15 8 16 4 17
REMARK H PARENT
REMARK Flexibility Score: 60.00
ROOT
ATOM      1  C   UNL     1      16.076  12.917  15.019  1.00  0.00    -0.070 C 
ATOM      2  C   UNL     1      15.885  13.298  16.304  1.00  0.00    -0.027 C 
ATOM      3  C   UNL     1      17.135  11.874  14.753  1.00  0.00     0.039 C 
ENDROOT
BRANCH   2   4
ATOM      4  C   UNL     1      14.819  14.240  16.807  1.00  0.00     0.032 C 
BRANCH   4   5
ATOM      5  C   UNL     1      13.670  13.507  17.526  1.00  0.00     0.034 C 
BRANCH   5   6
ATOM      6  C   UNL     1      12.665  12.926  16.551  1.00  0.00    -0.077 C 
ATOM      7  C   UNL     1      12.279  11.475  16.699  1.00  0.00     0.039 C 
ATOM      8  C   UNL     1      12.110  13.628  15.537  1.00  0.00    -0.023 CG0
ATOM      9  G   UNL     1      12.394  15.073  15.206  1.00  0.00     0.000 G0
ENDBRANCH   5   6
ENDBRANCH   4   5
ENDBRANCH   2   4
BRANCH   1  10
ATOM     10  C   UNL     1      15.246  13.429  13.853  1.00  0.00     0.111 C 
BRANCH  10  11
ATOM     11  C   UNL     1      14.709  14.813  14.120  1.00  0.00     0.163 C 
ATOM     12  O   UNL     1      15.512  15.690  14.540  1.00  0.00    -0.294 OA
BRANCH  11  13
ATOM     13  C   UNL     1      13.261  15.147  13.952  1.00  0.00    -0.002 C 
ATOM     14  C   UNL     1      12.728  15.442  12.727  1.00  0.00    -0.069 C 
ATOM     15  C   UNL     1      11.269  15.814  12.572  1.00  0.00     0.039 C 
ATOM     16  C   UNL     1      13.557  15.375  11.465  1.00  0.00     0.039 C 
BRANCH  13  17
ATOM     17  C   UNL     1      12.387  15.071  15.191  1.00  0.00     0.066 CG0
ATOM     18  G   UNL     1      12.101  13.628  15.529  1.00  0.00     0.000 G0
ENDBRANCH  13  17
ENDBRANCH  11  13
ENDBRANCH  10  11
ENDBRANCH   1  10
TORSDOF 0
ENDMDL
MODEL 4
REMARK VINA RESULT:    -0.985      1.481      3.911
REMARK INTER + INTRA:          -0.673
REMARK INTER:                  -1.365
REMARK INTRA:                   0.692
REMARK UNBOUND:                 0.714
REMARK SMILES CC1=CCC(=C(C)C)C(=O)CC(C)=CCC1
REMARK SMILES IDX 12 1 14 2 13 3 15 4 16 5 2 6 1 7 3 8 11 10 9 11 10 12 5 13
REMARK SMILES IDX 6 14 7 15 8 16 4 17
REMARK H PARENT
REMARK Flexibility Score: 60.00
ROOT
ATOM      1  C   UNL     1      12.723  14.622  14.809  1.00  0.00    -0.070 C 
ATOM      2  C   UNL     1      13.701  14.407  13.898  1.00  0.00    -0.027 C 
ATOM      3  C   UNL     1      12.489  13.549  15.845  1.00  0.00     0.039 C 
ENDROOT
BRANCH   2   4
ATOM      4  C   UNL     1      14.173  15.382  12.846  1.00  0.00     0.032 C 
BRANCH   4   5
ATOM      5  C   UNL     1      13.724  14.986  11.426  1.00  0.00     0.034 C 
BRANCH   5   6
ATOM      6  C   UNL     1      12.974  16.106  10.732  1.00  0.00    -0.077 C 
ATOM      7  C   UNL     1      13.759  17.070   9.878  1.00  0.00     0.039 C 
ATOM      8  C   UNL     1      11.643  16.306  10.852  1.00  0.00    -0.023 CG0
ATOM      9  G   UNL     1      10.697  15.475  11.684  1.00  0.00     0.000 G0
ENDBRANCH   5   6
ENDBRANCH   4   5
ENDBRANCH   2   4
BRANCH   1  10
ATOM     10  C   UNL     1      11.904  15.900  14.883  1.00  0.00     0.111 C 
BRANCH  10  11
ATOM     11  C   UNL     1      10.544  15.725  14.254  1.00  0.00     0.163 C 
ATOM     12  O   UNL     1       9.680  15.057  14.885  1.00  0.00    -0.294 OA
BRANCH  11  13
ATOM     13  C   UNL     1      10.221  16.272  12.900  1.00  0.00    -0.002 C 
ATOM     14  C   UNL     1       9.585  17.472  12.741  1.00  0.00    -0.069 C 
ATOM     15  C   UNL     1       9.230  18.000  11.368  1.00  0.00     0.039 C 
ATOM     16  C   UNL     1       9.239  18.348  13.924  1.00  0.00     0.039 C 
BRANCH  13  17
ATOM     17  C   UNL     1      10.698  15.471  11.701  1.00  0.00     0.066 CG0
ATOM     18  G   UNL     1      11.628  16.311  10.861  1.00  0.00     0.000 G0
ENDBRANCH  13  17
ENDBRANCH  11  13
ENDBRANCH  10  11
ENDBRANCH   1  10
TORSDOF 0
ENDMDL
MODEL 5
REMARK VINA RESULT:    -0.340      2.116      4.808
REMARK INTER + INTRA:           0.236
REMARK INTER:                  -0.715
REMARK INTRA:                   0.951
REMARK UNBOUND:                 0.714
REMARK SMILES CC1=CCC(=C(C)C)C(=O)CC(C)=CCC1
REMARK SMILES IDX 12 1 14 2 13 3 15 4 16 5 2 6 1 7 3 8 11 10 9 11 10 12 5 13
REMARK SMILES IDX 6 14 7 15 8 16 4 17
REMARK H PARENT
REMARK Flexibility Score: 60.00
ROOT
ATOM      1  C   UNL     1      12.571  15.706  11.033  1.00  0.00    -0.070 C 
ATOM      2  C   UNL     1      13.662  15.716  11.834  1.00  0.00    -0.027 C 
ATOM      3  C   UNL     1      12.524  16.714   9.910  1.00  0.00     0.039 C 
ENDROOT
BRANCH   2   4
ATOM      4  C   UNL     1      13.965  14.737  12.943  1.00  0.00     0.032 C 
BRANCH   4   5
ATOM      5  C   UNL     1      12.695  14.251  13.669  1.00  0.00     0.034 C 
BRANCH   5   6
ATOM      6  C   UNL     1      12.245  15.223  14.743  1.00  0.00    -0.077 C 
ATOM      7  C   UNL     1      13.254  15.670  15.771  1.00  0.00     0.039 C 
ATOM      8  C   UNL     1      10.982  15.693  14.847  1.00  0.00    -0.023 CG0
ATOM      9  G   UNL     1       9.829  15.337  13.941  1.00  0.00     0.000 G0
ENDBRANCH   5   6
ENDBRANCH   4   5
ENDBRANCH   2   4
BRANCH   1  10
ATOM     10  C   UNL     1      11.436  14.703  11.162  1.00  0.00     0.111 C 
BRANCH  10  11
ATOM     11  C   UNL     1      10.114  15.388  11.404  1.00  0.00     0.163 C 
ATOM     12  O   UNL     1       9.253  15.356  10.483  1.00  0.00    -0.294 OA
BRANCH  11  13
ATOM     13  C   UNL     1       9.829  16.137  12.667  1.00  0.00    -0.002 C 
ATOM     14  C   UNL     1       9.552  17.477  12.661  1.00  0.00    -0.069 C 
ATOM     15  C   UNL     1       9.302  18.235  13.947  1.00  0.00     0.039 C 
ATOM     16  C   UNL     1       9.445  18.259  11.371  1.00  0.00     0.039 C 
BRANCH  13  17
ATOM     17  C   UNL     1       9.787  15.332  13.953  1.00  0.00     0.066 CG0
ATOM     18  G   UNL     1      10.966  15.692  14.823  1.00  0.00     0.000 G0
ENDBRANCH  13  17
ENDBRANCH  11  13
ENDBRANCH  10  11
ENDBRANCH   1  10
TORSDOF 0
ENDMDL
MODEL 6
REMARK VINA RESULT:    -0.207      1.776      4.682
REMARK INTER + INTRA:           0.422
REMARK INTER:                  -1.069
REMARK INTRA:                   1.491
REMARK UNBOUND:                 0.714
REMARK SMILES CC1=CCC(=C(C)C)C(=O)CC(C)=CCC1
REMARK SMILES IDX 12 1 14 2 13 3 15 4 16 5 2 6 1 7 3 8 11 10 9 11 10 12 5 13
REMARK SMILES IDX 6 14 7 15 8 16 4 17
REMARK H PARENT
REMARK Flexibility Score: 60.00
ROOT
ATOM      1  C   UNL     1      12.571  13.696  15.886  1.00  0.00    -0.070 C 
ATOM      2  C   UNL     1      13.693  13.206  16.464  1.00  0.00    -0.027 C 
ATOM      3  C   UNL     1      11.638  14.506  16.752  1.00  0.00     0.039 C 
ENDROOT
BRANCH   2   4
ATOM      4  C   UNL     1      14.808  12.465  15.766  1.00  0.00     0.032 C 
BRANCH   4   5
ATOM      5  C   UNL     1      16.007  13.373  15.434  1.00  0.00     0.034 C 
BRANCH   5   6
ATOM      6  C   UNL     1      15.622  14.840  15.407  1.00  0.00    -0.077 C 
ATOM      7  C   UNL     1      15.780  15.644  16.673  1.00  0.00     0.039 C 
ATOM      8  C   UNL     1      15.120  15.465  14.318  1.00  0.00    -0.023 CG0
ATOM      9  G   UNL     1      14.858  14.825  12.977  1.00  0.00     0.000 G0
ENDBRANCH   5   6
ENDBRANCH   4   5
ENDBRANCH   2   4
BRANCH   1  10
ATOM     10  C   UNL     1      12.239  13.530  14.412  1.00  0.00     0.111 C 
BRANCH  10  11
ATOM     11  C   UNL     1      12.377  14.831  13.661  1.00  0.00     0.163 C 
ATOM     12  O   UNL     1      11.573  15.762  13.935  1.00  0.00    -0.294 OA
BRANCH  11  13
ATOM     13  C   UNL     1      13.394  15.017  12.580  1.00  0.00    -0.002 C 
ATOM     14  C   UNL     1      13.039  15.403  11.316  1.00  0.00    -0.069 C 
ATOM     15  C   UNL     1      14.070  15.553  10.219  1.00  0.00     0.039 C 
ATOM     16  C   UNL     1      11.606  15.734  10.963  1.00  0.00     0.039 C 
BRANCH  13  17
ATOM     17  C   UNL     1      14.851  14.832  12.963  1.00  0.00     0.066 CG0
ATOM     18  G   UNL     1      15.111  15.463  14.310  1.00  0.00     0.000 G0
ENDBRANCH  13  17
ENDBRANCH  11  13
ENDBRANCH  10  11
ENDBRANCH   1  10
TORSDOF 0
ENDMDL
MODEL 7
REMARK VINA RESULT:    -0.111      1.781      4.810
REMARK INTER + INTRA:           0.558
REMARK INTER:                  -0.342
REMARK INTRA:                   0.900
REMARK UNBOUND:                 0.714
REMARK SMILES CC1=CCC(=C(C)C)C(=O)CC(C)=CCC1
REMARK SMILES IDX 12 1 14 2 13 3 15 4 16 5 2 6 1 7 3 8 11 10 9 11 10 12 5 13
REMARK SMILES IDX 6 14 7 15 8 16 4 17
REMARK H PARENT
REMARK Flexibility Score: 60.00
ROOT
ATOM      1  C   UNL     1      13.590  15.124  11.230  1.00  0.00    -0.070 C 
ATOM      2  C   UNL     1      14.437  14.998  12.278  1.00  0.00    -0.027 C 
ATOM      3  C   UNL     1      13.765  14.168  10.075  1.00  0.00     0.039 C 
ENDROOT
BRANCH   2   4
ATOM      4  C   UNL     1      14.377  15.771  13.573  1.00  0.00     0.032 C 
BRANCH   4   5
ATOM      5  C   UNL     1      14.304  14.853  14.809  1.00  0.00     0.034 C 
BRANCH   5   6
ATOM      6  C   UNL     1      12.979  14.122  14.899  1.00  0.00    -0.077 C 
ATOM      7  C   UNL     1      12.999  12.630  15.122  1.00  0.00     0.039 C 
ATOM      8  C   UNL     1      11.777  14.726  14.768  1.00  0.00    -0.023 CG0
ATOM      9  G   UNL     1      11.552  16.196  14.507  1.00  0.00     0.000 G0
ENDBRANCH   5   6
ENDBRANCH   4   5
ENDBRANCH   2   4
BRANCH   1  10
ATOM     10  C   UNL     1      12.444  16.122  11.184  1.00  0.00     0.111 C 
BRANCH  10  11
ATOM     11  C   UNL     1      11.275  15.664  12.021  1.00  0.00     0.163 C 
ATOM     12  O   UNL     1      10.659  14.624  11.661  1.00  0.00    -0.294 OA
BRANCH  11  13
ATOM     13  C   UNL     1      10.807  16.433  13.216  1.00  0.00    -0.002 C 
ATOM     14  C   UNL     1       9.708  17.246  13.162  1.00  0.00    -0.069 C 
ATOM     15  C   UNL     1       9.263  18.049  14.365  1.00  0.00     0.039 C 
ATOM     16  C   UNL     1       8.863  17.354  11.913  1.00  0.00     0.039 C 
BRANCH  13  17
ATOM     17  C   UNL     1      11.560  16.215  14.515  1.00  0.00     0.066 CG0
ATOM     18  G   UNL     1      11.740  14.737  14.762  1.00  0.00     0.000 G0
ENDBRANCH  13  17
ENDBRANCH  11  13
ENDBRANCH  10  11
ENDBRANCH   1  10
TORSDOF 0
ENDMDL
MODEL 8
REMARK VINA RESULT:     0.352      1.803      3.692
REMARK INTER + INTRA:           1.210
REMARK INTER:                   0.625
REMARK INTRA:                   0.585
REMARK UNBOUND:                 0.714
REMARK SMILES CC1=CCC(=C(C)C)C(=O)CC(C)=CCC1
REMARK SMILES IDX 12 1 14 2 13 3 15 4 16 5 2 6 1 7 3 8 11 10 9 11 10 12 5 13
REMARK SMILES IDX 6 14 7 15 8 16 4 17
REMARK H PARENT
REMARK Flexibility Score: 60.00
ROOT
ATOM      1  C   UNL     1      12.510  15.625  10.893  1.00  0.00    -0.070 C 
ATOM      2  C   UNL     1      11.483  16.482  10.681  1.00  0.00    -0.027 C 
ATOM      3  C   UNL     1      13.720  15.754  10.000  1.00  0.00     0.039 C 
ENDROOT
BRANCH   2   4
ATOM      4  C   UNL     1      10.231  16.600  11.515  1.00  0.00     0.032 C 
BRANCH   4   5
ATOM      5  C   UNL     1      10.515  17.105  12.943  1.00  0.00     0.034 C 
BRANCH   5   6
ATOM      6  C   UNL     1      10.006  16.144  14.000  1.00  0.00    -0.077 C 
ATOM      7  C   UNL     1       8.544  15.773  13.985  1.00  0.00     0.039 C 
ATOM      8  C   UNL     1      10.783  15.617  14.972  1.00  0.00    -0.023 CG0
ATOM      9  G   UNL     1      12.253  15.893  15.174  1.00  0.00     0.000 G0
ENDBRANCH   5   6
ENDBRANCH   4   5
ENDBRANCH   2   4
BRANCH   1  10
ATOM     10  C   UNL     1      12.535  14.597  12.012  1.00  0.00     0.111 C 
BRANCH  10  11
ATOM     11  C   UNL     1      13.469  15.008  13.123  1.00  0.00     0.163 C 
ATOM     12  O   UNL     1      14.591  15.489  12.807  1.00  0.00    -0.294 OA
BRANCH  11  13
ATOM     13  C   UNL     1      13.121  14.810  14.565  1.00  0.00    -0.002 C 
ATOM     14  C   UNL     1      13.605  13.752  15.283  1.00  0.00    -0.069 C 
ATOM     15  C   UNL     1      13.218  13.538  16.730  1.00  0.00     0.039 C 
ATOM     16  C   UNL     1      14.578  12.763  14.680  1.00  0.00     0.039 C 
BRANCH  13  17
ATOM     17  C   UNL     1      12.265  15.879  15.221  1.00  0.00     0.066 CG0
ATOM     18  G   UNL     1      10.805  15.596  14.963  1.00  0.00     0.000 G0
ENDBRANCH  13  17
ENDBRANCH  11  13
ENDBRANCH  10  11
ENDBRANCH   1  10
TORSDOF 0
ENDMDL
MODEL 9
REMARK VINA RESULT:     0.720      2.218      3.698
REMARK INTER + INTRA:           1.729
REMARK INTER:                   0.435
REMARK INTRA:                   1.294
REMARK UNBOUND:                 0.714
REMARK SMILES CC1=CCC(=C(C)C)C(=O)CC(C)=CCC1
REMARK SMILES IDX 12 1 14 2 13 3 15 4 16 5 2 6 1 7 3 8 11 10 9 11 10 12 5 13
REMARK SMILES IDX 6 14 7 15 8 16 4 17
REMARK H PARENT
REMARK Flexibility Score: 60.00
ROOT
ATOM      1  C   UNL     1      12.734  13.509  16.245  1.00  0.00    -0.070 C 
ATOM      2  C   UNL     1      11.876  14.221  15.477  1.00  0.00    -0.027 C 
ATOM      3  C   UNL     1      12.625  12.004  16.196  1.00  0.00     0.039 C 
ENDROOT
BRANCH   2   4
ATOM      4  C   UNL     1      11.876  15.720  15.292  1.00  0.00     0.032 C 
BRANCH   4   5
ATOM      5  C   UNL     1      12.032  16.135  13.817  1.00  0.00     0.034 C 
BRANCH   5   6
ATOM      6  C   UNL     1      12.525  14.991  12.951  1.00  0.00    -0.077 C 
ATOM      7  C   UNL     1      11.518  14.246  12.110  1.00  0.00     0.039 C 
ATOM      8  C   UNL     1      13.812  14.583  12.907  1.00  0.00    -0.023 CG0
ATOM      9  G   UNL     1      14.954  15.177  13.697  1.00  0.00     0.000 G0
ENDBRANCH   5   6
ENDBRANCH   4   5
ENDBRANCH   2   4
BRANCH   1  10
ATOM     10  C   UNL     1      13.830  14.135  17.092  1.00  0.00     0.111 C 
BRANCH  10  11
ATOM     11  C   UNL     1      14.881  14.799  16.238  1.00  0.00     0.163 C 
ATOM     12  O   UNL     1      15.405  15.865  16.663  1.00  0.00    -0.294 OA
BRANCH  11  13
ATOM     13  C   UNL     1      15.268  14.261  14.897  1.00  0.00    -0.002 C 
ATOM     14  C   UNL     1      15.804  13.011  14.751  1.00  0.00    -0.069 C 
ATOM     15  C   UNL     1      16.226  12.488  13.395  1.00  0.00     0.039 C 
ATOM     16  C   UNL     1      15.966  12.076  15.928  1.00  0.00     0.039 C 
BRANCH  13  17
ATOM     17  C   UNL     1      14.970  15.133  13.690  1.00  0.00     0.066 CG0
ATOM     18  G   UNL     1      13.803  14.564  12.922  1.00  0.00     0.000 G0
ENDBRANCH  13  17
ENDBRANCH  11  13
ENDBRANCH  10  11
ENDBRANCH   1  10
TORSDOF 0
ENDMDL
