MODEL 1
REMARK VINA RESULT:    -2.504      0.000      0.000
REMARK INTER + INTRA:          -2.807
REMARK INTER:                  -2.797
REMARK INTRA:                  -0.010
REMARK UNBOUND:                -0.010
REMARK SMILES CCCC(=O)[O-]
REMARK SMILES IDX 3 1 4 2 5 3 6 4 2 5 1 6
REMARK H PARENT
REMARK Flexibility Score: inf
ROOT
ATOM      1  C   UNL     1      42.408  34.152  48.465  1.00  0.00     0.052 C 
ENDROOT
BRANCH   1   2
ATOM      2  C   UNL     1      43.175  34.144  49.748  1.00  0.00     0.041 C 
ATOM      3  O   UNL     1      43.896  33.156  50.050  1.00  0.00    -0.550 OA
ATOM      4  O   UNL     1      43.057  35.206  50.636  1.00  0.00    -0.550 OA
ENDBRANCH   1   2
BRANCH   1   5
ATOM      5  C   UNL     1      41.241  35.140  48.545  1.00  0.00     0.003 C 
ATOM      6  C   UNL     1      40.515  35.245  47.206  1.00  0.00     0.004 C 
ENDBRANCH   1   5
TORSDOF 2
ENDMDL
MODEL 2
REMARK VINA RESULT:    -2.466      1.809      3.219
REMARK INTER + INTRA:          -2.764
REMARK INTER:                  -2.752
REMARK INTRA:                  -0.011
REMARK UNBOUND:                -0.010
REMARK SMILES CCCC(=O)[O-]
REMARK SMILES IDX 3 1 4 2 5 3 6 4 2 5 1 6
REMARK H PARENT
REMARK Flexibility Score: inf
ROOT
ATOM      1  C   UNL     1      43.235  33.742  48.797  1.00  0.00     0.052 C 
ENDROOT
BRANCH   1   2
ATOM      2  C   UNL     1      42.494  34.840  49.491  1.00  0.00     0.041 C 
ATOM      3  O   UNL     1      42.885  35.260  50.612  1.00  0.00    -0.550 OA
ATOM      4  O   UNL     1      41.341  35.367  48.924  1.00  0.00    -0.550 OA
ENDBRANCH   1   2
BRANCH   1   5
ATOM      5  C   UNL     1      44.100  32.966  49.795  1.00  0.00     0.003 C 
ATOM      6  C   UNL     1      44.843  31.824  49.108  1.00  0.00     0.004 C 
ENDBRANCH   1   5
TORSDOF 2
ENDMDL
MODEL 3
REMARK VINA RESULT:    -2.441     10.781     11.430
REMARK INTER + INTRA:          -2.737
REMARK INTER:                  -2.705
REMARK INTRA:                  -0.032
REMARK UNBOUND:                -0.010
REMARK SMILES CCCC(=O)[O-]
REMARK SMILES IDX 3 1 4 2 5 3 6 4 2 5 1 6
REMARK H PARENT
REMARK Flexibility Score: inf
ROOT
ATOM      1  C   UNL     1      49.688  31.469  56.103  1.00  0.00     0.052 C 
ENDROOT
BRANCH   1   2
ATOM      2  C   UNL     1      50.579  30.825  57.116  1.00  0.00     0.041 C 
ATOM      3  O   UNL     1      51.035  31.498  58.079  1.00  0.00    -0.550 OA
ATOM      4  O   UNL     1      50.948  29.494  56.973  1.00  0.00    -0.550 OA
ENDBRANCH   1   2
BRANCH   1   5
ATOM      5  C   UNL     1      50.484  32.446  55.233  1.00  0.00     0.003 C 
ATOM      6  C   UNL     1      49.871  33.843  55.271  1.00  0.00     0.004 C 
ENDBRANCH   1   5
TORSDOF 2
ENDMDL
MODEL 4
REMARK VINA RESULT:    -2.380      2.774      3.853
REMARK INTER + INTRA:          -2.668
REMARK INTER:                  -2.662
REMARK INTRA:                  -0.007
REMARK UNBOUND:                -0.010
REMARK SMILES CCCC(=O)[O-]
REMARK SMILES IDX 3 1 4 2 5 3 6 4 2 5 1 6
REMARK H PARENT
REMARK Flexibility Score: inf
ROOT
ATOM      1  C   UNL     1      41.214  35.016  48.640  1.00  0.00     0.052 C 
ENDROOT
BRANCH   1   2
ATOM      2  C   UNL     1      40.911  35.037  47.176  1.00  0.00     0.041 C 
ATOM      3  O   UNL     1      40.403  36.061  46.647  1.00  0.00    -0.550 OA
ATOM      4  O   UNL     1      41.142  33.907  46.401  1.00  0.00    -0.550 OA
ENDBRANCH   1   2
BRANCH   1   5
ATOM      5  C   UNL     1      42.531  34.282  48.903  1.00  0.00     0.003 C 
ATOM      6  C   UNL     1      43.179  34.761  50.199  1.00  0.00     0.004 C 
ENDBRANCH   1   5
TORSDOF 2
ENDMDL
MODEL 5
REMARK VINA RESULT:    -2.331     10.428     11.511
REMARK INTER + INTRA:          -2.613
REMARK INTER:                  -2.582
REMARK INTRA:                  -0.031
REMARK UNBOUND:                -0.010
REMARK SMILES CCCC(=O)[O-]
REMARK SMILES IDX 3 1 4 2 5 3 6 4 2 5 1 6
REMARK H PARENT
REMARK Flexibility Score: inf
ROOT
ATOM      1  C   UNL     1      49.883  31.515  56.110  1.00  0.00     0.052 C 
ENDROOT
BRANCH   1   2
ATOM      2  C   UNL     1      50.397  32.877  55.771  1.00  0.00     0.041 C 
ATOM      3  O   UNL     1      51.617  33.151  55.922  1.00  0.00    -0.550 OA
ATOM      4  O   UNL     1      49.521  33.863  55.334  1.00  0.00    -0.550 OA
ENDBRANCH   1   2
BRANCH   1   5
ATOM      5  C   UNL     1      50.669  30.922  57.283  1.00  0.00     0.003 C 
ATOM      6  C   UNL     1      51.109  29.492  56.985  1.00  0.00     0.004 C 
ENDBRANCH   1   5
TORSDOF 2
ENDMDL
MODEL 6
REMARK VINA RESULT:    -2.316      1.332      2.043
REMARK INTER + INTRA:          -2.596
REMARK INTER:                  -2.536
REMARK INTRA:                  -0.060
REMARK UNBOUND:                -0.010
REMARK SMILES CCCC(=O)[O-]
REMARK SMILES IDX 3 1 4 2 5 3 6 4 2 5 1 6
REMARK H PARENT
REMARK Flexibility Score: inf
ROOT
ATOM      1  C   UNL     1      40.960  35.228  48.628  1.00  0.00     0.052 C 
ENDROOT
BRANCH   1   2
ATOM      2  C   UNL     1      42.432  35.161  48.882  1.00  0.00     0.041 C 
ATOM      3  O   UNL     1      43.166  36.152  48.624  1.00  0.00    -0.550 OA
ATOM      4  O   UNL     1      43.004  33.987  49.357  1.00  0.00    -0.550 OA
ENDBRANCH   1   2
BRANCH   1   5
ATOM      5  C   UNL     1      40.681  35.369  47.129  1.00  0.00     0.003 C 
ATOM      6  C   UNL     1      41.234  34.180  46.350  1.00  0.00     0.004 C 
ENDBRANCH   1   5
TORSDOF 2
ENDMDL
MODEL 7
REMARK VINA RESULT:    -2.183      2.241      3.350
REMARK INTER + INTRA:          -2.448
REMARK INTER:                  -2.380
REMARK INTRA:                  -0.067
REMARK UNBOUND:                -0.010
REMARK SMILES CCCC(=O)[O-]
REMARK SMILES IDX 3 1 4 2 5 3 6 4 2 5 1 6
REMARK H PARENT
REMARK Flexibility Score: inf
ROOT
ATOM      1  C   UNL     1      43.284  35.717  49.187  1.00  0.00     0.052 C 
ENDROOT
BRANCH   1   2
ATOM      2  C   UNL     1      42.081  35.474  48.333  1.00  0.00     0.041 C 
ATOM      3  O   UNL     1      40.935  35.414  48.853  1.00  0.00    -0.550 OA
ATOM      4  O   UNL     1      42.228  35.263  46.967  1.00  0.00    -0.550 OA
ENDBRANCH   1   2
BRANCH   1   5
ATOM      5  C   UNL     1      43.382  34.658  50.288  1.00  0.00     0.003 C 
ATOM      6  C   UNL     1      43.876  33.326  49.731  1.00  0.00     0.004 C 
ENDBRANCH   1   5
TORSDOF 2
ENDMDL
MODEL 8
REMARK VINA RESULT:    -2.145      2.881      3.565
REMARK INTER + INTRA:          -2.405
REMARK INTER:                  -2.389
REMARK INTRA:                  -0.016
REMARK UNBOUND:                -0.010
REMARK SMILES CCCC(=O)[O-]
REMARK SMILES IDX 3 1 4 2 5 3 6 4 2 5 1 6
REMARK H PARENT
REMARK Flexibility Score: inf
ROOT
ATOM      1  C   UNL     1      44.253  32.785  49.733  1.00  0.00     0.052 C 
ENDROOT
BRANCH   1   2
ATOM      2  C   UNL     1      44.726  32.134  48.472  1.00  0.00     0.041 C 
ATOM      3  O   UNL     1      44.791  32.795  47.402  1.00  0.00    -0.550 OA
ATOM      4  O   UNL     1      45.049  30.782  48.466  1.00  0.00    -0.550 OA
ENDBRANCH   1   2
BRANCH   1   5
ATOM      5  C   UNL     1      43.285  33.927  49.414  1.00  0.00     0.003 C 
ATOM      6  C   UNL     1      43.235  34.940  50.554  1.00  0.00     0.004 C 
ENDBRANCH   1   5
TORSDOF 2
ENDMDL
MODEL 9
REMARK VINA RESULT:    -2.130      4.479      5.661
REMARK INTER + INTRA:          -2.389
REMARK INTER:                  -2.369
REMARK INTRA:                  -0.020
REMARK UNBOUND:                -0.010
REMARK SMILES CCCC(=O)[O-]
REMARK SMILES IDX 3 1 4 2 5 3 6 4 2 5 1 6
REMARK H PARENT
REMARK Flexibility Score: inf
ROOT
ATOM      1  C   UNL     1      45.609  30.382  49.597  1.00  0.00     0.052 C 
ENDROOT
BRANCH   1   2
ATOM      2  C   UNL     1      46.595  29.861  50.593  1.00  0.00     0.041 C 
ATOM      3  O   UNL     1      47.606  30.544  50.902  1.00  0.00    -0.550 OA
ATOM      4  O   UNL     1      46.424  28.597  51.145  1.00  0.00    -0.550 OA
ENDBRANCH   1   2
BRANCH   1   5
ATOM      5  C   UNL     1      45.742  31.901  49.456  1.00  0.00     0.003 C 
ATOM      6  C   UNL     1      44.383  32.586  49.569  1.00  0.00     0.004 C 
ENDBRANCH   1   5
TORSDOF 2
ENDMDL
