MODEL 1
REMARK VINA RESULT:    -3.604      0.000      0.000
REMARK INTER + INTRA:          -5.966
REMARK INTER:                  -5.289
REMARK INTRA:                  -0.676
REMARK UNBOUND:                -0.676
REMARK SMILES O=C([O-])CCCCCCCC(=O)[O-]
REMARK SMILES IDX 7 1 6 2 5 3 4 4 2 5 1 6 3 7 8 8 9 9 10 10 11 11 12 12 13 13
REMARK H PARENT
REMARK Flexibility Score: inf
ROOT
ATOM      1  C   UNL     1     -16.694  23.206  35.782  1.00  0.00     0.000 C 
ENDROOT
BRANCH   1   2
ATOM      2  C   UNL     1     -16.882  22.468  34.447  1.00  0.00     0.000 C 
BRANCH   2   3
ATOM      3  C   UNL     1     -15.551  21.989  33.842  1.00  0.00     0.006 C 
BRANCH   3   4
ATOM      4  C   UNL     1     -14.395  22.949  34.154  1.00  0.00     0.053 C 
BRANCH   4   5
ATOM      5  C   UNL     1     -13.307  22.274  34.931  1.00  0.00     0.041 C 
ATOM      6  O   UNL     1     -12.185  22.830  35.064  1.00  0.00    -0.550 OA
ATOM      7  O   UNL     1     -13.519  21.015  35.478  1.00  0.00    -0.550 OA
ENDBRANCH   4   5
ENDBRANCH   3   4
ENDBRANCH   2   3
ENDBRANCH   1   2
BRANCH   1   8
ATOM      8  C   UNL     1     -17.359  24.593  35.788  1.00  0.00     0.000 C 
BRANCH   8   9
ATOM      9  C   UNL     1     -17.746  25.075  34.377  1.00  0.00     0.006 C 
BRANCH   9  10
ATOM     10  C   UNL     1     -16.826  26.166  33.805  1.00  0.00     0.053 C 
BRANCH  10  11
ATOM     11  C   UNL     1     -16.786  26.138  32.307  1.00  0.00     0.041 C 
ATOM     12  O   UNL     1     -16.418  25.097  31.702  1.00  0.00    -0.550 OA
ATOM     13  O   UNL     1     -17.123  27.273  31.581  1.00  0.00    -0.550 OA
ENDBRANCH  10  11
ENDBRANCH   9  10
ENDBRANCH   8   9
ENDBRANCH   1   8
TORSDOF 8
ENDMDL
MODEL 2
REMARK VINA RESULT:    -3.541      1.422      2.027
REMARK INTER + INTRA:          -5.874
REMARK INTER:                  -5.301
REMARK INTRA:                  -0.572
REMARK UNBOUND:                -0.676
REMARK SMILES O=C([O-])CCCCCCCC(=O)[O-]
REMARK SMILES IDX 7 1 6 2 5 3 4 4 2 5 1 6 3 7 8 8 9 9 10 10 11 11 12 12 13 13
REMARK H PARENT
REMARK Flexibility Score: inf
ROOT
ATOM      1  C   UNL     1     -17.039  22.398  33.107  1.00  0.00     0.000 C 
ENDROOT
BRANCH   1   2
ATOM      2  C   UNL     1     -16.977  22.092  34.612  1.00  0.00     0.000 C 
BRANCH   2   3
ATOM      3  C   UNL     1     -16.022  23.031  35.369  1.00  0.00     0.006 C 
BRANCH   3   4
ATOM      4  C   UNL     1     -14.715  22.330  35.764  1.00  0.00     0.053 C 
BRANCH   4   5
ATOM      5  C   UNL     1     -13.642  22.537  34.740  1.00  0.00     0.041 C 
ATOM      6  O   UNL     1     -13.793  23.391  33.826  1.00  0.00    -0.550 OA
ATOM      7  O   UNL     1     -12.488  21.763  34.772  1.00  0.00    -0.550 OA
ENDBRANCH   4   5
ENDBRANCH   3   4
ENDBRANCH   2   3
ENDBRANCH   1   2
BRANCH   1   8
ATOM      8  C   UNL     1     -17.754  23.726  32.803  1.00  0.00     0.000 C 
BRANCH   8   9
ATOM      9  C   UNL     1     -16.851  24.735  32.069  1.00  0.00     0.006 C 
BRANCH   9  10
ATOM     10  C   UNL     1     -16.262  25.833  32.971  1.00  0.00     0.053 C 
BRANCH  10  11
ATOM     11  C   UNL     1     -17.038  27.111  32.878  1.00  0.00     0.041 C 
ATOM     12  O   UNL     1     -17.422  27.540  31.758  1.00  0.00    -0.550 OA
ATOM     13  O   UNL     1     -17.308  27.846  34.026  1.00  0.00    -0.550 OA
ENDBRANCH  10  11
ENDBRANCH   9  10
ENDBRANCH   8   9
ENDBRANCH   1   8
TORSDOF 8
ENDMDL
MODEL 3
REMARK VINA RESULT:    -3.499      1.297      4.679
REMARK INTER + INTRA:          -5.812
REMARK INTER:                  -5.163
REMARK INTRA:                  -0.649
REMARK UNBOUND:                -0.676
REMARK SMILES O=C([O-])CCCCCCCC(=O)[O-]
REMARK SMILES IDX 7 1 6 2 5 3 4 4 2 5 1 6 3 7 8 8 9 9 10 10 11 11 12 12 13 13
REMARK H PARENT
REMARK Flexibility Score: inf
ROOT
ATOM      1  C   UNL     1     -17.920  24.663  35.135  1.00  0.00     0.000 C 
ENDROOT
BRANCH   1   2
ATOM      2  C   UNL     1     -17.415  26.115  35.176  1.00  0.00     0.000 C 
BRANCH   2   3
ATOM      3  C   UNL     1     -17.071  26.662  33.780  1.00  0.00     0.006 C 
BRANCH   3   4
ATOM      4  C   UNL     1     -17.144  25.576  32.699  1.00  0.00     0.053 C 
BRANCH   4   5
ATOM      5  C   UNL     1     -15.796  25.280  32.116  1.00  0.00     0.041 C 
ATOM      6  O   UNL     1     -14.865  24.860  32.853  1.00  0.00    -0.550 OA
ATOM      7  O   UNL     1     -15.556  25.503  30.766  1.00  0.00    -0.550 OA
ENDBRANCH   4   5
ENDBRANCH   3   4
ENDBRANCH   2   3
ENDBRANCH   1   2
BRANCH   1   8
ATOM      8  C   UNL     1     -17.088  23.724  36.025  1.00  0.00     0.000 C 
BRANCH   8   9
ATOM      9  C   UNL     1     -16.258  22.713  35.212  1.00  0.00     0.006 C 
BRANCH   9  10
ATOM     10  C   UNL     1     -14.806  22.552  35.692  1.00  0.00     0.053 C 
BRANCH  10  11
ATOM     11  C   UNL     1     -13.936  21.925  34.647  1.00  0.00     0.041 C 
ATOM     12  O   UNL     1     -12.692  21.841  34.825  1.00  0.00    -0.550 OA
ATOM     13  O   UNL     1     -14.494  21.464  33.461  1.00  0.00    -0.550 OA
ENDBRANCH  10  11
ENDBRANCH   9  10
ENDBRANCH   8   9
ENDBRANCH   1   8
TORSDOF 8
ENDMDL
MODEL 4
REMARK VINA RESULT:    -3.436      1.379      1.797
REMARK INTER + INTRA:          -5.720
REMARK INTER:                  -5.089
REMARK INTRA:                  -0.631
REMARK UNBOUND:                -0.676
REMARK SMILES O=C([O-])CCCCCCCC(=O)[O-]
REMARK SMILES IDX 7 1 6 2 5 3 4 4 2 5 1 6 3 7 8 8 9 9 10 10 11 11 12 12 13 13
REMARK H PARENT
REMARK Flexibility Score: inf
ROOT
ATOM      1  C   UNL     1     -18.125  24.204  36.121  1.00  0.00     0.000 C 
ENDROOT
BRANCH   1   2
ATOM      2  C   UNL     1     -17.316  22.923  36.379  1.00  0.00     0.000 C 
BRANCH   2   3
ATOM      3  C   UNL     1     -16.293  22.634  35.266  1.00  0.00     0.006 C 
BRANCH   3   4
ATOM      4  C   UNL     1     -14.862  22.530  35.811  1.00  0.00     0.053 C 
BRANCH   4   5
ATOM      5  C   UNL     1     -13.879  22.202  34.729  1.00  0.00     0.041 C 
ATOM      6  O   UNL     1     -14.276  21.725  33.634  1.00  0.00    -0.550 OA
ATOM      7  O   UNL     1     -12.518  22.390  34.943  1.00  0.00    -0.550 OA
ENDBRANCH   4   5
ENDBRANCH   3   4
ENDBRANCH   2   3
ENDBRANCH   1   2
BRANCH   1   8
ATOM      8  C   UNL     1     -17.289  25.304  35.444  1.00  0.00     0.000 C 
BRANCH   8   9
ATOM      9  C   UNL     1     -18.016  25.959  34.255  1.00  0.00     0.006 C 
BRANCH   9  10
ATOM     10  C   UNL     1     -17.110  26.271  33.051  1.00  0.00     0.053 C 
BRANCH  10  11
ATOM     11  C   UNL     1     -16.345  25.066  32.597  1.00  0.00     0.041 C 
ATOM     12  O   UNL     1     -15.090  25.038  32.693  1.00  0.00    -0.550 OA
ATOM     13  O   UNL     1     -17.017  23.987  32.036  1.00  0.00    -0.550 OA
ENDBRANCH  10  11
ENDBRANCH   9  10
ENDBRANCH   8   9
ENDBRANCH   1   8
TORSDOF 8
ENDMDL
MODEL 5
REMARK VINA RESULT:    -3.423      1.589      5.141
REMARK INTER + INTRA:          -5.700
REMARK INTER:                  -5.150
REMARK INTRA:                  -0.550
REMARK UNBOUND:                -0.676
REMARK SMILES O=C([O-])CCCCCCCC(=O)[O-]
REMARK SMILES IDX 7 1 6 2 5 3 4 4 2 5 1 6 3 7 8 8 9 9 10 10 11 11 12 12 13 13
REMARK H PARENT
REMARK Flexibility Score: inf
ROOT
ATOM      1  C   UNL     1     -17.115  22.635  33.337  1.00  0.00     0.000 C 
ENDROOT
BRANCH   1   2
ATOM      2  C   UNL     1     -17.777  23.824  32.622  1.00  0.00     0.000 C 
BRANCH   2   3
ATOM      3  C   UNL     1     -16.788  24.967  32.331  1.00  0.00     0.006 C 
BRANCH   3   4
ATOM      4  C   UNL     1     -17.433  26.348  32.505  1.00  0.00     0.053 C 
BRANCH   4   5
ATOM      5  C   UNL     1     -17.068  26.970  33.818  1.00  0.00     0.041 C 
ATOM      6  O   UNL     1     -16.568  28.125  33.856  1.00  0.00    -0.550 OA
ATOM      7  O   UNL     1     -17.248  26.261  34.999  1.00  0.00    -0.550 OA
ENDBRANCH   4   5
ENDBRANCH   3   4
ENDBRANCH   2   3
ENDBRANCH   1   2
BRANCH   1   8
ATOM      8  C   UNL     1     -17.200  22.747  34.870  1.00  0.00     0.000 C 
BRANCH   8   9
ATOM      9  C   UNL     1     -15.815  22.804  35.541  1.00  0.00     0.006 C 
BRANCH   9  10
ATOM     10  C   UNL     1     -14.638  22.919  34.558  1.00  0.00     0.053 C 
BRANCH  10  11
ATOM     11  C   UNL     1     -13.407  22.240  35.075  1.00  0.00     0.041 C 
ATOM     12  O   UNL     1     -12.293  22.825  35.029  1.00  0.00    -0.550 OA
ATOM     13  O   UNL     1     -13.485  20.947  35.579  1.00  0.00    -0.550 OA
ENDBRANCH  10  11
ENDBRANCH   9  10
ENDBRANCH   8   9
ENDBRANCH   1   8
TORSDOF 8
ENDMDL
MODEL 6
REMARK VINA RESULT:    -3.158     12.348     13.624
REMARK INTER + INTRA:          -5.311
REMARK INTER:                  -5.073
REMARK INTRA:                  -0.238
REMARK UNBOUND:                -0.676
REMARK SMILES O=C([O-])CCCCCCCC(=O)[O-]
REMARK SMILES IDX 7 1 6 2 5 3 4 4 2 5 1 6 3 7 8 8 9 9 10 10 11 11 12 12 13 13
REMARK H PARENT
REMARK Flexibility Score: inf
ROOT
ATOM      1  C   UNL     1      -6.091  23.645  25.813  1.00  0.00     0.000 C 
ENDROOT
BRANCH   1   2
ATOM      2  C   UNL     1      -4.632  23.672  26.296  1.00  0.00     0.000 C 
BRANCH   2   3
ATOM      3  C   UNL     1      -3.731  24.553  25.412  1.00  0.00     0.006 C 
BRANCH   3   4
ATOM      4  C   UNL     1      -3.551  25.961  25.994  1.00  0.00     0.053 C 
BRANCH   4   5
ATOM      5  C   UNL     1      -2.496  26.734  25.262  1.00  0.00     0.041 C 
ATOM      6  O   UNL     1      -2.552  27.990  25.209  1.00  0.00    -0.550 OA
ATOM      7  O   UNL     1      -1.470  26.064  24.607  1.00  0.00    -0.550 OA
ENDBRANCH   4   5
ENDBRANCH   3   4
ENDBRANCH   2   3
ENDBRANCH   1   2
BRANCH   1   8
ATOM      8  C   UNL     1      -6.964  22.675  26.627  1.00  0.00     0.000 C 
BRANCH   8   9
ATOM      9  C   UNL     1      -8.471  22.935  26.447  1.00  0.00     0.006 C 
BRANCH   9  10
ATOM     10  C   UNL     1      -8.840  23.642  25.132  1.00  0.00     0.053 C 
BRANCH  10  11
ATOM     11  C   UNL     1      -9.935  22.929  24.399  1.00  0.00     0.041 C 
ATOM     12  O   UNL     1     -10.262  21.759  24.730  1.00  0.00    -0.550 OA
ATOM     13  O   UNL     1     -10.572  23.545  23.329  1.00  0.00    -0.550 OA
ENDBRANCH  10  11
ENDBRANCH   9  10
ENDBRANCH   8   9
ENDBRANCH   1   8
TORSDOF 8
ENDMDL
MODEL 7
REMARK VINA RESULT:    -3.096     15.445     17.296
REMARK INTER + INTRA:          -5.220
REMARK INTER:                  -4.718
REMARK INTRA:                  -0.503
REMARK UNBOUND:                -0.676
REMARK SMILES O=C([O-])CCCCCCCC(=O)[O-]
REMARK SMILES IDX 7 1 6 2 5 3 4 4 2 5 1 6 3 7 8 8 9 9 10 10 11 11 12 12 13 13
REMARK H PARENT
REMARK Flexibility Score: inf
ROOT
ATOM      1  C   UNL     1      -1.911  26.608  24.209  1.00  0.00     0.000 C 
ENDROOT
BRANCH   1   2
ATOM      2  C   UNL     1      -2.325  27.170  25.578  1.00  0.00     0.000 C 
BRANCH   2   3
ATOM      3  C   UNL     1      -3.520  26.419  26.191  1.00  0.00     0.006 C 
BRANCH   3   4
ATOM      4  C   UNL     1      -3.766  25.068  25.506  1.00  0.00     0.053 C 
BRANCH   4   5
ATOM      5  C   UNL     1      -4.345  24.062  26.454  1.00  0.00     0.041 C 
ATOM      6  O   UNL     1      -5.238  23.265  26.065  1.00  0.00    -0.550 OA
ATOM      7  O   UNL     1      -3.922  24.028  27.777  1.00  0.00    -0.550 OA
ENDBRANCH   4   5
ENDBRANCH   3   4
ENDBRANCH   2   3
ENDBRANCH   1   2
BRANCH   1   8
ATOM      8  C   UNL     1      -0.429  26.870  23.887  1.00  0.00     0.000 C 
BRANCH   8   9
ATOM      9  C   UNL     1       0.387  25.573  23.743  1.00  0.00     0.006 C 
BRANCH   9  10
ATOM     10  C   UNL     1      -0.345  24.306  24.215  1.00  0.00     0.053 C 
BRANCH  10  11
ATOM     11  C   UNL     1      -0.139  23.156  23.277  1.00  0.00     0.041 C 
ATOM     12  O   UNL     1       0.713  23.235  22.354  1.00  0.00    -0.550 OA
ATOM     13  O   UNL     1      -0.913  22.009  23.403  1.00  0.00    -0.550 OA
ENDBRANCH  10  11
ENDBRANCH   9  10
ENDBRANCH   8   9
ENDBRANCH   1   8
TORSDOF 8
ENDMDL
MODEL 8
REMARK VINA RESULT:    -3.092     15.776     17.357
REMARK INTER + INTRA:          -5.214
REMARK INTER:                  -4.652
REMARK INTRA:                  -0.562
REMARK UNBOUND:                -0.676
REMARK SMILES O=C([O-])CCCCCCCC(=O)[O-]
REMARK SMILES IDX 7 1 6 2 5 3 4 4 2 5 1 6 3 7 8 8 9 9 10 10 11 11 12 12 13 13
REMARK H PARENT
REMARK Flexibility Score: inf
ROOT
ATOM      1  C   UNL     1      -2.065  27.035  24.045  1.00  0.00     0.000 C 
ENDROOT
BRANCH   1   2
ATOM      2  C   UNL     1      -0.576  27.158  23.686  1.00  0.00     0.000 C 
BRANCH   2   3
ATOM      3  C   UNL     1       0.283  26.057  24.333  1.00  0.00     0.006 C 
BRANCH   3   4
ATOM      4  C   UNL     1      -0.212  24.650  23.970  1.00  0.00     0.053 C 
BRANCH   4   5
ATOM      5  C   UNL     1       0.695  23.980  22.983  1.00  0.00     0.041 C 
ATOM      6  O   UNL     1       1.853  24.429  22.779  1.00  0.00    -0.550 OA
ATOM      7  O   UNL     1       0.248  22.879  22.262  1.00  0.00    -0.550 OA
ENDBRANCH   4   5
ENDBRANCH   3   4
ENDBRANCH   2   3
ENDBRANCH   1   2
BRANCH   1   8
ATOM      8  C   UNL     1      -2.348  27.387  25.516  1.00  0.00     0.000 C 
BRANCH   8   9
ATOM      9  C   UNL     1      -3.406  26.469  26.156  1.00  0.00     0.006 C 
BRANCH   9  10
ATOM     10  C   UNL     1      -3.540  25.092  25.485  1.00  0.00     0.053 C 
BRANCH  10  11
ATOM     11  C   UNL     1      -4.246  24.105  26.364  1.00  0.00     0.041 C 
ATOM     12  O   UNL     1      -5.159  23.377  25.893  1.00  0.00    -0.550 OA
ATOM     13  O   UNL     1      -3.918  24.015  27.711  1.00  0.00    -0.550 OA
ENDBRANCH  10  11
ENDBRANCH   9  10
ENDBRANCH   8   9
ENDBRANCH   1   8
TORSDOF 8
ENDMDL
MODEL 9
REMARK VINA RESULT:    -2.901     12.448     14.093
REMARK INTER + INTRA:          -4.934
REMARK INTER:                  -4.707
REMARK INTRA:                  -0.227
REMARK UNBOUND:                -0.676
REMARK SMILES O=C([O-])CCCCCCCC(=O)[O-]
REMARK SMILES IDX 7 1 6 2 5 3 4 4 2 5 1 6 3 7 8 8 9 9 10 10 11 11 12 12 13 13
REMARK H PARENT
REMARK Flexibility Score: inf
ROOT
ATOM      1  C   UNL     1      -5.270  23.244  26.625  1.00  0.00     0.000 C 
ENDROOT
BRANCH   1   2
ATOM      2  C   UNL     1      -6.566  22.465  26.350  1.00  0.00     0.000 C 
BRANCH   2   3
ATOM      3  C   UNL     1      -7.824  23.343  26.477  1.00  0.00     0.006 C 
BRANCH   3   4
ATOM      4  C   UNL     1      -9.071  22.652  25.910  1.00  0.00     0.053 C 
BRANCH   4   5
ATOM      5  C   UNL     1      -9.539  23.302  24.643  1.00  0.00     0.041 C 
ATOM      6  O   UNL     1     -10.253  22.661  23.828  1.00  0.00    -0.550 OA
ATOM      7  O   UNL     1      -9.156  24.604  24.346  1.00  0.00    -0.550 OA
ENDBRANCH   4   5
ENDBRANCH   3   4
ENDBRANCH   2   3
ENDBRANCH   1   2
BRANCH   1   8
ATOM      8  C   UNL     1      -4.940  24.252  25.511  1.00  0.00     0.000 C 
BRANCH   8   9
ATOM      9  C   UNL     1      -3.549  24.892  25.680  1.00  0.00     0.006 C 
BRANCH   9  10
ATOM     10  C   UNL     1      -3.573  26.413  25.906  1.00  0.00     0.053 C 
BRANCH  10  11
ATOM     11  C   UNL     1      -2.321  27.074  25.415  1.00  0.00     0.041 C 
ATOM     12  O   UNL     1      -1.680  27.854  26.167  1.00  0.00    -0.550 OA
ATOM     13  O   UNL     1      -1.881  26.852  24.116  1.00  0.00    -0.550 OA
ENDBRANCH  10  11
ENDBRANCH   9  10
ENDBRANCH   8   9
ENDBRANCH   1   8
TORSDOF 8
ENDMDL
