MODEL 1
REMARK VINA RESULT:    -4.434      0.000      0.000
REMARK INTER + INTRA:          -4.786
REMARK INTER:                  -4.693
REMARK INTRA:                  -0.093
REMARK UNBOUND:                -0.093
REMARK SMILES C=C(C)[C@H]1CC=C(C)C(=O)C1
REMARK SMILES IDX 8 1 7 2 6 3 5 4 4 5 11 6 9 7 10 8 2 9 1 10 3 11
REMARK H PARENT
REMARK Flexibility Score: inf
ROOT
ATOM      1  C   UNL     1       4.190  12.470  24.280  1.00  0.00     0.048 C 
ATOM      2  C   UNL     1       3.291  13.506  23.664  1.00  0.00    -0.012 C 
ATOM      3  C   UNL     1       3.499  14.809  23.916  1.00  0.00    -0.019 C 
ATOM      4  C   UNL     1       2.619  15.886  23.340  1.00  0.00     0.036 C 
ATOM      5  C   UNL     1       2.087  15.484  21.951  1.00  0.00     0.025 C 
ATOM      6  C   UNL     1       1.372  14.122  22.026  1.00  0.00     0.089 C 
ATOM      7  C   UNL     1       2.255  13.096  22.682  1.00  0.00     0.158 C 
ATOM      8  O   UNL     1       2.081  11.876  22.416  1.00  0.00    -0.295 OA
ENDROOT
BRANCH   5   9
ATOM      9  C   UNL     1       1.186  16.559  21.359  1.00  0.00    -0.077 C 
ATOM     10  C   UNL     1       0.109  17.012  22.024  1.00  0.00     0.008 C 
ATOM     11  C   UNL     1       1.494  17.142  20.004  1.00  0.00     0.039 C 
ENDBRANCH   5   9
TORSDOF 1
ENDMDL
MODEL 2
REMARK VINA RESULT:    -4.322      6.227      7.987
REMARK INTER + INTRA:          -4.668
REMARK INTER:                  -4.575
REMARK INTRA:                  -0.093
REMARK UNBOUND:                -0.093
REMARK SMILES C=C(C)[C@H]1CC=C(C)C(=O)C1
REMARK SMILES IDX 8 1 7 2 6 3 5 4 4 5 11 6 9 7 10 8 2 9 1 10 3 11
REMARK H PARENT
REMARK Flexibility Score: inf
ROOT
ATOM      1  C   UNL     1       2.686  12.670  15.263  1.00  0.00     0.048 C 
ATOM      2  C   UNL     1       2.050  11.610  16.118  1.00  0.00    -0.012 C 
ATOM      3  C   UNL     1       2.209  10.312  15.805  1.00  0.00    -0.019 C 
ATOM      4  C   UNL     1       1.579   9.211  16.616  1.00  0.00     0.036 C 
ATOM      5  C   UNL     1       1.487   9.601  18.104  1.00  0.00     0.025 C 
ATOM      6  C   UNL     1       0.743  10.940  18.260  1.00  0.00     0.089 C 
ATOM      7  C   UNL     1       1.353  11.991  17.372  1.00  0.00     0.158 C 
ATOM      8  O   UNL     1       1.233  13.205  17.687  1.00  0.00    -0.295 OA
ENDROOT
BRANCH   5   9
ATOM      9  C   UNL     1       0.842   8.500  18.935  1.00  0.00    -0.077 C 
ATOM     10  C   UNL     1      -0.478   8.253  18.865  1.00  0.00     0.008 C 
ATOM     11  C   UNL     1       1.684   7.659  19.859  1.00  0.00     0.039 C 
ENDBRANCH   5   9
TORSDOF 1
ENDMDL
MODEL 3
REMARK VINA RESULT:    -4.304      1.303      4.366
REMARK INTER + INTRA:          -4.649
REMARK INTER:                  -4.554
REMARK INTRA:                  -0.095
REMARK UNBOUND:                -0.093
REMARK SMILES C=C(C)[C@H]1CC=C(C)C(=O)C1
REMARK SMILES IDX 8 1 7 2 6 3 5 4 4 5 11 6 9 7 10 8 2 9 1 10 3 11
REMARK H PARENT
REMARK Flexibility Score: inf
ROOT
ATOM      1  C   UNL     1       0.432  16.948  21.471  1.00  0.00     0.048 C 
ATOM      2  C   UNL     1       1.370  15.900  22.002  1.00  0.00    -0.012 C 
ATOM      3  C   UNL     1       2.464  16.268  22.690  1.00  0.00    -0.019 C 
ATOM      4  C   UNL     1       3.446  15.262  23.228  1.00  0.00     0.036 C 
ATOM      5  C   UNL     1       2.737  13.951  23.623  1.00  0.00     0.025 C 
ATOM      6  C   UNL     1       1.930  13.401  22.433  1.00  0.00     0.089 C 
ATOM      7  C   UNL     1       1.022  14.463  21.874  1.00  0.00     0.158 C 
ATOM      8  O   UNL     1      -0.023  14.116  21.260  1.00  0.00    -0.295 OA
ENDROOT
BRANCH   5   9
ATOM      9  C   UNL     1       3.720  12.919  24.160  1.00  0.00    -0.077 C 
ATOM     10  C   UNL     1       5.034  12.997  23.887  1.00  0.00     0.008 C 
ATOM     11  C   UNL     1       3.228  11.782  25.017  1.00  0.00     0.039 C 
ENDBRANCH   5   9
TORSDOF 1
ENDMDL
MODEL 4
REMARK VINA RESULT:    -4.282      5.884      7.368
REMARK INTER + INTRA:          -4.625
REMARK INTER:                  -4.529
REMARK INTRA:                  -0.096
REMARK UNBOUND:                -0.093
REMARK SMILES C=C(C)[C@H]1CC=C(C)C(=O)C1
REMARK SMILES IDX 8 1 7 2 6 3 5 4 4 5 11 6 9 7 10 8 2 9 1 10 3 11
REMARK H PARENT
REMARK Flexibility Score: inf
ROOT
ATOM      1  C   UNL     1      -1.823   9.786  21.194  1.00  0.00     0.048 C 
ATOM      2  C   UNL     1      -0.705   9.729  20.191  1.00  0.00    -0.012 C 
ATOM      3  C   UNL     1      -0.234   8.539  19.780  1.00  0.00    -0.019 C 
ATOM      4  C   UNL     1       0.896   8.424  18.792  1.00  0.00     0.036 C 
ATOM      5  C   UNL     1       0.873   9.590  17.785  1.00  0.00     0.025 C 
ATOM      6  C   UNL     1       0.883  10.938  18.529  1.00  0.00     0.089 C 
ATOM      7  C   UNL     1      -0.209  10.980  19.564  1.00  0.00     0.158 C 
ATOM      8  O   UNL     1      -0.675  12.095  19.920  1.00  0.00    -0.295 OA
ENDROOT
BRANCH   5   9
ATOM      9  C   UNL     1       2.016   9.493  16.784  1.00  0.00    -0.077 C 
ATOM     10  C   UNL     1       3.088   8.716  17.021  1.00  0.00     0.008 C 
ATOM     11  C   UNL     1       1.962  10.274  15.497  1.00  0.00     0.039 C 
ENDBRANCH   5   9
TORSDOF 1
ENDMDL
MODEL 5
REMARK VINA RESULT:    -4.166      6.255      7.304
REMARK INTER + INTRA:          -4.503
REMARK INTER:                  -4.408
REMARK INTRA:                  -0.095
REMARK UNBOUND:                -0.093
REMARK SMILES C=C(C)[C@H]1CC=C(C)C(=O)C1
REMARK SMILES IDX 8 1 7 2 6 3 5 4 4 5 11 6 9 7 10 8 2 9 1 10 3 11
REMARK H PARENT
REMARK Flexibility Score: inf
ROOT
ATOM      1  C   UNL     1       0.439   8.252  19.123  1.00  0.00     0.048 C 
ATOM      2  C   UNL     1       0.963   9.317  18.201  1.00  0.00    -0.012 C 
ATOM      3  C   UNL     1       1.676   8.971  17.115  1.00  0.00    -0.019 C 
ATOM      4  C   UNL     1       2.240   9.998  16.169  1.00  0.00     0.036 C 
ATOM      5  C   UNL     1       1.324  11.235  16.082  1.00  0.00     0.025 C 
ATOM      6  C   UNL     1       1.072  11.812  17.488  1.00  0.00     0.089 C 
ATOM      7  C   UNL     1       0.588  10.736  18.422  1.00  0.00     0.158 C 
ATOM      8  O   UNL     1      -0.110  11.060  19.420  1.00  0.00    -0.295 OA
ENDROOT
BRANCH   5   9
ATOM      9  C   UNL     1       1.887  12.287  15.136  1.00  0.00    -0.077 C 
ATOM     10  C   UNL     1       3.199  12.334  14.844  1.00  0.00     0.008 C 
ATOM     11  C   UNL     1       0.971  13.302  14.503  1.00  0.00     0.039 C 
ENDBRANCH   5   9
TORSDOF 1
ENDMDL
MODEL 6
REMARK VINA RESULT:    -4.164      6.377      7.651
REMARK INTER + INTRA:          -4.501
REMARK INTER:                  -4.404
REMARK INTRA:                  -0.097
REMARK UNBOUND:                -0.093
REMARK SMILES C=C(C)[C@H]1CC=C(C)C(=O)C1
REMARK SMILES IDX 8 1 7 2 6 3 5 4 4 5 11 6 9 7 10 8 2 9 1 10 3 11
REMARK H PARENT
REMARK Flexibility Score: inf
ROOT
ATOM      1  C   UNL     1       2.474  10.949  15.457  1.00  0.00     0.048 C 
ATOM      2  C   UNL     1       1.909  10.511  16.779  1.00  0.00    -0.012 C 
ATOM      3  C   UNL     1       0.968  11.255  17.385  1.00  0.00    -0.019 C 
ATOM      4  C   UNL     1       0.381  10.872  18.718  1.00  0.00     0.036 C 
ATOM      5  C   UNL     1       0.321   9.340  18.878  1.00  0.00     0.025 C 
ATOM      6  C   UNL     1       1.715   8.725  18.654  1.00  0.00     0.089 C 
ATOM      7  C   UNL     1       2.299   9.198  17.351  1.00  0.00     0.158 C 
ATOM      8  O   UNL     1       3.155   8.480  16.767  1.00  0.00    -0.295 OA
ENDROOT
BRANCH   5   9
ATOM      9  C   UNL     1      -0.261   8.938  20.226  1.00  0.00    -0.077 C 
ATOM     10  C   UNL     1       0.257   7.920  20.935  1.00  0.00     0.008 C 
ATOM     11  C   UNL     1      -1.441   9.685  20.793  1.00  0.00     0.039 C 
ENDBRANCH   5   9
TORSDOF 1
ENDMDL
MODEL 7
REMARK VINA RESULT:    -4.070      1.926      2.334
REMARK INTER + INTRA:          -4.401
REMARK INTER:                  -4.303
REMARK INTRA:                  -0.098
REMARK UNBOUND:                -0.093
REMARK SMILES C=C(C)[C@H]1CC=C(C)C(=O)C1
REMARK SMILES IDX 8 1 7 2 6 3 5 4 4 5 11 6 9 7 10 8 2 9 1 10 3 11
REMARK H PARENT
REMARK Flexibility Score: inf
ROOT
ATOM      1  C   UNL     1       5.227  12.844  21.605  1.00  0.00     0.048 C 
ATOM      2  C   UNL     1       4.177  13.913  21.488  1.00  0.00    -0.012 C 
ATOM      3  C   UNL     1       3.686  14.240  20.280  1.00  0.00    -0.019 C 
ATOM      4  C   UNL     1       2.648  15.316  20.105  1.00  0.00     0.036 C 
ATOM      5  C   UNL     1       1.706  15.383  21.323  1.00  0.00     0.025 C 
ATOM      6  C   UNL     1       2.520  15.563  22.618  1.00  0.00     0.089 C 
ATOM      7  C   UNL     1       3.598  14.518  22.714  1.00  0.00     0.158 C 
ATOM      8  O   UNL     1       4.032  14.187  23.850  1.00  0.00    -0.295 OA
ENDROOT
BRANCH   5   9
ATOM      9  C   UNL     1       0.656  16.474  21.163  1.00  0.00    -0.077 C 
ATOM     10  C   UNL     1       0.121  17.091  22.232  1.00  0.00     0.008 C 
ATOM     11  C   UNL     1       0.197  16.887  19.789  1.00  0.00     0.039 C 
ENDBRANCH   5   9
TORSDOF 1
ENDMDL
MODEL 8
REMARK VINA RESULT:    -4.002      2.668      4.201
REMARK INTER + INTRA:          -4.330
REMARK INTER:                  -4.233
REMARK INTRA:                  -0.096
REMARK UNBOUND:                -0.093
REMARK SMILES C=C(C)[C@H]1CC=C(C)C(=O)C1
REMARK SMILES IDX 8 1 7 2 6 3 5 4 4 5 11 6 9 7 10 8 2 9 1 10 3 11
REMARK H PARENT
REMARK Flexibility Score: inf
ROOT
ATOM      1  C   UNL     1       2.533  16.088  23.094  1.00  0.00     0.048 C 
ATOM      2  C   UNL     1       2.090  16.335  21.678  1.00  0.00    -0.012 C 
ATOM      3  C   UNL     1       2.897  16.003  20.656  1.00  0.00    -0.019 C 
ATOM      4  C   UNL     1       2.511  16.246  19.221  1.00  0.00     0.036 C 
ATOM      5  C   UNL     1       0.988  16.112  19.027  1.00  0.00     0.025 C 
ATOM      6  C   UNL     1       0.241  17.044  19.998  1.00  0.00     0.089 C 
ATOM      7  C   UNL     1       0.716  16.828  21.409  1.00  0.00     0.158 C 
ATOM      8  O   UNL     1      -0.057  17.106  22.365  1.00  0.00    -0.295 OA
ENDROOT
BRANCH   5   9
ATOM      9  C   UNL     1       0.581  16.364  17.581  1.00  0.00    -0.077 C 
ATOM     10  C   UNL     1       1.490  16.369  16.590  1.00  0.00     0.008 C 
ATOM     11  C   UNL     1      -0.865  16.612  17.235  1.00  0.00     0.039 C 
ENDBRANCH   5   9
TORSDOF 1
ENDMDL
MODEL 9
REMARK VINA RESULT:    -3.910      6.056      7.130
REMARK INTER + INTRA:          -4.231
REMARK INTER:                  -4.137
REMARK INTRA:                  -0.094
REMARK UNBOUND:                -0.093
REMARK SMILES C=C(C)[C@H]1CC=C(C)C(=O)C1
REMARK SMILES IDX 8 1 7 2 6 3 5 4 4 5 11 6 9 7 10 8 2 9 1 10 3 11
REMARK H PARENT
REMARK Flexibility Score: inf
ROOT
ATOM      1  C   UNL     1       2.684   9.048  17.170  1.00  0.00     0.048 C 
ATOM      2  C   UNL     1       1.451   9.324  17.985  1.00  0.00    -0.012 C 
ATOM      3  C   UNL     1       0.766   8.303  18.529  1.00  0.00    -0.019 C 
ATOM      4  C   UNL     1      -0.485   8.521  19.338  1.00  0.00     0.036 C 
ATOM      5  C   UNL     1      -0.423   9.856  20.106  1.00  0.00     0.025 C 
ATOM      6  C   UNL     1      -0.145  11.019  19.135  1.00  0.00     0.089 C 
ATOM      7  C   UNL     1       1.064  10.724  18.289  1.00  0.00     0.158 C 
ATOM      8  O   UNL     1       1.726  11.683  17.810  1.00  0.00    -0.295 OA
ENDROOT
BRANCH   5   9
ATOM      9  C   UNL     1      -1.687  10.095  20.921  1.00  0.00    -0.077 C 
ATOM     10  C   UNL     1      -2.728  10.778  20.413  1.00  0.00     0.008 C 
ATOM     11  C   UNL     1      -1.792   9.562  22.327  1.00  0.00     0.039 C 
ENDBRANCH   5   9
TORSDOF 1
ENDMDL
