MODEL 1
REMARK VINA RESULT:    -3.054      0.000      0.000
REMARK INTER + INTRA:          -3.715
REMARK INTER:                  -3.589
REMARK INTRA:                  -0.126
REMARK UNBOUND:                -0.126
REMARK SMILES O=C([O-])C=Cc1ccc(O)c(O)c1
REMARK SMILES IDX 6 1 13 2 7 3 11 4 8 5 9 6 5 7 4 8 2 9 1 10 3 11 12 12 10 14
REMARK H PARENT 12 13 10 15
REMARK Flexibility Score: inf
ROOT
ATOM      1  C   UNL     1      -7.991  21.293  18.766  1.00  0.00    -0.022 A 
ATOM      2  C   UNL     1      -7.032  20.600  19.529  1.00  0.00     0.058 A 
ATOM      3  C   UNL     1      -9.033  21.956  19.431  1.00  0.00     0.012 A 
ATOM      4  C   UNL     1      -7.096  20.587  20.928  1.00  0.00     0.157 A 
ATOM      5  C   UNL     1      -9.101  21.952  20.826  1.00  0.00     0.051 A 
ATOM      6  C   UNL     1      -8.140  21.278  21.585  1.00  0.00     0.157 A 
ENDROOT
BRANCH   1   7
ATOM      7  C   UNL     1      -7.966  21.319  17.282  1.00  0.00     0.010 C 
ATOM      8  C   UNL     1      -6.942  20.867  16.548  1.00  0.00     0.025 C 
BRANCH   8   9
ATOM      9  C   UNL     1      -6.954  20.923  15.077  1.00  0.00     0.064 C 
ATOM     10  O   UNL     1      -8.046  21.081  14.471  1.00  0.00    -0.545 OA
ATOM     11  O   UNL     1      -5.779  20.808  14.344  1.00  0.00    -0.545 OA
ENDBRANCH   8   9
ENDBRANCH   1   7
BRANCH   4  12
ATOM     12  O   UNL     1      -6.110  19.879  21.619  1.00  0.00    -0.504 OA
ATOM     13  H   UNL     1      -6.007  19.887  22.623  1.00  0.00     0.293 HD
ENDBRANCH   4  12
BRANCH   6  14
ATOM     14  O   UNL     1      -8.263  21.318  22.976  1.00  0.00    -0.504 OA
ATOM     15  H   UNL     1      -9.106  21.072  23.476  1.00  0.00     0.293 HD
ENDBRANCH   6  14
TORSDOF 4
ENDMDL
MODEL 2
REMARK VINA RESULT:    -2.754      1.222      2.183
REMARK INTER + INTRA:          -3.363
REMARK INTER:                  -3.215
REMARK INTRA:                  -0.148
REMARK UNBOUND:                -0.126
REMARK SMILES O=C([O-])C=Cc1ccc(O)c(O)c1
REMARK SMILES IDX 6 1 13 2 7 3 11 4 8 5 9 6 5 7 4 8 2 9 1 10 3 11 12 12 10 14
REMARK H PARENT 12 13 10 15
REMARK Flexibility Score: inf
ROOT
ATOM      1  C   UNL     1      -7.711  20.875  19.809  1.00  0.00    -0.022 A 
ATOM      2  C   UNL     1      -8.545  21.340  20.844  1.00  0.00     0.058 A 
ATOM      3  C   UNL     1      -6.556  20.153  20.145  1.00  0.00     0.012 A 
ATOM      4  C   UNL     1      -8.248  21.068  22.187  1.00  0.00     0.157 A 
ATOM      5  C   UNL     1      -6.255  19.875  21.480  1.00  0.00     0.051 A 
ATOM      6  C   UNL     1      -7.092  20.321  22.508  1.00  0.00     0.157 A 
ENDROOT
BRANCH   1   7
ATOM      7  C   UNL     1      -7.983  21.152  18.377  1.00  0.00     0.010 C 
ATOM      8  C   UNL     1      -7.517  20.401  17.372  1.00  0.00     0.025 C 
BRANCH   8   9
ATOM      9  C   UNL     1      -7.803  20.720  15.964  1.00  0.00     0.064 C 
ATOM     10  O   UNL     1      -8.936  20.455  15.484  1.00  0.00    -0.545 OA
ATOM     11  O   UNL     1      -6.841  21.313  15.153  1.00  0.00    -0.545 OA
ENDBRANCH   8   9
ENDBRANCH   1   7
BRANCH   4  12
ATOM     12  O   UNL     1      -9.121  21.561  23.159  1.00  0.00    -0.504 OA
ATOM     13  H   UNL     1     -10.097  21.311  23.221  1.00  0.00     0.293 HD
ENDBRANCH   4  12
BRANCH   6  14
ATOM     14  O   UNL     1      -6.737  20.004  23.821  1.00  0.00    -0.504 OA
ATOM     15  H   UNL     1      -7.143  20.441  24.637  1.00  0.00     0.293 HD
ENDBRANCH   6  14
TORSDOF 4
ENDMDL
MODEL 3
REMARK VINA RESULT:    -2.654      3.793      6.115
REMARK INTER + INTRA:          -3.246
REMARK INTER:                  -3.121
REMARK INTRA:                  -0.125
REMARK UNBOUND:                -0.126
REMARK SMILES O=C([O-])C=Cc1ccc(O)c(O)c1
REMARK SMILES IDX 6 1 13 2 7 3 11 4 8 5 9 6 5 7 4 8 2 9 1 10 3 11 12 12 10 14
REMARK H PARENT 12 13 10 15
REMARK Flexibility Score: inf
ROOT
ATOM      1  C   UNL     1      -4.440  19.875  17.923  1.00  0.00    -0.022 A 
ATOM      2  C   UNL     1      -3.316  19.907  18.770  1.00  0.00     0.058 A 
ATOM      3  C   UNL     1      -4.242  19.877  16.535  1.00  0.00     0.012 A 
ATOM      4  C   UNL     1      -2.017  19.915  18.244  1.00  0.00     0.157 A 
ATOM      5  C   UNL     1      -2.951  19.882  16.003  1.00  0.00     0.051 A 
ATOM      6  C   UNL     1      -1.832  19.895  16.842  1.00  0.00     0.157 A 
ENDROOT
BRANCH   1   7
ATOM      7  C   UNL     1      -5.831  19.879  18.441  1.00  0.00     0.010 C 
ATOM      8  C   UNL     1      -6.234  20.617  19.484  1.00  0.00     0.025 C 
BRANCH   8   9
ATOM      9  C   UNL     1      -7.623  20.581  19.972  1.00  0.00     0.064 C 
ATOM     10  O   UNL     1      -8.499  19.968  19.307  1.00  0.00    -0.545 OA
ATOM     11  O   UNL     1      -7.983  21.211  21.158  1.00  0.00    -0.545 OA
ENDBRANCH   8   9
ENDBRANCH   1   7
BRANCH   4  12
ATOM     12  O   UNL     1      -0.949  19.947  19.143  1.00  0.00    -0.504 OA
ATOM     13  H   UNL     1      -1.049  19.848  20.143  1.00  0.00     0.293 HD
ENDBRANCH   4  12
BRANCH   6  14
ATOM     14  O   UNL     1      -0.570  19.893  16.246  1.00  0.00    -0.504 OA
ATOM     15  H   UNL     1      -0.412  19.759  15.256  1.00  0.00     0.293 HD
ENDBRANCH   6  14
TORSDOF 4
ENDMDL
MODEL 4
REMARK VINA RESULT:    -2.621     14.560     16.265
REMARK INTER + INTRA:          -3.207
REMARK INTER:                  -3.052
REMARK INTRA:                  -0.155
REMARK UNBOUND:                -0.126
REMARK SMILES O=C([O-])C=Cc1ccc(O)c(O)c1
REMARK SMILES IDX 6 1 13 2 7 3 11 4 8 5 9 6 5 7 4 8 2 9 1 10 3 11 12 12 10 14
REMARK H PARENT 12 13 10 15
REMARK Flexibility Score: inf
ROOT
ATOM      1  C   UNL     1       7.594  20.070  13.146  1.00  0.00    -0.022 A 
ATOM      2  C   UNL     1       7.877  20.263  14.512  1.00  0.00     0.058 A 
ATOM      3  C   UNL     1       6.261  19.875  12.753  1.00  0.00     0.012 A 
ATOM      4  C   UNL     1       6.851  20.286  15.465  1.00  0.00     0.157 A 
ATOM      5  C   UNL     1       5.232  19.901  13.697  1.00  0.00     0.051 A 
ATOM      6  C   UNL     1       5.511  20.110  15.051  1.00  0.00     0.157 A 
ENDROOT
BRANCH   1   7
ATOM      7  C   UNL     1       8.654  20.025  12.108  1.00  0.00     0.010 C 
ATOM      8  C   UNL     1       8.405  19.988  10.793  1.00  0.00     0.025 C 
BRANCH   8   9
ATOM      9  C   UNL     1       9.489  19.932   9.798  1.00  0.00     0.064 C 
ATOM     10  O   UNL     1      10.686  19.892  10.185  1.00  0.00    -0.545 OA
ATOM     11  O   UNL     1       9.212  19.921   8.435  1.00  0.00    -0.545 OA
ENDBRANCH   8   9
ENDBRANCH   1   7
BRANCH   4  12
ATOM     12  O   UNL     1       7.206  20.483  16.801  1.00  0.00    -0.504 OA
ATOM     13  H   UNL     1       6.926  19.874  17.556  1.00  0.00     0.293 HD
ENDBRANCH   4  12
BRANCH   6  14
ATOM     14  O   UNL     1       4.435  20.130  15.942  1.00  0.00    -0.504 OA
ATOM     15  H   UNL     1       3.939  20.969  16.209  1.00  0.00     0.293 HD
ENDBRANCH   6  14
TORSDOF 4
ENDMDL
MODEL 5
REMARK VINA RESULT:    -2.569     17.723     20.313
REMARK INTER + INTRA:          -3.145
REMARK INTER:                  -3.017
REMARK INTRA:                  -0.128
REMARK UNBOUND:                -0.126
REMARK SMILES O=C([O-])C=Cc1ccc(O)c(O)c1
REMARK SMILES IDX 6 1 13 2 7 3 11 4 8 5 9 6 5 7 4 8 2 9 1 10 3 11 12 12 10 14
REMARK H PARENT 12 13 10 15
REMARK Flexibility Score: inf
ROOT
ATOM      1  C   UNL     1      10.758  22.337  11.380  1.00  0.00    -0.022 A 
ATOM      2  C   UNL     1      10.875  21.712  10.124  1.00  0.00     0.058 A 
ATOM      3  C   UNL     1      10.794  23.737  11.445  1.00  0.00     0.012 A 
ATOM      4  C   UNL     1      10.999  22.468   8.951  1.00  0.00     0.157 A 
ATOM      5  C   UNL     1      10.915  24.499  10.280  1.00  0.00     0.051 A 
ATOM      6  C   UNL     1      11.013  23.880   9.030  1.00  0.00     0.157 A 
ENDROOT
BRANCH   1   7
ATOM      7  C   UNL     1      10.638  21.571  12.645  1.00  0.00     0.010 C 
ATOM      8  C   UNL     1       9.467  21.218  13.193  1.00  0.00     0.025 C 
BRANCH   8   9
ATOM      9  C   UNL     1       9.395  20.468  14.457  1.00  0.00     0.064 C 
ATOM     10  O   UNL     1      10.419  19.877  14.889  1.00  0.00    -0.545 OA
ATOM     11  O   UNL     1       8.212  20.402  15.186  1.00  0.00    -0.545 OA
ENDBRANCH   8   9
ENDBRANCH   1   7
BRANCH   4  12
ATOM     12  O   UNL     1      11.110  21.781   7.741  1.00  0.00    -0.504 OA
ATOM     13  H   UNL     1      10.725  20.863   7.574  1.00  0.00     0.293 HD
ENDBRANCH   4  12
BRANCH   6  14
ATOM     14  O   UNL     1      11.125  24.699   7.905  1.00  0.00    -0.504 OA
ATOM     15  H   UNL     1      11.814  25.433   7.806  1.00  0.00     0.293 HD
ENDBRANCH   6  14
TORSDOF 4
ENDMDL
MODEL 6
REMARK VINA RESULT:    -2.397      1.196      5.711
REMARK INTER + INTRA:          -2.944
REMARK INTER:                  -2.814
REMARK INTRA:                  -0.130
REMARK UNBOUND:                -0.126
REMARK SMILES O=C([O-])C=Cc1ccc(O)c(O)c1
REMARK SMILES IDX 6 1 13 2 7 3 11 4 8 5 9 6 5 7 4 8 2 9 1 10 3 11 12 12 10 14
REMARK H PARENT 12 13 10 15
REMARK Flexibility Score: inf
ROOT
ATOM      1  C   UNL     1      -7.330  20.476  18.448  1.00  0.00    -0.022 A 
ATOM      2  C   UNL     1      -6.100  20.079  17.890  1.00  0.00     0.058 A 
ATOM      3  C   UNL     1      -8.269  21.119  17.628  1.00  0.00     0.012 A 
ATOM      4  C   UNL     1      -5.820  20.296  16.534  1.00  0.00     0.157 A 
ATOM      5  C   UNL     1      -7.999  21.335  16.275  1.00  0.00     0.051 A 
ATOM      6  C   UNL     1      -6.785  20.925  15.715  1.00  0.00     0.157 A 
ENDROOT
BRANCH   1   7
ATOM      7  C   UNL     1      -7.659  20.276  19.881  1.00  0.00     0.010 C 
ATOM      8  C   UNL     1      -7.694  21.267  20.782  1.00  0.00     0.025 C 
BRANCH   8   9
ATOM      9  C   UNL     1      -8.014  21.021  22.198  1.00  0.00     0.064 C 
ATOM     10  O   UNL     1      -9.125  21.394  22.657  1.00  0.00    -0.545 OA
ATOM     11  O   UNL     1      -7.108  20.382  23.037  1.00  0.00    -0.545 OA
ENDBRANCH   8   9
ENDBRANCH   1   7
BRANCH   4  12
ATOM     12  O   UNL     1      -4.580  19.875  16.050  1.00  0.00    -0.504 OA
ATOM     13  H   UNL     1      -4.278  18.912  16.028  1.00  0.00     0.293 HD
ENDBRANCH   4  12
BRANCH   6  14
ATOM     14  O   UNL     1      -6.580  21.167  14.355  1.00  0.00    -0.504 OA
ATOM     15  H   UNL     1      -5.681  21.385  13.949  1.00  0.00     0.293 HD
ENDBRANCH   6  14
TORSDOF 4
ENDMDL
MODEL 7
REMARK VINA RESULT:    -2.268      3.656      5.403
REMARK INTER + INTRA:          -2.791
REMARK INTER:                  -2.650
REMARK INTRA:                  -0.141
REMARK UNBOUND:                -0.126
REMARK SMILES O=C([O-])C=Cc1ccc(O)c(O)c1
REMARK SMILES IDX 6 1 13 2 7 3 11 4 8 5 9 6 5 7 4 8 2 9 1 10 3 11 12 12 10 14
REMARK H PARENT 12 13 10 15
REMARK Flexibility Score: inf
ROOT
ATOM      1  C   UNL     1      -4.627  19.934  17.238  1.00  0.00    -0.022 A 
ATOM      2  C   UNL     1      -3.879  19.875  18.429  1.00  0.00     0.058 A 
ATOM      3  C   UNL     1      -3.949  20.086  16.020  1.00  0.00     0.012 A 
ATOM      4  C   UNL     1      -2.479  19.941  18.405  1.00  0.00     0.157 A 
ATOM      5  C   UNL     1      -2.554  20.149  15.987  1.00  0.00     0.051 A 
ATOM      6  C   UNL     1      -1.808  20.073  17.168  1.00  0.00     0.157 A 
ENDROOT
BRANCH   1   7
ATOM      7  C   UNL     1      -6.110  19.880  17.223  1.00  0.00     0.010 C 
ATOM      8  C   UNL     1      -6.876  20.698  16.489  1.00  0.00     0.025 C 
BRANCH   8   9
ATOM      9  C   UNL     1      -8.346  20.617  16.514  1.00  0.00     0.064 C 
ATOM     10  O   UNL     1      -8.985  21.202  17.427  1.00  0.00    -0.545 OA
ATOM     11  O   UNL     1      -9.042  19.904  15.543  1.00  0.00    -0.545 OA
ENDBRANCH   8   9
ENDBRANCH   1   7
BRANCH   4  12
ATOM     12  O   UNL     1      -1.803  19.877  19.625  1.00  0.00    -0.504 OA
ATOM     13  H   UNL     1      -1.002  20.445  19.859  1.00  0.00     0.293 HD
ENDBRANCH   4  12
BRANCH   6  14
ATOM     14  O   UNL     1      -0.417  20.137  17.065  1.00  0.00    -0.504 OA
ATOM     15  H   UNL     1       0.199  20.336  17.841  1.00  0.00     0.293 HD
ENDBRANCH   6  14
TORSDOF 4
ENDMDL
MODEL 8
REMARK VINA RESULT:    -1.406      3.524      5.735
REMARK INTER + INTRA:          -1.778
REMARK INTER:                  -1.657
REMARK INTRA:                  -0.122
REMARK UNBOUND:                -0.126
REMARK SMILES O=C([O-])C=Cc1ccc(O)c(O)c1
REMARK SMILES IDX 6 1 13 2 7 3 11 4 8 5 9 6 5 7 4 8 2 9 1 10 3 11 12 12 10 14
REMARK H PARENT 12 13 10 15
REMARK Flexibility Score: inf
ROOT
ATOM      1  C   UNL     1      -4.840  20.199  16.167  1.00  0.00    -0.022 A 
ATOM      2  C   UNL     1      -5.825  19.964  17.145  1.00  0.00     0.058 A 
ATOM      3  C   UNL     1      -5.239  20.655  14.901  1.00  0.00     0.012 A 
ATOM      4  C   UNL     1      -7.180  20.201  16.876  1.00  0.00     0.157 A 
ATOM      5  C   UNL     1      -6.587  20.897  14.627  1.00  0.00     0.051 A 
ATOM      6  C   UNL     1      -7.564  20.680  15.603  1.00  0.00     0.157 A 
ENDROOT
BRANCH   1   7
ATOM      7  C   UNL     1      -3.398  19.948  16.408  1.00  0.00     0.010 C 
ATOM      8  C   UNL     1      -2.770  20.256  17.550  1.00  0.00     0.025 C 
BRANCH   8   9
ATOM      9  C   UNL     1      -1.333  20.000  17.742  1.00  0.00     0.064 C 
ATOM     10  O   UNL     1      -0.874  19.875  18.907  1.00  0.00    -0.545 OA
ATOM     11  O   UNL     1      -0.472  19.892  16.655  1.00  0.00    -0.545 OA
ENDBRANCH   8   9
ENDBRANCH   1   7
BRANCH   4  12
ATOM     12  O   UNL     1      -8.100  19.945  17.894  1.00  0.00    -0.504 OA
ATOM     13  H   UNL     1      -8.847  20.573  18.152  1.00  0.00     0.293 HD
ENDBRANCH   4  12
BRANCH   6  14
ATOM     14  O   UNL     1      -8.893  20.947  15.265  1.00  0.00    -0.504 OA
ATOM     15  H   UNL     1      -9.288  21.876  15.219  1.00  0.00     0.293 HD
ENDBRANCH   6  14
TORSDOF 4
ENDMDL
