MODEL 1
REMARK VINA RESULT:    -3.589      0.000      0.000
REMARK INTER + INTRA:          -4.412
REMARK INTER:                  -4.114
REMARK INTRA:                  -0.299
REMARK UNBOUND:                -0.299
REMARK SMILES COc1ccc(C(C)=O)c(O)c1
REMARK SMILES IDX 6 1 10 2 12 3 3 4 4 5 5 6 7 7 8 8 9 9 11 10 2 12 1 13
REMARK H PARENT 11 11
REMARK Flexibility Score: inf
ROOT
ATOM      1  C   UNL     1       5.423  42.683  38.648  1.00  0.00     0.059 A 
ATOM      2  C   UNL     1       5.719  42.950  37.288  1.00  0.00     0.130 A 
ATOM      3  C   UNL     1       5.746  41.899  36.362  1.00  0.00     0.093 A 
ATOM      4  C   UNL     1       5.515  40.573  36.770  1.00  0.00     0.122 A 
ATOM      5  C   UNL     1       5.254  40.312  38.117  1.00  0.00     0.047 A 
ATOM      6  C   UNL     1       5.207  41.353  39.046  1.00  0.00     0.019 A 
ENDROOT
BRANCH   1   7
ATOM      7  C   UNL     1       5.297  43.766  39.650  1.00  0.00     0.163 C 
ATOM      8  C   UNL     1       5.234  43.459  41.116  1.00  0.00     0.093 C 
ATOM      9  O   UNL     1       5.159  44.960  39.274  1.00  0.00    -0.294 OA
ENDBRANCH   1   7
BRANCH   2  10
ATOM     10  O   UNL     1       6.021  44.233  36.826  1.00  0.00    -0.507 OA
ATOM     11  H   UNL     1       6.963  44.559  36.664  1.00  0.00     0.293 HD
ENDBRANCH   2  10
BRANCH   4  12
ATOM     12  O   UNL     1       5.541  39.494  35.875  1.00  0.00    -0.497 OA
ATOM     13  C   UNL     1       6.050  38.200  36.188  1.00  0.00     0.278 C 
ENDBRANCH   4  12
TORSDOF 3
ENDMDL
MODEL 2
REMARK VINA RESULT:    -3.461     11.829     12.683
REMARK INTER + INTRA:          -4.265
REMARK INTER:                  -3.954
REMARK INTRA:                  -0.311
REMARK UNBOUND:                -0.299
REMARK SMILES COc1ccc(C(C)=O)c(O)c1
REMARK SMILES IDX 6 1 10 2 12 3 3 4 4 5 5 6 7 7 8 8 9 9 11 10 2 12 1 13
REMARK H PARENT 11 11
REMARK Flexibility Score: inf
ROOT
ATOM      1  C   UNL     1      11.311  32.651  42.747  1.00  0.00     0.059 A 
ATOM      2  C   UNL     1      12.557  33.143  43.211  1.00  0.00     0.130 A 
ATOM      3  C   UNL     1      13.697  33.021  42.407  1.00  0.00     0.093 A 
ATOM      4  C   UNL     1      13.630  32.384  41.154  1.00  0.00     0.122 A 
ATOM      5  C   UNL     1      12.407  31.875  40.715  1.00  0.00     0.047 A 
ATOM      6  C   UNL     1      11.259  32.006  41.499  1.00  0.00     0.019 A 
ENDROOT
BRANCH   1   7
ATOM      7  C   UNL     1      10.060  32.832  43.518  1.00  0.00     0.163 C 
ATOM      8  C   UNL     1       8.852  31.990  43.240  1.00  0.00     0.093 C 
ATOM      9  O   UNL     1       9.971  33.758  44.368  1.00  0.00    -0.294 OA
ENDBRANCH   1   7
BRANCH   2  10
ATOM     10  O   UNL     1      12.707  33.728  44.471  1.00  0.00    -0.507 OA
ATOM     11  H   UNL     1      12.075  33.560  45.241  1.00  0.00     0.293 HD
ENDBRANCH   2  10
BRANCH   4  12
ATOM     12  O   UNL     1      14.751  32.235  40.324  1.00  0.00    -0.497 OA
ATOM     13  C   UNL     1      16.095  32.163  40.791  1.00  0.00     0.278 C 
ENDBRANCH   4  12
TORSDOF 3
ENDMDL
MODEL 3
REMARK VINA RESULT:    -3.319      1.315      4.662
REMARK INTER + INTRA:          -4.103
REMARK INTER:                  -3.777
REMARK INTRA:                  -0.326
REMARK UNBOUND:                -0.299
REMARK SMILES COc1ccc(C(C)=O)c(O)c1
REMARK SMILES IDX 6 1 10 2 12 3 3 4 4 5 5 6 7 7 8 8 9 9 11 10 2 12 1 13
REMARK H PARENT 11 11
REMARK Flexibility Score: inf
ROOT
ATOM      1  C   UNL     1       5.463  41.793  37.964  1.00  0.00     0.059 A 
ATOM      2  C   UNL     1       5.187  43.091  37.470  1.00  0.00     0.130 A 
ATOM      3  C   UNL     1       5.157  44.180  38.350  1.00  0.00     0.093 A 
ATOM      4  C   UNL     1       5.366  43.997  39.730  1.00  0.00     0.122 A 
ATOM      5  C   UNL     1       5.608  42.711  40.215  1.00  0.00     0.047 A 
ATOM      6  C   UNL     1       5.657  41.620  39.346  1.00  0.00     0.019 A 
ENDROOT
BRANCH   1   7
ATOM      7  C   UNL     1       5.592  40.622  37.066  1.00  0.00     0.163 C 
ATOM      8  C   UNL     1       5.338  39.232  37.566  1.00  0.00     0.093 C 
ATOM      9  O   UNL     1       5.999  40.776  35.884  1.00  0.00    -0.294 OA
ENDBRANCH   1   7
BRANCH   2  10
ATOM     10  O   UNL     1       4.908  43.335  36.123  1.00  0.00    -0.507 OA
ATOM     11  H   UNL     1       3.992  43.214  35.714  1.00  0.00     0.293 HD
ENDBRANCH   2  10
BRANCH   4  12
ATOM     12  O   UNL     1       5.335  45.060  40.644  1.00  0.00    -0.497 OA
ATOM     13  C   UNL     1       4.913  46.383  40.326  1.00  0.00     0.278 C 
ENDBRANCH   4  12
TORSDOF 3
ENDMDL
MODEL 4
REMARK VINA RESULT:    -3.314      1.857      4.784
REMARK INTER + INTRA:          -4.097
REMARK INTER:                  -3.756
REMARK INTRA:                  -0.341
REMARK UNBOUND:                -0.299
REMARK SMILES COc1ccc(C(C)=O)c(O)c1
REMARK SMILES IDX 6 1 10 2 12 3 3 4 4 5 5 6 7 7 8 8 9 9 11 10 2 12 1 13
REMARK H PARENT 11 11
REMARK Flexibility Score: inf
ROOT
ATOM      1  C   UNL     1       5.547  41.228  37.163  1.00  0.00     0.059 A 
ATOM      2  C   UNL     1       5.631  41.925  38.394  1.00  0.00     0.130 A 
ATOM      3  C   UNL     1       5.477  43.317  38.418  1.00  0.00     0.093 A 
ATOM      4  C   UNL     1       5.271  44.039  37.228  1.00  0.00     0.122 A 
ATOM      5  C   UNL     1       5.219  43.351  36.015  1.00  0.00     0.047 A 
ATOM      6  C   UNL     1       5.354  41.962  35.980  1.00  0.00     0.019 A 
ENDROOT
BRANCH   1   7
ATOM      7  C   UNL     1       5.616  39.750  37.092  1.00  0.00     0.163 C 
ATOM      8  C   UNL     1       6.175  39.059  35.885  1.00  0.00     0.093 C 
ATOM      9  O   UNL     1       5.127  39.051  38.019  1.00  0.00    -0.294 OA
ENDBRANCH   1   7
BRANCH   2  10
ATOM     10  O   UNL     1       5.897  41.278  39.603  1.00  0.00    -0.507 OA
ATOM     11  H   UNL     1       5.836  41.733  40.503  1.00  0.00     0.293 HD
ENDBRANCH   2  10
BRANCH   4  12
ATOM     12  O   UNL     1       5.120  45.434  37.210  1.00  0.00    -0.497 OA
ATOM     13  C   UNL     1       5.072  46.223  36.026  1.00  0.00     0.278 C 
ENDBRANCH   4  12
TORSDOF 3
ENDMDL
MODEL 5
REMARK VINA RESULT:    -3.158      2.059      5.429
REMARK INTER + INTRA:          -3.918
REMARK INTER:                  -3.591
REMARK INTRA:                  -0.327
REMARK UNBOUND:                -0.299
REMARK SMILES COc1ccc(C(C)=O)c(O)c1
REMARK SMILES IDX 6 1 10 2 12 3 3 4 4 5 5 6 7 7 8 8 9 9 11 10 2 12 1 13
REMARK H PARENT 11 11
REMARK Flexibility Score: inf
ROOT
ATOM      1  C   UNL     1       5.405  42.817  38.559  1.00  0.00     0.059 A 
ATOM      2  C   UNL     1       5.564  42.735  39.965  1.00  0.00     0.130 A 
ATOM      3  C   UNL     1       5.377  43.877  40.755  1.00  0.00     0.093 A 
ATOM      4  C   UNL     1       5.064  45.116  40.166  1.00  0.00     0.122 A 
ATOM      5  C   UNL     1       4.939  45.197  38.779  1.00  0.00     0.047 A 
ATOM      6  C   UNL     1       5.106  44.063  37.982  1.00  0.00     0.019 A 
ENDROOT
BRANCH   1   7
ATOM      7  C   UNL     1       5.507  41.623  37.687  1.00  0.00     0.163 C 
ATOM      8  C   UNL     1       5.834  41.756  36.231  1.00  0.00     0.093 C 
ATOM      9  O   UNL     1       5.236  40.483  38.147  1.00  0.00    -0.294 OA
ENDBRANCH   1   7
BRANCH   2  10
ATOM     10  O   UNL     1       5.936  41.551  40.608  1.00  0.00    -0.507 OA
ATOM     11  H   UNL     1       5.309  41.014  41.190  1.00  0.00     0.293 HD
ENDBRANCH   2  10
BRANCH   4  12
ATOM     12  O   UNL     1       4.877  46.282  40.922  1.00  0.00    -0.497 OA
ATOM     13  C   UNL     1       4.875  47.600  40.382  1.00  0.00     0.278 C 
ENDBRANCH   4  12
TORSDOF 3
ENDMDL
MODEL 6
REMARK VINA RESULT:    -3.154     11.691     12.558
REMARK INTER + INTRA:          -3.914
REMARK INTER:                  -3.583
REMARK INTRA:                  -0.331
REMARK UNBOUND:                -0.299
REMARK SMILES COc1ccc(C(C)=O)c(O)c1
REMARK SMILES IDX 6 1 10 2 12 3 3 4 4 5 5 6 7 7 8 8 9 9 11 10 2 12 1 13
REMARK H PARENT 11 11
REMARK Flexibility Score: inf
ROOT
ATOM      1  C   UNL     1      12.643  32.884  42.117  1.00  0.00     0.059 A 
ATOM      2  C   UNL     1      12.194  33.499  43.312  1.00  0.00     0.130 A 
ATOM      3  C   UNL     1      10.890  33.267  43.768  1.00  0.00     0.093 A 
ATOM      4  C   UNL     1      10.006  32.454  43.036  1.00  0.00     0.122 A 
ATOM      5  C   UNL     1      10.443  31.875  41.845  1.00  0.00     0.047 A 
ATOM      6  C   UNL     1      11.746  32.084  41.388  1.00  0.00     0.019 A 
ENDROOT
BRANCH   1   7
ATOM      7  C   UNL     1      14.037  33.026  41.637  1.00  0.00     0.163 C 
ATOM      8  C   UNL     1      14.757  31.875  41.002  1.00  0.00     0.093 C 
ATOM      9  O   UNL     1      14.664  34.101  41.831  1.00  0.00    -0.294 OA
ENDBRANCH   1   7
BRANCH   2  10
ATOM     10  O   UNL     1      12.999  34.368  44.053  1.00  0.00    -0.507 OA
ATOM     11  H   UNL     1      13.702  34.053  44.708  1.00  0.00     0.293 HD
ENDBRANCH   2  10
BRANCH   4  12
ATOM     12  O   UNL     1       8.691  32.205  43.456  1.00  0.00    -0.497 OA
ATOM     13  C   UNL     1       7.613  31.887  42.581  1.00  0.00     0.278 C 
ENDBRANCH   4  12
TORSDOF 3
ENDMDL
MODEL 7
REMARK VINA RESULT:    -3.146     16.054     17.639
REMARK INTER + INTRA:          -3.904
REMARK INTER:                  -3.579
REMARK INTRA:                  -0.325
REMARK UNBOUND:                -0.299
REMARK SMILES COc1ccc(C(C)=O)c(O)c1
REMARK SMILES IDX 6 1 10 2 12 3 3 4 4 5 5 6 7 7 8 8 9 9 11 10 2 12 1 13
REMARK H PARENT 11 11
REMARK Flexibility Score: inf
ROOT
ATOM      1  C   UNL     1      19.610  33.410  39.987  1.00  0.00     0.059 A 
ATOM      2  C   UNL     1      20.355  34.105  39.002  1.00  0.00     0.130 A 
ATOM      3  C   UNL     1      21.678  34.483  39.268  1.00  0.00     0.093 A 
ATOM      4  C   UNL     1      22.268  34.209  40.515  1.00  0.00     0.122 A 
ATOM      5  C   UNL     1      21.519  33.551  41.492  1.00  0.00     0.047 A 
ATOM      6  C   UNL     1      20.206  33.154  41.234  1.00  0.00     0.019 A 
ENDROOT
BRANCH   1   7
ATOM      7  C   UNL     1      18.239  32.912  39.727  1.00  0.00     0.163 C 
ATOM      8  C   UNL     1      17.257  32.733  40.845  1.00  0.00     0.093 C 
ATOM      9  O   UNL     1      17.908  32.554  38.566  1.00  0.00    -0.294 OA
ENDBRANCH   1   7
BRANCH   2  10
ATOM     10  O   UNL     1      19.810  34.464  37.767  1.00  0.00    -0.507 OA
ATOM     11  H   UNL     1      20.223  34.209  36.881  1.00  0.00     0.293 HD
ENDBRANCH   2  10
BRANCH   4  12
ATOM     12  O   UNL     1      23.586  34.578  40.821  1.00  0.00    -0.497 OA
ATOM     13  C   UNL     1      23.945  35.737  41.569  1.00  0.00     0.278 C 
ENDBRANCH   4  12
TORSDOF 3
ENDMDL
MODEL 8
REMARK VINA RESULT:    -3.125     15.508     17.092
REMARK INTER + INTRA:          -3.880
REMARK INTER:                  -3.536
REMARK INTRA:                  -0.343
REMARK UNBOUND:                -0.299
REMARK SMILES COc1ccc(C(C)=O)c(O)c1
REMARK SMILES IDX 6 1 10 2 12 3 3 4 4 5 5 6 7 7 8 8 9 9 11 10 2 12 1 13
REMARK H PARENT 11 11
REMARK Flexibility Score: inf
ROOT
ATOM      1  C   UNL     1      20.670  33.549  40.247  1.00  0.00     0.059 A 
ATOM      2  C   UNL     1      19.592  33.543  39.328  1.00  0.00     0.130 A 
ATOM      3  C   UNL     1      18.349  33.027  39.717  1.00  0.00     0.093 A 
ATOM      4  C   UNL     1      18.165  32.484  41.001  1.00  0.00     0.122 A 
ATOM      5  C   UNL     1      19.239  32.466  41.892  1.00  0.00     0.047 A 
ATOM      6  C   UNL     1      20.478  32.992  41.522  1.00  0.00     0.019 A 
ENDROOT
BRANCH   1   7
ATOM      7  C   UNL     1      21.979  34.160  39.916  1.00  0.00     0.163 C 
ATOM      8  C   UNL     1      22.571  35.234  40.778  1.00  0.00     0.093 C 
ATOM      9  O   UNL     1      22.574  33.838  38.854  1.00  0.00    -0.294 OA
ENDBRANCH   1   7
BRANCH   2  10
ATOM     10  O   UNL     1      19.723  34.008  38.017  1.00  0.00    -0.507 OA
ATOM     11  H   UNL     1      19.543  34.965  37.745  1.00  0.00     0.293 HD
ENDBRANCH   2  10
BRANCH   4  12
ATOM     12  O   UNL     1      16.938  31.951  41.425  1.00  0.00    -0.497 OA
ATOM     13  C   UNL     1      15.724  32.040  40.686  1.00  0.00     0.278 C 
ENDBRANCH   4  12
TORSDOF 3
ENDMDL
MODEL 9
REMARK VINA RESULT:    -2.994      1.438      2.174
REMARK INTER + INTRA:          -3.730
REMARK INTER:                  -3.395
REMARK INTRA:                  -0.335
REMARK UNBOUND:                -0.299
REMARK SMILES COc1ccc(C(C)=O)c(O)c1
REMARK SMILES IDX 6 1 10 2 12 3 3 4 4 5 5 6 7 7 8 8 9 9 11 10 2 12 1 13
REMARK H PARENT 11 11
REMARK Flexibility Score: inf
ROOT
ATOM      1  C   UNL     1       5.515  43.210  38.605  1.00  0.00     0.059 A 
ATOM      2  C   UNL     1       5.722  41.883  39.056  1.00  0.00     0.130 A 
ATOM      3  C   UNL     1       5.619  40.816  38.154  1.00  0.00     0.093 A 
ATOM      4  C   UNL     1       5.281  41.042  36.807  1.00  0.00     0.122 A 
ATOM      5  C   UNL     1       5.049  42.349  36.375  1.00  0.00     0.047 A 
ATOM      6  C   UNL     1       5.165  43.422  37.260  1.00  0.00     0.019 A 
ENDROOT
BRANCH   1   7
ATOM      7  C   UNL     1       5.696  44.379  39.497  1.00  0.00     0.163 C 
ATOM      8  C   UNL     1       4.876  45.621  39.319  1.00  0.00     0.093 C 
ATOM      9  O   UNL     1       6.604  44.372  40.369  1.00  0.00    -0.294 OA
ENDBRANCH   1   7
BRANCH   2  10
ATOM     10  O   UNL     1       5.998  41.582  40.392  1.00  0.00    -0.507 OA
ATOM     11  H   UNL     1       6.051  42.280  41.120  1.00  0.00     0.293 HD
ENDBRANCH   2  10
BRANCH   4  12
ATOM     12  O   UNL     1       5.161  40.001  35.876  1.00  0.00    -0.497 OA
ATOM     13  C   UNL     1       5.844  38.754  35.969  1.00  0.00     0.278 C 
ENDBRANCH   4  12
TORSDOF 3
ENDMDL
