MODEL 1
REMARK VINA RESULT:    -4.362      0.000      0.000
REMARK INTER + INTRA:          -5.632
REMARK INTER:                  -6.147
REMARK INTRA:                   0.515
REMARK UNBOUND:                 0.515
REMARK SMILES CC1=CCC(=C(C)C)C(=O)CC(C)=CCC1
REMARK SMILES IDX 12 1 14 2 13 3 15 4 16 5 2 6 1 7 3 8 11 10 9 11 10 12 5 13
REMARK SMILES IDX 6 14 7 15 8 16 4 17
REMARK H PARENT
REMARK Flexibility Score: 60.00
ROOT
ATOM      1  C   UNL     1      -9.730  -7.150  14.373  1.00  0.00    -0.070 C 
ATOM      2  C   UNL     1      -9.940  -8.455  14.076  1.00  0.00    -0.027 C 
ATOM      3  C   UNL     1     -10.911  -6.350  14.864  1.00  0.00     0.039 C 
ENDROOT
BRANCH   2   4
ATOM      4  C   UNL     1      -8.888  -9.460  13.672  1.00  0.00     0.032 C 
BRANCH   4   5
ATOM      5  C   UNL     1      -8.595  -9.436  12.160  1.00  0.00     0.034 C 
BRANCH   5   6
ATOM      6  C   UNL     1      -7.153  -9.077  11.862  1.00  0.00    -0.077 C 
ATOM      7  C   UNL     1      -6.087 -10.107  12.143  1.00  0.00     0.039 C 
ATOM      8  C   UNL     1      -6.762  -7.876  11.383  1.00  0.00    -0.023 CG0
ATOM      9  G   UNL     1      -7.671  -6.711  11.074  1.00  0.00     0.000 G0
ENDBRANCH   5   6
ENDBRANCH   4   5
ENDBRANCH   2   4
BRANCH   1  10
ATOM     10  C   UNL     1      -8.370  -6.477  14.302  1.00  0.00     0.111 C 
BRANCH  10  11
ATOM     11  C   UNL     1      -8.321  -5.440  13.206  1.00  0.00     0.163 C 
ATOM     12  O   UNL     1      -9.122  -4.468  13.274  1.00  0.00    -0.294 OA
BRANCH  11  13
ATOM     13  C   UNL     1      -7.397  -5.566  12.036  1.00  0.00    -0.002 C 
ATOM     14  C   UNL     1      -6.318  -4.740  11.880  1.00  0.00    -0.069 C 
ATOM     15  C   UNL     1      -5.411  -4.850  10.674  1.00  0.00     0.039 C 
ATOM     16  C   UNL     1      -5.958  -3.701  12.918  1.00  0.00     0.039 C 
BRANCH  13  17
ATOM     17  C   UNL     1      -7.664  -6.703  11.066  1.00  0.00     0.066 CG0
ATOM     18  G   UNL     1      -6.749  -7.864  11.373  1.00  0.00     0.000 G0
ENDBRANCH  13  17
ENDBRANCH  11  13
ENDBRANCH  10  11
ENDBRANCH   1  10
TORSDOF 0
ENDMDL
MODEL 2
REMARK VINA RESULT:    -4.313     10.492     11.152
REMARK INTER + INTRA:          -5.563
REMARK INTER:                  -5.855
REMARK INTRA:                   0.291
REMARK UNBOUND:                 0.515
REMARK SMILES CC1=CCC(=C(C)C)C(=O)CC(C)=CCC1
REMARK SMILES IDX 12 1 14 2 13 3 15 4 16 5 2 6 1 7 3 8 11 10 9 11 10 12 5 13
REMARK SMILES IDX 6 14 7 15 8 16 4 17
REMARK H PARENT
REMARK Flexibility Score: 60.00
ROOT
ATOM      1  C   UNL     1      -7.362  -5.917   2.006  1.00  0.00    -0.070 C 
ATOM      2  C   UNL     1      -6.832  -7.133   1.731  1.00  0.00    -0.027 C 
ATOM      3  C   UNL     1      -8.752  -5.633   1.493  1.00  0.00     0.039 C 
ENDROOT
BRANCH   2   4
ATOM      4  C   UNL     1      -5.511  -7.665   2.230  1.00  0.00     0.032 C 
BRANCH   4   5
ATOM      5  C   UNL     1      -4.316  -7.160   1.400  1.00  0.00     0.034 C 
BRANCH   5   6
ATOM      6  C   UNL     1      -3.251  -6.513   2.263  1.00  0.00    -0.077 C 
ATOM      7  C   UNL     1      -2.499  -7.381   3.242  1.00  0.00     0.039 C 
ATOM      8  C   UNL     1      -2.953  -5.196   2.227  1.00  0.00    -0.023 CG0
ATOM      9  G   UNL     1      -3.617  -4.165   1.345  1.00  0.00     0.000 G0
ENDBRANCH   5   6
ENDBRANCH   4   5
ENDBRANCH   2   4
BRANCH   1  10
ATOM     10  C   UNL     1      -6.664  -4.863   2.848  1.00  0.00     0.111 C 
BRANCH  10  11
ATOM     11  C   UNL     1      -6.080  -3.766   1.992  1.00  0.00     0.163 C 
ATOM     12  O   UNL     1      -6.822  -3.232   1.124  1.00  0.00    -0.294 OA
BRANCH  11  13
ATOM     13  C   UNL     1      -4.649  -3.343   2.115  1.00  0.00    -0.002 C 
ATOM     14  C   UNL     1      -4.270  -2.322   2.942  1.00  0.00    -0.069 C 
ATOM     15  C   UNL     1      -2.827  -1.875   3.030  1.00  0.00     0.039 C 
ATOM     16  C   UNL     1      -5.265  -1.612   3.833  1.00  0.00     0.039 C 
BRANCH  13  17
ATOM     17  C   UNL     1      -3.624  -4.147   1.337  1.00  0.00     0.066 CG0
ATOM     18  G   UNL     1      -2.991  -5.180   2.239  1.00  0.00     0.000 G0
ENDBRANCH  13  17
ENDBRANCH  11  13
ENDBRANCH  10  11
ENDBRANCH   1  10
TORSDOF 0
ENDMDL
MODEL 3
REMARK VINA RESULT:    -4.180     11.282     14.334
REMARK INTER + INTRA:          -5.374
REMARK INTER:                  -5.747
REMARK INTRA:                   0.372
REMARK UNBOUND:                 0.515
REMARK SMILES CC1=CCC(=C(C)C)C(=O)CC(C)=CCC1
REMARK SMILES IDX 12 1 14 2 13 3 15 4 16 5 2 6 1 7 3 8 11 10 9 11 10 12 5 13
REMARK SMILES IDX 6 14 7 15 8 16 4 17
REMARK H PARENT
REMARK Flexibility Score: 60.00
ROOT
ATOM      1  C   UNL     1       2.172   4.236  10.845  1.00  0.00    -0.070 C 
ATOM      2  C   UNL     1       1.548   3.339  10.045  1.00  0.00    -0.027 C 
ATOM      3  C   UNL     1       2.962   5.333  10.174  1.00  0.00     0.039 C 
ENDROOT
BRANCH   2   4
ATOM      4  C   UNL     1       0.626   2.231  10.495  1.00  0.00     0.032 C 
BRANCH   4   5
ATOM      5  C   UNL     1       1.387   0.960  10.917  1.00  0.00     0.034 C 
BRANCH   5   6
ATOM      6  C   UNL     1       1.045   0.529  12.329  1.00  0.00    -0.077 C 
ATOM      7  C   UNL     1      -0.335  -0.021  12.594  1.00  0.00     0.039 C 
ATOM      8  C   UNL     1       1.895   0.634  13.373  1.00  0.00    -0.023 CG0
ATOM      9  G   UNL     1       3.298   1.190  13.316  1.00  0.00     0.000 G0
ENDBRANCH   5   6
ENDBRANCH   4   5
ENDBRANCH   2   4
BRANCH   1  10
ATOM     10  C   UNL     1       2.067   4.233  12.360  1.00  0.00     0.111 C 
BRANCH  10  11
ATOM     11  C   UNL     1       3.337   3.734  13.004  1.00  0.00     0.163 C 
ATOM     12  O   UNL     1       4.422   4.297  12.691  1.00  0.00    -0.294 OA
BRANCH  11  13
ATOM     13  C   UNL     1       3.343   2.573  13.947  1.00  0.00    -0.002 C 
ATOM     14  C   UNL     1       3.309   2.748  15.304  1.00  0.00    -0.069 C 
ATOM     15  C   UNL     1       3.355   1.569  16.251  1.00  0.00     0.039 C 
ATOM     16  C   UNL     1       3.189   4.122  15.922  1.00  0.00     0.039 C 
BRANCH  13  17
ATOM     17  C   UNL     1       3.313   1.185  13.333  1.00  0.00     0.066 CG0
ATOM     18  G   UNL     1       1.906   0.640  13.368  1.00  0.00     0.000 G0
ENDBRANCH  13  17
ENDBRANCH  11  13
ENDBRANCH  10  11
ENDBRANCH   1  10
TORSDOF 0
ENDMDL
MODEL 4
REMARK VINA RESULT:    -4.114     11.841     14.444
REMARK INTER + INTRA:          -5.282
REMARK INTER:                  -5.595
REMARK INTRA:                   0.313
REMARK UNBOUND:                 0.515
REMARK SMILES CC1=CCC(=C(C)C)C(=O)CC(C)=CCC1
REMARK SMILES IDX 12 1 14 2 13 3 15 4 16 5 2 6 1 7 3 8 11 10 9 11 10 12 5 13
REMARK SMILES IDX 6 14 7 15 8 16 4 17
REMARK H PARENT
REMARK Flexibility Score: 60.00
ROOT
ATOM      1  C   UNL     1       4.024   4.002  11.608  1.00  0.00    -0.070 C 
ATOM      2  C   UNL     1       3.058   4.004  10.659  1.00  0.00    -0.027 C 
ATOM      3  C   UNL     1       4.639   5.330  11.976  1.00  0.00     0.039 C 
ENDROOT
BRANCH   2   4
ATOM      4  C   UNL     1       2.240   2.815  10.215  1.00  0.00     0.032 C 
BRANCH   4   5
ATOM      5  C   UNL     1       1.071   2.508  11.172  1.00  0.00     0.034 C 
BRANCH   5   6
ATOM      6  C   UNL     1       1.016   1.043  11.557  1.00  0.00    -0.077 C 
ATOM      7  C   UNL     1       0.624   0.041  10.500  1.00  0.00     0.039 C 
ATOM      8  C   UNL     1       1.271   0.584  12.801  1.00  0.00    -0.023 CG0
ATOM      9  G   UNL     1       1.642   1.430  13.995  1.00  0.00     0.000 G0
ENDBRANCH   5   6
ENDBRANCH   4   5
ENDBRANCH   2   4
BRANCH   1  10
ATOM     10  C   UNL     1       4.469   2.758  12.358  1.00  0.00     0.111 C 
BRANCH  10  11
ATOM     11  C   UNL     1       3.842   2.683  13.729  1.00  0.00     0.163 C 
ATOM     12  O   UNL     1       3.966   3.679  14.493  1.00  0.00    -0.294 OA
BRANCH  11  13
ATOM     13  C   UNL     1       3.136   1.455  14.211  1.00  0.00    -0.002 C 
ATOM     14  C   UNL     1       3.802   0.446  14.850  1.00  0.00    -0.069 C 
ATOM     15  C   UNL     1       3.086  -0.809  15.299  1.00  0.00     0.039 C 
ATOM     16  C   UNL     1       5.277   0.548  15.169  1.00  0.00     0.039 C 
BRANCH  13  17
ATOM     17  C   UNL     1       1.630   1.410  14.028  1.00  0.00     0.066 CG0
ATOM     18  G   UNL     1       1.285   0.585  12.811  1.00  0.00     0.000 G0
ENDBRANCH  13  17
ENDBRANCH  11  13
ENDBRANCH  10  11
ENDBRANCH   1  10
TORSDOF 0
ENDMDL
MODEL 5
REMARK VINA RESULT:    -4.021      2.014      3.772
REMARK INTER + INTRA:          -5.151
REMARK INTER:                  -5.538
REMARK INTRA:                   0.387
REMARK UNBOUND:                 0.515
REMARK SMILES CC1=CCC(=C(C)C)C(=O)CC(C)=CCC1
REMARK SMILES IDX 12 1 14 2 13 3 15 4 16 5 2 6 1 7 3 8 11 10 9 11 10 12 5 13
REMARK SMILES IDX 6 14 7 15 8 16 4 17
REMARK H PARENT
REMARK Flexibility Score: 60.00
ROOT
ATOM      1  C   UNL     1      -9.053  -8.625  13.562  1.00  0.00    -0.070 C 
ATOM      2  C   UNL     1      -9.637  -7.414  13.728  1.00  0.00    -0.027 C 
ATOM      3  C   UNL     1      -9.955  -9.798  13.267  1.00  0.00     0.039 C 
ENDROOT
BRANCH   2   4
ATOM      4  C   UNL     1      -8.925  -6.098  13.925  1.00  0.00     0.032 C 
BRANCH   4   5
ATOM      5  C   UNL     1      -8.475  -5.462  12.596  1.00  0.00     0.034 C 
BRANCH   5   6
ATOM      6  C   UNL     1      -7.038  -4.983  12.648  1.00  0.00    -0.077 C 
ATOM      7  C   UNL     1      -6.717  -3.776  13.495  1.00  0.00     0.039 C 
ATOM      8  C   UNL     1      -6.029  -5.558  11.957  1.00  0.00    -0.023 CG0
ATOM      9  G   UNL     1      -6.156  -6.745  11.033  1.00  0.00     0.000 G0
ENDBRANCH   5   6
ENDBRANCH   4   5
ENDBRANCH   2   4
BRANCH   1  10
ATOM     10  C   UNL     1      -7.550  -8.848  13.592  1.00  0.00     0.111 C 
BRANCH  10  11
ATOM     11  C   UNL     1      -6.967  -8.881  12.200  1.00  0.00     0.163 C 
ATOM     12  O   UNL     1      -7.453  -9.699  11.373  1.00  0.00    -0.294 OA
BRANCH  11  13
ATOM     13  C   UNL     1      -5.811  -8.017  11.805  1.00  0.00    -0.002 C 
ATOM     14  C   UNL     1      -4.518  -8.385  12.057  1.00  0.00    -0.069 C 
ATOM     15  C   UNL     1      -3.358  -7.487  11.689  1.00  0.00     0.039 C 
ATOM     16  C   UNL     1      -4.183  -9.719  12.685  1.00  0.00     0.039 C 
BRANCH  13  17
ATOM     17  C   UNL     1      -6.131  -6.745  11.041  1.00  0.00     0.066 CG0
ATOM     18  G   UNL     1      -6.034  -5.554  11.964  1.00  0.00     0.000 G0
ENDBRANCH  13  17
ENDBRANCH  11  13
ENDBRANCH  10  11
ENDBRANCH   1  10
TORSDOF 0
ENDMDL
MODEL 6
REMARK VINA RESULT:    -3.966      7.553     10.273
REMARK INTER + INTRA:          -5.073
REMARK INTER:                  -5.632
REMARK INTRA:                   0.559
REMARK UNBOUND:                 0.515
REMARK SMILES CC1=CCC(=C(C)C)C(=O)CC(C)=CCC1
REMARK SMILES IDX 12 1 14 2 13 3 15 4 16 5 2 6 1 7 3 8 11 10 9 11 10 12 5 13
REMARK SMILES IDX 6 14 7 15 8 16 4 17
REMARK H PARENT
REMARK Flexibility Score: 60.00
ROOT
ATOM      1  C   UNL     1       0.533  -6.006   7.685  1.00  0.00    -0.070 C 
ATOM      2  C   UNL     1      -0.612  -5.435   8.129  1.00  0.00    -0.027 C 
ATOM      3  C   UNL     1       0.422  -6.988   6.544  1.00  0.00     0.039 C 
ENDROOT
BRANCH   2   4
ATOM      4  C   UNL     1      -0.723  -4.356   9.180  1.00  0.00     0.032 C 
BRANCH   4   5
ATOM      5  C   UNL     1      -0.113  -4.779  10.530  1.00  0.00     0.034 C 
BRANCH   5   6
ATOM      6  C   UNL     1      -0.682  -6.092  11.030  1.00  0.00    -0.077 C 
ATOM      7  C   UNL     1      -2.162  -6.171  11.307  1.00  0.00     0.039 C 
ATOM      8  C   UNL     1       0.066  -7.191  11.269  1.00  0.00    -0.023 CG0
ATOM      9  G   UNL     1       1.562  -7.298  11.088  1.00  0.00     0.000 G0
ENDBRANCH   5   6
ENDBRANCH   4   5
ENDBRANCH   2   4
BRANCH   1  10
ATOM     10  C   UNL     1       1.911  -5.664   8.224  1.00  0.00     0.111 C 
BRANCH  10  11
ATOM     11  C   UNL     1       2.605  -6.882   8.784  1.00  0.00     0.163 C 
ATOM     12  O   UNL     1       3.789  -7.112   8.415  1.00  0.00    -0.294 OA
BRANCH  11  13
ATOM     13  C   UNL     1       1.913  -7.832   9.709  1.00  0.00    -0.002 C 
ATOM     14  C   UNL     1       1.660  -9.128   9.351  1.00  0.00    -0.069 C 
ATOM     15  C   UNL     1       0.925 -10.071  10.279  1.00  0.00     0.039 C 
ATOM     16  C   UNL     1       2.130  -9.691   8.029  1.00  0.00     0.039 C 
BRANCH  13  17
ATOM     17  C   UNL     1       1.571  -7.318  11.096  1.00  0.00     0.066 CG0
ATOM     18  G   UNL     1       0.073  -7.183  11.237  1.00  0.00     0.000 G0
ENDBRANCH  13  17
ENDBRANCH  11  13
ENDBRANCH  10  11
ENDBRANCH   1  10
TORSDOF 0
ENDMDL
MODEL 7
REMARK VINA RESULT:    -3.855     12.549     15.490
REMARK INTER + INTRA:          -4.918
REMARK INTER:                  -5.635
REMARK INTRA:                   0.717
REMARK UNBOUND:                 0.515
REMARK SMILES CC1=CCC(=C(C)C)C(=O)CC(C)=CCC1
REMARK SMILES IDX 12 1 14 2 13 3 15 4 16 5 2 6 1 7 3 8 11 10 9 11 10 12 5 13
REMARK SMILES IDX 6 14 7 15 8 16 4 17
REMARK H PARENT
REMARK Flexibility Score: 60.00
ROOT
ATOM      1  C   UNL     1       1.569   5.325  18.300  1.00  0.00    -0.070 C 
ATOM      2  C   UNL     1       0.665   6.323  18.163  1.00  0.00    -0.027 C 
ATOM      3  C   UNL     1       2.482   5.049  17.130  1.00  0.00     0.039 C 
ENDROOT
BRANCH   2   4
ATOM      4  C   UNL     1      -0.268   6.836  19.233  1.00  0.00     0.032 C 
BRANCH   4   5
ATOM      5  C   UNL     1      -1.747   6.524  18.931  1.00  0.00     0.034 C 
BRANCH   5   6
ATOM      6  C   UNL     1      -2.261   5.350  19.739  1.00  0.00    -0.077 C 
ATOM      7  C   UNL     1      -2.996   5.634  21.025  1.00  0.00     0.039 C 
ATOM      8  C   UNL     1      -2.076   4.058  19.388  1.00  0.00    -0.023 CG0
ATOM      9  G   UNL     1      -1.339   3.574  18.162  1.00  0.00     0.000 G0
ENDBRANCH   5   6
ENDBRANCH   4   5
ENDBRANCH   2   4
BRANCH   1  10
ATOM     10  C   UNL     1       1.755   4.522  19.576  1.00  0.00     0.111 C 
BRANCH  10  11
ATOM     11  C   UNL     1       0.686   3.468  19.729  1.00  0.00     0.163 C 
ATOM     12  O   UNL     1       0.436   3.039  20.888  1.00  0.00    -0.294 OA
BRANCH  11  13
ATOM     13  C   UNL     1      -0.034   2.893  18.549  1.00  0.00    -0.002 C 
ATOM     14  C   UNL     1       0.420   1.775  17.905  1.00  0.00    -0.069 C 
ATOM     15  C   UNL     1      -0.293   1.224  16.690  1.00  0.00     0.039 C 
ATOM     16  C   UNL     1       1.633   1.017  18.393  1.00  0.00     0.039 C 
BRANCH  13  17
ATOM     17  C   UNL     1      -1.335   3.561  18.144  1.00  0.00     0.066 CG0
ATOM     18  G   UNL     1      -2.067   4.046  19.372  1.00  0.00     0.000 G0
ENDBRANCH  13  17
ENDBRANCH  11  13
ENDBRANCH  10  11
ENDBRANCH   1  10
TORSDOF 0
ENDMDL
MODEL 8
REMARK VINA RESULT:    -3.734     11.401     14.134
REMARK INTER + INTRA:          -4.747
REMARK INTER:                  -5.204
REMARK INTRA:                   0.457
REMARK UNBOUND:                 0.515
REMARK SMILES CC1=CCC(=C(C)C)C(=O)CC(C)=CCC1
REMARK SMILES IDX 12 1 14 2 13 3 15 4 16 5 2 6 1 7 3 8 11 10 9 11 10 12 5 13
REMARK SMILES IDX 6 14 7 15 8 16 4 17
REMARK H PARENT
REMARK Flexibility Score: 60.00
ROOT
ATOM      1  C   UNL     1       3.287   3.257  15.441  1.00  0.00    -0.070 C 
ATOM      2  C   UNL     1       2.746   4.173  16.279  1.00  0.00    -0.027 C 
ATOM      3  C   UNL     1       3.794   3.749  14.107  1.00  0.00     0.039 C 
ENDROOT
BRANCH   2   4
ATOM      4  C   UNL     1       2.276   3.924  17.692  1.00  0.00     0.032 C 
BRANCH   4   5
ATOM      5  C   UNL     1       0.962   3.123  17.748  1.00  0.00     0.034 C 
BRANCH   5   6
ATOM      6  C   UNL     1       1.106   1.838  18.539  1.00  0.00    -0.077 C 
ATOM      7  C   UNL     1       1.545   1.931  19.979  1.00  0.00     0.039 C 
ATOM      8  C   UNL     1       0.891   0.609  18.020  1.00  0.00    -0.023 CG0
ATOM      9  G   UNL     1       0.484   0.311  16.597  1.00  0.00     0.000 G0
ENDBRANCH   5   6
ENDBRANCH   4   5
ENDBRANCH   2   4
BRANCH   1  10
ATOM     10  C   UNL     1       3.468   1.791  15.796  1.00  0.00     0.111 C 
BRANCH  10  11
ATOM     11  C   UNL     1       2.461   0.920  15.087  1.00  0.00     0.163 C 
ATOM     12  O   UNL     1       2.239   1.143  13.865  1.00  0.00    -0.294 OA
BRANCH  11  13
ATOM     13  C   UNL     1       1.695  -0.149  15.802  1.00  0.00    -0.002 C 
ATOM     14  C   UNL     1       2.108  -1.453  15.800  1.00  0.00    -0.069 C 
ATOM     15  C   UNL     1       1.307  -2.533  16.493  1.00  0.00     0.039 C 
ATOM     16  C   UNL     1       3.400  -1.874  15.137  1.00  0.00     0.039 C 
BRANCH  13  17
ATOM     17  C   UNL     1       0.477   0.289  16.595  1.00  0.00     0.066 CG0
ATOM     18  G   UNL     1       0.877   0.600  18.018  1.00  0.00     0.000 G0
ENDBRANCH  13  17
ENDBRANCH  11  13
ENDBRANCH  10  11
ENDBRANCH   1  10
TORSDOF 0
ENDMDL
MODEL 9
REMARK VINA RESULT:    -3.631      7.440      8.989
REMARK INTER + INTRA:          -4.601
REMARK INTER:                  -4.992
REMARK INTRA:                   0.390
REMARK UNBOUND:                 0.515
REMARK SMILES CC1=CCC(=C(C)C)C(=O)CC(C)=CCC1
REMARK SMILES IDX 12 1 14 2 13 3 15 4 16 5 2 6 1 7 3 8 11 10 9 11 10 12 5 13
REMARK SMILES IDX 6 14 7 15 8 16 4 17
REMARK H PARENT
REMARK Flexibility Score: 60.00
ROOT
ATOM      1  C   UNL     1       0.043  -8.928  11.792  1.00  0.00    -0.070 C 
ATOM      2  C   UNL     1       0.748  -9.793  11.025  1.00  0.00    -0.027 C 
ATOM      3  C   UNL     1      -1.046  -9.502  12.666  1.00  0.00     0.039 C 
ENDROOT
BRANCH   2   4
ATOM      4  C   UNL     1       1.940  -9.455  10.162  1.00  0.00     0.032 C 
BRANCH   4   5
ATOM      5  C   UNL     1       1.537  -8.853   8.803  1.00  0.00     0.034 C 
BRANCH   5   6
ATOM      6  C   UNL     1       2.171  -7.497   8.565  1.00  0.00    -0.077 C 
ATOM      7  C   UNL     1       3.669  -7.428   8.398  1.00  0.00     0.039 C 
ATOM      8  C   UNL     1       1.475  -6.340   8.520  1.00  0.00    -0.023 CG0
ATOM      9  G   UNL     1      -0.017  -6.201   8.700  1.00  0.00     0.000 G0
ENDBRANCH   5   6
ENDBRANCH   4   5
ENDBRANCH   2   4
BRANCH   1  10
ATOM     10  C   UNL     1       0.330  -7.438  11.867  1.00  0.00     0.111 C 
BRANCH  10  11
ATOM     11  C   UNL     1      -0.716  -6.634  11.134  1.00  0.00     0.163 C 
ATOM     12  O   UNL     1      -1.928  -6.845  11.410  1.00  0.00    -0.294 OA
BRANCH  11  13
ATOM     13  C   UNL     1      -0.354  -5.647  10.069  1.00  0.00    -0.002 C 
ATOM     14  C   UNL     1      -0.256  -4.308  10.332  1.00  0.00    -0.069 C 
ATOM     15  C   UNL     1       0.073  -3.313   9.241  1.00  0.00     0.039 C 
ATOM     16  C   UNL     1      -0.436  -3.760  11.730  1.00  0.00     0.039 C 
BRANCH  13  17
ATOM     17  C   UNL     1      -0.025  -6.204   8.696  1.00  0.00     0.066 CG0
ATOM     18  G   UNL     1       1.471  -6.337   8.541  1.00  0.00     0.000 G0
ENDBRANCH  13  17
ENDBRANCH  11  13
ENDBRANCH  10  11
ENDBRANCH   1  10
TORSDOF 0
ENDMDL
