MODEL 1
REMARK VINA RESULT:    -6.061      0.000      0.000
REMARK INTER + INTRA:          -6.415
REMARK INTER:                  -6.415
REMARK INTRA:                   0.000
REMARK UNBOUND:                 0.000
REMARK SMILES Cc1cc(O)c(C)c(C)c1O
REMARK SMILES IDX 1 1 2 2 3 3 4 4 6 5 8 6 10 7 9 8 7 9 11 10 5 12
REMARK H PARENT 11 11 5 13
REMARK Flexibility Score: inf
ROOT
ATOM      1  C   UNL     1       0.765  34.749  77.437  1.00  0.00     0.048 C 
ATOM      2  C   UNL     1       1.052  33.279  77.297  1.00  0.00    -0.005 A 
ATOM      3  C   UNL     1       1.800  32.618  78.277  1.00  0.00     0.053 A 
ATOM      4  C   UNL     1       2.050  31.250  78.187  1.00  0.00     0.119 A 
ATOM      5  C   UNL     1       1.530  30.504  77.102  1.00  0.00    -0.003 A 
ATOM      6  C   UNL     1       0.877  31.190  76.040  1.00  0.00    -0.002 A 
ATOM      7  C   UNL     1       0.579  32.568  76.182  1.00  0.00     0.121 A 
ATOM      8  C   UNL     1       0.483  30.466  74.770  1.00  0.00     0.049 C 
ATOM      9  C   UNL     1       1.691  29.000  77.081  1.00  0.00     0.049 C 
ENDROOT
BRANCH   7  10
ATOM     10  O   UNL     1      -0.193  33.258  75.240  1.00  0.00    -0.507 OA
ATOM     11  H   UNL     1      -0.275  32.981  74.270  1.00  0.00     0.293 HD
ENDBRANCH   7  10
BRANCH   4  12
ATOM     12  O   UNL     1       2.829  30.668  79.190  1.00  0.00    -0.508 OA
ATOM     13  H   UNL     1       3.652  30.109  79.008  1.00  0.00     0.293 HD
ENDBRANCH   4  12
TORSDOF 2
ENDMDL
MODEL 2
REMARK VINA RESULT:    -5.702      1.133      3.015
REMARK INTER + INTRA:          -6.035
REMARK INTER:                  -6.035
REMARK INTRA:                   0.000
REMARK UNBOUND:                 0.000
REMARK SMILES Cc1cc(O)c(C)c(C)c1O
REMARK SMILES IDX 1 1 2 2 3 3 4 4 6 5 8 6 10 7 9 8 7 9 11 10 5 12
REMARK H PARENT 11 11 5 13
REMARK Flexibility Score: inf
ROOT
ATOM      1  C   UNL     1       1.378  34.753  77.744  1.00  0.00     0.048 C 
ATOM      2  C   UNL     1       1.356  33.299  77.358  1.00  0.00    -0.005 A 
ATOM      3  C   UNL     1       0.639  32.888  76.231  1.00  0.00     0.053 A 
ATOM      4  C   UNL     1       0.632  31.551  75.834  1.00  0.00     0.119 A 
ATOM      5  C   UNL     1       1.371  30.590  76.565  1.00  0.00    -0.003 A 
ATOM      6  C   UNL     1       1.998  30.979  77.782  1.00  0.00    -0.002 A 
ATOM      7  C   UNL     1       2.045  32.352  78.132  1.00  0.00     0.121 A 
ATOM      8  C   UNL     1       2.626  29.951  78.697  1.00  0.00     0.049 C 
ATOM      9  C   UNL     1       1.466  29.171  76.053  1.00  0.00     0.049 C 
ENDROOT
BRANCH   7  10
ATOM     10  O   UNL     1       2.776  32.807  79.235  1.00  0.00    -0.507 OA
ATOM     11  H   UNL     1       2.871  33.784  79.480  1.00  0.00     0.293 HD
ENDBRANCH   7  10
BRANCH   4  12
ATOM     12  O   UNL     1      -0.131  31.215  74.712  1.00  0.00    -0.508 OA
ATOM     13  H   UNL     1       0.076  31.537  73.776  1.00  0.00     0.293 HD
ENDBRANCH   4  12
TORSDOF 2
ENDMDL
MODEL 3
REMARK VINA RESULT:    -5.648      3.220      4.976
REMARK INTER + INTRA:          -5.978
REMARK INTER:                  -5.978
REMARK INTRA:                   0.000
REMARK UNBOUND:                 0.000
REMARK SMILES Cc1cc(O)c(C)c(C)c1O
REMARK SMILES IDX 1 1 2 2 3 3 4 4 6 5 8 6 10 7 9 8 7 9 11 10 5 12
REMARK H PARENT 11 11 5 13
REMARK Flexibility Score: inf
ROOT
ATOM      1  C   UNL     1       0.973  29.830  81.815  1.00  0.00     0.048 C 
ATOM      2  C   UNL     1       1.706  29.500  80.543  1.00  0.00    -0.005 A 
ATOM      3  C   UNL     1       1.909  30.491  79.578  1.00  0.00     0.053 A 
ATOM      4  C   UNL     1       2.615  30.218  78.407  1.00  0.00     0.119 A 
ATOM      5  C   UNL     1       3.154  28.928  78.189  1.00  0.00    -0.003 A 
ATOM      6  C   UNL     1       2.845  27.883  79.106  1.00  0.00    -0.002 A 
ATOM      7  C   UNL     1       2.180  28.197  80.318  1.00  0.00     0.121 A 
ATOM      8  C   UNL     1       3.228  26.449  78.812  1.00  0.00     0.049 C 
ATOM      9  C   UNL     1       4.030  28.676  76.983  1.00  0.00     0.049 C 
ENDROOT
BRANCH   7  10
ATOM     10  O   UNL     1       1.986  27.242  81.322  1.00  0.00    -0.507 OA
ATOM     11  H   UNL     1       1.851  27.473  82.298  1.00  0.00     0.293 HD
ENDBRANCH   7  10
BRANCH   4  12
ATOM     12  O   UNL     1       2.750  31.253  77.478  1.00  0.00    -0.508 OA
ATOM     13  H   UNL     1       2.506  31.164  76.501  1.00  0.00     0.293 HD
ENDBRANCH   4  12
TORSDOF 2
ENDMDL
MODEL 4
REMARK VINA RESULT:    -5.455      1.111      4.220
REMARK INTER + INTRA:          -5.774
REMARK INTER:                  -5.774
REMARK INTRA:                   0.000
REMARK UNBOUND:                 0.000
REMARK SMILES Cc1cc(O)c(C)c(C)c1O
REMARK SMILES IDX 1 1 2 2 3 3 4 4 6 5 8 6 10 7 9 8 7 9 11 10 5 12
REMARK H PARENT 11 11 5 13
REMARK Flexibility Score: inf
ROOT
ATOM      1  C   UNL     1       2.680  28.973  77.975  1.00  0.00     0.048 C 
ATOM      2  C   UNL     1       2.029  30.221  77.446  1.00  0.00    -0.005 A 
ATOM      3  C   UNL     1       1.256  30.164  76.282  1.00  0.00     0.053 A 
ATOM      4  C   UNL     1       0.615  31.300  75.791  1.00  0.00     0.119 A 
ATOM      5  C   UNL     1       0.725  32.531  76.482  1.00  0.00    -0.003 A 
ATOM      6  C   UNL     1       1.609  32.625  77.593  1.00  0.00    -0.002 A 
ATOM      7  C   UNL     1       2.201  31.445  78.112  1.00  0.00     0.121 A 
ATOM      8  C   UNL     1       1.913  33.960  78.237  1.00  0.00     0.049 C 
ATOM      9  C   UNL     1      -0.080  33.725  76.019  1.00  0.00     0.049 C 
ENDROOT
BRANCH   7  10
ATOM     10  O   UNL     1       2.955  31.455  79.290  1.00  0.00    -0.507 OA
ATOM     11  H   UNL     1       3.238  30.617  79.782  1.00  0.00     0.293 HD
ENDBRANCH   7  10
BRANCH   4  12
ATOM     12  O   UNL     1      -0.116  31.169  74.607  1.00  0.00    -0.508 OA
ATOM     13  H   UNL     1       0.156  31.593  73.731  1.00  0.00     0.293 HD
ENDBRANCH   4  12
TORSDOF 2
ENDMDL
MODEL 5
REMARK VINA RESULT:    -5.223      2.844      4.189
REMARK INTER + INTRA:          -5.528
REMARK INTER:                  -5.528
REMARK INTRA:                   0.000
REMARK UNBOUND:                 0.000
REMARK SMILES Cc1cc(O)c(C)c(C)c1O
REMARK SMILES IDX 1 1 2 2 3 3 4 4 6 5 8 6 10 7 9 8 7 9 11 10 5 12
REMARK H PARENT 11 11 5 13
REMARK Flexibility Score: inf
ROOT
ATOM      1  C   UNL     1       1.753  31.885  78.481  1.00  0.00     0.048 C 
ATOM      2  C   UNL     1       1.953  30.522  79.085  1.00  0.00    -0.005 A 
ATOM      3  C   UNL     1       1.524  30.270  80.392  1.00  0.00     0.053 A 
ATOM      4  C   UNL     1       1.667  29.006  80.962  1.00  0.00     0.119 A 
ATOM      5  C   UNL     1       2.237  27.950  80.211  1.00  0.00    -0.003 A 
ATOM      6  C   UNL     1       2.788  28.230  78.929  1.00  0.00    -0.002 A 
ATOM      7  C   UNL     1       2.576  29.504  78.345  1.00  0.00     0.121 A 
ATOM      8  C   UNL     1       3.583  27.185  78.177  1.00  0.00     0.049 C 
ATOM      9  C   UNL     1       2.266  26.552  80.787  1.00  0.00     0.049 C 
ENDROOT
BRANCH   7  10
ATOM     10  O   UNL     1       2.962  29.787  77.030  1.00  0.00    -0.507 OA
ATOM     11  H   UNL     1       2.397  29.568  76.220  1.00  0.00     0.293 HD
ENDBRANCH   7  10
BRANCH   4  12
ATOM     12  O   UNL     1       1.240  28.840  82.282  1.00  0.00    -0.508 OA
ATOM     13  H   UNL     1       0.944  29.604  82.875  1.00  0.00     0.293 HD
ENDBRANCH   4  12
TORSDOF 2
ENDMDL
MODEL 6
REMARK VINA RESULT:    -5.111      2.991      4.955
REMARK INTER + INTRA:          -5.410
REMARK INTER:                  -5.410
REMARK INTRA:                   0.000
REMARK UNBOUND:                 0.000
REMARK SMILES Cc1cc(O)c(C)c(C)c1O
REMARK SMILES IDX 1 1 2 2 3 3 4 4 6 5 8 6 10 7 9 8 7 9 11 10 5 12
REMARK H PARENT 11 11 5 13
REMARK Flexibility Score: inf
ROOT
ATOM      1  C   UNL     1       4.361  27.652  77.258  1.00  0.00     0.048 C 
ATOM      2  C   UNL     1       3.431  28.183  78.314  1.00  0.00    -0.005 A 
ATOM      3  C   UNL     1       3.100  27.389  79.416  1.00  0.00     0.053 A 
ATOM      4  C   UNL     1       2.268  27.872  80.424  1.00  0.00     0.119 A 
ATOM      5  C   UNL     1       1.757  29.190  80.351  1.00  0.00    -0.003 A 
ATOM      6  C   UNL     1       1.986  29.958  79.174  1.00  0.00    -0.002 A 
ATOM      7  C   UNL     1       2.885  29.472  78.192  1.00  0.00     0.121 A 
ATOM      8  C   UNL     1       1.297  31.288  78.965  1.00  0.00     0.049 C 
ATOM      9  C   UNL     1       0.965  29.752  81.510  1.00  0.00     0.049 C 
ENDROOT
BRANCH   7  10
ATOM     10  O   UNL     1       3.266  30.247  77.091  1.00  0.00    -0.507 OA
ATOM     11  H   UNL     1       2.798  30.217  76.195  1.00  0.00     0.293 HD
ENDBRANCH   7  10
BRANCH   4  12
ATOM     12  O   UNL     1       1.961  27.008  81.478  1.00  0.00    -0.508 OA
ATOM     13  H   UNL     1       2.589  26.289  81.814  1.00  0.00     0.293 HD
ENDBRANCH   4  12
TORSDOF 2
ENDMDL
MODEL 7
REMARK VINA RESULT:    -5.086      2.972      5.870
REMARK INTER + INTRA:          -5.383
REMARK INTER:                  -5.383
REMARK INTRA:                   0.000
REMARK UNBOUND:                 0.000
REMARK SMILES Cc1cc(O)c(C)c(C)c1O
REMARK SMILES IDX 1 1 2 2 3 3 4 4 6 5 8 6 10 7 9 8 7 9 11 10 5 12
REMARK H PARENT 11 11 5 13
REMARK Flexibility Score: inf
ROOT
ATOM      1  C   UNL     1       3.047  25.727  79.175  1.00  0.00     0.048 C 
ATOM      2  C   UNL     1       2.540  27.143  79.149  1.00  0.00    -0.005 A 
ATOM      3  C   UNL     1       2.515  27.852  77.944  1.00  0.00     0.053 A 
ATOM      4  C   UNL     1       2.018  29.153  77.888  1.00  0.00     0.119 A 
ATOM      5  C   UNL     1       1.512  29.770  79.057  1.00  0.00    -0.003 A 
ATOM      6  C   UNL     1       1.650  29.103  80.307  1.00  0.00    -0.002 A 
ATOM      7  C   UNL     1       2.100  27.759  80.331  1.00  0.00     0.121 A 
ATOM      8  C   UNL     1       1.309  29.802  81.605  1.00  0.00     0.049 C 
ATOM      9  C   UNL     1       0.853  31.128  78.963  1.00  0.00     0.049 C 
ENDROOT
BRANCH   7  10
ATOM     10  O   UNL     1       2.111  27.005  81.510  1.00  0.00    -0.507 OA
ATOM     11  H   UNL     1       1.935  27.395  82.427  1.00  0.00     0.293 HD
ENDBRANCH   7  10
BRANCH   4  12
ATOM     12  O   UNL     1       2.053  29.806  76.652  1.00  0.00    -0.508 OA
ATOM     13  H   UNL     1       1.709  29.397  75.794  1.00  0.00     0.293 HD
ENDBRANCH   4  12
TORSDOF 2
ENDMDL
MODEL 8
REMARK VINA RESULT:    -5.043      7.446      8.749
REMARK INTER + INTRA:          -5.338
REMARK INTER:                  -5.338
REMARK INTRA:                   0.000
REMARK UNBOUND:                 0.000
REMARK SMILES Cc1cc(O)c(C)c(C)c1O
REMARK SMILES IDX 1 1 2 2 3 3 4 4 6 5 8 6 10 7 9 8 7 9 11 10 5 12
REMARK H PARENT 11 11 5 13
REMARK Flexibility Score: inf
ROOT
ATOM      1  C   UNL     1       1.375  24.012  77.931  1.00  0.00     0.048 C 
ATOM      2  C   UNL     1       2.349  24.369  79.020  1.00  0.00    -0.005 A 
ATOM      3  C   UNL     1       2.009  25.335  79.971  1.00  0.00     0.053 A 
ATOM      4  C   UNL     1       2.880  25.658  81.010  1.00  0.00     0.119 A 
ATOM      5  C   UNL     1       4.124  24.992  81.125  1.00  0.00    -0.003 A 
ATOM      6  C   UNL     1       4.530  24.101  80.092  1.00  0.00    -0.002 A 
ATOM      7  C   UNL     1       3.604  23.741  79.081  1.00  0.00     0.121 A 
ATOM      8  C   UNL     1       5.928  23.521  80.067  1.00  0.00     0.049 C 
ATOM      9  C   UNL     1       5.005  25.250  82.326  1.00  0.00     0.049 C 
ENDROOT
BRANCH   7  10
ATOM     10  O   UNL     1       3.895  22.756  78.130  1.00  0.00    -0.507 OA
ATOM     11  H   UNL     1       4.811  22.345  78.010  1.00  0.00     0.293 HD
ENDBRANCH   7  10
BRANCH   4  12
ATOM     12  O   UNL     1       2.479  26.654  81.904  1.00  0.00    -0.508 OA
ATOM     13  H   UNL     1       1.522  26.789  82.201  1.00  0.00     0.293 HD
ENDBRANCH   4  12
TORSDOF 2
ENDMDL
MODEL 9
REMARK VINA RESULT:    -4.975      5.428      7.492
REMARK INTER + INTRA:          -5.266
REMARK INTER:                  -5.266
REMARK INTRA:                   0.000
REMARK UNBOUND:                 0.000
REMARK SMILES Cc1cc(O)c(C)c(C)c1O
REMARK SMILES IDX 1 1 2 2 3 3 4 4 6 5 8 6 10 7 9 8 7 9 11 10 5 12
REMARK H PARENT 11 11 5 13
REMARK Flexibility Score: inf
ROOT
ATOM      1  C   UNL     1       5.263  24.305  76.689  1.00  0.00     0.048 C 
ATOM      2  C   UNL     1       4.480  25.193  77.617  1.00  0.00    -0.005 A 
ATOM      3  C   UNL     1       4.736  26.568  77.647  1.00  0.00     0.053 A 
ATOM      4  C   UNL     1       4.001  27.416  78.473  1.00  0.00     0.119 A 
ATOM      5  C   UNL     1       2.966  26.894  79.286  1.00  0.00    -0.003 A 
ATOM      6  C   UNL     1       2.785  25.483  79.354  1.00  0.00    -0.002 A 
ATOM      7  C   UNL     1       3.499  24.647  78.460  1.00  0.00     0.121 A 
ATOM      8  C   UNL     1       1.831  24.868  80.355  1.00  0.00     0.049 C 
ATOM      9  C   UNL     1       2.086  27.835  80.077  1.00  0.00     0.049 C 
ENDROOT
BRANCH   7  10
ATOM     10  O   UNL     1       3.251  23.272  78.378  1.00  0.00    -0.507 OA
ATOM     11  H   UNL     1       3.293  22.745  77.515  1.00  0.00     0.293 HD
ENDBRANCH   7  10
BRANCH   4  12
ATOM     12  O   UNL     1       4.335  28.773  78.468  1.00  0.00    -0.508 OA
ATOM     13  H   UNL     1       3.882  29.459  77.879  1.00  0.00     0.293 HD
ENDBRANCH   4  12
TORSDOF 2
ENDMDL
