MODEL 1
REMARK VINA RESULT:    -5.705      0.000      0.000
REMARK INTER + INTRA:          -7.150
REMARK INTER:                  -6.872
REMARK INTRA:                  -0.278
REMARK UNBOUND:                -0.278
REMARK SMILES O=c1c(O)c(-c2ccc(O)cc2O)oc2cc(O)cc(O)c12
REMARK SMILES IDX 5 1 3 2 2 3 1 4 22 5 20 6 19 7 17 8 16 9 15 10 14 11 6 12
REMARK SMILES IDX 8 13 7 14 9 15 11 16 12 17 10 18 13 20 4 22 21 24 18 26
REMARK H PARENT 10 19 13 21 4 23 21 25 18 27
REMARK Flexibility Score: inf
ROOT
ATOM      1  C   UNL     1      36.247  -6.342  52.499  1.00  0.00     0.184 A 
ATOM      2  C   UNL     1      36.588  -5.904  53.789  1.00  0.00     0.208 A 
ATOM      3  C   UNL     1      36.746  -6.855  54.810  1.00  0.00     0.238 A 
ATOM      4  O   UNL     1      37.123  -6.463  55.945  1.00  0.00    -0.285 OA
ATOM      5  C   UNL     1      36.507  -8.225  54.540  1.00  0.00     0.111 A 
ATOM      6  C   UNL     1      36.595  -9.271  55.509  1.00  0.00     0.134 A 
ATOM      7  C   UNL     1      36.441 -10.602  55.103  1.00  0.00     0.093 A 
ATOM      8  C   UNL     1      36.139 -10.922  53.777  1.00  0.00     0.123 A 
ATOM      9  C   UNL     1      35.998  -9.905  52.836  1.00  0.00     0.094 A 
ATOM     10  C   UNL     1      36.183  -8.570  53.201  1.00  0.00     0.146 A 
ATOM     11  O   UNL     1      36.060  -7.635  52.267  1.00  0.00    -0.451 OA
ENDROOT
BRANCH   1  12
ATOM     12  C   UNL     1      36.072  -5.395  51.380  1.00  0.00     0.063 A 
ATOM     13  C   UNL     1      36.991  -3.612  50.005  1.00  0.00     0.047 A 
ATOM     14  C   UNL     1      37.125  -4.524  51.054  1.00  0.00     0.020 A 
ATOM     15  C   UNL     1      35.797  -3.547  49.277  1.00  0.00     0.119 A 
ATOM     16  C   UNL     1      34.735  -4.393  49.610  1.00  0.00     0.093 A 
ATOM     17  C   UNL     1      34.859  -5.309  50.665  1.00  0.00     0.130 A 
BRANCH  15  18
ATOM     18  O   UNL     1      35.654  -2.642  48.227  1.00  0.00    -0.508 OA
ATOM     19  H   UNL     1      34.885  -1.984  48.197  1.00  0.00     0.293 HD
ENDBRANCH  15  18
BRANCH  17  20
ATOM     20  O   UNL     1      33.775  -6.113  51.018  1.00  0.00    -0.507 OA
ATOM     21  H   UNL     1      33.828  -7.124  50.978  1.00  0.00     0.293 HD
ENDBRANCH  17  20
ENDBRANCH   1  12
BRANCH   2  22
ATOM     22  O   UNL     1      36.747  -4.541  54.046  1.00  0.00    -0.502 OA
ATOM     23  H   UNL     1      36.144  -3.837  53.637  1.00  0.00     0.293 HD
ENDBRANCH   2  22
BRANCH   6  24
ATOM     24  O   UNL     1      36.804  -9.058  56.875  1.00  0.00    -0.507 OA
ATOM     25  H   UNL     1      37.543  -9.474  57.418  1.00  0.00     0.293 HD
ENDBRANCH   6  24
BRANCH   8  26
ATOM     26  O   UNL     1      35.971 -12.248  53.386  1.00  0.00    -0.508 OA
ATOM     27  H   UNL     1      36.250 -12.569  52.467  1.00  0.00     0.293 HD
ENDBRANCH   8  26
TORSDOF 6
ENDMDL
MODEL 2
REMARK VINA RESULT:    -4.652      3.977      8.597
REMARK INTER + INTRA:          -5.881
REMARK INTER:                  -5.459
REMARK INTRA:                  -0.422
REMARK UNBOUND:                -0.278
REMARK SMILES O=c1c(O)c(-c2ccc(O)cc2O)oc2cc(O)cc(O)c12
REMARK SMILES IDX 5 1 3 2 2 3 1 4 22 5 20 6 19 7 17 8 16 9 15 10 14 11 6 12
REMARK SMILES IDX 8 13 7 14 9 15 11 16 12 17 10 18 13 20 4 22 21 24 18 26
REMARK H PARENT 10 19 13 21 4 23 21 25 18 27
REMARK Flexibility Score: inf
ROOT
ATOM      1  C   UNL     1      35.589  -3.757  47.801  1.00  0.00     0.184 A 
ATOM      2  C   UNL     1      34.935  -2.626  47.286  1.00  0.00     0.208 A 
ATOM      3  C   UNL     1      34.760  -2.515  45.898  1.00  0.00     0.238 A 
ATOM      4  O   UNL     1      34.109  -1.536  45.449  1.00  0.00    -0.285 OA
ATOM      5  C   UNL     1      35.289  -3.510  45.039  1.00  0.00     0.111 A 
ATOM      6  C   UNL     1      35.208  -3.478  43.613  1.00  0.00     0.134 A 
ATOM      7  C   UNL     1      35.674  -4.570  42.872  1.00  0.00     0.093 A 
ATOM      8  C   UNL     1      36.275  -5.664  43.498  1.00  0.00     0.123 A 
ATOM      9  C   UNL     1      36.408  -5.680  44.885  1.00  0.00     0.094 A 
ATOM     10  C   UNL     1      35.919  -4.623  45.656  1.00  0.00     0.146 A 
ATOM     11  O   UNL     1      36.047  -4.689  46.975  1.00  0.00    -0.451 OA
ENDROOT
BRANCH   1  12
ATOM     12  C   UNL     1      35.800  -3.938  49.251  1.00  0.00     0.063 A 
ATOM     13  C   UNL     1      37.125  -3.461  51.233  1.00  0.00     0.047 A 
ATOM     14  C   UNL     1      36.893  -3.305  49.864  1.00  0.00     0.020 A 
ATOM     15  C   UNL     1      36.276  -4.263  52.004  1.00  0.00     0.119 A 
ATOM     16  C   UNL     1      35.199  -4.916  51.397  1.00  0.00     0.093 A 
ATOM     17  C   UNL     1      34.962  -4.770  50.022  1.00  0.00     0.130 A 
BRANCH  15  18
ATOM     18  O   UNL     1      36.496  -4.422  53.371  1.00  0.00    -0.508 OA
ATOM     19  H   UNL     1      35.775  -4.780  53.985  1.00  0.00     0.293 HD
ENDBRANCH  15  18
BRANCH  17  20
ATOM     20  O   UNL     1      33.913  -5.466  49.421  1.00  0.00    -0.507 OA
ATOM     21  H   UNL     1      33.643  -5.294  48.459  1.00  0.00     0.293 HD
ENDBRANCH  17  20
ENDBRANCH   1  12
BRANCH   2  22
ATOM     22  O   UNL     1      34.487  -1.624  48.150  1.00  0.00    -0.502 OA
ATOM     23  H   UNL     1      34.439  -1.754  49.153  1.00  0.00     0.293 HD
ENDBRANCH   2  22
BRANCH   6  24
ATOM     24  O   UNL     1      34.708  -2.397  42.881  1.00  0.00    -0.507 OA
ATOM     25  H   UNL     1      34.018  -1.743  43.214  1.00  0.00     0.293 HD
ENDBRANCH   6  24
BRANCH   8  26
ATOM     26  O   UNL     1      36.752  -6.738  42.751  1.00  0.00    -0.508 OA
ATOM     27  H   UNL     1      36.757  -7.681  43.121  1.00  0.00     0.293 HD
ENDBRANCH   8  26
TORSDOF 6
ENDMDL
MODEL 3
REMARK VINA RESULT:    -4.516      4.039      8.915
REMARK INTER + INTRA:          -5.718
REMARK INTER:                  -5.386
REMARK INTRA:                  -0.332
REMARK UNBOUND:                -0.278
REMARK SMILES O=c1c(O)c(-c2ccc(O)cc2O)oc2cc(O)cc(O)c12
REMARK SMILES IDX 5 1 3 2 2 3 1 4 22 5 20 6 19 7 17 8 16 9 15 10 14 11 6 12
REMARK SMILES IDX 8 13 7 14 9 15 11 16 12 17 10 18 13 20 4 22 21 24 18 26
REMARK H PARENT 10 19 13 21 4 23 21 25 18 27
REMARK Flexibility Score: inf
ROOT
ATOM      1  C   UNL     1      35.275  -3.813  47.543  1.00  0.00     0.184 A 
ATOM      2  C   UNL     1      34.857  -2.575  47.031  1.00  0.00     0.208 A 
ATOM      3  C   UNL     1      34.887  -2.369  45.643  1.00  0.00     0.238 A 
ATOM      4  O   UNL     1      34.441  -1.284  45.185  1.00  0.00    -0.285 OA
ATOM      5  C   UNL     1      35.385  -3.385  44.789  1.00  0.00     0.111 A 
ATOM      6  C   UNL     1      35.501  -3.268  43.371  1.00  0.00     0.134 A 
ATOM      7  C   UNL     1      35.909  -4.377  42.619  1.00  0.00     0.093 A 
ATOM      8  C   UNL     1      36.265  -5.577  43.239  1.00  0.00     0.123 A 
ATOM      9  C   UNL     1      36.207  -5.683  44.626  1.00  0.00     0.094 A 
ATOM     10  C   UNL     1      35.768  -4.607  45.402  1.00  0.00     0.146 A 
ATOM     11  O   UNL     1      35.708  -4.759  46.719  1.00  0.00    -0.451 OA
ENDROOT
BRANCH   1  12
ATOM     12  C   UNL     1      35.263  -4.097  48.992  1.00  0.00     0.063 A 
ATOM     13  C   UNL     1      34.237  -5.243  50.876  1.00  0.00     0.047 A 
ATOM     14  C   UNL     1      34.281  -4.958  49.509  1.00  0.00     0.020 A 
ATOM     15  C   UNL     1      35.165  -4.659  51.747  1.00  0.00     0.119 A 
ATOM     16  C   UNL     1      36.131  -3.783  51.244  1.00  0.00     0.093 A 
ATOM     17  C   UNL     1      36.180  -3.487  49.874  1.00  0.00     0.130 A 
BRANCH  15  18
ATOM     18  O   UNL     1      35.132  -4.939  53.111  1.00  0.00    -0.508 OA
ATOM     19  H   UNL     1      35.971  -4.911  53.678  1.00  0.00     0.293 HD
ENDBRANCH  15  18
BRANCH  17  20
ATOM     20  O   UNL     1      37.118  -2.573  49.394  1.00  0.00    -0.507 OA
ATOM     21  H   UNL     1      37.158  -1.621  49.739  1.00  0.00     0.293 HD
ENDBRANCH  17  20
ENDBRANCH   1  12
BRANCH   2  22
ATOM     22  O   UNL     1      34.438  -1.564  47.899  1.00  0.00    -0.502 OA
ATOM     23  H   UNL     1      34.033  -1.762  48.806  1.00  0.00     0.293 HD
ENDBRANCH   2  22
BRANCH   6  24
ATOM     24  O   UNL     1      35.256  -2.091  42.659  1.00  0.00    -0.507 OA
ATOM     25  H   UNL     1      34.471  -1.939  42.045  1.00  0.00     0.293 HD
ENDBRANCH   6  24
BRANCH   8  26
ATOM     26  O   UNL     1      36.686  -6.669  42.484  1.00  0.00    -0.508 OA
ATOM     27  H   UNL     1      36.064  -7.137  41.835  1.00  0.00     0.293 HD
ENDBRANCH   8  26
TORSDOF 6
ENDMDL
MODEL 4
REMARK VINA RESULT:    -4.191      2.847      4.729
REMARK INTER + INTRA:          -5.326
REMARK INTER:                  -5.001
REMARK INTRA:                  -0.325
REMARK UNBOUND:                -0.278
REMARK SMILES O=c1c(O)c(-c2ccc(O)cc2O)oc2cc(O)cc(O)c12
REMARK SMILES IDX 5 1 3 2 2 3 1 4 22 5 20 6 19 7 17 8 16 9 15 10 14 11 6 12
REMARK SMILES IDX 8 13 7 14 9 15 11 16 12 17 10 18 13 20 4 22 21 24 18 26
REMARK H PARENT 10 19 13 21 4 23 21 25 18 27
REMARK Flexibility Score: inf
ROOT
ATOM      1  C   UNL     1      36.270  -4.170  52.164  1.00  0.00     0.184 A 
ATOM      2  C   UNL     1      36.631  -5.409  52.718  1.00  0.00     0.208 A 
ATOM      3  C   UNL     1      36.739  -5.525  54.112  1.00  0.00     0.238 A 
ATOM      4  O   UNL     1      36.990  -6.655  54.605  1.00  0.00    -0.285 OA
ATOM      5  C   UNL     1      36.537  -4.386  54.932  1.00  0.00     0.111 A 
ATOM      6  C   UNL     1      36.663  -4.378  56.354  1.00  0.00     0.134 A 
ATOM      7  C   UNL     1      36.336  -3.218  57.068  1.00  0.00     0.093 A 
ATOM      8  C   UNL     1      35.950  -2.049  56.408  1.00  0.00     0.123 A 
ATOM      9  C   UNL     1      35.877  -2.032  55.017  1.00  0.00     0.094 A 
ATOM     10  C   UNL     1      36.159  -3.183  54.278  1.00  0.00     0.146 A 
ATOM     11  O   UNL     1      36.056  -3.128  52.956  1.00  0.00    -0.451 OA
ENDROOT
BRANCH   1  12
ATOM     12  C   UNL     1      36.133  -3.983  50.705  1.00  0.00     0.063 A 
ATOM     13  C   UNL     1      37.023  -3.068  48.636  1.00  0.00     0.047 A 
ATOM     14  C   UNL     1      37.125  -3.268  50.015  1.00  0.00     0.020 A 
ATOM     15  C   UNL     1      35.921  -3.566  47.932  1.00  0.00     0.119 A 
ATOM     16  C   UNL     1      34.917  -4.259  48.615  1.00  0.00     0.093 A 
ATOM     17  C   UNL     1      35.008  -4.460  50.000  1.00  0.00     0.130 A 
BRANCH  15  18
ATOM     18  O   UNL     1      35.811  -3.374  46.556  1.00  0.00    -0.508 OA
ATOM     19  H   UNL     1      35.673  -2.453  46.159  1.00  0.00     0.293 HD
ENDBRANCH  15  18
BRANCH  17  20
ATOM     20  O   UNL     1      33.976  -5.110  50.677  1.00  0.00    -0.507 OA
ATOM     21  H   UNL     1      33.059  -4.689  50.778  1.00  0.00     0.293 HD
ENDBRANCH  17  20
ENDBRANCH   1  12
BRANCH   2  22
ATOM     22  O   UNL     1      36.895  -6.498  51.883  1.00  0.00    -0.502 OA
ATOM     23  H   UNL     1      36.825  -7.456  52.202  1.00  0.00     0.293 HD
ENDBRANCH   2  22
BRANCH   6  24
ATOM     24  O   UNL     1      37.125  -5.461  57.106  1.00  0.00    -0.507 OA
ATOM     25  H   UNL     1      36.881  -6.425  56.942  1.00  0.00     0.293 HD
ENDBRANCH   6  24
BRANCH   8  26
ATOM     26  O   UNL     1      35.643  -0.896  57.126  1.00  0.00    -0.508 OA
ATOM     27  H   UNL     1      34.754  -0.423  57.016  1.00  0.00     0.293 HD
ENDBRANCH   8  26
TORSDOF 6
ENDMDL
MODEL 5
REMARK VINA RESULT:    -3.725      1.758      3.731
REMARK INTER + INTRA:          -4.765
REMARK INTER:                  -4.622
REMARK INTRA:                  -0.143
REMARK UNBOUND:                -0.278
REMARK SMILES O=c1c(O)c(-c2ccc(O)cc2O)oc2cc(O)cc(O)c12
REMARK SMILES IDX 5 1 3 2 2 3 1 4 22 5 20 6 19 7 17 8 16 9 15 10 14 11 6 12
REMARK SMILES IDX 8 13 7 14 9 15 11 16 12 17 10 18 13 20 4 22 21 24 18 26
REMARK H PARENT 10 19 13 21 4 23 21 25 18 27
REMARK Flexibility Score: inf
ROOT
ATOM      1  C   UNL     1      36.307  -5.445  52.961  1.00  0.00     0.184 A 
ATOM      2  C   UNL     1      36.325  -6.833  53.169  1.00  0.00     0.208 A 
ATOM      3  C   UNL     1      36.502  -7.323  54.472  1.00  0.00     0.238 A 
ATOM      4  O   UNL     1      36.443  -8.565  54.663  1.00  0.00    -0.285 OA
ATOM      5  C   UNL     1      36.715  -6.418  55.543  1.00  0.00     0.111 A 
ATOM      6  C   UNL     1      36.950  -6.805  56.897  1.00  0.00     0.134 A 
ATOM      7  C   UNL     1      37.041  -5.820  57.889  1.00  0.00     0.093 A 
ATOM      8  C   UNL     1      36.971  -4.463  57.567  1.00  0.00     0.123 A 
ATOM      9  C   UNL     1      36.797  -4.075  56.241  1.00  0.00     0.094 A 
ATOM     10  C   UNL     1      36.663  -5.033  55.233  1.00  0.00     0.146 A 
ATOM     11  O   UNL     1      36.477  -4.619  53.986  1.00  0.00    -0.451 OA
ENDROOT
BRANCH   1  12
ATOM     12  C   UNL     1      36.118  -4.864  51.616  1.00  0.00     0.063 A 
ATOM     13  C   UNL     1      36.928  -3.398  49.854  1.00  0.00     0.047 A 
ATOM     14  C   UNL     1      37.080  -3.970  51.119  1.00  0.00     0.020 A 
ATOM     15  C   UNL     1      35.805  -3.701  49.075  1.00  0.00     0.119 A 
ATOM     16  C   UNL     1      34.831  -4.572  49.571  1.00  0.00     0.093 A 
ATOM     17  C   UNL     1      34.973  -5.147  50.843  1.00  0.00     0.130 A 
BRANCH  15  18
ATOM     18  O   UNL     1      35.646  -3.139  47.810  1.00  0.00    -0.508 OA
ATOM     19  H   UNL     1      35.178  -3.639  47.063  1.00  0.00     0.293 HD
ENDBRANCH  15  18
BRANCH  17  20
ATOM     20  O   UNL     1      33.969  -5.975  51.346  1.00  0.00    -0.507 OA
ATOM     21  H   UNL     1      33.367  -5.680  52.106  1.00  0.00     0.293 HD
ENDBRANCH  17  20
ENDBRANCH   1  12
BRANCH   2  22
ATOM     22  O   UNL     1      36.185  -7.704  52.086  1.00  0.00    -0.502 OA
ATOM     23  H   UNL     1      36.049  -7.375  51.139  1.00  0.00     0.293 HD
ENDBRANCH   2  22
BRANCH   6  24
ATOM     24  O   UNL     1      37.125  -8.127  57.316  1.00  0.00    -0.507 OA
ATOM     25  H   UNL     1      36.456  -8.868  57.183  1.00  0.00     0.293 HD
ENDBRANCH   6  24
BRANCH   8  26
ATOM     26  O   UNL     1      37.080  -3.490  58.558  1.00  0.00    -0.508 OA
ATOM     27  H   UNL     1      37.919  -2.932  58.663  1.00  0.00     0.293 HD
ENDBRANCH   8  26
TORSDOF 6
ENDMDL
MODEL 6
REMARK VINA RESULT:    -3.149      2.233      6.493
REMARK INTER + INTRA:          -4.071
REMARK INTER:                  -4.417
REMARK INTRA:                   0.347
REMARK UNBOUND:                -0.278
REMARK SMILES O=c1c(O)c(-c2ccc(O)cc2O)oc2cc(O)cc(O)c12
REMARK SMILES IDX 5 1 3 2 2 3 1 4 22 5 20 6 19 7 17 8 16 9 15 10 14 11 6 12
REMARK SMILES IDX 8 13 7 14 9 15 11 16 12 17 10 18 13 20 4 22 21 24 18 26
REMARK H PARENT 10 19 13 21 4 23 21 25 18 27
REMARK Flexibility Score: inf
ROOT
ATOM      1  C   UNL     1      36.569  -7.003  54.191  1.00  0.00     0.184 A 
ATOM      2  C   UNL     1      36.722  -6.130  53.102  1.00  0.00     0.208 A 
ATOM      3  C   UNL     1      36.915  -4.762  53.349  1.00  0.00     0.238 A 
ATOM      4  O   UNL     1      37.125  -3.997  52.372  1.00  0.00    -0.285 OA
ATOM      5  C   UNL     1      36.897  -4.277  54.680  1.00  0.00     0.111 A 
ATOM      6  C   UNL     1      37.039  -2.903  55.045  1.00  0.00     0.134 A 
ATOM      7  C   UNL     1      37.112  -2.553  56.399  1.00  0.00     0.093 A 
ATOM      8  C   UNL     1      36.985  -3.518  57.401  1.00  0.00     0.123 A 
ATOM      9  C   UNL     1      36.792  -4.853  57.055  1.00  0.00     0.094 A 
ATOM     10  C   UNL     1      36.753  -5.240  55.714  1.00  0.00     0.146 A 
ATOM     11  O   UNL     1      36.589  -6.526  55.429  1.00  0.00    -0.451 OA
ENDROOT
BRANCH   1  12
ATOM     12  C   UNL     1      36.370  -8.454  54.001  1.00  0.00     0.063 A 
ATOM     13  C   UNL     1      35.626 -10.279  52.578  1.00  0.00     0.047 A 
ATOM     14  C   UNL     1      35.833  -8.914  52.788  1.00  0.00     0.020 A 
ATOM     15  C   UNL     1      35.940 -11.201  53.582  1.00  0.00     0.119 A 
ATOM     16  C   UNL     1      36.452 -10.750  54.802  1.00  0.00     0.093 A 
ATOM     17  C   UNL     1      36.658  -9.381  55.024  1.00  0.00     0.130 A 
BRANCH  15  18
ATOM     18  O   UNL     1      35.740 -12.566  53.382  1.00  0.00    -0.508 OA
ATOM     19  H   UNL     1      35.898 -13.239  54.122  1.00  0.00     0.293 HD
ENDBRANCH  15  18
BRANCH  17  20
ATOM     20  O   UNL     1      37.125  -8.941  56.263  1.00  0.00    -0.507 OA
ATOM     21  H   UNL     1      37.906  -9.390  56.727  1.00  0.00     0.293 HD
ENDBRANCH  17  20
ENDBRANCH   1  12
BRANCH   2  22
ATOM     22  O   UNL     1      36.664  -6.624  51.797  1.00  0.00    -0.502 OA
ATOM     23  H   UNL     1      35.806  -6.972  51.386  1.00  0.00     0.293 HD
ENDBRANCH   2  22
BRANCH   6  24
ATOM     24  O   UNL     1      37.086  -1.850  54.128  1.00  0.00    -0.507 OA
ATOM     25  H   UNL     1      37.083  -1.955  53.126  1.00  0.00     0.293 HD
ENDBRANCH   6  24
BRANCH   8  26
ATOM     26  O   UNL     1      37.042  -3.158  58.745  1.00  0.00    -0.508 OA
ATOM     27  H   UNL     1      36.761  -2.237  59.060  1.00  0.00     0.293 HD
ENDBRANCH   8  26
TORSDOF 6
ENDMDL
MODEL 7
REMARK VINA RESULT:    -2.844      1.313      6.189
REMARK INTER + INTRA:          -3.704
REMARK INTER:                  -3.681
REMARK INTRA:                  -0.023
REMARK UNBOUND:                -0.278
REMARK SMILES O=c1c(O)c(-c2ccc(O)cc2O)oc2cc(O)cc(O)c12
REMARK SMILES IDX 5 1 3 2 2 3 1 4 22 5 20 6 19 7 17 8 16 9 15 10 14 11 6 12
REMARK SMILES IDX 8 13 7 14 9 15 11 16 12 17 10 18 13 20 4 22 21 24 18 26
REMARK H PARENT 10 19 13 21 4 23 21 25 18 27
REMARK Flexibility Score: inf
ROOT
ATOM      1  C   UNL     1      36.182  -7.894  53.288  1.00  0.00     0.184 A 
ATOM      2  C   UNL     1      36.533  -7.172  54.440  1.00  0.00     0.208 A 
ATOM      3  C   UNL     1      36.670  -5.778  54.352  1.00  0.00     0.238 A 
ATOM      4  O   UNL     1      36.912  -5.129  55.404  1.00  0.00    -0.285 OA
ATOM      5  C   UNL     1      36.507  -5.130  53.103  1.00  0.00     0.111 A 
ATOM      6  C   UNL     1      36.666  -3.727  52.889  1.00  0.00     0.134 A 
ATOM      7  C   UNL     1      36.376  -3.185  51.630  1.00  0.00     0.093 A 
ATOM      8  C   UNL     1      35.995  -4.001  50.563  1.00  0.00     0.123 A 
ATOM      9  C   UNL     1      35.891  -5.378  50.748  1.00  0.00     0.094 A 
ATOM     10  C   UNL     1      36.136  -5.945  52.000  1.00  0.00     0.146 A 
ATOM     11  O   UNL     1      36.004  -7.259  52.137  1.00  0.00    -0.451 OA
ENDROOT
BRANCH   1  12
ATOM     12  C   UNL     1      36.015  -9.361  53.314  1.00  0.00     0.063 A 
ATOM     13  C   UNL     1      36.803 -11.528  54.086  1.00  0.00     0.047 A 
ATOM     14  C   UNL     1      36.928 -10.137  54.046  1.00  0.00     0.020 A 
ATOM     15  C   UNL     1      35.773 -12.163  53.382  1.00  0.00     0.119 A 
ATOM     16  C   UNL     1      34.874 -11.399  52.631  1.00  0.00     0.093 A 
ATOM     17  C   UNL     1      34.995 -10.003  52.581  1.00  0.00     0.130 A 
BRANCH  15  18
ATOM     18  O   UNL     1      35.637 -13.549  53.418  1.00  0.00    -0.508 OA
ATOM     19  H   UNL     1      36.309 -14.134  53.899  1.00  0.00     0.293 HD
ENDBRANCH  15  18
BRANCH  17  20
ATOM     20  O   UNL     1      34.122  -9.259  51.788  1.00  0.00    -0.507 OA
ATOM     21  H   UNL     1      34.046  -8.252  51.882  1.00  0.00     0.293 HD
ENDBRANCH  17  20
ENDBRANCH   1  12
BRANCH   2  22
ATOM     22  O   UNL     1      36.759  -7.843  55.644  1.00  0.00    -0.502 OA
ATOM     23  H   UNL     1      36.992  -8.827  55.681  1.00  0.00     0.293 HD
ENDBRANCH   2  22
BRANCH   6  24
ATOM     24  O   UNL     1      37.125  -2.833  53.860  1.00  0.00    -0.507 OA
ATOM     25  H   UNL     1      37.359  -3.080  54.808  1.00  0.00     0.293 HD
ENDBRANCH   6  24
BRANCH   8  26
ATOM     26  O   UNL     1      35.726  -3.454  49.311  1.00  0.00    -0.508 OA
ATOM     27  H   UNL     1      35.123  -2.647  49.203  1.00  0.00     0.293 HD
ENDBRANCH   8  26
TORSDOF 6
ENDMDL
