MODEL 1
REMARK VINA RESULT:    -2.871      0.000      0.000
REMARK INTER + INTRA:          -2.871
REMARK INTER:                  -2.871
REMARK INTRA:                   0.000
REMARK UNBOUND:                 0.000
REMARK SMILES CC1(C)[C@@H]2CC[C@@]1(C)C(=O)C2
REMARK SMILES IDX 1 1 2 2 4 3 5 4 6 5 7 6 9 7 10 8 11 9 8 10 3 11
REMARK H PARENT
REMARK Flexibility Score: inf
ROOT
ATOM      1  C   UNL     1     169.466 157.728 172.368  1.00  0.00     0.012 C 
ATOM      2  C   UNL     1     168.622 158.034 171.094  1.00  0.00    -0.020 C 
ATOM      3  C   UNL     1     168.802 156.996 169.960  1.00  0.00     0.003 C 
ATOM      4  C   UNL     1     170.297 157.169 169.573  1.00  0.00     0.005 C 
ATOM      5  C   UNL     1     170.528 158.690 169.744  1.00  0.00     0.015 C 
ATOM      6  C   UNL     1     169.142 159.193 170.215  1.00  0.00     0.032 C 
ATOM      7  C   UNL     1     168.249 159.049 169.007  1.00  0.00     0.139 C 
ATOM      8  O   UNL     1     167.880 159.954 168.276  1.00  0.00    -0.299 OA
ATOM      9  C   UNL     1     167.975 157.593 168.786  1.00  0.00     0.080 C 
ATOM     10  C   UNL     1     169.148 160.586 170.853  1.00  0.00     0.020 C 
ATOM     11  C   UNL     1     167.145 158.190 171.570  1.00  0.00     0.012 C 
ENDROOT
TORSDOF 0
ENDMDL
MODEL 2
REMARK VINA RESULT:    -2.868     15.109     16.697
REMARK INTER + INTRA:          -2.868
REMARK INTER:                  -2.868
REMARK INTRA:                   0.000
REMARK UNBOUND:                 0.000
REMARK SMILES CC1(C)[C@@H]2CC[C@@]1(C)C(=O)C2
REMARK SMILES IDX 1 1 2 2 4 3 5 4 6 5 7 6 9 7 10 8 11 9 8 10 3 11
REMARK H PARENT
REMARK Flexibility Score: inf
ROOT
ATOM      1  C   UNL     1     161.484 171.808 171.818  1.00  0.00     0.012 C 
ATOM      2  C   UNL     1     161.885 172.468 170.465  1.00  0.00    -0.020 C 
ATOM      3  C   UNL     1     163.257 173.184 170.501  1.00  0.00     0.003 C 
ATOM      4  C   UNL     1     163.015 174.333 171.519  1.00  0.00     0.005 C 
ATOM      5  C   UNL     1     161.547 174.741 171.243  1.00  0.00     0.015 C 
ATOM      6  C   UNL     1     161.132 173.770 170.112  1.00  0.00     0.032 C 
ATOM      7  C   UNL     1     161.917 174.226 168.906  1.00  0.00     0.139 C 
ATOM      8  O   UNL     1     161.476 174.868 167.965  1.00  0.00    -0.299 OA
ATOM      9  C   UNL     1     163.354 173.853 169.101  1.00  0.00     0.080 C 
ATOM     10  C   UNL     1     159.621 173.647 169.893  1.00  0.00     0.020 C 
ATOM     11  C   UNL     1     161.793 171.348 169.383  1.00  0.00     0.012 C 
ENDROOT
TORSDOF 0
ENDMDL
MODEL 3
REMARK VINA RESULT:    -2.863     14.033     15.922
REMARK INTER + INTRA:          -2.863
REMARK INTER:                  -2.863
REMARK INTRA:                   0.000
REMARK UNBOUND:                 0.000
REMARK SMILES CC1(C)[C@@H]2CC[C@@]1(C)C(=O)C2
REMARK SMILES IDX 1 1 2 2 4 3 5 4 6 5 7 6 9 7 10 8 11 9 8 10 3 11
REMARK H PARENT
REMARK Flexibility Score: inf
ROOT
ATOM      1  C   UNL     1     161.783 173.546 172.340  1.00  0.00     0.012 C 
ATOM      2  C   UNL     1     162.614 173.201 171.068  1.00  0.00    -0.020 C 
ATOM      3  C   UNL     1     162.413 174.196 169.901  1.00  0.00     0.003 C 
ATOM      4  C   UNL     1     160.915 174.000 169.538  1.00  0.00     0.005 C 
ATOM      5  C   UNL     1     160.697 172.484 169.765  1.00  0.00     0.015 C 
ATOM      6  C   UNL     1     162.092 172.008 170.237  1.00  0.00     0.032 C 
ATOM      7  C   UNL     1     162.969 172.115 169.015  1.00  0.00     0.139 C 
ATOM      8  O   UNL     1     163.337 171.186 168.312  1.00  0.00    -0.299 OA
ATOM      9  C   UNL     1     163.231 173.564 168.739  1.00  0.00     0.080 C 
ATOM     10  C   UNL     1     162.103 170.639 170.925  1.00  0.00     0.020 C 
ATOM     11  C   UNL     1     164.097 173.071 171.532  1.00  0.00     0.012 C 
ENDROOT
TORSDOF 0
ENDMDL
MODEL 4
REMARK VINA RESULT:    -2.849     14.626     16.231
REMARK INTER + INTRA:          -2.849
REMARK INTER:                  -2.849
REMARK INTRA:                   0.000
REMARK UNBOUND:                 0.000
REMARK SMILES CC1(C)[C@@H]2CC[C@@]1(C)C(=O)C2
REMARK SMILES IDX 1 1 2 2 4 3 5 4 6 5 7 6 9 7 10 8 11 9 8 10 3 11
REMARK H PARENT
REMARK Flexibility Score: inf
ROOT
ATOM      1  C   UNL     1     161.020 175.085 170.742  1.00  0.00     0.012 C 
ATOM      2  C   UNL     1     161.304 173.640 170.233  1.00  0.00    -0.020 C 
ATOM      3  C   UNL     1     161.729 172.656 171.348  1.00  0.00     0.003 C 
ATOM      4  C   UNL     1     163.084 173.248 171.828  1.00  0.00     0.005 C 
ATOM      5  C   UNL     1     163.707 173.794 170.520  1.00  0.00     0.015 C 
ATOM      6  C   UNL     1     162.630 173.455 169.462  1.00  0.00     0.032 C 
ATOM      7  C   UNL     1     162.671 171.952 169.338  1.00  0.00     0.139 C 
ATOM      8  O   UNL     1     163.185 171.322 168.427  1.00  0.00    -0.299 OA
ATOM      9  C   UNL     1     162.071 171.353 170.573  1.00  0.00     0.080 C 
ATOM     10  C   UNL     1     162.765 174.218 168.141  1.00  0.00     0.020 C 
ATOM     11  C   UNL     1     160.030 173.189 169.453  1.00  0.00     0.012 C 
ENDROOT
TORSDOF 0
ENDMDL
MODEL 5
REMARK VINA RESULT:    -2.835      1.678      2.670
REMARK INTER + INTRA:          -2.835
REMARK INTER:                  -2.835
REMARK INTRA:                   0.000
REMARK UNBOUND:                 0.000
REMARK SMILES CC1(C)[C@@H]2CC[C@@]1(C)C(=O)C2
REMARK SMILES IDX 1 1 2 2 4 3 5 4 6 5 7 6 9 7 10 8 11 9 8 10 3 11
REMARK H PARENT
REMARK Flexibility Score: inf
ROOT
ATOM      1  C   UNL     1     169.577 159.505 171.851  1.00  0.00     0.012 C 
ATOM      2  C   UNL     1     169.274 158.813 170.488  1.00  0.00    -0.020 C 
ATOM      3  C   UNL     1     167.897 158.109 170.436  1.00  0.00     0.003 C 
ATOM      4  C   UNL     1     168.048 156.985 171.498  1.00  0.00     0.005 C 
ATOM      5  C   UNL     1     169.529 156.559 171.346  1.00  0.00     0.015 C 
ATOM      6  C   UNL     1     170.039 157.497 170.226  1.00  0.00     0.032 C 
ATOM      7  C   UNL     1     169.345 157.016 168.976  1.00  0.00     0.139 C 
ATOM      8  O   UNL     1     169.850 156.347 168.088  1.00  0.00    -0.299 OA
ATOM      9  C   UNL     1     167.901 157.405 169.050  1.00  0.00     0.080 C 
ATOM     10  C   UNL     1     171.564 157.602 170.122  1.00  0.00     0.020 C 
ATOM     11  C   UNL     1     169.460 159.904 169.388  1.00  0.00     0.012 C 
ENDROOT
TORSDOF 0
ENDMDL
MODEL 6
REMARK VINA RESULT:    -2.832      0.982      2.839
REMARK INTER + INTRA:          -2.832
REMARK INTER:                  -2.832
REMARK INTRA:                   0.000
REMARK UNBOUND:                 0.000
REMARK SMILES CC1(C)[C@@H]2CC[C@@]1(C)C(=O)C2
REMARK SMILES IDX 1 1 2 2 4 3 5 4 6 5 7 6 9 7 10 8 11 9 8 10 3 11
REMARK H PARENT
REMARK Flexibility Score: inf
ROOT
ATOM      1  C   UNL     1     170.130 156.212 170.888  1.00  0.00     0.012 C 
ATOM      2  C   UNL     1     169.863 157.641 170.327  1.00  0.00    -0.020 C 
ATOM      3  C   UNL     1     169.437 158.667 171.404  1.00  0.00     0.003 C 
ATOM      4  C   UNL     1     168.074 158.103 171.893  1.00  0.00     0.005 C 
ATOM      5  C   UNL     1     167.456 157.517 170.600  1.00  0.00     0.015 C 
ATOM      6  C   UNL     1     168.544 157.810 169.540  1.00  0.00     0.032 C 
ATOM      7  C   UNL     1     168.517 159.308 169.363  1.00  0.00     0.139 C 
ATOM      8  O   UNL     1     168.016 159.910 168.426  1.00  0.00    -0.299 OA
ATOM      9  C   UNL     1     169.113 159.945 170.581  1.00  0.00     0.080 C 
ATOM     10  C   UNL     1     168.413 157.002 168.244  1.00  0.00     0.020 C 
ATOM     11  C   UNL     1     171.147 158.053 169.543  1.00  0.00     0.012 C 
ENDROOT
TORSDOF 0
ENDMDL
MODEL 7
REMARK VINA RESULT:    -2.765      1.336      2.300
REMARK INTER + INTRA:          -2.765
REMARK INTER:                  -2.765
REMARK INTRA:                   0.000
REMARK UNBOUND:                 0.000
REMARK SMILES CC1(C)[C@@H]2CC[C@@]1(C)C(=O)C2
REMARK SMILES IDX 1 1 2 2 4 3 5 4 6 5 7 6 9 7 10 8 11 9 8 10 3 11
REMARK H PARENT
REMARK Flexibility Score: inf
ROOT
ATOM      1  C   UNL     1     170.916 158.142 169.707  1.00  0.00     0.012 C 
ATOM      2  C   UNL     1     169.641 158.145 170.603  1.00  0.00    -0.020 C 
ATOM      3  C   UNL     1     168.516 157.213 170.094  1.00  0.00     0.003 C 
ATOM      4  C   UNL     1     168.124 157.860 168.737  1.00  0.00     0.005 C 
ATOM      5  C   UNL     1     168.282 159.375 169.014  1.00  0.00     0.015 C 
ATOM      6  C   UNL     1     168.752 159.403 170.488  1.00  0.00     0.032 C 
ATOM      7  C   UNL     1     167.547 158.965 171.285  1.00  0.00     0.139 C 
ATOM      8  O   UNL     1     166.810 159.695 171.929  1.00  0.00    -0.299 OA
ATOM      9  C   UNL     1     167.339 157.498 171.070  1.00  0.00     0.080 C 
ATOM     10  C   UNL     1     169.379 160.727 170.937  1.00  0.00     0.020 C 
ATOM     11  C   UNL     1     170.119 157.816 172.051  1.00  0.00     0.012 C 
ENDROOT
TORSDOF 0
ENDMDL
MODEL 8
REMARK VINA RESULT:    -2.760     14.062     15.780
REMARK INTER + INTRA:          -2.760
REMARK INTER:                  -2.760
REMARK INTRA:                   0.000
REMARK UNBOUND:                 0.000
REMARK SMILES CC1(C)[C@@H]2CC[C@@]1(C)C(=O)C2
REMARK SMILES IDX 1 1 2 2 4 3 5 4 6 5 7 6 9 7 10 8 11 9 8 10 3 11
REMARK H PARENT
REMARK Flexibility Score: inf
ROOT
ATOM      1  C   UNL     1     160.284 173.062 169.704  1.00  0.00     0.012 C 
ATOM      2  C   UNL     1     161.554 173.054 170.607  1.00  0.00    -0.020 C 
ATOM      3  C   UNL     1     162.678 173.997 170.114  1.00  0.00     0.003 C 
ATOM      4  C   UNL     1     163.079 173.368 168.751  1.00  0.00     0.005 C 
ATOM      5  C   UNL     1     162.927 171.849 169.011  1.00  0.00     0.015 C 
ATOM      6  C   UNL     1     162.450 171.801 170.482  1.00  0.00     0.032 C 
ATOM      7  C   UNL     1     163.649 172.236 171.289  1.00  0.00     0.139 C 
ATOM      8  O   UNL     1     164.386 171.502 171.929  1.00  0.00    -0.299 OA
ATOM      9  C   UNL     1     163.851 173.706 171.093  1.00  0.00     0.080 C 
ATOM     10  C   UNL     1     161.827 170.469 170.912  1.00  0.00     0.020 C 
ATOM     11  C   UNL     1     161.068 173.364 172.056  1.00  0.00     0.012 C 
ENDROOT
TORSDOF 0
ENDMDL
MODEL 9
REMARK VINA RESULT:    -2.750      1.666      2.862
REMARK INTER + INTRA:          -2.750
REMARK INTER:                  -2.750
REMARK INTRA:                   0.000
REMARK UNBOUND:                 0.000
REMARK SMILES CC1(C)[C@@H]2CC[C@@]1(C)C(=O)C2
REMARK SMILES IDX 1 1 2 2 4 3 5 4 6 5 7 6 9 7 10 8 11 9 8 10 3 11
REMARK H PARENT
REMARK Flexibility Score: inf
ROOT
ATOM      1  C   UNL     1     169.936 160.001 169.385  1.00  0.00     0.012 C 
ATOM      2  C   UNL     1     168.800 159.293 170.183  1.00  0.00    -0.020 C 
ATOM      3  C   UNL     1     169.238 158.782 171.576  1.00  0.00     0.003 C 
ATOM      4  C   UNL     1     170.296 157.699 171.225  1.00  0.00     0.005 C 
ATOM      5  C   UNL     1     169.731 157.068 169.928  1.00  0.00     0.015 C 
ATOM      6  C   UNL     1     168.430 157.874 169.696  1.00  0.00     0.032 C 
ATOM      7  C   UNL     1     167.503 157.435 170.802  1.00  0.00     0.139 C 
ATOM      8  O   UNL     1     166.564 156.662 170.686  1.00  0.00    -0.299 OA
ATOM      9  C   UNL     1     167.986 158.020 172.093  1.00  0.00     0.080 C 
ATOM     10  C   UNL     1     167.851 157.766 168.282  1.00  0.00     0.020 C 
ATOM     11  C   UNL     1     167.606 160.296 170.232  1.00  0.00     0.012 C 
ENDROOT
TORSDOF 0
ENDMDL
