MODEL 1
REMARK VINA RESULT:    -5.500      0.000      0.000
REMARK INTER + INTRA:         -15.130
REMARK INTER:                 -12.573
REMARK INTRA:                  -2.557
REMARK UNBOUND:                -2.557
REMARK SMILES CCCCCCCCCCCCCCCCCCCCCCCC(=O)[O-]
REMARK SMILES IDX 13 1 14 2 15 3 16 4 17 5 18 6 19 7 20 8 21 9 22 10 23 11
REMARK SMILES IDX 24 12 25 13 26 14 12 15 11 16 10 17 9 18 8 19 7 20 6 21 5 22
REMARK SMILES IDX 4 23 3 24 2 25 1 26
REMARK H PARENT
REMARK Flexibility Score: inf
ROOT
ATOM      1  C   UNL     1     -20.009  46.203  82.936  1.00  0.00     0.000 C 
ENDROOT
BRANCH   1   2
ATOM      2  C   UNL     1     -21.422  46.088  83.529  1.00  0.00     0.000 C 
BRANCH   2   3
ATOM      3  C   UNL     1     -21.503  46.776  84.901  1.00  0.00     0.000 C 
BRANCH   3   4
ATOM      4  C   UNL     1     -22.371  45.998  85.903  1.00  0.00     0.000 C 
BRANCH   4   5
ATOM      5  C   UNL     1     -22.066  46.371  87.364  1.00  0.00     0.000 C 
BRANCH   5   6
ATOM      6  C   UNL     1     -23.212  46.001  88.319  1.00  0.00     0.000 C 
BRANCH   6   7
ATOM      7  C   UNL     1     -23.431  44.484  88.428  1.00  0.00     0.000 C 
BRANCH   7   8
ATOM      8  C   UNL     1     -24.783  44.172  89.084  1.00  0.00     0.000 C 
BRANCH   8   9
ATOM      9  C   UNL     1     -25.546  45.463  89.414  1.00  0.00     0.000 C 
BRANCH   9  10
ATOM     10  C   UNL     1     -26.808  45.218  90.262  1.00  0.00     0.006 C 
BRANCH  10  11
ATOM     11  C   UNL     1     -26.893  43.803  90.859  1.00  0.00     0.053 C 
BRANCH  11  12
ATOM     12  C   UNL     1     -28.096  43.046  90.388  1.00  0.00     0.041 C 
ATOM     13  O   UNL     1     -29.008  42.737  91.199  1.00  0.00    -0.550 OA
ATOM     14  O   UNL     1     -28.203  42.669  89.056  1.00  0.00    -0.550 OA
ENDBRANCH  11  12
ENDBRANCH  10  11
ENDBRANCH   9  10
ENDBRANCH   8   9
ENDBRANCH   7   8
ENDBRANCH   6   7
ENDBRANCH   5   6
ENDBRANCH   4   5
ENDBRANCH   3   4
ENDBRANCH   2   3
ENDBRANCH   1   2
BRANCH   1  15
ATOM     15  C   UNL     1     -19.032  46.964  83.853  1.00  0.00     0.000 C 
BRANCH  15  16
ATOM     16  C   UNL     1     -17.799  46.158  84.300  1.00  0.00     0.000 C 
BRANCH  16  17
ATOM     17  C   UNL     1     -18.094  44.657  84.458  1.00  0.00     0.000 C 
BRANCH  17  18
ATOM     18  C   UNL     1     -18.891  44.339  85.735  1.00  0.00    -0.000 C 
BRANCH  18  19
ATOM     19  C   UNL     1     -19.769  43.075  85.655  1.00  0.00    -0.000 C 
BRANCH  19  20
ATOM     20  C   UNL     1     -20.697  42.885  86.874  1.00  0.00    -0.000 C 
BRANCH  20  21
ATOM     21  C   UNL     1     -21.322  41.479  86.915  1.00  0.00    -0.000 C 
BRANCH  21  22
ATOM     22  C   UNL     1     -20.274  40.354  86.856  1.00  0.00    -0.000 C 
BRANCH  22  23
ATOM     23  C   UNL     1     -20.721  39.017  87.476  1.00  0.00    -0.000 C 
BRANCH  23  24
ATOM     24  C   UNL     1     -20.529  38.969  89.002  1.00  0.00    -0.000 C 
BRANCH  24  25
ATOM     25  C   UNL     1     -19.412  39.906  89.485  1.00  0.00    -0.003 C 
ATOM     26  C   UNL     1     -19.937  41.056  90.341  1.00  0.00     0.004 C 
ENDBRANCH  24  25
ENDBRANCH  23  24
ENDBRANCH  22  23
ENDBRANCH  21  22
ENDBRANCH  20  21
ENDBRANCH  19  20
ENDBRANCH  18  19
ENDBRANCH  17  18
ENDBRANCH  16  17
ENDBRANCH  15  16
ENDBRANCH   1  15
TORSDOF 22
ENDMDL
MODEL 2
REMARK VINA RESULT:    -5.389      1.191      5.879
REMARK INTER + INTRA:         -14.877
REMARK INTER:                 -12.408
REMARK INTRA:                  -2.469
REMARK UNBOUND:                -2.557
REMARK SMILES CCCCCCCCCCCCCCCCCCCCCCCC(=O)[O-]
REMARK SMILES IDX 13 1 14 2 15 3 16 4 17 5 18 6 19 7 20 8 21 9 22 10 23 11
REMARK SMILES IDX 24 12 25 13 26 14 12 15 11 16 10 17 9 18 8 19 7 20 6 21 5 22
REMARK SMILES IDX 4 23 3 24 2 25 1 26
REMARK H PARENT
REMARK Flexibility Score: inf
ROOT
ATOM      1  C   UNL     1     -19.814  39.370  89.579  1.00  0.00     0.000 C 
ENDROOT
BRANCH   1   2
ATOM      2  C   UNL     1     -20.355  38.941  90.951  1.00  0.00     0.000 C 
BRANCH   2   3
ATOM      3  C   UNL     1     -21.352  39.974  91.499  1.00  0.00     0.000 C 
BRANCH   3   4
ATOM      4  C   UNL     1     -21.004  41.412  91.084  1.00  0.00     0.000 C 
BRANCH   4   5
ATOM      5  C   UNL     1     -22.248  42.242  90.726  1.00  0.00     0.000 C 
BRANCH   5   6
ATOM      6  C   UNL     1     -22.092  42.996  89.395  1.00  0.00     0.000 C 
BRANCH   6   7
ATOM      7  C   UNL     1     -23.437  43.423  88.791  1.00  0.00     0.000 C 
BRANCH   7   8
ATOM      8  C   UNL     1     -24.433  43.812  89.893  1.00  0.00     0.000 C 
BRANCH   8   9
ATOM      9  C   UNL     1     -25.395  44.905  89.405  1.00  0.00     0.000 C 
BRANCH   9  10
ATOM     10  C   UNL     1     -26.664  45.021  90.270  1.00  0.00     0.006 C 
BRANCH  10  11
ATOM     11  C   UNL     1     -26.995  43.748  91.067  1.00  0.00     0.053 C 
BRANCH  11  12
ATOM     12  C   UNL     1     -28.182  43.016  90.522  1.00  0.00     0.041 C 
ATOM     13  O   UNL     1     -29.129  42.687  91.284  1.00  0.00    -0.550 OA
ATOM     14  O   UNL     1     -28.236  42.683  89.175  1.00  0.00    -0.550 OA
ENDBRANCH  11  12
ENDBRANCH  10  11
ENDBRANCH   9  10
ENDBRANCH   8   9
ENDBRANCH   7   8
ENDBRANCH   6   7
ENDBRANCH   5   6
ENDBRANCH   4   5
ENDBRANCH   3   4
ENDBRANCH   2   3
ENDBRANCH   1   2
BRANCH   1  15
ATOM     15  C   UNL     1     -20.732  38.956  88.413  1.00  0.00     0.000 C 
BRANCH  15  16
ATOM     16  C   UNL     1     -20.286  39.453  87.026  1.00  0.00     0.000 C 
BRANCH  16  17
ATOM     17  C   UNL     1     -19.798  40.911  87.044  1.00  0.00     0.000 C 
BRANCH  17  18
ATOM     18  C   UNL     1     -20.711  41.853  86.240  1.00  0.00    -0.000 C 
BRANCH  18  19
ATOM     19  C   UNL     1     -20.052  43.174  85.797  1.00  0.00    -0.000 C 
BRANCH  19  20
ATOM     20  C   UNL     1     -20.301  44.349  86.766  1.00  0.00    -0.000 C 
BRANCH  20  21
ATOM     21  C   UNL     1     -21.273  45.388  86.183  1.00  0.00    -0.000 C 
BRANCH  21  22
ATOM     22  C   UNL     1     -21.090  45.599  84.670  1.00  0.00    -0.000 C 
BRANCH  22  23
ATOM     23  C   UNL     1     -20.195  46.791  84.284  1.00  0.00    -0.000 C 
BRANCH  23  24
ATOM     24  C   UNL     1     -18.967  46.377  83.455  1.00  0.00    -0.000 C 
BRANCH  24  25
ATOM     25  C   UNL     1     -17.652  46.531  84.233  1.00  0.00    -0.003 C 
ATOM     26  C   UNL     1     -17.231  45.243  84.939  1.00  0.00     0.004 C 
ENDBRANCH  24  25
ENDBRANCH  23  24
ENDBRANCH  22  23
ENDBRANCH  21  22
ENDBRANCH  20  21
ENDBRANCH  19  20
ENDBRANCH  18  19
ENDBRANCH  17  18
ENDBRANCH  16  17
ENDBRANCH  15  16
ENDBRANCH   1  15
TORSDOF 22
ENDMDL
MODEL 3
REMARK VINA RESULT:    -5.386      1.435      5.087
REMARK INTER + INTRA:         -14.870
REMARK INTER:                 -12.093
REMARK INTRA:                  -2.777
REMARK UNBOUND:                -2.557
REMARK SMILES CCCCCCCCCCCCCCCCCCCCCCCC(=O)[O-]
REMARK SMILES IDX 13 1 14 2 15 3 16 4 17 5 18 6 19 7 20 8 21 9 22 10 23 11
REMARK SMILES IDX 24 12 25 13 26 14 12 15 11 16 10 17 9 18 8 19 7 20 6 21 5 22
REMARK SMILES IDX 4 23 3 24 2 25 1 26
REMARK H PARENT
REMARK Flexibility Score: inf
ROOT
ATOM      1  C   UNL     1     -21.060  41.522  90.398  1.00  0.00     0.000 C 
ENDROOT
BRANCH   1   2
ATOM      2  C   UNL     1     -21.437  42.719  89.511  1.00  0.00     0.000 C 
BRANCH   2   3
ATOM      3  C   UNL     1     -22.925  43.072  89.662  1.00  0.00     0.000 C 
BRANCH   3   4
ATOM      4  C   UNL     1     -23.603  43.366  88.315  1.00  0.00     0.000 C 
BRANCH   4   5
ATOM      5  C   UNL     1     -23.033  44.618  87.627  1.00  0.00     0.000 C 
BRANCH   5   6
ATOM      6  C   UNL     1     -23.841  45.886  87.946  1.00  0.00     0.000 C 
BRANCH   6   7
ATOM      7  C   UNL     1     -25.190  45.934  87.213  1.00  0.00     0.000 C 
BRANCH   7   8
ATOM      8  C   UNL     1     -26.338  46.199  88.197  1.00  0.00     0.000 C 
BRANCH   8   9
ATOM      9  C   UNL     1     -25.877  45.997  89.648  1.00  0.00     0.000 C 
BRANCH   9  10
ATOM     10  C   UNL     1     -26.873  45.175  90.488  1.00  0.00     0.006 C 
BRANCH  10  11
ATOM     11  C   UNL     1     -26.735  43.654  90.306  1.00  0.00     0.053 C 
BRANCH  11  12
ATOM     12  C   UNL     1     -28.051  42.977  90.070  1.00  0.00     0.041 C 
ATOM     13  O   UNL     1     -28.867  42.831  91.018  1.00  0.00    -0.550 OA
ATOM     14  O   UNL     1     -28.368  42.495  88.808  1.00  0.00    -0.550 OA
ENDBRANCH  11  12
ENDBRANCH  10  11
ENDBRANCH   9  10
ENDBRANCH   8   9
ENDBRANCH   7   8
ENDBRANCH   6   7
ENDBRANCH   5   6
ENDBRANCH   4   5
ENDBRANCH   3   4
ENDBRANCH   2   3
ENDBRANCH   1   2
BRANCH   1  15
ATOM     15  C   UNL     1     -19.577  41.124  90.274  1.00  0.00     0.000 C 
BRANCH  15  16
ATOM     16  C   UNL     1     -19.088  40.102  91.317  1.00  0.00     0.000 C 
BRANCH  16  17
ATOM     17  C   UNL     1     -18.825  38.713  90.712  1.00  0.00     0.000 C 
BRANCH  17  18
ATOM     18  C   UNL     1     -20.064  38.124  90.016  1.00  0.00    -0.000 C 
BRANCH  18  19
ATOM     19  C   UNL     1     -19.838  37.671  88.561  1.00  0.00    -0.000 C 
BRANCH  19  20
ATOM     20  C   UNL     1     -20.987  38.055  87.604  1.00  0.00    -0.000 C 
BRANCH  20  21
ATOM     21  C   UNL     1     -20.529  39.034  86.509  1.00  0.00    -0.000 C 
BRANCH  21  22
ATOM     22  C   UNL     1     -20.858  40.501  86.837  1.00  0.00    -0.000 C 
BRANCH  22  23
ATOM     23  C   UNL     1     -19.735  41.505  86.521  1.00  0.00    -0.000 C 
BRANCH  23  24
ATOM     24  C   UNL     1     -20.263  42.856  86.008  1.00  0.00    -0.000 C 
BRANCH  24  25
ATOM     25  C   UNL     1     -19.161  43.713  85.367  1.00  0.00    -0.003 C 
ATOM     26  C   UNL     1     -19.660  45.093  84.942  1.00  0.00     0.004 C 
ENDBRANCH  24  25
ENDBRANCH  23  24
ENDBRANCH  22  23
ENDBRANCH  21  22
ENDBRANCH  20  21
ENDBRANCH  19  20
ENDBRANCH  18  19
ENDBRANCH  17  18
ENDBRANCH  16  17
ENDBRANCH  15  16
ENDBRANCH   1  15
TORSDOF 22
ENDMDL
MODEL 4
REMARK VINA RESULT:    -5.366      1.956      4.143
REMARK INTER + INTRA:         -14.825
REMARK INTER:                 -12.232
REMARK INTRA:                  -2.593
REMARK UNBOUND:                -2.557
REMARK SMILES CCCCCCCCCCCCCCCCCCCCCCCC(=O)[O-]
REMARK SMILES IDX 13 1 14 2 15 3 16 4 17 5 18 6 19 7 20 8 21 9 22 10 23 11
REMARK SMILES IDX 24 12 25 13 26 14 12 15 11 16 10 17 9 18 8 19 7 20 6 21 5 22
REMARK SMILES IDX 4 23 3 24 2 25 1 26
REMARK H PARENT
REMARK Flexibility Score: inf
ROOT
ATOM      1  C   UNL     1     -20.136  42.205  86.544  1.00  0.00     0.000 C 
ENDROOT
BRANCH   1   2
ATOM      2  C   UNL     1     -19.783  43.335  85.564  1.00  0.00     0.000 C 
BRANCH   2   3
ATOM      3  C   UNL     1     -20.201  44.704  86.124  1.00  0.00     0.000 C 
BRANCH   3   4
ATOM      4  C   UNL     1     -21.318  45.365  85.301  1.00  0.00     0.000 C 
BRANCH   4   5
ATOM      5  C   UNL     1     -22.425  45.968  86.183  1.00  0.00     0.000 C 
BRANCH   5   6
ATOM      6  C   UNL     1     -22.007  46.083  87.658  1.00  0.00     0.000 C 
BRANCH   6   7
ATOM      7  C   UNL     1     -23.206  46.078  88.618  1.00  0.00     0.000 C 
BRANCH   7   8
ATOM      8  C   UNL     1     -24.235  45.017  88.204  1.00  0.00     0.000 C 
BRANCH   8   9
ATOM      9  C   UNL     1     -25.487  45.089  89.090  1.00  0.00     0.000 C 
BRANCH   9  10
ATOM     10  C   UNL     1     -25.643  43.867  90.014  1.00  0.00     0.006 C 
BRANCH  10  11
ATOM     11  C   UNL     1     -26.906  43.903  90.890  1.00  0.00     0.053 C 
BRANCH  11  12
ATOM     12  C   UNL     1     -28.013  43.053  90.347  1.00  0.00     0.041 C 
ATOM     13  O   UNL     1     -27.910  42.533  89.205  1.00  0.00    -0.550 OA
ATOM     14  O   UNL     1     -29.164  42.848  91.095  1.00  0.00    -0.550 OA
ENDBRANCH  11  12
ENDBRANCH  10  11
ENDBRANCH   9  10
ENDBRANCH   8   9
ENDBRANCH   7   8
ENDBRANCH   6   7
ENDBRANCH   5   6
ENDBRANCH   4   5
ENDBRANCH   3   4
ENDBRANCH   2   3
ENDBRANCH   1   2
BRANCH   1  15
ATOM     15  C   UNL     1     -21.483  42.427  87.259  1.00  0.00     0.000 C 
BRANCH  15  16
ATOM     16  C   UNL     1     -21.423  42.361  88.795  1.00  0.00     0.000 C 
BRANCH  16  17
ATOM     17  C   UNL     1     -20.266  41.487  89.309  1.00  0.00     0.000 C 
BRANCH  17  18
ATOM     18  C   UNL     1     -20.708  40.050  89.638  1.00  0.00    -0.000 C 
BRANCH  18  19
ATOM     19  C   UNL     1     -19.700  38.954  89.243  1.00  0.00    -0.000 C 
BRANCH  19  20
ATOM     20  C   UNL     1     -20.226  37.987  88.160  1.00  0.00    -0.000 C 
BRANCH  20  21
ATOM     21  C   UNL     1     -21.210  38.674  87.197  1.00  0.00    -0.000 C 
BRANCH  21  22
ATOM     22  C   UNL     1     -20.727  38.662  85.736  1.00  0.00    -0.000 C 
BRANCH  22  23
ATOM     23  C   UNL     1     -19.622  37.635  85.425  1.00  0.00    -0.000 C 
BRANCH  23  24
ATOM     24  C   UNL     1     -19.122  37.711  83.972  1.00  0.00    -0.000 C 
BRANCH  24  25
ATOM     25  C   UNL     1     -17.915  36.797  83.717  1.00  0.00    -0.003 C 
ATOM     26  C   UNL     1     -17.562  35.935  84.929  1.00  0.00     0.004 C 
ENDBRANCH  24  25
ENDBRANCH  23  24
ENDBRANCH  22  23
ENDBRANCH  21  22
ENDBRANCH  20  21
ENDBRANCH  19  20
ENDBRANCH  18  19
ENDBRANCH  17  18
ENDBRANCH  16  17
ENDBRANCH  15  16
ENDBRANCH   1  15
TORSDOF 22
ENDMDL
MODEL 5
REMARK VINA RESULT:    -5.339      4.369      9.078
REMARK INTER + INTRA:         -14.763
REMARK INTER:                 -12.564
REMARK INTRA:                  -2.200
REMARK UNBOUND:                -2.557
REMARK SMILES CCCCCCCCCCCCCCCCCCCCCCCC(=O)[O-]
REMARK SMILES IDX 13 1 14 2 15 3 16 4 17 5 18 6 19 7 20 8 21 9 22 10 23 11
REMARK SMILES IDX 24 12 25 13 26 14 12 15 11 16 10 17 9 18 8 19 7 20 6 21 5 22
REMARK SMILES IDX 4 23 3 24 2 25 1 26
REMARK H PARENT
REMARK Flexibility Score: inf
ROOT
ATOM      1  C   UNL     1     -19.523  37.374  84.264  1.00  0.00     0.000 C 
ENDROOT
BRANCH   1   2
ATOM      2  C   UNL     1     -18.459  37.529  83.167  1.00  0.00     0.000 C 
BRANCH   2   3
ATOM      3  C   UNL     1     -17.115  36.931  83.611  1.00  0.00     0.000 C 
BRANCH   3   4
ATOM      4  C   UNL     1     -17.236  35.466  84.057  1.00  0.00     0.000 C 
BRANCH   4   5
ATOM      5  C   UNL     1     -16.577  35.206  85.422  1.00  0.00     0.000 C 
BRANCH   5   6
ATOM      6  C   UNL     1     -17.525  35.487  86.599  1.00  0.00     0.000 C 
BRANCH   6   7
ATOM      7  C   UNL     1     -16.962  35.007  87.945  1.00  0.00     0.000 C 
BRANCH   7   8
ATOM      8  C   UNL     1     -17.910  35.373  89.095  1.00  0.00     0.000 C 
BRANCH   8   9
ATOM      9  C   UNL     1     -18.718  36.636  88.763  1.00  0.00     0.000 C 
BRANCH   9  10
ATOM     10  C   UNL     1     -19.278  37.339  90.014  1.00  0.00     0.006 C 
BRANCH  10  11
ATOM     11  C   UNL     1     -18.666  38.726  90.276  1.00  0.00     0.053 C 
BRANCH  11  12
ATOM     12  C   UNL     1     -19.696  39.812  90.333  1.00  0.00     0.041 C 
ATOM     13  O   UNL     1     -20.919  39.532  90.224  1.00  0.00    -0.550 OA
ATOM     14  O   UNL     1     -19.304  41.134  90.491  1.00  0.00    -0.550 OA
ENDBRANCH  11  12
ENDBRANCH  10  11
ENDBRANCH   9  10
ENDBRANCH   8   9
ENDBRANCH   7   8
ENDBRANCH   6   7
ENDBRANCH   5   6
ENDBRANCH   4   5
ENDBRANCH   3   4
ENDBRANCH   2   3
ENDBRANCH   1   2
BRANCH   1  15
ATOM     15  C   UNL     1     -19.498  38.521  85.293  1.00  0.00     0.000 C 
BRANCH  15  16
ATOM     16  C   UNL     1     -20.602  38.457  86.364  1.00  0.00     0.000 C 
BRANCH  16  17
ATOM     17  C   UNL     1     -21.174  39.842  86.713  1.00  0.00     0.000 C 
BRANCH  17  18
ATOM     18  C   UNL     1     -20.078  40.899  86.932  1.00  0.00    -0.000 C 
BRANCH  18  19
ATOM     19  C   UNL     1     -20.471  42.335  86.534  1.00  0.00    -0.000 C 
BRANCH  19  20
ATOM     20  C   UNL     1     -19.530  42.969  85.487  1.00  0.00    -0.000 C 
BRANCH  20  21
ATOM     21  C   UNL     1     -19.226  44.445  85.798  1.00  0.00    -0.000 C 
BRANCH  21  22
ATOM     22  C   UNL     1     -17.794  44.857  85.411  1.00  0.00    -0.000 C 
BRANCH  22  23
ATOM     23  C   UNL     1     -17.698  45.837  84.228  1.00  0.00    -0.000 C 
BRANCH  23  24
ATOM     24  C   UNL     1     -19.010  46.596  83.967  1.00  0.00    -0.000 C 
BRANCH  24  25
ATOM     25  C   UNL     1     -19.562  46.349  82.555  1.00  0.00    -0.003 C 
ATOM     26  C   UNL     1     -21.054  46.659  82.443  1.00  0.00     0.004 C 
ENDBRANCH  24  25
ENDBRANCH  23  24
ENDBRANCH  22  23
ENDBRANCH  21  22
ENDBRANCH  20  21
ENDBRANCH  19  20
ENDBRANCH  18  19
ENDBRANCH  17  18
ENDBRANCH  16  17
ENDBRANCH  15  16
ENDBRANCH   1  15
TORSDOF 22
ENDMDL
MODEL 6
REMARK VINA RESULT:    -5.328      0.905      2.430
REMARK INTER + INTRA:         -14.738
REMARK INTER:                 -11.689
REMARK INTRA:                  -3.049
REMARK UNBOUND:                -2.557
REMARK SMILES CCCCCCCCCCCCCCCCCCCCCCCC(=O)[O-]
REMARK SMILES IDX 13 1 14 2 15 3 16 4 17 5 18 6 19 7 20 8 21 9 22 10 23 11
REMARK SMILES IDX 24 12 25 13 26 14 12 15 11 16 10 17 9 18 8 19 7 20 6 21 5 22
REMARK SMILES IDX 4 23 3 24 2 25 1 26
REMARK H PARENT
REMARK Flexibility Score: inf
ROOT
ATOM      1  C   UNL     1     -18.671  45.383  83.871  1.00  0.00     0.000 C 
ENDROOT
BRANCH   1   2
ATOM      2  C   UNL     1     -19.286  46.786  83.985  1.00  0.00     0.000 C 
BRANCH   2   3
ATOM      3  C   UNL     1     -20.369  46.828  85.075  1.00  0.00     0.000 C 
BRANCH   3   4
ATOM      4  C   UNL     1     -21.703  46.225  84.609  1.00  0.00     0.000 C 
BRANCH   4   5
ATOM      5  C   UNL     1     -22.812  46.354  85.667  1.00  0.00     0.000 C 
BRANCH   5   6
ATOM      6  C   UNL     1     -22.256  46.618  87.075  1.00  0.00     0.000 C 
BRANCH   6   7
ATOM      7  C   UNL     1     -22.664  45.538  88.088  1.00  0.00     0.000 C 
BRANCH   7   8
ATOM      8  C   UNL     1     -24.086  45.034  87.808  1.00  0.00     0.000 C 
BRANCH   8   9
ATOM      9  C   UNL     1     -24.598  44.159  88.962  1.00  0.00     0.000 C 
BRANCH   9  10
ATOM     10  C   UNL     1     -25.847  44.741  89.651  1.00  0.00     0.006 C 
BRANCH  10  11
ATOM     11  C   UNL     1     -26.524  43.772  90.635  1.00  0.00     0.053 C 
BRANCH  11  12
ATOM     12  C   UNL     1     -27.801  43.200  90.100  1.00  0.00     0.041 C 
ATOM     13  O   UNL     1     -27.824  42.654  88.966  1.00  0.00    -0.550 OA
ATOM     14  O   UNL     1     -28.967  43.283  90.847  1.00  0.00    -0.550 OA
ENDBRANCH  11  12
ENDBRANCH  10  11
ENDBRANCH   9  10
ENDBRANCH   8   9
ENDBRANCH   7   8
ENDBRANCH   6   7
ENDBRANCH   5   6
ENDBRANCH   4   5
ENDBRANCH   3   4
ENDBRANCH   2   3
ENDBRANCH   1   2
BRANCH   1  15
ATOM     15  C   UNL     1     -18.447  44.711  85.239  1.00  0.00     0.000 C 
BRANCH  15  16
ATOM     16  C   UNL     1     -19.176  43.368  85.430  1.00  0.00     0.000 C 
BRANCH  16  17
ATOM     17  C   UNL     1     -20.245  43.423  86.535  1.00  0.00     0.000 C 
BRANCH  17  18
ATOM     18  C   UNL     1     -21.175  42.198  86.523  1.00  0.00    -0.000 C 
BRANCH  18  19
ATOM     19  C   UNL     1     -21.743  41.800  87.899  1.00  0.00    -0.000 C 
BRANCH  19  20
ATOM     20  C   UNL     1     -20.968  42.404  89.090  1.00  0.00    -0.000 C 
BRANCH  20  21
ATOM     21  C   UNL     1     -20.538  41.333  90.107  1.00  0.00    -0.000 C 
BRANCH  21  22
ATOM     22  C   UNL     1     -19.670  40.225  89.483  1.00  0.00    -0.000 C 
BRANCH  22  23
ATOM     23  C   UNL     1     -20.158  38.790  89.751  1.00  0.00    -0.000 C 
BRANCH  23  24
ATOM     24  C   UNL     1     -20.053  37.878  88.516  1.00  0.00    -0.000 C 
BRANCH  24  25
ATOM     25  C   UNL     1     -20.975  38.328  87.373  1.00  0.00    -0.003 C 
ATOM     26  C   UNL     1     -20.247  38.429  86.034  1.00  0.00     0.004 C 
ENDBRANCH  24  25
ENDBRANCH  23  24
ENDBRANCH  22  23
ENDBRANCH  21  22
ENDBRANCH  20  21
ENDBRANCH  19  20
ENDBRANCH  18  19
ENDBRANCH  17  18
ENDBRANCH  16  17
ENDBRANCH  15  16
ENDBRANCH   1  15
TORSDOF 22
ENDMDL
MODEL 7
REMARK VINA RESULT:    -5.298      2.599      6.450
REMARK INTER + INTRA:         -14.668
REMARK INTER:                 -11.851
REMARK INTRA:                  -2.817
REMARK UNBOUND:                -2.557
REMARK SMILES CCCCCCCCCCCCCCCCCCCCCCCC(=O)[O-]
REMARK SMILES IDX 13 1 14 2 15 3 16 4 17 5 18 6 19 7 20 8 21 9 22 10 23 11
REMARK SMILES IDX 24 12 25 13 26 14 12 15 11 16 10 17 9 18 8 19 7 20 6 21 5 22
REMARK SMILES IDX 4 23 3 24 2 25 1 26
REMARK H PARENT
REMARK Flexibility Score: inf
ROOT
ATOM      1  C   UNL     1     -20.719  46.961  83.011  1.00  0.00     0.000 C 
ENDROOT
BRANCH   1   2
ATOM      2  C   UNL     1     -19.304  46.408  82.780  1.00  0.00     0.000 C 
BRANCH   2   3
ATOM      3  C   UNL     1     -18.318  46.961  83.822  1.00  0.00     0.000 C 
BRANCH   3   4
ATOM      4  C   UNL     1     -17.606  45.851  84.611  1.00  0.00     0.000 C 
BRANCH   4   5
ATOM      5  C   UNL     1     -18.362  44.513  84.563  1.00  0.00     0.000 C 
BRANCH   5   6
ATOM      6  C   UNL     1     -19.142  44.229  85.857  1.00  0.00     0.000 C 
BRANCH   6   7
ATOM      7  C   UNL     1     -19.826  42.854  85.851  1.00  0.00     0.000 C 
BRANCH   7   8
ATOM      8  C   UNL     1     -21.130  42.888  86.659  1.00  0.00     0.000 C 
BRANCH   8   9
ATOM      9  C   UNL     1     -20.993  42.082  87.959  1.00  0.00     0.000 C 
BRANCH   9  10
ATOM     10  C   UNL     1     -20.275  40.733  87.760  1.00  0.00     0.006 C 
BRANCH  10  11
ATOM     11  C   UNL     1     -19.541  40.226  89.013  1.00  0.00     0.053 C 
BRANCH  11  12
ATOM     12  C   UNL     1     -20.216  39.048  89.644  1.00  0.00     0.041 C 
ATOM     13  O   UNL     1     -21.064  39.219  90.559  1.00  0.00    -0.550 OA
ATOM     14  O   UNL     1     -19.899  37.761  89.231  1.00  0.00    -0.550 OA
ENDBRANCH  11  12
ENDBRANCH  10  11
ENDBRANCH   9  10
ENDBRANCH   8   9
ENDBRANCH   7   8
ENDBRANCH   6   7
ENDBRANCH   5   6
ENDBRANCH   4   5
ENDBRANCH   3   4
ENDBRANCH   2   3
ENDBRANCH   1   2
BRANCH   1  15
ATOM     15  C   UNL     1     -21.586  46.045  83.897  1.00  0.00     0.000 C 
BRANCH  15  16
ATOM     16  C   UNL     1     -22.347  46.764  85.025  1.00  0.00     0.000 C 
BRANCH  16  17
ATOM     17  C   UNL     1     -21.516  46.900  86.312  1.00  0.00     0.000 C 
BRANCH  17  18
ATOM     18  C   UNL     1     -22.387  46.967  87.578  1.00  0.00    -0.000 C 
BRANCH  18  19
ATOM     19  C   UNL     1     -22.343  45.708  88.465  1.00  0.00    -0.000 C 
BRANCH  19  20
ATOM     20  C   UNL     1     -23.718  45.030  88.652  1.00  0.00    -0.000 C 
BRANCH  20  21
ATOM     21  C   UNL     1     -24.766  45.561  87.659  1.00  0.00    -0.000 C 
BRANCH  21  22
ATOM     22  C   UNL     1     -26.185  45.609  88.253  1.00  0.00    -0.000 C 
BRANCH  22  23
ATOM     23  C   UNL     1     -26.267  46.138  89.697  1.00  0.00    -0.000 C 
BRANCH  23  24
ATOM     24  C   UNL     1     -27.038  45.197  90.639  1.00  0.00    -0.000 C 
BRANCH  24  25
ATOM     25  C   UNL     1     -27.065  43.749  90.130  1.00  0.00    -0.003 C 
ATOM     26  C   UNL     1     -28.458  43.125  90.203  1.00  0.00     0.004 C 
ENDBRANCH  24  25
ENDBRANCH  23  24
ENDBRANCH  22  23
ENDBRANCH  21  22
ENDBRANCH  20  21
ENDBRANCH  19  20
ENDBRANCH  18  19
ENDBRANCH  17  18
ENDBRANCH  16  17
ENDBRANCH  15  16
ENDBRANCH   1  15
TORSDOF 22
ENDMDL
MODEL 8
REMARK VINA RESULT:    -5.271      1.580      3.994
REMARK INTER + INTRA:         -14.606
REMARK INTER:                 -11.620
REMARK INTRA:                  -2.987
REMARK UNBOUND:                -2.557
REMARK SMILES CCCCCCCCCCCCCCCCCCCCCCCC(=O)[O-]
REMARK SMILES IDX 13 1 14 2 15 3 16 4 17 5 18 6 19 7 20 8 21 9 22 10 23 11
REMARK SMILES IDX 24 12 25 13 26 14 12 15 11 16 10 17 9 18 8 19 7 20 6 21 5 22
REMARK SMILES IDX 4 23 3 24 2 25 1 26
REMARK H PARENT
REMARK Flexibility Score: inf
ROOT
ATOM      1  C   UNL     1     -19.941  42.061  86.802  1.00  0.00     0.000 C 
ENDROOT
BRANCH   1   2
ATOM      2  C   UNL     1     -19.695  43.132  85.729  1.00  0.00     0.000 C 
BRANCH   2   3
ATOM      3  C   UNL     1     -20.129  44.521  86.224  1.00  0.00     0.000 C 
BRANCH   3   4
ATOM      4  C   UNL     1     -21.283  45.111  85.397  1.00  0.00     0.000 C 
BRANCH   4   5
ATOM      5  C   UNL     1     -22.362  45.770  86.274  1.00  0.00     0.000 C 
BRANCH   5   6
ATOM      6  C   UNL     1     -21.994  45.764  87.766  1.00  0.00     0.000 C 
BRANCH   6   7
ATOM      7  C   UNL     1     -23.226  45.777  88.683  1.00  0.00     0.000 C 
BRANCH   7   8
ATOM      8  C   UNL     1     -24.414  45.073  88.013  1.00  0.00     0.000 C 
BRANCH   8   9
ATOM      9  C   UNL     1     -25.731  45.418  88.724  1.00  0.00     0.000 C 
BRANCH   9  10
ATOM     10  C   UNL     1     -26.006  44.527  89.949  1.00  0.00     0.006 C 
BRANCH  10  11
ATOM     11  C   UNL     1     -27.465  44.565  90.434  1.00  0.00     0.053 C 
BRANCH  11  12
ATOM     12  C   UNL     1     -28.191  43.279  90.188  1.00  0.00     0.041 C 
ATOM     13  O   UNL     1     -28.132  42.723  89.059  1.00  0.00    -0.550 OA
ATOM     14  O   UNL     1     -28.945  42.701  91.200  1.00  0.00    -0.550 OA
ENDBRANCH  11  12
ENDBRANCH  10  11
ENDBRANCH   9  10
ENDBRANCH   8   9
ENDBRANCH   7   8
ENDBRANCH   6   7
ENDBRANCH   5   6
ENDBRANCH   4   5
ENDBRANCH   3   4
ENDBRANCH   2   3
ENDBRANCH   1   2
BRANCH   1  15
ATOM     15  C   UNL     1     -21.392  41.541  86.812  1.00  0.00     0.000 C 
BRANCH  15  16
ATOM     16  C   UNL     1     -22.276  42.102  87.941  1.00  0.00     0.000 C 
BRANCH  16  17
ATOM     17  C   UNL     1     -21.489  42.376  89.233  1.00  0.00     0.000 C 
BRANCH  17  18
ATOM     18  C   UNL     1     -22.405  42.641  90.441  1.00  0.00    -0.000 C 
BRANCH  18  19
ATOM     19  C   UNL     1     -22.035  41.865  91.720  1.00  0.00    -0.000 C 
BRANCH  19  20
ATOM     20  C   UNL     1     -21.289  40.541  91.450  1.00  0.00    -0.000 C 
BRANCH  20  21
ATOM     21  C   UNL     1     -19.799  40.626  91.824  1.00  0.00    -0.000 C 
BRANCH  21  22
ATOM     22  C   UNL     1     -19.123  39.247  91.916  1.00  0.00    -0.000 C 
BRANCH  22  23
ATOM     23  C   UNL     1     -18.483  38.749  90.606  1.00  0.00    -0.000 C 
BRANCH  23  24
ATOM     24  C   UNL     1     -19.418  37.840  89.788  1.00  0.00    -0.000 C 
BRANCH  24  25
ATOM     25  C   UNL     1     -20.350  38.636  88.863  1.00  0.00    -0.003 C 
ATOM     26  C   UNL     1     -20.445  38.032  87.462  1.00  0.00     0.004 C 
ENDBRANCH  24  25
ENDBRANCH  23  24
ENDBRANCH  22  23
ENDBRANCH  21  22
ENDBRANCH  20  21
ENDBRANCH  19  20
ENDBRANCH  18  19
ENDBRANCH  17  18
ENDBRANCH  16  17
ENDBRANCH  15  16
ENDBRANCH   1  15
TORSDOF 22
ENDMDL
MODEL 9
REMARK VINA RESULT:    -5.241      1.166      5.418
REMARK INTER + INTRA:         -14.539
REMARK INTER:                 -12.110
REMARK INTRA:                  -2.430
REMARK UNBOUND:                -2.557
REMARK SMILES CCCCCCCCCCCCCCCCCCCCCCCC(=O)[O-]
REMARK SMILES IDX 13 1 14 2 15 3 16 4 17 5 18 6 19 7 20 8 21 9 22 10 23 11
REMARK SMILES IDX 24 12 25 13 26 14 12 15 11 16 10 17 9 18 8 19 7 20 6 21 5 22
REMARK SMILES IDX 4 23 3 24 2 25 1 26
REMARK H PARENT
REMARK Flexibility Score: inf
ROOT
ATOM      1  C   UNL     1     -21.801  42.161  90.213  1.00  0.00     0.000 C 
ENDROOT
BRANCH   1   2
ATOM      2  C   UNL     1     -22.015  43.499  89.489  1.00  0.00     0.000 C 
BRANCH   2   3
ATOM      3  C   UNL     1     -23.490  43.687  89.099  1.00  0.00     0.000 C 
BRANCH   3   4
ATOM      4  C   UNL     1     -23.666  44.099  87.629  1.00  0.00     0.000 C 
BRANCH   4   5
ATOM      5  C   UNL     1     -23.723  45.625  87.446  1.00  0.00     0.000 C 
BRANCH   5   6
ATOM      6  C   UNL     1     -25.046  46.096  86.821  1.00  0.00     0.000 C 
BRANCH   6   7
ATOM      7  C   UNL     1     -25.879  46.965  87.774  1.00  0.00     0.000 C 
BRANCH   7   8
ATOM      8  C   UNL     1     -25.275  46.964  89.185  1.00  0.00     0.000 C 
BRANCH   8   9
ATOM      9  C   UNL     1     -26.282  46.432  90.215  1.00  0.00     0.000 C 
BRANCH   9  10
ATOM     10  C   UNL     1     -26.988  45.142  89.758  1.00  0.00     0.006 C 
BRANCH  10  11
ATOM     11  C   UNL     1     -27.273  44.149  90.898  1.00  0.00     0.053 C 
BRANCH  11  12
ATOM     12  C   UNL     1     -28.200  43.047  90.488  1.00  0.00     0.041 C 
ATOM     13  O   UNL     1     -28.136  42.564  89.327  1.00  0.00    -0.550 OA
ATOM     14  O   UNL     1     -29.145  42.563  91.383  1.00  0.00    -0.550 OA
ENDBRANCH  11  12
ENDBRANCH  10  11
ENDBRANCH   9  10
ENDBRANCH   8   9
ENDBRANCH   7   8
ENDBRANCH   6   7
ENDBRANCH   5   6
ENDBRANCH   4   5
ENDBRANCH   3   4
ENDBRANCH   2   3
ENDBRANCH   1   2
BRANCH   1  15
ATOM     15  C   UNL     1     -20.472  41.479  89.835  1.00  0.00     0.000 C 
BRANCH  15  16
ATOM     16  C   UNL     1     -20.616  40.102  89.161  1.00  0.00     0.000 C 
BRANCH  16  17
ATOM     17  C   UNL     1     -20.990  40.204  87.673  1.00  0.00     0.000 C 
BRANCH  17  18
ATOM     18  C   UNL     1     -20.042  41.124  86.884  1.00  0.00    -0.000 C 
BRANCH  18  19
ATOM     19  C   UNL     1     -20.676  42.436  86.384  1.00  0.00    -0.000 C 
BRANCH  19  20
ATOM     20  C   UNL     1     -19.795  43.211  85.381  1.00  0.00    -0.000 C 
BRANCH  20  21
ATOM     21  C   UNL     1     -19.128  44.440  86.023  1.00  0.00    -0.000 C 
BRANCH  21  22
ATOM     22  C   UNL     1     -17.843  44.874  85.295  1.00  0.00    -0.000 C 
BRANCH  22  23
ATOM     23  C   UNL     1     -18.044  45.328  83.838  1.00  0.00    -0.000 C 
BRANCH  23  24
ATOM     24  C   UNL     1     -18.783  46.673  83.723  1.00  0.00    -0.000 C 
BRANCH  24  25
ATOM     25  C   UNL     1     -19.696  46.739  82.490  1.00  0.00    -0.003 C 
ATOM     26  C   UNL     1     -20.998  45.961  82.678  1.00  0.00     0.004 C 
ENDBRANCH  24  25
ENDBRANCH  23  24
ENDBRANCH  22  23
ENDBRANCH  21  22
ENDBRANCH  20  21
ENDBRANCH  19  20
ENDBRANCH  18  19
ENDBRANCH  17  18
ENDBRANCH  16  17
ENDBRANCH  15  16
ENDBRANCH   1  15
TORSDOF 22
ENDMDL
