MODEL 1
REMARK VINA RESULT:    -3.205      0.000      0.000
REMARK INTER + INTRA:          -5.107
REMARK INTER:                  -4.891
REMARK INTRA:                  -0.216
REMARK UNBOUND:                -0.216
REMARK SMILES CC1=CCC[C@H](C)C(=O)C[C@@H](C(C)C)C(=O)C1
REMARK SMILES IDX 8 1 9 2 6 3 7 4 5 5 4 6 3 7 2 8 1 9 10 11 11 12 15 13 16 14
REMARK SMILES IDX 17 15 12 17 13 18 14 19
REMARK H PARENT
REMARK Flexibility Score: 70.00
ROOT
ATOM      1  C   UNL     1     -14.234  28.027  19.389  1.00  0.00     0.136 C 
ATOM      2  O   UNL     1     -13.264  27.843  20.112  1.00  0.00    -0.299 OA
ENDROOT
BRANCH   1   3
ATOM      3  C   UNL     1     -14.244  29.188  18.414  1.00  0.00     0.053 C 
ATOM      4  C   UNL     1     -13.465  30.360  19.023  1.00  0.00     0.016 C 
BRANCH   3   5
ATOM      5  C   UNL     1     -13.658  28.817  17.032  1.00  0.00     0.015 C 
BRANCH   5   6
ATOM      6  C   UNL     1     -14.589  29.148  15.851  1.00  0.00     0.028 C 
BRANCH   6   7
ATOM      7  C   UNL     1     -15.978  29.507  16.324  1.00  0.00    -0.028 C 
ATOM      8  C   UNL     1     -16.993  28.635  16.518  1.00  0.00    -0.070 CG0
ATOM      9  C   UNL     1     -18.312  29.182  17.002  1.00  0.00     0.039 C 
ATOM     10  G   UNL     1     -16.863  27.144  16.269  1.00  0.00     0.000 G0
ENDBRANCH   6   7
ENDBRANCH   5   6
ENDBRANCH   3   5
ENDBRANCH   1   3
BRANCH   1  11
ATOM     11  C   UNL     1     -15.439  27.128  19.528  1.00  0.00     0.087 C 
BRANCH  11  12
ATOM     12  C   UNL     1     -15.552  26.130  18.352  1.00  0.00     0.066 C 
BRANCH  12  13
ATOM     13  C   UNL     1     -16.851  26.345  17.590  1.00  0.00     0.140 C 
ATOM     14  O   UNL     1     -17.891  25.863  18.016  1.00  0.00    -0.299 OA
BRANCH  13  15
ATOM     15  C   UNL     1     -16.884  27.114  16.294  1.00  0.00     0.106 CG0
ATOM     16  G   UNL     1     -16.998  28.611  16.514  1.00  0.00     0.000 G0
ENDBRANCH  13  15
ENDBRANCH  12  13
BRANCH  12  17
ATOM     17  C   UNL     1     -15.393  24.637  18.774  1.00  0.00    -0.006 C 
ATOM     18  C   UNL     1     -14.886  23.769  17.611  1.00  0.00     0.008 C 
ATOM     19  C   UNL     1     -14.500  24.425  20.011  1.00  0.00     0.008 C 
ENDBRANCH  12  17
ENDBRANCH  11  12
ENDBRANCH   1  11
TORSDOF 1
ENDMDL
MODEL 2
REMARK VINA RESULT:    -3.150      2.232      4.117
REMARK INTER + INTRA:          -5.024
REMARK INTER:                  -5.053
REMARK INTRA:                   0.030
REMARK UNBOUND:                -0.216
REMARK SMILES CC1=CCC[C@H](C)C(=O)C[C@@H](C(C)C)C(=O)C1
REMARK SMILES IDX 8 1 9 2 6 3 7 4 5 5 4 6 3 7 2 8 1 9 10 11 11 12 15 13 16 14
REMARK SMILES IDX 17 15 12 17 13 18 14 19
REMARK H PARENT
REMARK Flexibility Score: 70.00
ROOT
ATOM      1  C   UNL     1     -14.244  29.431  17.236  1.00  0.00     0.136 C 
ATOM      2  O   UNL     1     -15.114  30.169  16.795  1.00  0.00    -0.299 OA
ENDROOT
BRANCH   1   3
ATOM      3  C   UNL     1     -13.485  29.818  18.489  1.00  0.00     0.053 C 
ATOM      4  C   UNL     1     -14.162  31.035  19.130  1.00  0.00     0.016 C 
BRANCH   3   5
ATOM      5  C   UNL     1     -13.385  28.662  19.512  1.00  0.00     0.015 C 
BRANCH   5   6
ATOM      6  C   UNL     1     -14.735  27.993  19.832  1.00  0.00     0.028 C 
BRANCH   6   7
ATOM      7  C   UNL     1     -14.562  26.533  20.175  1.00  0.00    -0.028 C 
ATOM      8  C   UNL     1     -15.042  25.493  19.456  1.00  0.00    -0.070 CG0
ATOM      9  C   UNL     1     -14.762  24.098  19.956  1.00  0.00     0.039 C 
ATOM     10  G   UNL     1     -15.846  25.670  18.181  1.00  0.00     0.000 G0
ENDBRANCH   6   7
ENDBRANCH   5   6
ENDBRANCH   3   5
ENDBRANCH   1   3
BRANCH   1  11
ATOM     11  C   UNL     1     -13.894  28.170  16.482  1.00  0.00     0.087 C 
BRANCH  11  12
ATOM     12  C   UNL     1     -15.139  27.289  16.225  1.00  0.00     0.066 C 
BRANCH  12  13
ATOM     13  C   UNL     1     -15.018  25.964  16.963  1.00  0.00     0.140 C 
ATOM     14  O   UNL     1     -14.253  25.106  16.547  1.00  0.00    -0.299 OA
BRANCH  13  15
ATOM     15  C   UNL     1     -15.852  25.666  18.183  1.00  0.00     0.106 CG0
ATOM     16  G   UNL     1     -15.006  25.500  19.432  1.00  0.00     0.000 G0
ENDBRANCH  13  15
ENDBRANCH  12  13
BRANCH  12  17
ATOM     17  C   UNL     1     -15.448  27.060  14.713  1.00  0.00    -0.006 C 
ATOM     18  C   UNL     1     -16.470  28.078  14.183  1.00  0.00     0.008 C 
ATOM     19  C   UNL     1     -14.200  27.055  13.810  1.00  0.00     0.008 C 
ENDBRANCH  12  17
ENDBRANCH  11  12
ENDBRANCH   1  11
TORSDOF 1
ENDMDL
MODEL 3
REMARK VINA RESULT:    -3.090      2.386      4.102
REMARK INTER + INTRA:          -4.931
REMARK INTER:                  -4.667
REMARK INTRA:                  -0.264
REMARK UNBOUND:                -0.216
REMARK SMILES CC1=CCC[C@H](C)C(=O)C[C@@H](C(C)C)C(=O)C1
REMARK SMILES IDX 8 1 9 2 6 3 7 4 5 5 4 6 3 7 2 8 1 9 10 11 11 12 15 13 16 14
REMARK SMILES IDX 17 15 12 17 13 18 14 19
REMARK H PARENT
REMARK Flexibility Score: 70.00
ROOT
ATOM      1  C   UNL     1     -15.631  27.349  18.828  1.00  0.00     0.136 C 
ATOM      2  O   UNL     1     -15.987  26.180  18.766  1.00  0.00    -0.299 OA
ENDROOT
BRANCH   1   3
ATOM      3  C   UNL     1     -14.166  27.704  18.677  1.00  0.00     0.053 C 
ATOM      4  C   UNL     1     -13.892  28.097  17.220  1.00  0.00     0.016 C 
BRANCH   3   5
ATOM      5  C   UNL     1     -13.721  28.838  19.629  1.00  0.00     0.015 C 
BRANCH   5   6
ATOM      6  C   UNL     1     -13.403  30.164  18.914  1.00  0.00     0.028 C 
BRANCH   6   7
ATOM      7  C   UNL     1     -14.218  31.305  19.476  1.00  0.00    -0.028 C 
ATOM      8  C   UNL     1     -15.346  31.811  18.927  1.00  0.00    -0.070 CG0
ATOM      9  C   UNL     1     -16.028  32.952  19.639  1.00  0.00     0.039 C 
ATOM     10  G   UNL     1     -15.947  31.286  17.637  1.00  0.00     0.000 G0
ENDBRANCH   6   7
ENDBRANCH   5   6
ENDBRANCH   3   5
ENDBRANCH   1   3
BRANCH   1  11
ATOM     11  C   UNL     1     -16.657  28.418  19.122  1.00  0.00     0.087 C 
BRANCH  11  12
ATOM     12  C   UNL     1     -17.277  28.993  17.826  1.00  0.00     0.066 C 
BRANCH  12  13
ATOM     13  C   UNL     1     -17.241  30.513  17.845  1.00  0.00     0.140 C 
ATOM     14  O   UNL     1     -18.278  31.143  18.001  1.00  0.00    -0.299 OA
BRANCH  13  15
ATOM     15  C   UNL     1     -15.955  31.271  17.637  1.00  0.00     0.106 CG0
ATOM     16  G   UNL     1     -15.390  31.814  18.937  1.00  0.00     0.000 G0
ENDBRANCH  13  15
ENDBRANCH  12  13
BRANCH  12  17
ATOM     17  C   UNL     1     -18.718  28.471  17.532  1.00  0.00    -0.006 C 
ATOM     18  C   UNL     1     -18.703  27.289  16.549  1.00  0.00     0.008 C 
ATOM     19  C   UNL     1     -19.518  28.093  18.791  1.00  0.00     0.008 C 
ENDBRANCH  12  17
ENDBRANCH  11  12
ENDBRANCH   1  11
TORSDOF 1
ENDMDL
MODEL 4
REMARK VINA RESULT:    -3.070      2.247      2.889
REMARK INTER + INTRA:          -4.900
REMARK INTER:                  -4.714
REMARK INTRA:                  -0.186
REMARK UNBOUND:                -0.216
REMARK SMILES CC1=CCC[C@H](C)C(=O)C[C@@H](C(C)C)C(=O)C1
REMARK SMILES IDX 8 1 9 2 6 3 7 4 5 5 4 6 3 7 2 8 1 9 10 11 11 12 15 13 16 14
REMARK SMILES IDX 17 15 12 17 13 18 14 19
REMARK H PARENT
REMARK Flexibility Score: 70.00
ROOT
ATOM      1  C   UNL     1     -15.108  27.165  18.927  1.00  0.00     0.136 C 
ATOM      2  O   UNL     1     -14.957  26.754  20.069  1.00  0.00    -0.299 OA
ENDROOT
BRANCH   1   3
ATOM      3  C   UNL     1     -14.644  28.559  18.556  1.00  0.00     0.053 C 
ATOM      4  C   UNL     1     -13.189  28.739  19.004  1.00  0.00     0.016 C 
BRANCH   3   5
ATOM      5  C   UNL     1     -14.778  28.855  17.044  1.00  0.00     0.015 C 
BRANCH   5   6
ATOM      6  C   UNL     1     -13.561  28.412  16.212  1.00  0.00     0.028 C 
BRANCH   6   7
ATOM      7  C   UNL     1     -13.956  28.058  14.797  1.00  0.00    -0.028 C 
ATOM      8  C   UNL     1     -14.048  26.805  14.296  1.00  0.00    -0.070 CG0
ATOM      9  C   UNL     1     -14.466  26.650  12.856  1.00  0.00     0.039 C 
ATOM     10  G   UNL     1     -13.749  25.563  15.113  1.00  0.00     0.000 G0
ENDBRANCH   6   7
ENDBRANCH   5   6
ENDBRANCH   3   5
ENDBRANCH   1   3
BRANCH   1  11
ATOM     11  C   UNL     1     -15.819  26.295  17.917  1.00  0.00     0.087 C 
BRANCH  11  12
ATOM     12  C   UNL     1     -14.924  25.132  17.428  1.00  0.00     0.066 C 
BRANCH  12  13
ATOM     13  C   UNL     1     -14.919  25.062  15.909  1.00  0.00     0.140 C 
ATOM     14  O   UNL     1     -15.878  24.581  15.321  1.00  0.00    -0.299 OA
BRANCH  13  15
ATOM     15  C   UNL     1     -13.738  25.542  15.104  1.00  0.00     0.106 CG0
ATOM     16  G   UNL     1     -14.052  26.796  14.311  1.00  0.00     0.000 G0
ENDBRANCH  13  15
ENDBRANCH  12  13
BRANCH  12  17
ATOM     17  C   UNL     1     -15.292  23.749  18.050  1.00  0.00    -0.006 C 
ATOM     18  C   UNL     1     -14.281  23.324  19.127  1.00  0.00     0.008 C 
ATOM     19  C   UNL     1     -16.722  23.677  18.618  1.00  0.00     0.008 C 
ENDBRANCH  12  17
ENDBRANCH  11  12
ENDBRANCH   1  11
TORSDOF 1
ENDMDL
MODEL 5
REMARK VINA RESULT:    -3.060      2.298      4.382
REMARK INTER + INTRA:          -4.886
REMARK INTER:                  -4.872
REMARK INTRA:                  -0.014
REMARK UNBOUND:                -0.216
REMARK SMILES CC1=CCC[C@H](C)C(=O)C[C@@H](C(C)C)C(=O)C1
REMARK SMILES IDX 8 1 9 2 6 3 7 4 5 5 4 6 3 7 2 8 1 9 10 11 11 12 15 13 16 14
REMARK SMILES IDX 17 15 12 17 13 18 14 19
REMARK H PARENT
REMARK Flexibility Score: 70.00
ROOT
ATOM      1  C   UNL     1     -14.021  27.042  15.389  1.00  0.00     0.136 C 
ATOM      2  O   UNL     1     -13.031  27.175  14.684  1.00  0.00    -0.299 OA
ENDROOT
BRANCH   1   3
ATOM      3  C   UNL     1     -14.945  25.858  15.182  1.00  0.00     0.053 C 
ATOM      4  C   UNL     1     -15.301  25.753  13.694  1.00  0.00     0.016 C 
BRANCH   3   5
ATOM      5  C   UNL     1     -14.337  24.527  15.681  1.00  0.00     0.015 C 
BRANCH   5   6
ATOM      6  C   UNL     1     -14.801  24.120  17.092  1.00  0.00     0.028 C 
BRANCH   6   7
ATOM      7  C   UNL     1     -16.282  24.352  17.277  1.00  0.00    -0.028 C 
ATOM      8  C   UNL     1     -16.840  25.219  18.153  1.00  0.00    -0.070 CG0
ATOM      9  C   UNL     1     -18.344  25.317  18.189  1.00  0.00     0.039 C 
ATOM     10  G   UNL     1     -16.023  26.085  19.093  1.00  0.00     0.000 G0
ENDBRANCH   6   7
ENDBRANCH   5   6
ENDBRANCH   3   5
ENDBRANCH   1   3
BRANCH   1  11
ATOM     11  C   UNL     1     -14.344  28.101  16.416  1.00  0.00     0.087 C 
BRANCH  11  12
ATOM     12  C   UNL     1     -14.218  27.560  17.859  1.00  0.00     0.066 C 
BRANCH  12  13
ATOM     13  C   UNL     1     -15.591  27.399  18.492  1.00  0.00     0.140 C 
ATOM     14  O   UNL     1     -16.354  28.354  18.540  1.00  0.00    -0.299 OA
BRANCH  13  15
ATOM     15  C   UNL     1     -16.028  26.090  19.099  1.00  0.00     0.106 CG0
ATOM     16  G   UNL     1     -16.832  25.244  18.130  1.00  0.00     0.000 G0
ENDBRANCH  13  15
ENDBRANCH  12  13
BRANCH  12  17
ATOM     17  C   UNL     1     -13.280  28.411  18.771  1.00  0.00    -0.006 C 
ATOM     18  C   UNL     1     -13.243  29.883  18.330  1.00  0.00     0.008 C 
ATOM     19  C   UNL     1     -13.614  28.323  20.272  1.00  0.00     0.008 C 
ENDBRANCH  12  17
ENDBRANCH  11  12
ENDBRANCH   1  11
TORSDOF 1
ENDMDL
MODEL 6
REMARK VINA RESULT:    -3.036      1.852      2.606
REMARK INTER + INTRA:          -4.849
REMARK INTER:                  -4.684
REMARK INTRA:                  -0.165
REMARK UNBOUND:                -0.216
REMARK SMILES CC1=CCC[C@H](C)C(=O)C[C@@H](C(C)C)C(=O)C1
REMARK SMILES IDX 8 1 9 2 6 3 7 4 5 5 4 6 3 7 2 8 1 9 10 11 11 12 15 13 16 14
REMARK SMILES IDX 17 15 12 17 13 18 14 19
REMARK H PARENT
REMARK Flexibility Score: 70.00
ROOT
ATOM      1  C   UNL     1     -14.971  26.845  19.634  1.00  0.00     0.136 C 
ATOM      2  O   UNL     1     -14.607  25.788  20.131  1.00  0.00    -0.299 OA
ENDROOT
BRANCH   1   3
ATOM      3  C   UNL     1     -14.502  28.160  20.223  1.00  0.00     0.053 C 
ATOM      4  C   UNL     1     -13.093  28.468  19.704  1.00  0.00     0.016 C 
BRANCH   3   5
ATOM      5  C   UNL     1     -15.457  29.335  19.908  1.00  0.00     0.015 C 
BRANCH   5   6
ATOM      6  C   UNL     1     -14.797  30.479  19.116  1.00  0.00     0.028 C 
BRANCH   6   7
ATOM      7  C   UNL     1     -15.751  31.077  18.109  1.00  0.00    -0.028 C 
ATOM      8  C   UNL     1     -15.916  30.654  16.835  1.00  0.00    -0.070 CG0
ATOM      9  C   UNL     1     -16.924  31.375  15.976  1.00  0.00     0.039 C 
ATOM     10  G   UNL     1     -15.136  29.498  16.238  1.00  0.00     0.000 G0
ENDBRANCH   6   7
ENDBRANCH   5   6
ENDBRANCH   3   5
ENDBRANCH   1   3
BRANCH   1  11
ATOM     11  C   UNL     1     -15.941  26.822  18.477  1.00  0.00     0.087 C 
BRANCH  11  12
ATOM     12  C   UNL     1     -15.223  27.019  17.121  1.00  0.00     0.066 C 
BRANCH  12  13
ATOM     13  C   UNL     1     -15.840  28.177  16.352  1.00  0.00     0.140 C 
ATOM     14  O   UNL     1     -16.923  28.033  15.803  1.00  0.00    -0.299 OA
BRANCH  13  15
ATOM     15  C   UNL     1     -15.128  29.499  16.219  1.00  0.00     0.106 CG0
ATOM     16  G   UNL     1     -15.905  30.639  16.851  1.00  0.00     0.000 G0
ENDBRANCH  13  15
ENDBRANCH  12  13
BRANCH  12  17
ATOM     17  C   UNL     1     -15.171  25.730  16.242  1.00  0.00    -0.006 C 
ATOM     18  C   UNL     1     -13.730  25.379  15.836  1.00  0.00     0.008 C 
ATOM     19  C   UNL     1     -15.846  24.504  16.884  1.00  0.00     0.008 C 
ENDBRANCH  12  17
ENDBRANCH  11  12
ENDBRANCH   1  11
TORSDOF 1
ENDMDL
MODEL 7
REMARK VINA RESULT:    -3.028      2.803      4.072
REMARK INTER + INTRA:          -4.836
REMARK INTER:                  -4.988
REMARK INTRA:                   0.152
REMARK UNBOUND:                -0.216
REMARK SMILES CC1=CCC[C@H](C)C(=O)C[C@@H](C(C)C)C(=O)C1
REMARK SMILES IDX 8 1 9 2 6 3 7 4 5 5 4 6 3 7 2 8 1 9 10 11 11 12 15 13 16 14
REMARK SMILES IDX 17 15 12 17 13 18 14 19
REMARK H PARENT
REMARK Flexibility Score: 70.00
ROOT
ATOM      1  C   UNL     1     -13.836  28.752  18.252  1.00  0.00     0.136 C 
ATOM      2  O   UNL     1     -12.734  28.400  18.647  1.00  0.00    -0.299 OA
ENDROOT
BRANCH   1   3
ATOM      3  C   UNL     1     -14.744  29.559  19.159  1.00  0.00     0.053 C 
ATOM      4  C   UNL     1     -14.870  28.842  20.508  1.00  0.00     0.016 C 
BRANCH   3   5
ATOM      5  C   UNL     1     -14.249  31.009  19.368  1.00  0.00     0.015 C 
BRANCH   5   6
ATOM      6  C   UNL     1     -15.195  32.079  18.791  1.00  0.00     0.028 C 
BRANCH   6   7
ATOM      7  C   UNL     1     -16.600  31.550  18.633  1.00  0.00    -0.028 C 
ATOM      8  C   UNL     1     -17.167  31.155  17.470  1.00  0.00    -0.070 CG0
ATOM      9  C   UNL     1     -18.586  30.647  17.512  1.00  0.00     0.039 C 
ATOM     10  G   UNL     1     -16.442  31.203  16.138  1.00  0.00     0.000 G0
ENDBRANCH   6   7
ENDBRANCH   5   6
ENDBRANCH   3   5
ENDBRANCH   1   3
BRANCH   1  11
ATOM     11  C   UNL     1     -14.304  28.317  16.883  1.00  0.00     0.087 C 
BRANCH  11  12
ATOM     12  C   UNL     1     -14.432  29.514  15.911  1.00  0.00     0.066 C 
BRANCH  12  13
ATOM     13  C   UNL     1     -15.894  29.875  15.697  1.00  0.00     0.140 C 
ATOM     14  O   UNL     1     -16.641  29.078  15.147  1.00  0.00    -0.299 OA
BRANCH  13  15
ATOM     15  C   UNL     1     -16.442  31.215  16.116  1.00  0.00     0.106 CG0
ATOM     16  G   UNL     1     -17.175  31.149  17.443  1.00  0.00     0.000 G0
ENDBRANCH  13  15
ENDBRANCH  12  13
BRANCH  12  17
ATOM     17  C   UNL     1     -13.704  29.300  14.548  1.00  0.00    -0.006 C 
ATOM     18  C   UNL     1     -13.643  27.813  14.165  1.00  0.00     0.008 C 
ATOM     19  C   UNL     1     -14.297  30.115  13.384  1.00  0.00     0.008 C 
ENDBRANCH  12  17
ENDBRANCH  11  12
ENDBRANCH   1  11
TORSDOF 1
ENDMDL
MODEL 8
REMARK VINA RESULT:    -2.970      2.537      5.068
REMARK INTER + INTRA:          -4.748
REMARK INTER:                  -4.537
REMARK INTRA:                  -0.211
REMARK UNBOUND:                -0.216
REMARK SMILES CC1=CCC[C@H](C)C(=O)C[C@@H](C(C)C)C(=O)C1
REMARK SMILES IDX 8 1 9 2 6 3 7 4 5 5 4 6 3 7 2 8 1 9 10 11 11 12 15 13 16 14
REMARK SMILES IDX 17 15 12 17 13 18 14 19
REMARK H PARENT
REMARK Flexibility Score: 70.00
ROOT
ATOM      1  C   UNL     1     -17.053  30.359  16.305  1.00  0.00     0.136 C 
ATOM      2  O   UNL     1     -17.648  31.314  15.827  1.00  0.00    -0.299 OA
ENDROOT
BRANCH   1   3
ATOM      3  C   UNL     1     -16.306  29.400  15.400  1.00  0.00     0.053 C 
ATOM      4  C   UNL     1     -17.114  29.192  14.114  1.00  0.00     0.016 C 
BRANCH   3   5
ATOM      5  C   UNL     1     -14.877  29.884  15.061  1.00  0.00     0.015 C 
BRANCH   5   6
ATOM      6  C   UNL     1     -13.763  29.008  15.664  1.00  0.00     0.028 C 
BRANCH   6   7
ATOM      7  C   UNL     1     -14.326  27.773  16.326  1.00  0.00    -0.028 C 
ATOM      8  C   UNL     1     -14.464  27.587  17.658  1.00  0.00    -0.070 CG0
ATOM      9  C   UNL     1     -15.055  26.284  18.133  1.00  0.00     0.039 C 
ATOM     10  G   UNL     1     -14.049  28.624  18.686  1.00  0.00     0.000 G0
ENDBRANCH   6   7
ENDBRANCH   5   6
ENDBRANCH   3   5
ENDBRANCH   1   3
BRANCH   1  11
ATOM     11  C   UNL     1     -17.129  30.113  17.794  1.00  0.00     0.087 C 
BRANCH  11  12
ATOM     12  C   UNL     1     -15.836  30.556  18.517  1.00  0.00     0.066 C 
BRANCH  12  13
ATOM     13  C   UNL     1     -15.210  29.385  19.259  1.00  0.00     0.140 C 
ATOM     14  O   UNL     1     -15.644  29.059  20.355  1.00  0.00    -0.299 OA
BRANCH  13  15
ATOM     15  C   UNL     1     -14.034  28.632  18.690  1.00  0.00     0.106 CG0
ATOM     16  G   UNL     1     -14.454  27.602  17.658  1.00  0.00     0.000 G0
ENDBRANCH  13  15
ENDBRANCH  12  13
BRANCH  12  17
ATOM     17  C   UNL     1     -16.032  31.778  19.467  1.00  0.00    -0.006 C 
ATOM     18  C   UNL     1     -14.702  32.495  19.750  1.00  0.00     0.008 C 
ATOM     19  C   UNL     1     -17.078  32.795  18.974  1.00  0.00     0.008 C 
ENDBRANCH  12  17
ENDBRANCH  11  12
ENDBRANCH   1  11
TORSDOF 1
ENDMDL
MODEL 9
REMARK VINA RESULT:    -2.882      2.607      3.636
REMARK INTER + INTRA:          -4.614
REMARK INTER:                  -4.341
REMARK INTRA:                  -0.273
REMARK UNBOUND:                -0.216
REMARK SMILES CC1=CCC[C@H](C)C(=O)C[C@@H](C(C)C)C(=O)C1
REMARK SMILES IDX 8 1 9 2 6 3 7 4 5 5 4 6 3 7 2 8 1 9 10 11 11 12 15 13 16 14
REMARK SMILES IDX 17 15 12 17 13 18 14 19
REMARK H PARENT
REMARK Flexibility Score: 70.00
ROOT
ATOM      1  C   UNL     1     -15.706  31.719  19.331  1.00  0.00     0.136 C 
ATOM      2  O   UNL     1     -14.590  32.088  19.671  1.00  0.00    -0.299 OA
ENDROOT
BRANCH   1   3
ATOM      3  C   UNL     1     -16.704  32.724  18.792  1.00  0.00     0.053 C 
ATOM      4  C   UNL     1     -16.704  33.965  19.692  1.00  0.00     0.016 C 
BRANCH   3   5
ATOM      5  C   UNL     1     -16.419  33.127  17.326  1.00  0.00     0.015 C 
BRANCH   5   6
ATOM      6  C   UNL     1     -17.167  32.270  16.288  1.00  0.00     0.028 C 
BRANCH   6   7
ATOM      7  C   UNL     1     -18.493  31.784  16.822  1.00  0.00    -0.028 C 
ATOM      8  C   UNL     1     -18.858  30.489  16.964  1.00  0.00    -0.070 CG0
ATOM      9  C   UNL     1     -20.228  30.198  17.523  1.00  0.00     0.039 C 
ATOM     10  G   UNL     1     -17.957  29.330  16.583  1.00  0.00     0.000 G0
ENDBRANCH   6   7
ENDBRANCH   5   6
ENDBRANCH   3   5
ENDBRANCH   1   3
BRANCH   1  11
ATOM     11  C   UNL     1     -16.094  30.272  19.519  1.00  0.00     0.087 C 
BRANCH  11  12
ATOM     12  C   UNL     1     -15.875  29.446  18.230  1.00  0.00     0.066 C 
BRANCH  12  13
ATOM     13  C   UNL     1     -17.176  28.798  17.782  1.00  0.00     0.140 C 
ATOM     14  O   UNL     1     -17.602  27.817  18.375  1.00  0.00    -0.299 OA
BRANCH  13  15
ATOM     15  C   UNL     1     -17.944  29.318  16.593  1.00  0.00     0.106 CG0
ATOM     16  G   UNL     1     -18.849  30.481  16.954  1.00  0.00     0.000 G0
ENDBRANCH  13  15
ENDBRANCH  12  13
BRANCH  12  17
ATOM     17  C   UNL     1     -14.735  28.386  18.346  1.00  0.00    -0.006 C 
ATOM     18  C   UNL     1     -13.407  28.920  17.785  1.00  0.00     0.008 C 
ATOM     19  C   UNL     1     -14.521  27.848  19.772  1.00  0.00     0.008 C 
ENDBRANCH  12  17
ENDBRANCH  11  12
ENDBRANCH   1  11
TORSDOF 1
ENDMDL
