MODEL 1
REMARK VINA RESULT:    -5.187      0.000      0.000
REMARK INTER + INTRA:          -6.264
REMARK INTER:                  -5.945
REMARK INTRA:                  -0.320
REMARK UNBOUND:                -0.320
REMARK SMILES COc1ccc(C(C)=O)c(O)c1
REMARK SMILES IDX 6 1 10 2 12 3 3 4 4 5 5 6 7 7 8 8 9 9 11 10 2 12 1 13
REMARK H PARENT 11 11
REMARK Flexibility Score: inf
ROOT
ATOM      1  C   UNL     1      19.286 -11.627  68.558  1.00  0.00     0.059 A 
ATOM      2  C   UNL     1      19.323 -10.216  68.655  1.00  0.00     0.130 A 
ATOM      3  C   UNL     1      19.144  -9.427  67.509  1.00  0.00     0.093 A 
ATOM      4  C   UNL     1      18.931 -10.014  66.259  1.00  0.00     0.122 A 
ATOM      5  C   UNL     1      18.898 -11.414  66.157  1.00  0.00     0.047 A 
ATOM      6  C   UNL     1      19.073 -12.209  67.292  1.00  0.00     0.019 A 
ENDROOT
BRANCH   1   7
ATOM      7  C   UNL     1      19.463 -12.490  69.761  1.00  0.00     0.163 C 
ATOM      8  C   UNL     1      18.341 -13.323  70.306  1.00  0.00     0.093 C 
ATOM      9  O   UNL     1      20.568 -12.513  70.367  1.00  0.00    -0.294 OA
ENDBRANCH   1   7
BRANCH   2  10
ATOM     10  O   UNL     1      19.548  -9.593  69.883  1.00  0.00    -0.507 OA
ATOM     11  H   UNL     1      19.888  -8.640  69.943  1.00  0.00     0.293 HD
ENDBRANCH   2  10
BRANCH   4  12
ATOM     12  O   UNL     1      18.760  -9.174  65.148  1.00  0.00    -0.497 OA
ATOM     13  C   UNL     1      18.571  -9.632  63.814  1.00  0.00     0.278 C 
ENDBRANCH   4  12
TORSDOF 3
ENDMDL
MODEL 2
REMARK VINA RESULT:    -5.119      1.366      1.366
REMARK INTER + INTRA:          -6.187
REMARK INTER:                  -5.856
REMARK INTRA:                  -0.331
REMARK UNBOUND:                -0.320
REMARK SMILES COc1ccc(C(C)=O)c(O)c1
REMARK SMILES IDX 6 1 10 2 12 3 3 4 4 5 5 6 7 7 8 8 9 9 11 10 2 12 1 13
REMARK H PARENT 11 11
REMARK Flexibility Score: inf
ROOT
ATOM      1  C   UNL     1      18.589 -11.689  68.522  1.00  0.00     0.059 A 
ATOM      2  C   UNL     1      18.742 -10.291  68.366  1.00  0.00     0.130 A 
ATOM      3  C   UNL     1      18.123  -9.631  67.295  1.00  0.00     0.093 A 
ATOM      4  C   UNL     1      17.351 -10.334  66.366  1.00  0.00     0.122 A 
ATOM      5  C   UNL     1      17.199 -11.722  66.515  1.00  0.00     0.047 A 
ATOM      6  C   UNL     1      17.810 -12.390  67.580  1.00  0.00     0.019 A 
ENDROOT
BRANCH   1   7
ATOM      7  C   UNL     1      19.227 -12.415  69.657  1.00  0.00     0.163 C 
ATOM      8  C   UNL     1      18.498 -13.480  70.423  1.00  0.00     0.093 C 
ATOM      9  O   UNL     1      20.399 -12.123  70.017  1.00  0.00    -0.294 OA
ENDBRANCH   1   7
BRANCH   2  10
ATOM     10  O   UNL     1      19.517  -9.556  69.263  1.00  0.00    -0.507 OA
ATOM     11  H   UNL     1      19.405  -8.554  69.369  1.00  0.00     0.293 HD
ENDBRANCH   2  10
BRANCH   4  12
ATOM     12  O   UNL     1      16.757  -9.621  65.315  1.00  0.00    -0.497 OA
ATOM     13  C   UNL     1      15.875 -10.190  64.353  1.00  0.00     0.278 C 
ENDBRANCH   4  12
TORSDOF 3
ENDMDL
MODEL 3
REMARK VINA RESULT:    -5.035      1.677      2.430
REMARK INTER + INTRA:          -6.091
REMARK INTER:                  -5.927
REMARK INTRA:                  -0.164
REMARK UNBOUND:                -0.320
REMARK SMILES COc1ccc(C(C)=O)c(O)c1
REMARK SMILES IDX 6 1 10 2 12 3 3 4 4 5 5 6 7 7 8 8 9 9 11 10 2 12 1 13
REMARK H PARENT 11 11
REMARK Flexibility Score: inf
ROOT
ATOM      1  C   UNL     1      18.937 -10.189  67.611  1.00  0.00     0.059 A 
ATOM      2  C   UNL     1      19.790  -9.798  66.553  1.00  0.00     0.130 A 
ATOM      3  C   UNL     1      19.259  -9.532  65.283  1.00  0.00     0.093 A 
ATOM      4  C   UNL     1      17.888  -9.650  65.038  1.00  0.00     0.122 A 
ATOM      5  C   UNL     1      17.038 -10.041  66.085  1.00  0.00     0.047 A 
ATOM      6  C   UNL     1      17.557 -10.306  67.354  1.00  0.00     0.019 A 
ENDROOT
BRANCH   1   7
ATOM      7  C   UNL     1      19.473 -10.469  68.975  1.00  0.00     0.163 C 
ATOM      8  C   UNL     1      20.046 -11.807  69.338  1.00  0.00     0.093 C 
ATOM      9  O   UNL     1      19.427  -9.580  69.868  1.00  0.00    -0.294 OA
ENDBRANCH   1   7
BRANCH   2  10
ATOM     10  O   UNL     1      21.167  -9.685  66.754  1.00  0.00    -0.507 OA
ATOM     11  H   UNL     1      21.605  -9.974  67.621  1.00  0.00     0.293 HD
ENDBRANCH   2  10
BRANCH   4  12
ATOM     12  O   UNL     1      17.415  -9.371  63.747  1.00  0.00    -0.497 OA
ATOM     13  C   UNL     1      16.122  -8.849  63.459  1.00  0.00     0.278 C 
ENDBRANCH   4  12
TORSDOF 3
ENDMDL
MODEL 4
REMARK VINA RESULT:    -4.930      2.230      4.966
REMARK INTER + INTRA:          -5.970
REMARK INTER:                  -5.627
REMARK INTRA:                  -0.343
REMARK UNBOUND:                -0.320
REMARK SMILES COc1ccc(C(C)=O)c(O)c1
REMARK SMILES IDX 6 1 10 2 12 3 3 4 4 5 5 6 7 7 8 8 9 9 11 10 2 12 1 13
REMARK H PARENT 11 11
REMARK Flexibility Score: inf
ROOT
ATOM      1  C   UNL     1      17.379 -10.957  66.639  1.00  0.00     0.059 A 
ATOM      2  C   UNL     1      17.826 -12.261  66.955  1.00  0.00     0.130 A 
ATOM      3  C   UNL     1      18.738 -12.457  68.003  1.00  0.00     0.093 A 
ATOM      4  C   UNL     1      19.221 -11.377  68.747  1.00  0.00     0.122 A 
ATOM      5  C   UNL     1      18.782 -10.081  68.434  1.00  0.00     0.047 A 
ATOM      6  C   UNL     1      17.873  -9.874  67.394  1.00  0.00     0.019 A 
ENDROOT
BRANCH   1   7
ATOM      7  C   UNL     1      16.403 -10.720  65.537  1.00  0.00     0.163 C 
ATOM      8  C   UNL     1      16.607  -9.634  64.521  1.00  0.00     0.093 C 
ATOM      9  O   UNL     1      15.358 -11.420  65.455  1.00  0.00    -0.294 OA
ENDBRANCH   1   7
BRANCH   2  10
ATOM     10  O   UNL     1      17.379 -13.363  66.226  1.00  0.00    -0.507 OA
ATOM     11  H   UNL     1      17.391 -13.372  65.213  1.00  0.00     0.293 HD
ENDBRANCH   2  10
BRANCH   4  12
ATOM     12  O   UNL     1      20.131 -11.634  69.783  1.00  0.00    -0.497 OA
ATOM     13  C   UNL     1      20.896 -12.829  69.905  1.00  0.00     0.278 C 
ENDBRANCH   4  12
TORSDOF 3
ENDMDL
MODEL 5
REMARK VINA RESULT:    -4.843      2.218      5.345
REMARK INTER + INTRA:          -5.871
REMARK INTER:                  -5.541
REMARK INTRA:                  -0.329
REMARK UNBOUND:                -0.320
REMARK SMILES COc1ccc(C(C)=O)c(O)c1
REMARK SMILES IDX 6 1 10 2 12 3 3 4 4 5 5 6 7 7 8 8 9 9 11 10 2 12 1 13
REMARK H PARENT 11 11
REMARK Flexibility Score: inf
ROOT
ATOM      1  C   UNL     1      17.302 -10.653  64.440  1.00  0.00     0.059 A 
ATOM      2  C   UNL     1      18.603 -10.098  64.440  1.00  0.00     0.130 A 
ATOM      3  C   UNL     1      19.186  -9.672  65.642  1.00  0.00     0.093 A 
ATOM      4  C   UNL     1      18.497  -9.783  66.854  1.00  0.00     0.122 A 
ATOM      5  C   UNL     1      17.204 -10.329  66.857  1.00  0.00     0.047 A 
ATOM      6  C   UNL     1      16.615 -10.759  65.666  1.00  0.00     0.019 A 
ENDROOT
BRANCH   1   7
ATOM      7  C   UNL     1      16.662 -11.123  63.178  1.00  0.00     0.163 C 
ATOM      8  C   UNL     1      15.352 -10.568  62.702  1.00  0.00     0.093 C 
ATOM      9  O   UNL     1      17.205 -12.031  62.492  1.00  0.00    -0.294 OA
ENDBRANCH   1   7
BRANCH   2  10
ATOM     10  O   UNL     1      19.317  -9.957  63.250  1.00  0.00    -0.507 OA
ATOM     11  H   UNL     1      20.042 -10.612  62.982  1.00  0.00     0.293 HD
ENDBRANCH   2  10
BRANCH   4  12
ATOM     12  O   UNL     1      19.130  -9.339  68.024  1.00  0.00    -0.497 OA
ATOM     13  C   UNL     1      19.325 -10.137  69.187  1.00  0.00     0.278 C 
ENDBRANCH   4  12
TORSDOF 3
ENDMDL
MODEL 6
REMARK VINA RESULT:    -4.800      2.041      2.558
REMARK INTER + INTRA:          -5.821
REMARK INTER:                  -5.486
REMARK INTRA:                  -0.335
REMARK UNBOUND:                -0.320
REMARK SMILES COc1ccc(C(C)=O)c(O)c1
REMARK SMILES IDX 6 1 10 2 12 3 3 4 4 5 5 6 7 7 8 8 9 9 11 10 2 12 1 13
REMARK H PARENT 11 11
REMARK Flexibility Score: inf
ROOT
ATOM      1  C   UNL     1      18.772 -12.007  68.766  1.00  0.00     0.059 A 
ATOM      2  C   UNL     1      17.558 -12.502  68.235  1.00  0.00     0.130 A 
ATOM      3  C   UNL     1      16.888 -11.790  67.230  1.00  0.00     0.093 A 
ATOM      4  C   UNL     1      17.401 -10.586  66.738  1.00  0.00     0.122 A 
ATOM      5  C   UNL     1      18.604 -10.090  67.264  1.00  0.00     0.047 A 
ATOM      6  C   UNL     1      19.280 -10.793  68.265  1.00  0.00     0.019 A 
ENDROOT
BRANCH   1   7
ATOM      7  C   UNL     1      19.510 -12.748  69.829  1.00  0.00     0.163 C 
ATOM      8  C   UNL     1      20.997 -12.944  69.767  1.00  0.00     0.093 C 
ATOM      9  O   UNL     1      18.885 -13.255  70.799  1.00  0.00    -0.294 OA
ENDBRANCH   1   7
BRANCH   2  10
ATOM     10  O   UNL     1      17.005 -13.691  68.711  1.00  0.00    -0.507 OA
ATOM     11  H   UNL     1      17.522 -14.311  69.325  1.00  0.00     0.293 HD
ENDBRANCH   2  10
BRANCH   4  12
ATOM     12  O   UNL     1      16.687  -9.918  65.732  1.00  0.00    -0.497 OA
ATOM     13  C   UNL     1      15.892 -10.565  64.744  1.00  0.00     0.278 C 
ENDBRANCH   4  12
TORSDOF 3
ENDMDL
MODEL 7
REMARK VINA RESULT:    -4.794      4.944      7.165
REMARK INTER + INTRA:          -5.814
REMARK INTER:                  -5.496
REMARK INTRA:                  -0.318
REMARK UNBOUND:                -0.320
REMARK SMILES COc1ccc(C(C)=O)c(O)c1
REMARK SMILES IDX 6 1 10 2 12 3 3 4 4 5 5 6 7 7 8 8 9 9 11 10 2 12 1 13
REMARK H PARENT 11 11
REMARK Flexibility Score: inf
ROOT
ATOM      1  C   UNL     1      13.788 -11.130  63.717  1.00  0.00     0.059 A 
ATOM      2  C   UNL     1      14.177 -11.891  64.844  1.00  0.00     0.130 A 
ATOM      3  C   UNL     1      15.346 -11.562  65.545  1.00  0.00     0.093 A 
ATOM      4  C   UNL     1      16.146 -10.489  65.145  1.00  0.00     0.122 A 
ATOM      5  C   UNL     1      15.766  -9.733  64.024  1.00  0.00     0.047 A 
ATOM      6  C   UNL     1      14.602 -10.051  63.320  1.00  0.00     0.019 A 
ENDROOT
BRANCH   1   7
ATOM      7  C   UNL     1      12.544 -11.451  62.959  1.00  0.00     0.163 C 
ATOM      8  C   UNL     1      12.456 -11.266  61.472  1.00  0.00     0.093 C 
ATOM      9  O   UNL     1      11.520 -11.862  63.567  1.00  0.00    -0.294 OA
ENDBRANCH   1   7
BRANCH   2  10
ATOM     10  O   UNL     1      13.413 -12.979  65.266  1.00  0.00    -0.507 OA
ATOM     11  H   UNL     1      12.464 -12.866  65.604  1.00  0.00     0.293 HD
ENDBRANCH   2  10
BRANCH   4  12
ATOM     12  O   UNL     1      17.305 -10.208  65.884  1.00  0.00    -0.497 OA
ATOM     13  C   UNL     1      17.335 -10.022  67.295  1.00  0.00     0.278 C 
ENDBRANCH   4  12
TORSDOF 3
ENDMDL
MODEL 8
REMARK VINA RESULT:    -4.788      1.331      4.772
REMARK INTER + INTRA:          -5.807
REMARK INTER:                  -5.476
REMARK INTRA:                  -0.331
REMARK UNBOUND:                -0.320
REMARK SMILES COc1ccc(C(C)=O)c(O)c1
REMARK SMILES IDX 6 1 10 2 12 3 3 4 4 5 5 6 7 7 8 8 9 9 11 10 2 12 1 13
REMARK H PARENT 11 11
REMARK Flexibility Score: inf
ROOT
ATOM      1  C   UNL     1      18.589 -10.505  65.847  1.00  0.00     0.059 A 
ATOM      2  C   UNL     1      19.641 -10.092  66.699  1.00  0.00     0.130 A 
ATOM      3  C   UNL     1      19.719 -10.585  68.009  1.00  0.00     0.093 A 
ATOM      4  C   UNL     1      18.768 -11.484  68.497  1.00  0.00     0.122 A 
ATOM      5  C   UNL     1      17.720 -11.894  67.657  1.00  0.00     0.047 A 
ATOM      6  C   UNL     1      17.633 -11.411  66.349  1.00  0.00     0.019 A 
ENDROOT
BRANCH   1   7
ATOM      7  C   UNL     1      18.486 -10.004  64.446  1.00  0.00     0.163 C 
ATOM      8  C   UNL     1      17.267  -9.281  63.954  1.00  0.00     0.093 C 
ATOM      9  O   UNL     1      19.424 -10.209  63.630  1.00  0.00    -0.294 OA
ENDBRANCH   1   7
BRANCH   2  10
ATOM     10  O   UNL     1      20.602  -9.184  66.253  1.00  0.00    -0.507 OA
ATOM     11  H   UNL     1      20.452  -8.182  66.300  1.00  0.00     0.293 HD
ENDBRANCH   2  10
BRANCH   4  12
ATOM     12  O   UNL     1      18.898 -11.943  69.816  1.00  0.00    -0.497 OA
ATOM     13  C   UNL     1      18.680 -13.289  70.226  1.00  0.00     0.278 C 
ENDBRANCH   4  12
TORSDOF 3
ENDMDL
MODEL 9
REMARK VINA RESULT:    -4.686      1.618      4.465
REMARK INTER + INTRA:          -5.691
REMARK INTER:                  -5.397
REMARK INTRA:                  -0.294
REMARK UNBOUND:                -0.320
REMARK SMILES COc1ccc(C(C)=O)c(O)c1
REMARK SMILES IDX 6 1 10 2 12 3 3 4 4 5 5 6 7 7 8 8 9 9 11 10 2 12 1 13
REMARK H PARENT 11 11
REMARK Flexibility Score: inf
ROOT
ATOM      1  C   UNL     1      18.046 -11.032  67.023  1.00  0.00     0.059 A 
ATOM      2  C   UNL     1      18.999 -10.201  67.655  1.00  0.00     0.130 A 
ATOM      3  C   UNL     1      19.785 -10.704  68.702  1.00  0.00     0.093 A 
ATOM      4  C   UNL     1      19.641 -12.023  69.141  1.00  0.00     0.122 A 
ATOM      5  C   UNL     1      18.692 -12.850  68.518  1.00  0.00     0.047 A 
ATOM      6  C   UNL     1      17.906 -12.360  67.472  1.00  0.00     0.019 A 
ENDROOT
BRANCH   1   7
ATOM      7  C   UNL     1      17.203 -10.528  65.900  1.00  0.00     0.163 C 
ATOM      8  C   UNL     1      15.852 -11.110  65.603  1.00  0.00     0.093 C 
ATOM      9  O   UNL     1      17.630  -9.608  65.152  1.00  0.00    -0.294 OA
ENDBRANCH   1   7
BRANCH   2  10
ATOM     10  O   UNL     1      19.163  -8.874  67.257  1.00  0.00    -0.507 OA
ATOM     11  H   UNL     1      18.400  -8.208  67.295  1.00  0.00     0.293 HD
ENDBRANCH   2  10
BRANCH   4  12
ATOM     12  O   UNL     1      20.454 -12.469  70.193  1.00  0.00    -0.497 OA
ATOM     13  C   UNL     1      21.732 -13.073  70.022  1.00  0.00     0.278 C 
ENDBRANCH   4  12
TORSDOF 3
ENDMDL
