MODEL 1
REMARK VINA RESULT:    -2.924      0.000      0.000
REMARK INTER + INTRA:          -3.507
REMARK INTER:                  -3.437
REMARK INTRA:                  -0.069
REMARK UNBOUND:                -0.069
REMARK SMILES CCCCC(=O)[O-]
REMARK SMILES IDX 4 1 5 2 6 3 7 4 3 5 2 6 1 7
REMARK H PARENT
REMARK Flexibility Score: inf
ROOT
ATOM      1  C   UNL     1    -112.743  12.020  24.903  1.00  0.00     0.053 C 
ENDROOT
BRANCH   1   2
ATOM      2  C   UNL     1    -112.134  10.701  24.535  1.00  0.00     0.041 C 
ATOM      3  O   UNL     1    -111.620  10.537  23.398  1.00  0.00    -0.550 OA
ATOM      4  O   UNL     1    -112.106   9.665  25.460  1.00  0.00    -0.550 OA
ENDBRANCH   1   2
BRANCH   1   5
ATOM      5  C   UNL     1    -114.241  11.892  25.207  1.00  0.00     0.006 C 
BRANCH   5   6
ATOM      6  C   UNL     1    -115.081  11.734  23.931  1.00  0.00    -0.003 C 
ATOM      7  C   UNL     1    -116.143  12.825  23.833  1.00  0.00     0.004 C 
ENDBRANCH   5   6
ENDBRANCH   1   5
TORSDOF 3
ENDMDL
MODEL 2
REMARK VINA RESULT:    -2.896      1.278      1.612
REMARK INTER + INTRA:          -3.473
REMARK INTER:                  -3.449
REMARK INTRA:                  -0.024
REMARK UNBOUND:                -0.069
REMARK SMILES CCCCC(=O)[O-]
REMARK SMILES IDX 4 1 5 2 6 3 7 4 3 5 2 6 1 7
REMARK H PARENT
REMARK Flexibility Score: inf
ROOT
ATOM      1  C   UNL     1    -114.473  11.339  24.984  1.00  0.00     0.053 C 
ENDROOT
BRANCH   1   2
ATOM      2  C   UNL     1    -112.979  11.419  25.070  1.00  0.00     0.041 C 
ATOM      3  O   UNL     1    -112.395  12.525  24.924  1.00  0.00    -0.550 OA
ATOM      4  O   UNL     1    -112.235  10.279  25.343  1.00  0.00    -0.550 OA
ENDBRANCH   1   2
BRANCH   1   5
ATOM      5  C   UNL     1    -115.083  12.635  24.435  1.00  0.00     0.006 C 
BRANCH   5   6
ATOM      6  C   UNL     1    -116.355  12.377  23.615  1.00  0.00    -0.003 C 
ATOM      7  C   UNL     1    -117.315  13.560  23.702  1.00  0.00     0.004 C 
ENDBRANCH   5   6
ENDBRANCH   1   5
TORSDOF 3
ENDMDL
MODEL 3
REMARK VINA RESULT:    -2.879      1.246      1.816
REMARK INTER + INTRA:          -3.454
REMARK INTER:                  -3.431
REMARK INTRA:                  -0.023
REMARK UNBOUND:                -0.069
REMARK SMILES CCCCC(=O)[O-]
REMARK SMILES IDX 4 1 5 2 6 3 7 4 3 5 2 6 1 7
REMARK H PARENT
REMARK Flexibility Score: inf
ROOT
ATOM      1  C   UNL     1    -114.435  11.394  25.200  1.00  0.00     0.053 C 
ENDROOT
BRANCH   1   2
ATOM      2  C   UNL     1    -112.940  11.414  25.100  1.00  0.00     0.041 C 
ATOM      3  O   UNL     1    -112.278  10.363  25.306  1.00  0.00    -0.550 OA
ATOM      4  O   UNL     1    -112.280  12.584  24.747  1.00  0.00    -0.550 OA
ENDBRANCH   1   2
BRANCH   1   5
ATOM      5  C   UNL     1    -115.071  12.579  24.462  1.00  0.00     0.006 C 
BRANCH   5   6
ATOM      6  C   UNL     1    -116.297  12.160  23.638  1.00  0.00    -0.003 C 
ATOM      7  C   UNL     1    -117.237  13.340  23.411  1.00  0.00     0.004 C 
ENDBRANCH   5   6
ENDBRANCH   1   5
TORSDOF 3
ENDMDL
MODEL 4
REMARK VINA RESULT:    -2.847     17.881     18.078
REMARK INTER + INTRA:          -3.416
REMARK INTER:                  -3.316
REMARK INTRA:                  -0.100
REMARK UNBOUND:                -0.069
REMARK SMILES CCCCC(=O)[O-]
REMARK SMILES IDX 4 1 5 2 6 3 7 4 3 5 2 6 1 7
REMARK H PARENT
REMARK Flexibility Score: inf
ROOT
ATOM      1  C   UNL     1    -100.278  20.529  32.119  1.00  0.00     0.053 C 
ENDROOT
BRANCH   1   2
ATOM      2  C   UNL     1    -100.618  20.062  33.503  1.00  0.00     0.041 C 
ATOM      3  O   UNL     1     -99.875  19.232  34.090  1.00  0.00    -0.550 OA
ATOM      4  O   UNL     1    -101.735  20.568  34.154  1.00  0.00    -0.550 OA
ENDBRANCH   1   2
BRANCH   1   5
ATOM      5  C   UNL     1    -100.201  22.059  32.037  1.00  0.00     0.006 C 
BRANCH   5   6
ATOM      6  C   UNL     1    -101.270  22.645  31.104  1.00  0.00    -0.003 C 
ATOM      7  C   UNL     1    -102.309  23.441  31.889  1.00  0.00     0.004 C 
ENDBRANCH   5   6
ENDBRANCH   1   5
TORSDOF 3
ENDMDL
MODEL 5
REMARK VINA RESULT:    -2.802      9.898     11.078
REMARK INTER + INTRA:          -3.363
REMARK INTER:                  -3.301
REMARK INTRA:                  -0.062
REMARK UNBOUND:                -0.069
REMARK SMILES CCCCC(=O)[O-]
REMARK SMILES IDX 4 1 5 2 6 3 7 4 3 5 2 6 1 7
REMARK H PARENT
REMARK Flexibility Score: inf
ROOT
ATOM      1  C   UNL     1    -101.877  11.775  22.633  1.00  0.00     0.053 C 
ENDROOT
BRANCH   1   2
ATOM      2  C   UNL     1    -102.520  10.905  21.596  1.00  0.00     0.041 C 
ATOM      3  O   UNL     1    -102.127  10.948  20.401  1.00  0.00    -0.550 OA
ATOM      4  O   UNL     1    -103.531  10.023  21.957  1.00  0.00    -0.550 OA
ENDBRANCH   1   2
BRANCH   1   5
ATOM      5  C   UNL     1    -102.141  11.261  24.053  1.00  0.00     0.006 C 
BRANCH   5   6
ATOM      6  C   UNL     1    -102.967  12.252  24.886  1.00  0.00    -0.003 C 
ATOM      7  C   UNL     1    -103.981  11.523  25.763  1.00  0.00     0.004 C 
ENDBRANCH   5   6
ENDBRANCH   1   5
TORSDOF 3
ENDMDL
MODEL 6
REMARK VINA RESULT:    -2.798     17.993     18.323
REMARK INTER + INTRA:          -3.359
REMARK INTER:                  -3.260
REMARK INTRA:                  -0.098
REMARK UNBOUND:                -0.069
REMARK SMILES CCCCC(=O)[O-]
REMARK SMILES IDX 4 1 5 2 6 3 7 4 3 5 2 6 1 7
REMARK H PARENT
REMARK Flexibility Score: inf
ROOT
ATOM      1  C   UNL     1    -101.260  22.799  31.134  1.00  0.00     0.053 C 
ENDROOT
BRANCH   1   2
ATOM      2  C   UNL     1    -102.353  23.319  32.018  1.00  0.00     0.041 C 
ATOM      3  O   UNL     1    -103.209  24.122  31.560  1.00  0.00    -0.550 OA
ATOM      4  O   UNL     1    -102.446  22.893  33.336  1.00  0.00    -0.550 OA
ENDBRANCH   1   2
BRANCH   1   5
ATOM      5  C   UNL     1    -100.148  22.121  31.943  1.00  0.00     0.006 C 
BRANCH   5   6
ATOM      6  C   UNL     1    -100.159  20.594  31.779  1.00  0.00    -0.003 C 
ATOM      7  C   UNL     1    -100.261  19.896  33.133  1.00  0.00     0.004 C 
ENDBRANCH   5   6
ENDBRANCH   1   5
TORSDOF 3
ENDMDL
MODEL 7
REMARK VINA RESULT:    -2.797      4.293      5.503
REMARK INTER + INTRA:          -3.357
REMARK INTER:                  -3.336
REMARK INTRA:                  -0.021
REMARK UNBOUND:                -0.069
REMARK SMILES CCCCC(=O)[O-]
REMARK SMILES IDX 4 1 5 2 6 3 7 4 3 5 2 6 1 7
REMARK H PARENT
REMARK Flexibility Score: inf
ROOT
ATOM      1  C   UNL     1    -117.146  13.004  23.729  1.00  0.00     0.053 C 
ENDROOT
BRANCH   1   2
ATOM      2  C   UNL     1    -117.670  14.403  23.611  1.00  0.00     0.041 C 
ATOM      3  O   UNL     1    -117.335  15.277  24.453  1.00  0.00    -0.550 OA
ATOM      4  O   UNL     1    -118.502  14.749  22.553  1.00  0.00    -0.550 OA
ENDBRANCH   1   2
BRANCH   1   5
ATOM      5  C   UNL     1    -115.665  12.982  24.129  1.00  0.00     0.006 C 
BRANCH   5   6
ATOM      6  C   UNL     1    -115.210  11.592  24.596  1.00  0.00    -0.003 C 
ATOM      7  C   UNL     1    -113.881  11.669  25.341  1.00  0.00     0.004 C 
ENDBRANCH   5   6
ENDBRANCH   1   5
TORSDOF 3
ENDMDL
MODEL 8
REMARK VINA RESULT:    -2.720      2.133      3.197
REMARK INTER + INTRA:          -3.267
REMARK INTER:                  -3.218
REMARK INTRA:                  -0.049
REMARK UNBOUND:                -0.069
REMARK SMILES CCCCC(=O)[O-]
REMARK SMILES IDX 4 1 5 2 6 3 7 4 3 5 2 6 1 7
REMARK H PARENT
REMARK Flexibility Score: inf
ROOT
ATOM      1  C   UNL     1    -115.544  13.010  24.173  1.00  0.00     0.053 C 
ENDROOT
BRANCH   1   2
ATOM      2  C   UNL     1    -114.866  11.852  24.840  1.00  0.00     0.041 C 
ATOM      3  O   UNL     1    -115.514  10.805  25.103  1.00  0.00    -0.550 OA
ATOM      4  O   UNL     1    -113.511  11.916  25.140  1.00  0.00    -0.550 OA
ENDBRANCH   1   2
BRANCH   1   5
ATOM      5  C   UNL     1    -116.768  12.564  23.363  1.00  0.00     0.006 C 
BRANCH   5   6
ATOM      6  C   UNL     1    -117.799  13.690  23.202  1.00  0.00    -0.003 C 
ATOM      7  C   UNL     1    -117.533  14.826  24.185  1.00  0.00     0.004 C 
ENDBRANCH   5   6
ENDBRANCH   1   5
TORSDOF 3
ENDMDL
MODEL 9
REMARK VINA RESULT:    -2.719      2.613      3.853
REMARK INTER + INTRA:          -3.265
REMARK INTER:                  -3.176
REMARK INTRA:                  -0.089
REMARK UNBOUND:                -0.069
REMARK SMILES CCCCC(=O)[O-]
REMARK SMILES IDX 4 1 5 2 6 3 7 4 3 5 2 6 1 7
REMARK H PARENT
REMARK Flexibility Score: inf
ROOT
ATOM      1  C   UNL     1    -115.123  12.448  24.469  1.00  0.00     0.053 C 
ENDROOT
BRANCH   1   2
ATOM      2  C   UNL     1    -115.981  11.516  23.668  1.00  0.00     0.041 C 
ATOM      3  O   UNL     1    -117.099  11.146  24.114  1.00  0.00    -0.550 OA
ATOM      4  O   UNL     1    -115.561  11.083  22.417  1.00  0.00    -0.550 OA
ENDBRANCH   1   2
BRANCH   1   5
ATOM      5  C   UNL     1    -114.084  11.690  25.305  1.00  0.00     0.006 C 
BRANCH   5   6
ATOM      6  C   UNL     1    -112.646  11.994  24.861  1.00  0.00    -0.003 C 
ATOM      7  C   UNL     1    -112.064  10.837  24.053  1.00  0.00     0.004 C 
ENDBRANCH   5   6
ENDBRANCH   1   5
TORSDOF 3
ENDMDL
