MODEL 1
REMARK VINA RESULT:    -5.033      0.000      0.000
REMARK INTER + INTRA:          -8.876
REMARK INTER:                  -7.828
REMARK INTRA:                  -1.048
REMARK UNBOUND:                -1.048
REMARK SMILES COc1cc(CNC(=O)CCCCC=CC(C)C)ccc1O
REMARK SMILES IDX 11 1 12 2 13 3 14 4 15 5 16 6 17 7 18 8 10 9 8 10 9 11 7 12
REMARK SMILES IDX 6 14 5 15 4 16 19 17 3 18 20 19 21 20 2 21 1 22 22 23
REMARK H PARENT 7 13 22 24
REMARK Flexibility Score: inf
ROOT
ATOM      1  C   UNL     1      -1.570 -22.826  -9.333  1.00  0.00     0.010 C 
ENDROOT
BRANCH   1   2
ATOM      2  C   UNL     1      -1.398 -22.052  -8.016  1.00  0.00     0.005 C 
BRANCH   2   3
ATOM      3  C   UNL     1      -1.048 -20.571  -8.237  1.00  0.00     0.027 C 
BRANCH   3   4
ATOM      4  C   UNL     1       0.448 -20.375  -8.276  1.00  0.00    -0.031 C 
ATOM      5  C   UNL     1       1.214 -20.410  -9.386  1.00  0.00    -0.028 C 
BRANCH   5   6
ATOM      6  C   UNL     1       0.758 -20.578 -10.828  1.00  0.00     0.005 C 
ATOM      7  C   UNL     1       0.499 -19.253 -11.557  1.00  0.00     0.012 C 
ATOM      8  C   UNL     1       1.687 -21.500 -11.625  1.00  0.00     0.012 C 
ENDBRANCH   5   6
ENDBRANCH   3   4
ENDBRANCH   2   3
ENDBRANCH   1   2
BRANCH   1   9
ATOM      9  C   UNL     1      -0.550 -23.959  -9.490  1.00  0.00     0.100 C 
BRANCH   9  10
ATOM     10  C   UNL     1      -1.210 -25.290  -9.287  1.00  0.00     0.220 C 
ATOM     11  O   UNL     1      -1.792 -25.849 -10.257  1.00  0.00    -0.275 OA
ATOM     12  N   UNL     1      -1.216 -25.901  -7.989  1.00  0.00    -0.352 N 
ATOM     13  H   UNL     1      -0.780 -25.392  -7.188  1.00  0.00     0.163 HD
BRANCH  12  14
ATOM     14  C   UNL     1      -1.816 -27.209  -7.741  1.00  0.00     0.151 C 
BRANCH  14  15
ATOM     15  C   UNL     1      -0.919 -28.301  -8.256  1.00  0.00    -0.025 A 
ATOM     16  C   UNL     1      -1.444 -29.364  -9.009  1.00  0.00     0.056 A 
ATOM     17  C   UNL     1       0.461 -28.244  -8.013  1.00  0.00     0.009 A 
ATOM     18  C   UNL     1      -0.596 -30.372  -9.511  1.00  0.00     0.160 A 
ATOM     19  C   UNL     1       1.304 -29.239  -8.508  1.00  0.00     0.050 A 
ATOM     20  C   UNL     1       0.781 -30.302  -9.255  1.00  0.00     0.157 A 
BRANCH  18  21
ATOM     21  O   UNL     1      -1.084 -31.452 -10.264  1.00  0.00    -0.493 OA
ATOM     22  C   UNL     1      -1.124 -31.488 -11.687  1.00  0.00     0.278 C 
ENDBRANCH  18  21
BRANCH  20  23
ATOM     23  O   UNL     1       1.625 -31.296  -9.750  1.00  0.00    -0.504 OA
ATOM     24  H   UNL     1       2.602 -31.345  -9.479  1.00  0.00     0.293 HD
ENDBRANCH  20  23
ENDBRANCH  14  15
ENDBRANCH  12  14
ENDBRANCH   9  10
ENDBRANCH   1   9
TORSDOF 10
ENDMDL
MODEL 2
REMARK VINA RESULT:    -4.973      2.041      3.336
REMARK INTER + INTRA:          -8.784
REMARK INTER:                  -7.809
REMARK INTRA:                  -0.975
REMARK UNBOUND:                -1.048
REMARK SMILES COc1cc(CNC(=O)CCCCC=CC(C)C)ccc1O
REMARK SMILES IDX 11 1 12 2 13 3 14 4 15 5 16 6 17 7 18 8 10 9 8 10 9 11 7 12
REMARK SMILES IDX 6 14 5 15 4 16 19 17 3 18 20 19 21 20 2 21 1 22 22 23
REMARK H PARENT 7 13 22 24
REMARK Flexibility Score: inf
ROOT
ATOM      1  C   UNL     1       1.505 -20.369  -9.448  1.00  0.00     0.010 C 
ENDROOT
BRANCH   1   2
ATOM      2  C   UNL     1       0.473 -20.283  -8.312  1.00  0.00     0.005 C 
BRANCH   2   3
ATOM      3  C   UNL     1      -0.750 -19.427  -8.682  1.00  0.00     0.027 C 
BRANCH   3   4
ATOM      4  C   UNL     1      -1.419 -19.958  -9.925  1.00  0.00    -0.031 C 
ATOM      5  C   UNL     1      -1.592 -19.274 -11.075  1.00  0.00    -0.028 C 
BRANCH   5   6
ATOM      6  C   UNL     1      -1.106 -17.872 -11.407  1.00  0.00     0.005 C 
ATOM      7  C   UNL     1       0.377 -17.804 -11.794  1.00  0.00     0.012 C 
ATOM      8  C   UNL     1      -2.001 -17.177 -12.439  1.00  0.00     0.012 C 
ENDBRANCH   5   6
ENDBRANCH   3   4
ENDBRANCH   2   3
ENDBRANCH   1   2
BRANCH   1   9
ATOM      9  C   UNL     1       2.039 -21.790  -9.656  1.00  0.00     0.100 C 
BRANCH   9  10
ATOM     10  C   UNL     1       0.964 -22.679 -10.205  1.00  0.00     0.220 C 
ATOM     11  O   UNL     1       0.517 -22.467 -11.366  1.00  0.00    -0.275 OA
ATOM     12  N   UNL     1       0.421 -23.735  -9.401  1.00  0.00    -0.352 N 
ATOM     13  H   UNL     1       0.766 -23.855  -8.422  1.00  0.00     0.163 HD
BRANCH  12  14
ATOM     14  C   UNL     1      -0.605 -24.649  -9.896  1.00  0.00     0.151 C 
BRANCH  14  15
ATOM     15  C   UNL     1      -0.600 -25.922  -9.092  1.00  0.00    -0.025 A 
ATOM     16  C   UNL     1       0.321 -26.944  -9.374  1.00  0.00     0.056 A 
ATOM     17  C   UNL     1      -1.502 -26.079  -8.030  1.00  0.00     0.009 A 
ATOM     18  C   UNL     1       0.338 -28.123  -8.603  1.00  0.00     0.160 A 
ATOM     19  C   UNL     1      -1.489 -27.245  -7.264  1.00  0.00     0.050 A 
ATOM     20  C   UNL     1      -0.573 -28.267  -7.546  1.00  0.00     0.157 A 
BRANCH  18  21
ATOM     21  O   UNL     1       1.241 -29.168  -8.856  1.00  0.00    -0.493 OA
ATOM     22  C   UNL     1       0.956 -30.296  -9.677  1.00  0.00     0.278 C 
ENDBRANCH  18  21
BRANCH  20  23
ATOM     23  O   UNL     1      -0.560 -29.431  -6.779  1.00  0.00    -0.504 OA
ATOM     24  H   UNL     1       0.006 -30.231  -7.037  1.00  0.00     0.293 HD
ENDBRANCH  20  23
ENDBRANCH  14  15
ENDBRANCH  12  14
ENDBRANCH   9  10
ENDBRANCH   1   9
TORSDOF 10
ENDMDL
MODEL 3
REMARK VINA RESULT:    -4.967      2.633      8.749
REMARK INTER + INTRA:          -8.773
REMARK INTER:                  -7.824
REMARK INTRA:                  -0.949
REMARK UNBOUND:                -1.048
REMARK SMILES COc1cc(CNC(=O)CCCCC=CC(C)C)ccc1O
REMARK SMILES IDX 11 1 12 2 13 3 14 4 15 5 16 6 17 7 18 8 10 9 8 10 9 11 7 12
REMARK SMILES IDX 6 14 5 15 4 16 19 17 3 18 20 19 21 20 2 21 1 22 22 23
REMARK H PARENT 7 13 22 24
REMARK Flexibility Score: inf
ROOT
ATOM      1  C   UNL     1      -0.237 -27.725  -7.989  1.00  0.00     0.010 C 
ENDROOT
BRANCH   1   2
ATOM      2  C   UNL     1      -0.541 -28.836  -6.971  1.00  0.00     0.005 C 
BRANCH   2   3
ATOM      3  C   UNL     1      -1.872 -29.553  -7.251  1.00  0.00     0.027 C 
BRANCH   3   4
ATOM      4  C   UNL     1      -1.705 -31.049  -7.156  1.00  0.00    -0.031 C 
ATOM      5  C   UNL     1      -1.299 -31.857  -8.157  1.00  0.00    -0.028 C 
BRANCH   5   6
ATOM      6  C   UNL     1      -0.858 -31.458  -9.557  1.00  0.00     0.005 C 
ATOM      7  C   UNL     1       0.633 -31.115  -9.664  1.00  0.00     0.012 C 
ATOM      8  C   UNL     1      -1.290 -32.479 -10.614  1.00  0.00     0.012 C 
ENDBRANCH   5   6
ENDBRANCH   3   4
ENDBRANCH   2   3
ENDBRANCH   1   2
BRANCH   1   9
ATOM      9  C   UNL     1      -1.476 -26.898  -8.348  1.00  0.00     0.100 C 
BRANCH   9  10
ATOM     10  C   UNL     1      -1.279 -26.204  -9.663  1.00  0.00     0.220 C 
ATOM     11  O   UNL     1      -1.058 -26.890 -10.699  1.00  0.00    -0.275 OA
ATOM     12  N   UNL     1      -1.301 -24.772  -9.733  1.00  0.00    -0.352 N 
ATOM     13  H   UNL     1      -1.427 -24.223  -8.853  1.00  0.00     0.163 HD
BRANCH  12  14
ATOM     14  C   UNL     1      -1.146 -24.045 -10.991  1.00  0.00     0.151 C 
BRANCH  14  15
ATOM     15  C   UNL     1      -0.136 -22.941 -10.834  1.00  0.00    -0.025 A 
ATOM     16  C   UNL     1      -0.359 -21.679 -11.409  1.00  0.00     0.056 A 
ATOM     17  C   UNL     1       1.025 -23.159 -10.080  1.00  0.00     0.009 A 
ATOM     18  C   UNL     1       0.577 -20.640 -11.238  1.00  0.00     0.160 A 
ATOM     19  C   UNL     1       1.955 -22.134  -9.908  1.00  0.00     0.050 A 
ATOM     20  C   UNL     1       1.736 -20.876 -10.485  1.00  0.00     0.157 A 
BRANCH  18  21
ATOM     21  O   UNL     1       0.391 -19.367 -11.801  1.00  0.00    -0.493 OA
ATOM     22  C   UNL     1      -0.478 -18.372 -11.269  1.00  0.00     0.278 C 
ENDBRANCH  18  21
BRANCH  20  23
ATOM     23  O   UNL     1       2.666 -19.852 -10.311  1.00  0.00    -0.504 OA
ATOM     24  H   UNL     1       2.779 -19.115 -10.999  1.00  0.00     0.293 HD
ENDBRANCH  20  23
ENDBRANCH  14  15
ENDBRANCH  12  14
ENDBRANCH   9  10
ENDBRANCH   1   9
TORSDOF 10
ENDMDL
MODEL 4
REMARK VINA RESULT:    -4.876      1.951      3.382
REMARK INTER + INTRA:          -8.632
REMARK INTER:                  -7.294
REMARK INTRA:                  -1.338
REMARK UNBOUND:                -1.048
REMARK SMILES COc1cc(CNC(=O)CCCCC=CC(C)C)ccc1O
REMARK SMILES IDX 11 1 12 2 13 3 14 4 15 5 16 6 17 7 18 8 10 9 8 10 9 11 7 12
REMARK SMILES IDX 6 14 5 15 4 16 19 17 3 18 20 19 21 20 2 21 1 22 22 23
REMARK H PARENT 7 13 22 24
REMARK Flexibility Score: inf
ROOT
ATOM      1  C   UNL     1      -1.364 -25.549  -7.743  1.00  0.00     0.010 C 
ENDROOT
BRANCH   1   2
ATOM      2  C   UNL     1      -2.054 -25.407  -9.109  1.00  0.00     0.005 C 
BRANCH   2   3
ATOM      3  C   UNL     1      -1.055 -25.272 -10.270  1.00  0.00     0.027 C 
BRANCH   3   4
ATOM      4  C   UNL     1       0.356 -25.144  -9.750  1.00  0.00    -0.031 C 
ATOM      5  C   UNL     1       1.102 -24.020  -9.778  1.00  0.00    -0.028 C 
BRANCH   5   6
ATOM      6  C   UNL     1       0.688 -22.638 -10.260  1.00  0.00     0.005 C 
ATOM      7  C   UNL     1       0.187 -21.715  -9.142  1.00  0.00     0.012 C 
ATOM      8  C   UNL     1       1.774 -21.972 -11.112  1.00  0.00     0.012 C 
ENDBRANCH   5   6
ENDBRANCH   3   4
ENDBRANCH   2   3
ENDBRANCH   1   2
BRANCH   1   9
ATOM      9  C   UNL     1      -1.956 -26.681  -6.896  1.00  0.00     0.100 C 
BRANCH   9  10
ATOM     10  C   UNL     1      -1.260 -27.976  -7.191  1.00  0.00     0.220 C 
ATOM     11  O   UNL     1      -1.760 -29.057  -6.776  1.00  0.00    -0.275 OA
ATOM     12  N   UNL     1      -0.015 -27.979  -7.903  1.00  0.00    -0.352 N 
ATOM     13  H   UNL     1       0.410 -27.067  -8.185  1.00  0.00     0.163 HD
BRANCH  12  14
ATOM     14  C   UNL     1       0.690 -29.212  -8.245  1.00  0.00     0.151 C 
BRANCH  14  15
ATOM     15  C   UNL     1       0.136 -29.793  -9.517  1.00  0.00    -0.025 A 
ATOM     16  C   UNL     1       0.072 -31.184  -9.701  1.00  0.00     0.056 A 
ATOM     17  C   UNL     1      -0.352 -28.943 -10.519  1.00  0.00     0.009 A 
ATOM     18  C   UNL     1      -0.470 -31.725 -10.883  1.00  0.00     0.160 A 
ATOM     19  C   UNL     1      -0.890 -29.473 -11.692  1.00  0.00     0.050 A 
ATOM     20  C   UNL     1      -0.950 -30.861 -11.878  1.00  0.00     0.157 A 
BRANCH  18  21
ATOM     21  O   UNL     1      -0.547 -33.109 -11.105  1.00  0.00    -0.493 OA
ATOM     22  C   UNL     1       0.580 -33.957 -11.297  1.00  0.00     0.278 C 
ENDBRANCH  18  21
BRANCH  20  23
ATOM     23  O   UNL     1      -1.489 -31.389 -13.050  1.00  0.00    -0.504 OA
ATOM     24  H   UNL     1      -2.438 -31.744 -13.085  1.00  0.00     0.293 HD
ENDBRANCH  20  23
ENDBRANCH  14  15
ENDBRANCH  12  14
ENDBRANCH   9  10
ENDBRANCH   1   9
TORSDOF 10
ENDMDL
MODEL 5
REMARK VINA RESULT:    -4.873      1.537      2.350
REMARK INTER + INTRA:          -8.627
REMARK INTER:                  -7.671
REMARK INTRA:                  -0.956
REMARK UNBOUND:                -1.048
REMARK SMILES COc1cc(CNC(=O)CCCCC=CC(C)C)ccc1O
REMARK SMILES IDX 11 1 12 2 13 3 14 4 15 5 16 6 17 7 18 8 10 9 8 10 9 11 7 12
REMARK SMILES IDX 6 14 5 15 4 16 19 17 3 18 20 19 21 20 2 21 1 22 22 23
REMARK H PARENT 7 13 22 24
REMARK Flexibility Score: inf
ROOT
ATOM      1  C   UNL     1       0.884 -22.460 -10.347  1.00  0.00     0.010 C 
ENDROOT
BRANCH   1   2
ATOM      2  C   UNL     1       1.669 -21.355  -9.624  1.00  0.00     0.005 C 
BRANCH   2   3
ATOM      3  C   UNL     1       1.064 -20.990  -8.258  1.00  0.00     0.027 C 
BRANCH   3   4
ATOM      4  C   UNL     1      -0.443 -20.972  -8.329  1.00  0.00    -0.031 C 
ATOM      5  C   UNL     1      -1.200 -19.900  -8.640  1.00  0.00    -0.028 C 
BRANCH   5   6
ATOM      6  C   UNL     1      -0.728 -18.515  -9.054  1.00  0.00     0.005 C 
ATOM      7  C   UNL     1      -0.894 -18.222 -10.550  1.00  0.00     0.012 C 
ATOM      8  C   UNL     1      -1.337 -17.411  -8.182  1.00  0.00     0.012 C 
ENDBRANCH   5   6
ENDBRANCH   3   4
ENDBRANCH   2   3
ENDBRANCH   1   2
BRANCH   1   9
ATOM      9  C   UNL     1       1.144 -23.852  -9.760  1.00  0.00     0.100 C 
BRANCH   9  10
ATOM     10  C   UNL     1      -0.118 -24.662  -9.752  1.00  0.00     0.220 C 
ATOM     11  O   UNL     1      -0.755 -24.827 -10.828  1.00  0.00    -0.275 OA
ATOM     12  N   UNL     1      -0.616 -25.208  -8.524  1.00  0.00    -0.352 N 
ATOM     13  H   UNL     1      -0.103 -25.009  -7.635  1.00  0.00     0.163 HD
BRANCH  12  14
ATOM     14  C   UNL     1      -1.822 -26.029  -8.462  1.00  0.00     0.151 C 
BRANCH  14  15
ATOM     15  C   UNL     1      -1.458 -27.489  -8.431  1.00  0.00    -0.025 A 
ATOM     16  C   UNL     1      -1.252 -28.202  -9.622  1.00  0.00     0.056 A 
ATOM     17  C   UNL     1      -1.290 -28.140  -7.200  1.00  0.00     0.009 A 
ATOM     18  C   UNL     1      -0.886 -29.562  -9.588  1.00  0.00     0.160 A 
ATOM     19  C   UNL     1      -0.927 -29.486  -7.160  1.00  0.00     0.050 A 
ATOM     20  C   UNL     1      -0.726 -30.200  -8.349  1.00  0.00     0.157 A 
BRANCH  18  21
ATOM     21  O   UNL     1      -0.675 -30.310 -10.758  1.00  0.00    -0.493 OA
ATOM     22  C   UNL     1      -0.989 -29.854 -12.070  1.00  0.00     0.278 C 
ENDBRANCH  18  21
BRANCH  20  23
ATOM     23  O   UNL     1      -0.363 -31.546  -8.307  1.00  0.00    -0.504 OA
ATOM     24  H   UNL     1      -0.441 -32.142  -9.124  1.00  0.00     0.293 HD
ENDBRANCH  20  23
ENDBRANCH  14  15
ENDBRANCH  12  14
ENDBRANCH   9  10
ENDBRANCH   1   9
TORSDOF 10
ENDMDL
MODEL 6
REMARK VINA RESULT:    -4.824      2.790      8.939
REMARK INTER + INTRA:          -8.552
REMARK INTER:                  -7.499
REMARK INTRA:                  -1.052
REMARK UNBOUND:                -1.048
REMARK SMILES COc1cc(CNC(=O)CCCCC=CC(C)C)ccc1O
REMARK SMILES IDX 11 1 12 2 13 3 14 4 15 5 16 6 17 7 18 8 10 9 8 10 9 11 7 12
REMARK SMILES IDX 6 14 5 15 4 16 19 17 3 18 20 19 21 20 2 21 1 22 22 23
REMARK H PARENT 7 13 22 24
REMARK Flexibility Score: inf
ROOT
ATOM      1  C   UNL     1      -0.229 -27.986 -10.201  1.00  0.00     0.010 C 
ENDROOT
BRANCH   1   2
ATOM      2  C   UNL     1      -1.627 -28.587 -10.414  1.00  0.00     0.005 C 
BRANCH   2   3
ATOM      3  C   UNL     1      -1.581 -30.026 -10.955  1.00  0.00     0.027 C 
BRANCH   3   4
ATOM      4  C   UNL     1      -0.377 -30.761 -10.420  1.00  0.00    -0.031 C 
ATOM      5  C   UNL     1      -0.330 -31.444  -9.258  1.00  0.00    -0.028 C 
BRANCH   5   6
ATOM      6  C   UNL     1      -1.463 -31.691  -8.274  1.00  0.00     0.005 C 
ATOM      7  C   UNL     1      -1.434 -33.081  -7.627  1.00  0.00     0.012 C 
ATOM      8  C   UNL     1      -1.579 -30.574  -7.231  1.00  0.00     0.012 C 
ENDBRANCH   5   6
ENDBRANCH   3   4
ENDBRANCH   2   3
ENDBRANCH   1   2
BRANCH   1   9
ATOM      9  C   UNL     1       0.035 -27.604  -8.741  1.00  0.00     0.100 C 
BRANCH   9  10
ATOM     10  C   UNL     1      -0.642 -26.309  -8.407  1.00  0.00     0.220 C 
ATOM     11  O   UNL     1      -1.376 -26.237  -7.383  1.00  0.00    -0.275 OA
ATOM     12  N   UNL     1      -0.489 -25.173  -9.270  1.00  0.00    -0.352 N 
ATOM     13  H   UNL     1       0.075 -25.272 -10.144  1.00  0.00     0.163 HD
BRANCH  12  14
ATOM     14  C   UNL     1      -1.100 -23.878  -8.978  1.00  0.00     0.151 C 
BRANCH  14  15
ATOM     15  C   UNL     1      -0.147 -22.764  -9.315  1.00  0.00    -0.025 A 
ATOM     16  C   UNL     1      -0.552 -21.423  -9.227  1.00  0.00     0.056 A 
ATOM     17  C   UNL     1       1.171 -23.063  -9.691  1.00  0.00     0.009 A 
ATOM     18  C   UNL     1       0.351 -20.382  -9.520  1.00  0.00     0.160 A 
ATOM     19  C   UNL     1       2.069 -22.036  -9.982  1.00  0.00     0.050 A 
ATOM     20  C   UNL     1       1.664 -20.697  -9.898  1.00  0.00     0.157 A 
BRANCH  18  21
ATOM     21  O   UNL     1      -0.018 -19.029  -9.447  1.00  0.00    -0.493 OA
ATOM     22  C   UNL     1      -0.869 -18.481  -8.445  1.00  0.00     0.278 C 
ENDBRANCH  18  21
BRANCH  20  23
ATOM     23  O   UNL     1       2.564 -19.672 -10.189  1.00  0.00    -0.504 OA
ATOM     24  H   UNL     1       3.302 -19.415  -9.542  1.00  0.00     0.293 HD
ENDBRANCH  20  23
ENDBRANCH  14  15
ENDBRANCH  12  14
ENDBRANCH   9  10
ENDBRANCH   1   9
TORSDOF 10
ENDMDL
MODEL 7
REMARK VINA RESULT:    -4.819      3.606      9.253
REMARK INTER + INTRA:          -8.543
REMARK INTER:                  -7.862
REMARK INTRA:                  -0.681
REMARK UNBOUND:                -1.048
REMARK SMILES COc1cc(CNC(=O)CCCCC=CC(C)C)ccc1O
REMARK SMILES IDX 11 1 12 2 13 3 14 4 15 5 16 6 17 7 18 8 10 9 8 10 9 11 7 12
REMARK SMILES IDX 6 14 5 15 4 16 19 17 3 18 20 19 21 20 2 21 1 22 22 23
REMARK H PARENT 7 13 22 24
REMARK Flexibility Score: inf
ROOT
ATOM      1  C   UNL     1      -1.048 -31.345 -13.209  1.00  0.00     0.010 C 
ENDROOT
BRANCH   1   2
ATOM      2  C   UNL     1      -1.800 -31.641 -14.517  1.00  0.00     0.005 C 
BRANCH   2   3
ATOM      3  C   UNL     1      -1.197 -32.821 -15.296  1.00  0.00     0.027 C 
BRANCH   3   4
ATOM      4  C   UNL     1       0.310 -32.789 -15.237  1.00  0.00    -0.031 C 
ATOM      5  C   UNL     1       1.141 -33.090 -16.256  1.00  0.00    -0.028 C 
BRANCH   5   6
ATOM      6  C   UNL     1       0.770 -33.453 -17.685  1.00  0.00     0.005 C 
ATOM      7  C   UNL     1       0.476 -32.242 -18.578  1.00  0.00     0.012 C 
ATOM      8  C   UNL     1       1.787 -34.405 -18.324  1.00  0.00     0.012 C 
ENDBRANCH   5   6
ENDBRANCH   3   4
ENDBRANCH   2   3
ENDBRANCH   1   2
BRANCH   1   9
ATOM      9  C   UNL     1      -1.063 -29.857 -12.842  1.00  0.00     0.100 C 
BRANCH   9  10
ATOM     10  C   UNL     1      -0.681 -29.668 -11.405  1.00  0.00     0.220 C 
ATOM     11  O   UNL     1      -1.425 -30.133 -10.499  1.00  0.00    -0.275 OA
ATOM     12  N   UNL     1       0.500 -28.929 -11.064  1.00  0.00    -0.352 N 
ATOM     13  H   UNL     1       1.071 -28.503 -11.830  1.00  0.00     0.163 HD
BRANCH  12  14
ATOM     14  C   UNL     1       0.937 -28.741  -9.683  1.00  0.00     0.151 C 
BRANCH  14  15
ATOM     15  C   UNL     1       0.171 -27.615  -9.043  1.00  0.00    -0.025 A 
ATOM     16  C   UNL     1       0.260 -26.308  -9.549  1.00  0.00     0.056 A 
ATOM     17  C   UNL     1      -0.668 -27.875  -7.950  1.00  0.00     0.009 A 
ATOM     18  C   UNL     1      -0.479 -25.262  -8.962  1.00  0.00     0.160 A 
ATOM     19  C   UNL     1      -1.402 -26.843  -7.366  1.00  0.00     0.050 A 
ATOM     20  C   UNL     1      -1.310 -25.538  -7.867  1.00  0.00     0.157 A 
BRANCH  18  21
ATOM     21  O   UNL     1      -0.412 -23.942  -9.437  1.00  0.00    -0.493 OA
ATOM     22  C   UNL     1       0.800 -23.244  -9.703  1.00  0.00     0.278 C 
ENDBRANCH  18  21
BRANCH  20  23
ATOM     23  O   UNL     1      -2.045 -24.507  -7.282  1.00  0.00    -0.504 OA
ATOM     24  H   UNL     1      -1.846 -24.181  -6.342  1.00  0.00     0.293 HD
ENDBRANCH  20  23
ENDBRANCH  14  15
ENDBRANCH  12  14
ENDBRANCH   9  10
ENDBRANCH   1   9
TORSDOF 10
ENDMDL
MODEL 8
REMARK VINA RESULT:    -4.759      1.941      3.127
REMARK INTER + INTRA:          -8.450
REMARK INTER:                  -7.433
REMARK INTRA:                  -1.017
REMARK UNBOUND:                -1.048
REMARK SMILES COc1cc(CNC(=O)CCCCC=CC(C)C)ccc1O
REMARK SMILES IDX 11 1 12 2 13 3 14 4 15 5 16 6 17 7 18 8 10 9 8 10 9 11 7 12
REMARK SMILES IDX 6 14 5 15 4 16 19 17 3 18 20 19 21 20 2 21 1 22 22 23
REMARK H PARENT 7 13 22 24
REMARK Flexibility Score: inf
ROOT
ATOM      1  C   UNL     1      -0.896 -24.481  -9.828  1.00  0.00     0.010 C 
ENDROOT
BRANCH   1   2
ATOM      2  C   UNL     1      -1.381 -24.267 -11.271  1.00  0.00     0.005 C 
BRANCH   2   3
ATOM      3  C   UNL     1      -1.801 -22.814 -11.548  1.00  0.00     0.027 C 
BRANCH   3   4
ATOM      4  C   UNL     1      -0.700 -22.064 -12.256  1.00  0.00    -0.031 C 
ATOM      5  C   UNL     1       0.290 -21.373 -11.654  1.00  0.00    -0.028 C 
BRANCH   5   6
ATOM      6  C   UNL     1       0.566 -21.247 -10.163  1.00  0.00     0.005 C 
ATOM      7  C   UNL     1       1.969 -21.708  -9.750  1.00  0.00     0.012 C 
ATOM      8  C   UNL     1       0.239 -19.849  -9.629  1.00  0.00     0.012 C 
ENDBRANCH   5   6
ENDBRANCH   3   4
ENDBRANCH   2   3
ENDBRANCH   1   2
BRANCH   1   9
ATOM      9  C   UNL     1       0.495 -25.121  -9.761  1.00  0.00     0.100 C 
BRANCH   9  10
ATOM     10  C   UNL     1       0.415 -26.488  -9.151  1.00  0.00     0.220 C 
ATOM     11  O   UNL     1      -0.447 -26.719  -8.259  1.00  0.00    -0.275 OA
ATOM     12  N   UNL     1       1.338 -27.510  -9.549  1.00  0.00    -0.352 N 
ATOM     13  H   UNL     1       2.081 -27.279 -10.247  1.00  0.00     0.163 HD
BRANCH  12  14
ATOM     14  C   UNL     1       1.286 -28.867  -9.011  1.00  0.00     0.151 C 
BRANCH  14  15
ATOM     15  C   UNL     1       0.510 -29.765  -9.936  1.00  0.00    -0.025 A 
ATOM     16  C   UNL     1       0.546 -31.160  -9.778  1.00  0.00     0.056 A 
ATOM     17  C   UNL     1      -0.285 -29.207 -10.947  1.00  0.00     0.009 A 
ATOM     18  C   UNL     1      -0.203 -31.996 -10.630  1.00  0.00     0.160 A 
ATOM     19  C   UNL     1      -1.028 -30.030 -11.793  1.00  0.00     0.050 A 
ATOM     20  C   UNL     1      -0.989 -31.422 -11.639  1.00  0.00     0.157 A 
BRANCH  18  21
ATOM     21  O   UNL     1      -0.189 -33.395 -10.505  1.00  0.00    -0.493 OA
ATOM     22  C   UNL     1       0.958 -34.210 -10.724  1.00  0.00     0.278 C 
ENDBRANCH  18  21
BRANCH  20  23
ATOM     23  O   UNL     1      -1.733 -32.244 -12.485  1.00  0.00    -0.504 OA
ATOM     24  H   UNL     1      -2.658 -32.571 -12.228  1.00  0.00     0.293 HD
ENDBRANCH  20  23
ENDBRANCH  14  15
ENDBRANCH  12  14
ENDBRANCH   9  10
ENDBRANCH   1   9
TORSDOF 10
ENDMDL
MODEL 9
REMARK VINA RESULT:    -4.462      1.979      2.914
REMARK INTER + INTRA:          -7.988
REMARK INTER:                  -7.142
REMARK INTRA:                  -0.846
REMARK UNBOUND:                -1.048
REMARK SMILES COc1cc(CNC(=O)CCCCC=CC(C)C)ccc1O
REMARK SMILES IDX 11 1 12 2 13 3 14 4 15 5 16 6 17 7 18 8 10 9 8 10 9 11 7 12
REMARK SMILES IDX 6 14 5 15 4 16 19 17 3 18 20 19 21 20 2 21 1 22 22 23
REMARK H PARENT 7 13 22 24
REMARK Flexibility Score: inf
ROOT
ATOM      1  C   UNL     1      -0.384 -22.306  -9.504  1.00  0.00     0.010 C 
ENDROOT
BRANCH   1   2
ATOM      2  C   UNL     1      -0.555 -22.639 -10.995  1.00  0.00     0.005 C 
BRANCH   2   3
ATOM      3  C   UNL     1       0.031 -21.558 -11.918  1.00  0.00     0.027 C 
BRANCH   3   4
ATOM      4  C   UNL     1       1.168 -20.834 -11.241  1.00  0.00    -0.031 C 
ATOM      5  C   UNL     1       1.110 -19.585 -10.733  1.00  0.00    -0.028 C 
BRANCH   5   6
ATOM      6  C   UNL     1      -0.098 -18.664 -10.659  1.00  0.00     0.005 C 
ATOM      7  C   UNL     1      -0.626 -18.444  -9.236  1.00  0.00     0.012 C 
ATOM      8  C   UNL     1       0.135 -17.342 -11.397  1.00  0.00     0.012 C 
ENDBRANCH   5   6
ENDBRANCH   3   4
ENDBRANCH   2   3
ENDBRANCH   1   2
BRANCH   1   9
ATOM      9  C   UNL     1      -1.715 -21.998  -8.810  1.00  0.00     0.100 C 
BRANCH   9  10
ATOM     10  C   UNL     1      -1.933 -22.931  -7.657  1.00  0.00     0.220 C 
ATOM     11  O   UNL     1      -2.125 -22.457  -6.504  1.00  0.00    -0.275 OA
ATOM     12  N   UNL     1      -1.883 -24.350  -7.859  1.00  0.00    -0.352 N 
ATOM     13  H   UNL     1      -1.664 -24.719  -8.812  1.00  0.00     0.163 HD
BRANCH  12  14
ATOM     14  C   UNL     1      -2.119 -25.304  -6.779  1.00  0.00     0.151 C 
BRANCH  14  15
ATOM     15  C   UNL     1      -1.598 -26.663  -7.161  1.00  0.00    -0.025 A 
ATOM     16  C   UNL     1      -0.822 -26.834  -8.319  1.00  0.00     0.056 A 
ATOM     17  C   UNL     1      -1.861 -27.768  -6.339  1.00  0.00     0.009 A 
ATOM     18  C   UNL     1      -0.315 -28.103  -8.660  1.00  0.00     0.160 A 
ATOM     19  C   UNL     1      -1.362 -29.027  -6.672  1.00  0.00     0.050 A 
ATOM     20  C   UNL     1      -0.591 -29.199  -7.830  1.00  0.00     0.157 A 
BRANCH  18  21
ATOM     21  O   UNL     1       0.461 -28.314  -9.812  1.00  0.00    -0.493 OA
ATOM     22  C   UNL     1      -0.005 -28.970 -10.986  1.00  0.00     0.278 C 
ENDBRANCH  18  21
BRANCH  20  23
ATOM     23  O   UNL     1      -0.092 -30.458  -8.161  1.00  0.00    -0.504 OA
ATOM     24  H   UNL     1      -0.280 -30.884  -9.062  1.00  0.00     0.293 HD
ENDBRANCH  20  23
ENDBRANCH  14  15
ENDBRANCH  12  14
ENDBRANCH   9  10
ENDBRANCH   1   9
TORSDOF 10
ENDMDL
