MODEL 1
REMARK VINA RESULT:    -7.156      0.000      0.000
REMARK INTER + INTRA:          -8.687
REMARK INTER:                  -8.411
REMARK INTRA:                  -0.276
REMARK UNBOUND:                -0.276
REMARK SMILES O=c1cc(-c2ccc(O)c(O)c2)oc2cc(O)cc(O)c12
REMARK SMILES IDX 4 1 3 2 2 3 1 4 21 5 19 6 18 7 16 8 15 9 14 10 13 11 5 12
REMARK SMILES IDX 6 13 7 14 8 15 12 16 10 17 9 18 11 20 20 22 17 24
REMARK H PARENT 9 19 11 21 20 23 17 25
REMARK Flexibility Score: inf
ROOT
ATOM      1  C   UNL     1     203.180 207.597 276.732  1.00  0.00     0.138 A 
ATOM      2  C   UNL     1     204.016 208.670 276.390  1.00  0.00     0.100 A 
ATOM      3  C   UNL     1     204.465 209.538 277.385  1.00  0.00     0.197 A 
ATOM      4  O   UNL     1     205.163 210.527 277.040  1.00  0.00    -0.289 OA
ATOM      5  C   UNL     1     204.101 209.312 278.733  1.00  0.00     0.107 A 
ATOM      6  C   UNL     1     204.533 210.108 279.837  1.00  0.00     0.134 A 
ATOM      7  C   UNL     1     204.014 209.859 281.113  1.00  0.00     0.093 A 
ATOM      8  C   UNL     1     203.125 208.807 281.337  1.00  0.00     0.123 A 
ATOM      9  C   UNL     1     202.738 207.989 280.275  1.00  0.00     0.094 A 
ATOM     10  C   UNL     1     203.212 208.233 278.984  1.00  0.00     0.146 A 
ATOM     11  O   UNL     1     202.807 207.440 277.998  1.00  0.00    -0.456 OA
ENDROOT
BRANCH   1  12
ATOM     12  C   UNL     1     202.673 206.643 275.713  1.00  0.00     0.021 A 
ATOM     13  C   UNL     1     201.307 206.312 275.695  1.00  0.00     0.016 A 
ATOM     14  C   UNL     1     200.807 205.411 274.752  1.00  0.00     0.051 A 
ATOM     15  C   UNL     1     201.664 204.817 273.819  1.00  0.00     0.157 A 
ATOM     16  C   UNL     1     203.532 206.032 274.779  1.00  0.00     0.062 A 
ATOM     17  C   UNL     1     203.030 205.125 273.834  1.00  0.00     0.158 A 
BRANCH  15  18
ATOM     18  O   UNL     1     201.169 203.919 272.875  1.00  0.00    -0.504 OA
ATOM     19  H   UNL     1     201.179 202.919 273.040  1.00  0.00     0.293 HD
ENDBRANCH  15  18
BRANCH  17  20
ATOM     20  O   UNL     1     203.882 204.525 272.909  1.00  0.00    -0.504 OA
ATOM     21  H   UNL     1     204.212 203.574 273.032  1.00  0.00     0.293 HD
ENDBRANCH  17  20
ENDBRANCH   1  12
BRANCH   6  22
ATOM     22  O   UNL     1     205.481 211.130 279.738  1.00  0.00    -0.507 OA
ATOM     23  H   UNL     1     206.477 210.988 279.670  1.00  0.00     0.293 HD
ENDBRANCH   6  22
BRANCH   8  24
ATOM     24  O   UNL     1     202.640 208.580 282.623  1.00  0.00    -0.508 OA
ATOM     25  H   UNL     1     202.923 207.769 283.160  1.00  0.00     0.293 HD
ENDBRANCH   8  24
TORSDOF 5
ENDMDL
MODEL 2
REMARK VINA RESULT:    -7.130      3.543      5.341
REMARK INTER + INTRA:          -8.656
REMARK INTER:                  -8.365
REMARK INTRA:                  -0.291
REMARK UNBOUND:                -0.276
REMARK SMILES O=c1cc(-c2ccc(O)c(O)c2)oc2cc(O)cc(O)c12
REMARK SMILES IDX 4 1 3 2 2 3 1 4 21 5 19 6 18 7 16 8 15 9 14 10 13 11 5 12
REMARK SMILES IDX 6 13 7 14 8 15 12 16 10 17 9 18 11 20 20 22 17 24
REMARK H PARENT 9 19 11 21 20 23 17 25
REMARK Flexibility Score: inf
ROOT
ATOM      1  C   UNL     1     200.787 207.191 274.906  1.00  0.00     0.138 A 
ATOM      2  C   UNL     1     201.742 206.810 273.953  1.00  0.00     0.100 A 
ATOM      3  C   UNL     1     202.930 206.209 274.369  1.00  0.00     0.197 A 
ATOM      4  O   UNL     1     203.795 205.935 273.496  1.00  0.00    -0.289 OA
ATOM      5  C   UNL     1     203.149 205.960 275.744  1.00  0.00     0.107 A 
ATOM      6  C   UNL     1     204.305 205.317 276.280  1.00  0.00     0.134 A 
ATOM      7  C   UNL     1     204.465 205.230 277.669  1.00  0.00     0.093 A 
ATOM      8  C   UNL     1     203.486 205.708 278.539  1.00  0.00     0.123 A 
ATOM      9  C   UNL     1     202.326 206.290 278.025  1.00  0.00     0.094 A 
ATOM     10  C   UNL     1     202.153 206.423 276.645  1.00  0.00     0.146 A 
ATOM     11  O   UNL     1     201.042 206.996 276.196  1.00  0.00    -0.456 OA
ENDROOT
BRANCH   1  12
ATOM     12  C   UNL     1     199.505 207.833 274.519  1.00  0.00     0.021 A 
ATOM     13  C   UNL     1     198.748 207.286 273.469  1.00  0.00     0.016 A 
ATOM     14  C   UNL     1     197.543 207.875 273.079  1.00  0.00     0.051 A 
ATOM     15  C   UNL     1     197.080 209.027 273.725  1.00  0.00     0.157 A 
ATOM     16  C   UNL     1     199.039 209.000 275.156  1.00  0.00     0.062 A 
ATOM     17  C   UNL     1     197.830 209.593 274.762  1.00  0.00     0.158 A 
BRANCH  15  18
ATOM     18  O   UNL     1     195.877 209.618 273.340  1.00  0.00    -0.504 OA
ATOM     19  H   UNL     1     194.991 209.140 273.457  1.00  0.00     0.293 HD
ENDBRANCH  15  18
BRANCH  17  20
ATOM     20  O   UNL     1     197.371 210.746 275.396  1.00  0.00    -0.504 OA
ATOM     21  H   UNL     1     197.358 211.642 274.922  1.00  0.00     0.293 HD
ENDBRANCH  17  20
ENDBRANCH   1  12
BRANCH   6  22
ATOM     22  O   UNL     1     205.305 204.730 275.500  1.00  0.00    -0.507 OA
ATOM     23  H   UNL     1     206.294 204.886 275.618  1.00  0.00     0.293 HD
ENDBRANCH   6  22
BRANCH   8  24
ATOM     24  O   UNL     1     203.672 205.591 279.915  1.00  0.00    -0.508 OA
ATOM     25  H   UNL     1     204.060 204.752 280.327  1.00  0.00     0.293 HD
ENDBRANCH   8  24
TORSDOF 5
ENDMDL
MODEL 3
REMARK VINA RESULT:    -7.086      1.412      7.046
REMARK INTER + INTRA:          -8.605
REMARK INTER:                  -8.335
REMARK INTRA:                  -0.270
REMARK UNBOUND:                -0.276
REMARK SMILES O=c1cc(-c2ccc(O)c(O)c2)oc2cc(O)cc(O)c12
REMARK SMILES IDX 4 1 3 2 2 3 1 4 21 5 19 6 18 7 16 8 15 9 14 10 13 11 5 12
REMARK SMILES IDX 6 13 7 14 8 15 12 16 10 17 9 18 11 20 20 22 17 24
REMARK H PARENT 9 19 11 21 20 23 17 25
REMARK Flexibility Score: inf
ROOT
ATOM      1  C   UNL     1     203.665 208.019 276.945  1.00  0.00     0.138 A 
ATOM      2  C   UNL     1     204.654 207.212 276.365  1.00  0.00     0.100 A 
ATOM      3  C   UNL     1     204.295 206.253 275.417  1.00  0.00     0.197 A 
ATOM      4  O   UNL     1     205.196 205.503 274.961  1.00  0.00    -0.289 OA
ATOM      5  C   UNL     1     202.941 206.123 275.027  1.00  0.00     0.107 A 
ATOM      6  C   UNL     1     202.464 205.208 274.041  1.00  0.00     0.134 A 
ATOM      7  C   UNL     1     201.087 205.086 273.821  1.00  0.00     0.093 A 
ATOM      8  C   UNL     1     200.174 205.887 274.507  1.00  0.00     0.123 A 
ATOM      9  C   UNL     1     200.633 206.824 275.434  1.00  0.00     0.094 A 
ATOM     10  C   UNL     1     201.999 206.944 275.701  1.00  0.00     0.146 A 
ATOM     11  O   UNL     1     202.394 207.838 276.601  1.00  0.00    -0.456 OA
ENDROOT
BRANCH   1  12
ATOM     12  C   UNL     1     203.992 209.055 277.957  1.00  0.00     0.021 A 
ATOM     13  C   UNL     1     204.610 210.250 277.548  1.00  0.00     0.016 A 
ATOM     14  C   UNL     1     204.936 211.237 278.480  1.00  0.00     0.051 A 
ATOM     15  C   UNL     1     204.659 211.043 279.839  1.00  0.00     0.157 A 
ATOM     16  C   UNL     1     203.728 208.862 279.327  1.00  0.00     0.062 A 
ATOM     17  C   UNL     1     204.058 209.853 280.264  1.00  0.00     0.158 A 
BRANCH  15  18
ATOM     18  O   UNL     1     204.981 212.027 280.773  1.00  0.00    -0.504 OA
ATOM     19  H   UNL     1     204.291 212.388 281.420  1.00  0.00     0.293 HD
ENDBRANCH  15  18
BRANCH  17  20
ATOM     20  O   UNL     1     203.793 209.659 281.618  1.00  0.00    -0.504 OA
ATOM     21  H   UNL     1     203.624 208.735 281.999  1.00  0.00     0.293 HD
ENDBRANCH  17  20
ENDBRANCH   1  12
BRANCH   6  22
ATOM     22  O   UNL     1     203.295 204.419 273.240  1.00  0.00    -0.507 OA
ATOM     23  H   UNL     1     204.164 204.728 272.831  1.00  0.00     0.293 HD
ENDBRANCH   6  22
BRANCH   8  24
ATOM     24  O   UNL     1     198.811 205.749 274.252  1.00  0.00    -0.508 OA
ATOM     25  H   UNL     1     198.114 206.050 274.922  1.00  0.00     0.293 HD
ENDBRANCH   8  24
TORSDOF 5
ENDMDL
MODEL 4
REMARK VINA RESULT:    -6.983      1.710      7.027
REMARK INTER + INTRA:          -8.484
REMARK INTER:                  -8.219
REMARK INTRA:                  -0.264
REMARK UNBOUND:                -0.276
REMARK SMILES O=c1cc(-c2ccc(O)c(O)c2)oc2cc(O)cc(O)c12
REMARK SMILES IDX 4 1 3 2 2 3 1 4 21 5 19 6 18 7 16 8 15 9 14 10 13 11 5 12
REMARK SMILES IDX 6 13 7 14 8 15 12 16 10 17 9 18 11 20 20 22 17 24
REMARK H PARENT 9 19 11 21 20 23 17 25
REMARK Flexibility Score: inf
ROOT
ATOM      1  C   UNL     1     202.876 206.656 277.610  1.00  0.00     0.138 A 
ATOM      2  C   UNL     1     204.092 206.181 277.099  1.00  0.00     0.100 A 
ATOM      3  C   UNL     1     204.151 205.700 275.791  1.00  0.00     0.197 A 
ATOM      4  O   UNL     1     205.241 205.223 275.382  1.00  0.00    -0.289 OA
ATOM      5  C   UNL     1     202.992 205.724 274.980  1.00  0.00     0.107 A 
ATOM      6  C   UNL     1     202.943 205.297 273.619  1.00  0.00     0.134 A 
ATOM      7  C   UNL     1     201.713 205.258 272.952  1.00  0.00     0.093 A 
ATOM      8  C   UNL     1     200.541 205.685 273.575  1.00  0.00     0.123 A 
ATOM      9  C   UNL     1     200.585 206.155 274.888  1.00  0.00     0.094 A 
ATOM     10  C   UNL     1     201.792 206.175 275.592  1.00  0.00     0.146 A 
ATOM     11  O   UNL     1     201.789 206.616 276.845  1.00  0.00    -0.456 OA
ENDROOT
BRANCH   1  12
ATOM     12  C   UNL     1     202.758 207.180 278.994  1.00  0.00     0.021 A 
ATOM     13  C   UNL     1     202.006 206.464 279.942  1.00  0.00     0.016 A 
ATOM     14  C   UNL     1     201.873 206.939 281.249  1.00  0.00     0.051 A 
ATOM     15  C   UNL     1     202.479 208.142 281.628  1.00  0.00     0.157 A 
ATOM     16  C   UNL     1     203.354 208.397 279.379  1.00  0.00     0.062 A 
ATOM     17  C   UNL     1     203.218 208.874 280.691  1.00  0.00     0.158 A 
BRANCH  15  18
ATOM     18  O   UNL     1     202.349 208.619 282.931  1.00  0.00    -0.504 OA
ATOM     19  H   UNL     1     201.954 208.047 283.667  1.00  0.00     0.293 HD
ENDBRANCH  15  18
BRANCH  17  20
ATOM     20  O   UNL     1     203.811 210.077 281.069  1.00  0.00    -0.504 OA
ATOM     21  H   UNL     1     204.756 210.314 280.787  1.00  0.00     0.293 HD
ENDBRANCH  17  20
ENDBRANCH   1  12
BRANCH   6  22
ATOM     22  O   UNL     1     204.067 204.928 272.875  1.00  0.00    -0.507 OA
ATOM     23  H   UNL     1     204.068 204.247 272.131  1.00  0.00     0.293 HD
ENDBRANCH   6  22
BRANCH   8  24
ATOM     24  O   UNL     1     199.336 205.646 272.875  1.00  0.00    -0.508 OA
ATOM     25  H   UNL     1     198.955 206.472 272.430  1.00  0.00     0.293 HD
ENDBRANCH   8  24
TORSDOF 5
ENDMDL
MODEL 5
REMARK VINA RESULT:    -6.960      1.336      7.038
REMARK INTER + INTRA:          -8.457
REMARK INTER:                  -8.193
REMARK INTRA:                  -0.264
REMARK UNBOUND:                -0.276
REMARK SMILES O=c1cc(-c2ccc(O)c(O)c2)oc2cc(O)cc(O)c12
REMARK SMILES IDX 4 1 3 2 2 3 1 4 21 5 19 6 18 7 16 8 15 9 14 10 13 11 5 12
REMARK SMILES IDX 6 13 7 14 8 15 12 16 10 17 9 18 11 20 20 22 17 24
REMARK H PARENT 9 19 11 21 20 23 17 25
REMARK Flexibility Score: inf
ROOT
ATOM      1  C   UNL     1     203.118 207.152 277.246  1.00  0.00     0.138 A 
ATOM      2  C   UNL     1     204.094 206.334 276.658  1.00  0.00     0.100 A 
ATOM      3  C   UNL     1     203.790 205.624 275.495  1.00  0.00     0.197 A 
ATOM      4  O   UNL     1     204.666 204.851 275.026  1.00  0.00    -0.289 OA
ATOM      5  C   UNL     1     202.513 205.758 274.902  1.00  0.00     0.107 A 
ATOM      6  C   UNL     1     202.106 205.115 273.696  1.00  0.00     0.134 A 
ATOM      7  C   UNL     1     200.778 205.229 273.266  1.00  0.00     0.093 A 
ATOM      8  C   UNL     1     199.859 206.011 273.966  1.00  0.00     0.123 A 
ATOM      9  C   UNL     1     200.261 206.689 275.118  1.00  0.00     0.094 A 
ATOM     10  C   UNL     1     201.570 206.567 275.590  1.00  0.00     0.146 A 
ATOM     11  O   UNL     1     201.908 207.216 276.699  1.00  0.00    -0.456 OA
ENDROOT
BRANCH   1  12
ATOM     12  C   UNL     1     203.387 207.929 278.481  1.00  0.00     0.021 A 
ATOM     13  C   UNL     1     202.803 207.525 279.694  1.00  0.00     0.016 A 
ATOM     14  C   UNL     1     203.034 208.243 280.869  1.00  0.00     0.051 A 
ATOM     15  C   UNL     1     203.844 209.384 280.851  1.00  0.00     0.157 A 
ATOM     16  C   UNL     1     204.191 209.086 278.468  1.00  0.00     0.062 A 
ATOM     17  C   UNL     1     204.421 209.809 279.648  1.00  0.00     0.158 A 
BRANCH  15  18
ATOM     18  O   UNL     1     204.078 210.104 282.021  1.00  0.00    -0.504 OA
ATOM     19  H   UNL     1     203.585 209.892 282.881  1.00  0.00     0.293 HD
ENDBRANCH  15  18
BRANCH  17  20
ATOM     20  O   UNL     1     205.219 210.952 279.631  1.00  0.00    -0.504 OA
ATOM     21  H   UNL     1     206.209 210.910 279.843  1.00  0.00     0.293 HD
ENDBRANCH  17  20
ENDBRANCH   1  12
BRANCH   6  22
ATOM     22  O   UNL     1     202.965 204.377 272.875  1.00  0.00    -0.507 OA
ATOM     23  H   UNL     1     203.031 204.476 271.874  1.00  0.00     0.293 HD
ENDBRANCH   6  22
BRANCH   8  24
ATOM     24  O   UNL     1     198.550 206.115 273.501  1.00  0.00    -0.508 OA
ATOM     25  H   UNL     1     197.759 205.888 274.091  1.00  0.00     0.293 HD
ENDBRANCH   8  24
TORSDOF 5
ENDMDL
MODEL 6
REMARK VINA RESULT:    -6.809      1.117      2.751
REMARK INTER + INTRA:          -8.279
REMARK INTER:                  -7.997
REMARK INTRA:                  -0.283
REMARK UNBOUND:                -0.276
REMARK SMILES O=c1cc(-c2ccc(O)c(O)c2)oc2cc(O)cc(O)c12
REMARK SMILES IDX 4 1 3 2 2 3 1 4 21 5 19 6 18 7 16 8 15 9 14 10 13 11 5 12
REMARK SMILES IDX 6 13 7 14 8 15 12 16 10 17 9 18 11 20 20 22 17 24
REMARK H PARENT 9 19 11 21 20 23 17 25
REMARK Flexibility Score: inf
ROOT
ATOM      1  C   UNL     1     202.394 206.843 277.819  1.00  0.00     0.138 A 
ATOM      2  C   UNL     1     202.015 206.273 279.043  1.00  0.00     0.100 A 
ATOM      3  C   UNL     1     202.333 206.924 280.235  1.00  0.00     0.197 A 
ATOM      4  O   UNL     1     202.034 206.357 281.319  1.00  0.00    -0.289 OA
ATOM      5  C   UNL     1     203.007 208.167 280.200  1.00  0.00     0.107 A 
ATOM      6  C   UNL     1     203.347 208.940 281.350  1.00  0.00     0.134 A 
ATOM      7  C   UNL     1     204.118 210.099 281.200  1.00  0.00     0.093 A 
ATOM      8  C   UNL     1     204.510 210.545 279.938  1.00  0.00     0.123 A 
ATOM      9  C   UNL     1     204.137 209.826 278.801  1.00  0.00     0.094 A 
ATOM     10  C   UNL     1     203.397 208.647 278.922  1.00  0.00     0.146 A 
ATOM     11  O   UNL     1     203.075 207.984 277.817  1.00  0.00    -0.456 OA
ENDROOT
BRANCH   1  12
ATOM     12  C   UNL     1     202.080 206.193 276.521  1.00  0.00     0.021 A 
ATOM     13  C   UNL     1     200.749 205.854 276.222  1.00  0.00     0.016 A 
ATOM     14  C   UNL     1     200.428 205.235 275.012  1.00  0.00     0.051 A 
ATOM     15  C   UNL     1     201.432 204.935 274.085  1.00  0.00     0.157 A 
ATOM     16  C   UNL     1     203.087 205.877 275.588  1.00  0.00     0.062 A 
ATOM     17  C   UNL     1     202.764 205.253 274.374  1.00  0.00     0.158 A 
BRANCH  15  18
ATOM     18  O   UNL     1     201.116 204.319 272.875  1.00  0.00    -0.504 OA
ATOM     19  H   UNL     1     201.836 203.958 272.260  1.00  0.00     0.293 HD
ENDBRANCH  15  18
BRANCH  17  20
ATOM     20  O   UNL     1     203.763 204.944 273.453  1.00  0.00    -0.504 OA
ATOM     21  H   UNL     1     204.116 203.999 273.350  1.00  0.00     0.293 HD
ENDBRANCH  17  20
ENDBRANCH   1  12
BRANCH   6  22
ATOM     22  O   UNL     1     202.935 208.630 282.650  1.00  0.00    -0.507 OA
ATOM     23  H   UNL     1     203.556 208.413 283.414  1.00  0.00     0.293 HD
ENDBRANCH   6  22
BRANCH   8  24
ATOM     24  O   UNL     1     205.264 211.711 279.825  1.00  0.00    -0.508 OA
ATOM     25  H   UNL     1     204.842 212.627 279.925  1.00  0.00     0.293 HD
ENDBRANCH   8  24
TORSDOF 5
ENDMDL
MODEL 7
REMARK VINA RESULT:    -6.764      2.997      4.182
REMARK INTER + INTRA:          -8.227
REMARK INTER:                  -7.920
REMARK INTRA:                  -0.307
REMARK UNBOUND:                -0.276
REMARK SMILES O=c1cc(-c2ccc(O)c(O)c2)oc2cc(O)cc(O)c12
REMARK SMILES IDX 4 1 3 2 2 3 1 4 21 5 19 6 18 7 16 8 15 9 14 10 13 11 5 12
REMARK SMILES IDX 6 13 7 14 8 15 12 16 10 17 9 18 11 20 20 22 17 24
REMARK H PARENT 9 19 11 21 20 23 17 25
REMARK Flexibility Score: inf
ROOT
ATOM      1  C   UNL     1     201.372 207.045 276.028  1.00  0.00     0.138 A 
ATOM      2  C   UNL     1     202.224 205.993 275.663  1.00  0.00     0.100 A 
ATOM      3  C   UNL     1     203.334 205.697 276.456  1.00  0.00     0.197 A 
ATOM      4  O   UNL     1     204.114 204.789 276.070  1.00  0.00    -0.289 OA
ATOM      5  C   UNL     1     203.573 206.439 277.636  1.00  0.00     0.107 A 
ATOM      6  C   UNL     1     204.649 206.201 278.543  1.00  0.00     0.134 A 
ATOM      7  C   UNL     1     204.853 207.075 279.617  1.00  0.00     0.093 A 
ATOM      8  C   UNL     1     203.986 208.142 279.853  1.00  0.00     0.123 A 
ATOM      9  C   UNL     1     202.899 208.353 279.004  1.00  0.00     0.094 A 
ATOM     10  C   UNL     1     202.689 207.519 277.904  1.00  0.00     0.146 A 
ATOM     11  O   UNL     1     201.651 207.762 277.111  1.00  0.00    -0.456 OA
ENDROOT
BRANCH   1  12
ATOM     12  C   UNL     1     200.177 207.401 275.221  1.00  0.00     0.021 A 
ATOM     13  C   UNL     1     199.529 206.406 274.468  1.00  0.00     0.016 A 
ATOM     14  C   UNL     1     198.409 206.716 273.695  1.00  0.00     0.051 A 
ATOM     15  C   UNL     1     197.923 208.028 273.651  1.00  0.00     0.157 A 
ATOM     16  C   UNL     1     199.690 208.722 275.162  1.00  0.00     0.062 A 
ATOM     17  C   UNL     1     198.566 209.034 274.383  1.00  0.00     0.158 A 
BRANCH  15  18
ATOM     18  O   UNL     1     196.804 208.342 272.882  1.00  0.00    -0.504 OA
ATOM     19  H   UNL     1     196.207 207.620 272.496  1.00  0.00     0.293 HD
ENDBRANCH  15  18
BRANCH  17  20
ATOM     20  O   UNL     1     198.086 210.340 274.329  1.00  0.00    -0.504 OA
ATOM     21  H   UNL     1     197.918 210.808 273.445  1.00  0.00     0.293 HD
ENDBRANCH  17  20
ENDBRANCH   1  12
BRANCH   6  22
ATOM     22  O   UNL     1     205.524 205.115 278.448  1.00  0.00    -0.507 OA
ATOM     23  H   UNL     1     206.158 204.821 279.175  1.00  0.00     0.293 HD
ENDBRANCH   6  22
BRANCH   8  24
ATOM     24  O   UNL     1     204.212 208.983 280.941  1.00  0.00    -0.508 OA
ATOM     25  H   UNL     1     205.149 209.193 281.263  1.00  0.00     0.293 HD
ENDBRANCH   8  24
TORSDOF 5
ENDMDL
MODEL 8
REMARK VINA RESULT:    -6.579     12.051     14.856
REMARK INTER + INTRA:          -8.009
REMARK INTER:                  -7.725
REMARK INTRA:                  -0.284
REMARK UNBOUND:                -0.276
REMARK SMILES O=c1cc(-c2ccc(O)c(O)c2)oc2cc(O)cc(O)c12
REMARK SMILES IDX 4 1 3 2 2 3 1 4 21 5 19 6 18 7 16 8 15 9 14 10 13 11 5 12
REMARK SMILES IDX 6 13 7 14 8 15 12 16 10 17 9 18 11 20 20 22 17 24
REMARK H PARENT 9 19 11 21 20 23 17 25
REMARK Flexibility Score: inf
ROOT
ATOM      1  C   UNL     1     212.851 203.488 286.367  1.00  0.00     0.138 A 
ATOM      2  C   UNL     1     212.851 202.630 285.258  1.00  0.00     0.100 A 
ATOM      3  C   UNL     1     212.046 202.924 284.157  1.00  0.00     0.197 A 
ATOM      4  O   UNL     1     212.021 202.103 283.204  1.00  0.00    -0.289 OA
ATOM      5  C   UNL     1     211.261 204.100 284.155  1.00  0.00     0.107 A 
ATOM      6  C   UNL     1     210.433 204.523 283.072  1.00  0.00     0.134 A 
ATOM      7  C   UNL     1     209.610 205.645 283.229  1.00  0.00     0.093 A 
ATOM      8  C   UNL     1     209.629 206.393 284.406  1.00  0.00     0.123 A 
ATOM      9  C   UNL     1     210.474 206.021 285.451  1.00  0.00     0.094 A 
ATOM     10  C   UNL     1     211.282 204.886 285.338  1.00  0.00     0.146 A 
ATOM     11  O   UNL     1     212.062 204.557 286.362  1.00  0.00    -0.456 OA
ENDROOT
BRANCH   1  12
ATOM     12  C   UNL     1     213.689 203.222 287.564  1.00  0.00     0.021 A 
ATOM     13  C   UNL     1     215.068 202.997 287.406  1.00  0.00     0.016 A 
ATOM     14  C   UNL     1     215.876 202.737 288.514  1.00  0.00     0.051 A 
ATOM     15  C   UNL     1     215.321 202.688 289.798  1.00  0.00     0.157 A 
ATOM     16  C   UNL     1     213.134 203.158 288.857  1.00  0.00     0.062 A 
ATOM     17  C   UNL     1     213.947 202.895 289.970  1.00  0.00     0.158 A 
BRANCH  15  18
ATOM     18  O   UNL     1     216.125 202.430 290.907  1.00  0.00    -0.504 OA
ATOM     19  H   UNL     1     215.729 202.132 291.791  1.00  0.00     0.293 HD
ENDBRANCH  15  18
BRANCH  17  20
ATOM     20  O   UNL     1     213.395 202.834 291.248  1.00  0.00    -0.504 OA
ATOM     21  H   UNL     1     212.393 202.878 291.396  1.00  0.00     0.293 HD
ENDBRANCH  17  20
ENDBRANCH   1  12
BRANCH   6  22
ATOM     22  O   UNL     1     210.401 203.896 281.823  1.00  0.00    -0.507 OA
ATOM     23  H   UNL     1     211.056 204.067 281.075  1.00  0.00     0.293 HD
ENDBRANCH   6  22
BRANCH   8  24
ATOM     24  O   UNL     1     208.807 207.513 284.521  1.00  0.00    -0.508 OA
ATOM     25  H   UNL     1     208.766 208.217 283.794  1.00  0.00     0.293 HD
ENDBRANCH   8  24
TORSDOF 5
ENDMDL
MODEL 9
REMARK VINA RESULT:    -6.389      1.607      7.210
REMARK INTER + INTRA:          -7.786
REMARK INTER:                  -7.523
REMARK INTRA:                  -0.263
REMARK UNBOUND:                -0.276
REMARK SMILES O=c1cc(-c2ccc(O)c(O)c2)oc2cc(O)cc(O)c12
REMARK SMILES IDX 4 1 3 2 2 3 1 4 21 5 19 6 18 7 16 8 15 9 14 10 13 11 5 12
REMARK SMILES IDX 6 13 7 14 8 15 12 16 10 17 9 18 11 20 20 22 17 24
REMARK H PARENT 9 19 11 21 20 23 17 25
REMARK Flexibility Score: inf
ROOT
ATOM      1  C   UNL     1     202.348 207.957 277.335  1.00  0.00     0.138 A 
ATOM      2  C   UNL     1     201.177 208.449 276.741  1.00  0.00     0.100 A 
ATOM      3  C   UNL     1     200.791 207.980 275.485  1.00  0.00     0.197 A 
ATOM      4  O   UNL     1     199.770 208.485 274.950  1.00  0.00    -0.289 OA
ATOM      5  C   UNL     1     201.565 206.989 274.835  1.00  0.00     0.107 A 
ATOM      6  C   UNL     1     201.247 206.407 273.572  1.00  0.00     0.134 A 
ATOM      7  C   UNL     1     202.150 205.520 272.973  1.00  0.00     0.093 A 
ATOM      8  C   UNL     1     203.329 205.149 273.617  1.00  0.00     0.123 A 
ATOM      9  C   UNL     1     203.626 205.670 274.877  1.00  0.00     0.094 A 
ATOM     10  C   UNL     1     202.761 206.584 275.486  1.00  0.00     0.146 A 
ATOM     11  O   UNL     1     203.087 207.068 276.679  1.00  0.00    -0.456 OA
ENDROOT
BRANCH   1  12
ATOM     12  C   UNL     1     202.804 208.422 278.669  1.00  0.00     0.021 A 
ATOM     13  C   UNL     1     203.985 209.177 278.772  1.00  0.00     0.016 A 
ATOM     14  C   UNL     1     204.441 209.619 280.016  1.00  0.00     0.051 A 
ATOM     15  C   UNL     1     203.729 209.306 281.180  1.00  0.00     0.157 A 
ATOM     16  C   UNL     1     202.101 208.099 279.847  1.00  0.00     0.062 A 
ATOM     17  C   UNL     1     202.560 208.542 281.096  1.00  0.00     0.158 A 
BRANCH  15  18
ATOM     18  O   UNL     1     204.179 209.746 282.424  1.00  0.00    -0.504 OA
ATOM     19  H   UNL     1     204.876 210.478 282.506  1.00  0.00     0.293 HD
ENDBRANCH  15  18
BRANCH  17  20
ATOM     20  O   UNL     1     201.860 208.222 282.258  1.00  0.00    -0.504 OA
ATOM     21  H   UNL     1     201.271 207.398 282.314  1.00  0.00     0.293 HD
ENDBRANCH  17  20
ENDBRANCH   1  12
BRANCH   6  22
ATOM     22  O   UNL     1     200.055 206.645 272.881  1.00  0.00    -0.507 OA
ATOM     23  H   UNL     1     199.447 205.928 272.516  1.00  0.00     0.293 HD
ENDBRANCH   6  22
BRANCH   8  24
ATOM     24  O   UNL     1     204.198 204.252 272.998  1.00  0.00    -0.508 OA
ATOM     25  H   UNL     1     203.853 203.444 272.493  1.00  0.00     0.293 HD
ENDBRANCH   8  24
TORSDOF 5
ENDMDL
