MODEL 1
REMARK VINA RESULT:    -2.419      0.000      0.000
REMARK INTER + INTRA:          -3.114
REMARK INTER:                  -2.984
REMARK INTRA:                  -0.130
REMARK UNBOUND:                -0.130
REMARK SMILES CCCCCC(=O)[O-]
REMARK SMILES IDX 4 1 5 2 6 3 7 4 8 5 3 6 2 7 1 8
REMARK H PARENT
REMARK Flexibility Score: inf
ROOT
ATOM      1  C   UNL     1      10.640 -19.383  18.436  1.00  0.00     0.006 C 
ENDROOT
BRANCH   1   2
ATOM      2  C   UNL     1       9.331 -18.652  18.112  1.00  0.00     0.053 C 
BRANCH   2   3
ATOM      3  C   UNL     1       8.132 -19.447  18.529  1.00  0.00     0.041 C 
ATOM      4  O   UNL     1       6.979 -18.954  18.428  1.00  0.00    -0.550 OA
ATOM      5  O   UNL     1       8.292 -20.722  19.060  1.00  0.00    -0.550 OA
ENDBRANCH   2   3
ENDBRANCH   1   2
BRANCH   1   6
ATOM      6  C   UNL     1      11.525 -18.590  19.409  1.00  0.00     0.000 C 
BRANCH   6   7
ATOM      7  C   UNL     1      11.133 -18.875  20.864  1.00  0.00    -0.003 C 
ATOM      8  C   UNL     1      12.347 -19.288  21.690  1.00  0.00     0.004 C 
ENDBRANCH   6   7
ENDBRANCH   1   6
TORSDOF 4
ENDMDL
MODEL 2
REMARK VINA RESULT:    -2.417      1.715      2.544
REMARK INTER + INTRA:          -3.113
REMARK INTER:                  -2.869
REMARK INTRA:                  -0.244
REMARK UNBOUND:                -0.130
REMARK SMILES CCCCCC(=O)[O-]
REMARK SMILES IDX 4 1 5 2 6 3 7 4 8 5 3 6 2 7 1 8
REMARK H PARENT
REMARK Flexibility Score: inf
ROOT
ATOM      1  C   UNL     1       8.059 -19.347  18.320  1.00  0.00     0.006 C 
ENDROOT
BRANCH   1   2
ATOM      2  C   UNL     1       8.136 -20.576  19.236  1.00  0.00     0.053 C 
BRANCH   2   3
ATOM      3  C   UNL     1       7.845 -20.226  20.663  1.00  0.00     0.041 C 
ATOM      4  O   UNL     1       6.670 -19.948  21.020  1.00  0.00    -0.550 OA
ATOM      5  O   UNL     1       8.878 -20.173  21.591  1.00  0.00    -0.550 OA
ENDBRANCH   2   3
ENDBRANCH   1   2
BRANCH   1   6
ATOM      6  C   UNL     1       9.298 -18.448  18.448  1.00  0.00     0.000 C 
BRANCH   6   7
ATOM      7  C   UNL     1      10.587 -19.275  18.368  1.00  0.00    -0.003 C 
ATOM      8  C   UNL     1      11.607 -18.806  19.401  1.00  0.00     0.004 C 
ENDBRANCH   6   7
ENDBRANCH   1   6
TORSDOF 4
ENDMDL
MODEL 3
REMARK VINA RESULT:    -2.402      2.342      3.655
REMARK INTER + INTRA:          -3.093
REMARK INTER:                  -2.847
REMARK INTRA:                  -0.247
REMARK UNBOUND:                -0.130
REMARK SMILES CCCCCC(=O)[O-]
REMARK SMILES IDX 4 1 5 2 6 3 7 4 8 5 3 6 2 7 1 8
REMARK H PARENT
REMARK Flexibility Score: inf
ROOT
ATOM      1  C   UNL     1       9.165 -18.679  17.973  1.00  0.00     0.006 C 
ENDROOT
BRANCH   1   2
ATOM      2  C   UNL     1      10.499 -19.307  18.396  1.00  0.00     0.053 C 
BRANCH   2   3
ATOM      3  C   UNL     1      11.097 -18.602  19.575  1.00  0.00     0.041 C 
ATOM      4  O   UNL     1      10.526 -17.594  20.066  1.00  0.00    -0.550 OA
ATOM      5  O   UNL     1      12.303 -19.040  20.110  1.00  0.00    -0.550 OA
ENDBRANCH   2   3
ENDBRANCH   1   2
BRANCH   1   6
ATOM      6  C   UNL     1       7.965 -19.571  18.325  1.00  0.00     0.000 C 
BRANCH   6   7
ATOM      7  C   UNL     1       7.321 -19.128  19.644  1.00  0.00    -0.003 C 
ATOM      8  C   UNL     1       7.657 -20.096  20.775  1.00  0.00     0.004 C 
ENDBRANCH   6   7
ENDBRANCH   1   6
TORSDOF 4
ENDMDL
MODEL 4
REMARK VINA RESULT:    -2.334      1.246      1.918
REMARK INTER + INTRA:          -3.010
REMARK INTER:                  -2.902
REMARK INTRA:                  -0.108
REMARK UNBOUND:                -0.130
REMARK SMILES CCCCCC(=O)[O-]
REMARK SMILES IDX 4 1 5 2 6 3 7 4 8 5 3 6 2 7 1 8
REMARK H PARENT
REMARK Flexibility Score: inf
ROOT
ATOM      1  C   UNL     1       9.158 -18.726  17.964  1.00  0.00     0.006 C 
ENDROOT
BRANCH   1   2
ATOM      2  C   UNL     1       7.993 -19.642  18.362  1.00  0.00     0.053 C 
BRANCH   2   3
ATOM      3  C   UNL     1       6.942 -18.903  19.132  1.00  0.00     0.041 C 
ATOM      4  O   UNL     1       6.811 -19.095  20.369  1.00  0.00    -0.550 OA
ATOM      5  O   UNL     1       6.085 -18.028  18.475  1.00  0.00    -0.550 OA
ENDBRANCH   2   3
ENDBRANCH   1   2
BRANCH   1   6
ATOM      6  C   UNL     1      10.503 -19.224  18.515  1.00  0.00     0.000 C 
BRANCH   6   7
ATOM      7  C   UNL     1      10.750 -18.685  19.929  1.00  0.00    -0.003 C 
ATOM      8  C   UNL     1      12.216 -18.831  20.326  1.00  0.00     0.004 C 
ENDBRANCH   6   7
ENDBRANCH   1   6
TORSDOF 4
ENDMDL
MODEL 5
REMARK VINA RESULT:    -2.330      2.490      4.014
REMARK INTER + INTRA:          -3.005
REMARK INTER:                  -2.765
REMARK INTRA:                  -0.240
REMARK UNBOUND:                -0.130
REMARK SMILES CCCCCC(=O)[O-]
REMARK SMILES IDX 4 1 5 2 6 3 7 4 8 5 3 6 2 7 1 8
REMARK H PARENT
REMARK Flexibility Score: inf
ROOT
ATOM      1  C   UNL     1       9.286 -18.073  20.087  1.00  0.00     0.006 C 
ENDROOT
BRANCH   1   2
ATOM      2  C   UNL     1      10.712 -17.508  20.050  1.00  0.00     0.053 C 
BRANCH   2   3
ATOM      3  C   UNL     1      11.731 -18.584  19.831  1.00  0.00     0.041 C 
ATOM      4  O   UNL     1      11.721 -19.259  18.769  1.00  0.00    -0.550 OA
ATOM      5  O   UNL     1      12.671 -18.863  20.816  1.00  0.00    -0.550 OA
ENDBRANCH   2   3
ENDBRANCH   1   2
BRANCH   1   6
ATOM      6  C   UNL     1       8.506 -17.768  18.799  1.00  0.00     0.000 C 
BRANCH   6   7
ATOM      7  C   UNL     1       8.022 -19.061  18.132  1.00  0.00    -0.003 C 
ATOM      8  C   UNL     1       8.309 -20.275  19.010  1.00  0.00     0.004 C 
ENDBRANCH   6   7
ENDBRANCH   1   6
TORSDOF 4
ENDMDL
MODEL 6
REMARK VINA RESULT:    -2.325      2.423      4.250
REMARK INTER + INTRA:          -2.999
REMARK INTER:                  -2.851
REMARK INTRA:                  -0.148
REMARK UNBOUND:                -0.130
REMARK SMILES CCCCCC(=O)[O-]
REMARK SMILES IDX 4 1 5 2 6 3 7 4 8 5 3 6 2 7 1 8
REMARK H PARENT
REMARK Flexibility Score: inf
ROOT
ATOM      1  C   UNL     1       8.062 -19.331  18.263  1.00  0.00     0.006 C 
ENDROOT
BRANCH   1   2
ATOM      2  C   UNL     1       9.486 -18.851  17.954  1.00  0.00     0.053 C 
BRANCH   2   3
ATOM      3  C   UNL     1      10.397 -19.012  19.132  1.00  0.00     0.041 C 
ATOM      4  O   UNL     1       9.931 -18.983  20.301  1.00  0.00    -0.550 OA
ATOM      5  O   UNL     1      11.765 -19.161  18.939  1.00  0.00    -0.550 OA
ENDBRANCH   2   3
ENDBRANCH   1   2
BRANCH   1   6
ATOM      6  C   UNL     1       7.042 -18.184  18.232  1.00  0.00     0.000 C 
BRANCH   6   7
ATOM      7  C   UNL     1       7.722 -16.853  17.891  1.00  0.00    -0.003 C 
ATOM      8  C   UNL     1       6.715 -15.707  17.875  1.00  0.00     0.004 C 
ENDBRANCH   6   7
ENDBRANCH   1   6
TORSDOF 4
ENDMDL
MODEL 7
REMARK VINA RESULT:    -2.277      3.027      4.200
REMARK INTER + INTRA:          -2.940
REMARK INTER:                  -2.769
REMARK INTRA:                  -0.170
REMARK UNBOUND:                -0.130
REMARK SMILES CCCCCC(=O)[O-]
REMARK SMILES IDX 4 1 5 2 6 3 7 4 8 5 3 6 2 7 1 8
REMARK H PARENT
REMARK Flexibility Score: inf
ROOT
ATOM      1  C   UNL     1      11.633 -19.066  19.135  1.00  0.00     0.006 C 
ENDROOT
BRANCH   1   2
ATOM      2  C   UNL     1      11.357 -18.187  20.361  1.00  0.00     0.053 C 
BRANCH   2   3
ATOM      3  C   UNL     1      11.607 -16.738  20.075  1.00  0.00     0.041 C 
ATOM      4  O   UNL     1      10.670 -16.002  19.669  1.00  0.00    -0.550 OA
ATOM      5  O   UNL     1      12.884 -16.209  20.224  1.00  0.00    -0.550 OA
ENDBRANCH   2   3
ENDBRANCH   1   2
BRANCH   1   6
ATOM      6  C   UNL     1      10.374 -19.291  18.285  1.00  0.00     0.000 C 
BRANCH   6   7
ATOM      7  C   UNL     1       9.141 -19.497  19.174  1.00  0.00    -0.003 C 
ATOM      8  C   UNL     1       7.856 -19.459  18.352  1.00  0.00     0.004 C 
ENDBRANCH   6   7
ENDBRANCH   1   6
TORSDOF 4
ENDMDL
MODEL 8
REMARK VINA RESULT:    -2.258      2.865      5.088
REMARK INTER + INTRA:          -2.916
REMARK INTER:                  -2.833
REMARK INTRA:                  -0.083
REMARK UNBOUND:                -0.130
REMARK SMILES CCCCCC(=O)[O-]
REMARK SMILES IDX 4 1 5 2 6 3 7 4 8 5 3 6 2 7 1 8
REMARK H PARENT
REMARK Flexibility Score: inf
ROOT
ATOM      1  C   UNL     1       6.919 -18.930  19.409  1.00  0.00     0.006 C 
ENDROOT
BRANCH   1   2
ATOM      2  C   UNL     1       7.844 -19.274  18.234  1.00  0.00     0.053 C 
BRANCH   2   3
ATOM      3  C   UNL     1       9.178 -18.605  18.361  1.00  0.00     0.041 C 
ATOM      4  O   UNL     1       9.247 -17.372  18.604  1.00  0.00    -0.550 OA
ATOM      5  O   UNL     1      10.344 -19.337  18.177  1.00  0.00    -0.550 OA
ENDBRANCH   2   3
ENDBRANCH   1   2
BRANCH   1   6
ATOM      6  C   UNL     1       5.598 -18.299  18.944  1.00  0.00     0.000 C 
BRANCH   6   7
ATOM      7  C   UNL     1       4.421 -18.803  19.787  1.00  0.00    -0.003 C 
ATOM      8  C   UNL     1       3.201 -19.088  18.916  1.00  0.00     0.004 C 
ENDBRANCH   6   7
ENDBRANCH   1   6
TORSDOF 4
ENDMDL
MODEL 9
REMARK VINA RESULT:    -2.186      9.711     11.389
REMARK INTER + INTRA:          -2.827
REMARK INTER:                  -2.639
REMARK INTRA:                  -0.188
REMARK UNBOUND:                -0.130
REMARK SMILES CCCCCC(=O)[O-]
REMARK SMILES IDX 4 1 5 2 6 3 7 4 8 5 3 6 2 7 1 8
REMARK H PARENT
REMARK Flexibility Score: inf
ROOT
ATOM      1  C   UNL     1      -1.226 -19.318  19.413  1.00  0.00     0.006 C 
ENDROOT
BRANCH   1   2
ATOM      2  C   UNL     1      -2.467 -20.219  19.457  1.00  0.00     0.053 C 
BRANCH   2   3
ATOM      3  C   UNL     1      -2.836 -20.591  20.861  1.00  0.00     0.041 C 
ATOM      4  O   UNL     1      -4.005 -20.392  21.282  1.00  0.00    -0.550 OA
ATOM      5  O   UNL     1      -1.878 -21.125  21.714  1.00  0.00    -0.550 OA
ENDBRANCH   2   3
ENDBRANCH   1   2
BRANCH   1   6
ATOM      6  C   UNL     1      -0.293 -19.669  18.245  1.00  0.00     0.000 C 
BRANCH   6   7
ATOM      7  C   UNL     1       0.777 -20.678  18.681  1.00  0.00    -0.003 C 
ATOM      8  C   UNL     1       1.266 -20.385  20.097  1.00  0.00     0.004 C 
ENDBRANCH   6   7
ENDBRANCH   1   6
TORSDOF 4
ENDMDL
