MODEL 1
REMARK VINA RESULT:    -2.947      0.000      0.000
REMARK INTER + INTRA:          -2.947
REMARK INTER:                  -2.947
REMARK INTRA:                   0.000
REMARK UNBOUND:                 0.000
REMARK SMILES CC(=O)[O-]
REMARK SMILES IDX 1 1 2 2 3 3 4 4
REMARK H PARENT
REMARK Flexibility Score: inf
ROOT
ATOM      1  C   UNL     1       2.883   0.332   7.538  1.00  0.00     0.063 C 
ATOM      2  C   UNL     1       4.030   1.207   7.164  1.00  0.00     0.038 C 
ATOM      3  O   UNL     1       3.822   2.372   6.733  1.00  0.00    -0.550 OA
ATOM      4  O   UNL     1       5.334   0.761   7.342  1.00  0.00    -0.550 OA
ENDROOT
TORSDOF 0
ENDMDL
MODEL 2
REMARK VINA RESULT:    -2.933      0.098      1.623
REMARK INTER + INTRA:          -2.933
REMARK INTER:                  -2.933
REMARK INTRA:                   0.000
REMARK UNBOUND:                 0.000
REMARK SMILES CC(=O)[O-]
REMARK SMILES IDX 1 1 2 2 3 3 4 4
REMARK H PARENT
REMARK Flexibility Score: inf
ROOT
ATOM      1  C   UNL     1       2.970   0.217   7.489  1.00  0.00     0.063 C 
ATOM      2  C   UNL     1       4.095   1.151   7.200  1.00  0.00     0.038 C 
ATOM      3  O   UNL     1       5.286   0.773   7.358  1.00  0.00    -0.550 OA
ATOM      4  O   UNL     1       3.835   2.422   6.703  1.00  0.00    -0.550 OA
ENDROOT
TORSDOF 0
ENDMDL
MODEL 3
REMARK VINA RESULT:    -2.913      1.837      1.957
REMARK INTER + INTRA:          -2.913
REMARK INTER:                  -2.913
REMARK INTRA:                   0.000
REMARK UNBOUND:                 0.000
REMARK SMILES CC(=O)[O-]
REMARK SMILES IDX 1 1 2 2 3 3 4 4
REMARK H PARENT
REMARK Flexibility Score: inf
ROOT
ATOM      1  C   UNL     1       5.228  -0.743   7.308  1.00  0.00     0.063 C 
ATOM      2  C   UNL     1       4.256   0.387   7.336  1.00  0.00     0.038 C 
ATOM      3  O   UNL     1       4.657   1.569   7.164  1.00  0.00    -0.550 OA
ATOM      4  O   UNL     1       2.899   0.136   7.495  1.00  0.00    -0.550 OA
ENDROOT
TORSDOF 0
ENDMDL
MODEL 4
REMARK VINA RESULT:    -2.522      3.037      3.430
REMARK INTER + INTRA:          -2.522
REMARK INTER:                  -2.522
REMARK INTRA:                   0.000
REMARK UNBOUND:                 0.000
REMARK SMILES CC(=O)[O-]
REMARK SMILES IDX 1 1 2 2 3 3 4 4
REMARK H PARENT
REMARK Flexibility Score: inf
ROOT
ATOM      1  C   UNL     1       2.469   0.294   7.616  1.00  0.00     0.063 C 
ATOM      2  C   UNL     1       1.291   0.809   8.370  1.00  0.00     0.038 C 
ATOM      3  O   UNL     1       0.967   2.023   8.284  1.00  0.00    -0.550 OA
ATOM      4  O   UNL     1       0.513  -0.060   9.125  1.00  0.00    -0.550 OA
ENDROOT
TORSDOF 0
ENDMDL
MODEL 5
REMARK VINA RESULT:    -2.279      5.419      5.762
REMARK INTER + INTRA:          -2.279
REMARK INTER:                  -2.279
REMARK INTRA:                   0.000
REMARK UNBOUND:                 0.000
REMARK SMILES CC(=O)[O-]
REMARK SMILES IDX 1 1 2 2 3 3 4 4
REMARK H PARENT
REMARK Flexibility Score: inf
ROOT
ATOM      1  C   UNL     1       4.864   6.784   5.558  1.00  0.00     0.063 C 
ATOM      2  C   UNL     1       4.524   5.857   4.442  1.00  0.00     0.038 C 
ATOM      3  O   UNL     1       3.434   5.225   4.455  1.00  0.00    -0.550 OA
ATOM      4  O   UNL     1       5.381   5.730   3.356  1.00  0.00    -0.550 OA
ENDROOT
TORSDOF 0
ENDMDL
MODEL 6
REMARK VINA RESULT:    -2.274     13.877     14.380
REMARK INTER + INTRA:          -2.274
REMARK INTER:                  -2.274
REMARK INTRA:                   0.000
REMARK UNBOUND:                 0.000
REMARK SMILES CC(=O)[O-]
REMARK SMILES IDX 1 1 2 2 3 3 4 4
REMARK H PARENT
REMARK Flexibility Score: inf
ROOT
ATOM      1  C   UNL     1      -5.990  -1.110  -0.914  1.00  0.00     0.063 C 
ATOM      2  C   UNL     1      -6.352  -1.199  -2.357  1.00  0.00     0.038 C 
ATOM      3  O   UNL     1      -6.913  -2.233  -2.805  1.00  0.00    -0.550 OA
ATOM      4  O   UNL     1      -6.124  -0.118  -3.200  1.00  0.00    -0.550 OA
ENDROOT
TORSDOF 0
ENDMDL
MODEL 7
REMARK VINA RESULT:    -2.248     17.636     17.949
REMARK INTER + INTRA:          -2.248
REMARK INTER:                  -2.248
REMARK INTRA:                   0.000
REMARK UNBOUND:                 0.000
REMARK SMILES CC(=O)[O-]
REMARK SMILES IDX 1 1 2 2 3 3 4 4
REMARK H PARENT
REMARK Flexibility Score: inf
ROOT
ATOM      1  C   UNL     1       9.973   3.456 -10.095  1.00  0.00     0.063 C 
ATOM      2  C   UNL     1       9.082   4.520  -9.552  1.00  0.00     0.038 C 
ATOM      3  O   UNL     1       9.541   5.385  -8.759  1.00  0.00    -0.550 OA
ATOM      4  O   UNL     1       7.758   4.597  -9.963  1.00  0.00    -0.550 OA
ENDROOT
TORSDOF 0
ENDMDL
MODEL 8
REMARK VINA RESULT:    -2.173     12.786     12.940
REMARK INTER + INTRA:          -2.173
REMARK INTER:                  -2.173
REMARK INTRA:                   0.000
REMARK UNBOUND:                 0.000
REMARK SMILES CC(=O)[O-]
REMARK SMILES IDX 1 1 2 2 3 3 4 4
REMARK H PARENT
REMARK Flexibility Score: inf
ROOT
ATOM      1  C   UNL     1      -6.214  -2.493   0.451  1.00  0.00     0.063 C 
ATOM      2  C   UNL     1      -6.191  -3.749   1.253  1.00  0.00     0.038 C 
ATOM      3  O   UNL     1      -5.701  -4.801   0.764  1.00  0.00    -0.550 OA
ATOM      4  O   UNL     1      -6.658  -3.750   2.561  1.00  0.00    -0.550 OA
ENDROOT
TORSDOF 0
ENDMDL
MODEL 9
REMARK VINA RESULT:    -2.128     11.758     12.295
REMARK INTER + INTRA:          -2.128
REMARK INTER:                  -2.128
REMARK INTRA:                   0.000
REMARK UNBOUND:                 0.000
REMARK SMILES CC(=O)[O-]
REMARK SMILES IDX 1 1 2 2 3 3 4 4
REMARK H PARENT
REMARK Flexibility Score: inf
ROOT
ATOM      1  C   UNL     1      -5.584  -1.359  -0.574  1.00  0.00     0.063 C 
ATOM      2  C   UNL     1      -6.006  -1.464   0.852  1.00  0.00     0.038 C 
ATOM      3  O   UNL     1      -6.629  -2.482   1.253  1.00  0.00    -0.550 OA
ATOM      4  O   UNL     1      -5.666  -0.465   1.754  1.00  0.00    -0.550 OA
ENDROOT
TORSDOF 0
ENDMDL
