MODEL 1
REMARK VINA RESULT:    -6.861      0.000      0.000
REMARK INTER + INTRA:          -8.593
REMARK INTER:                  -8.265
REMARK INTRA:                  -0.329
REMARK UNBOUND:                -0.329
REMARK SMILES Oc1cc(O)c2c(c1)O[C@@H](c1ccc(O)c(O)c1)[C@H](O)C2
REMARK SMILES IDX 21 1 19 2 10 3 9 4 7 5 8 6 2 7 3 8 4 9 6 10 20 11 11 13
REMARK SMILES IDX 18 14 12 15 16 16 13 17 14 18 17 19 15 21 5 23 1 25
REMARK H PARENT 20 12 17 20 15 22 5 24 1 26
REMARK Flexibility Score: inf
ROOT
ATOM      1  C   UNL     1      13.137 -21.999  18.380  1.00  0.00     0.079 C 
ATOM      2  C   UNL     1      13.275 -23.237  19.286  1.00  0.00     0.164 C 
ATOM      3  C   UNL     1      14.604 -23.176  20.055  1.00  0.00     0.232 C 
ATOM      4  O   UNL     1      14.676 -21.962  20.803  1.00  0.00    -0.482 OA
ATOM      5  C   UNL     1      14.199 -20.747  20.301  1.00  0.00     0.131 A 
ATOM      6  C   UNL     1      14.470 -19.570  21.004  1.00  0.00     0.093 A 
ATOM      7  C   UNL     1      14.020 -18.338  20.517  1.00  0.00     0.122 A 
ATOM      8  C   UNL     1      13.305 -18.285  19.319  1.00  0.00     0.092 A 
ATOM      9  C   UNL     1      13.025 -19.454  18.601  1.00  0.00     0.126 A 
ATOM     10  C   UNL     1      13.439 -20.707  19.111  1.00  0.00     0.039 A 
ENDROOT
BRANCH   2  11
ATOM     11  O   UNL     1      13.233 -24.404  18.504  1.00  0.00    -0.389 OA
ATOM     12  H   UNL     1      12.425 -24.909  18.788  1.00  0.00     0.211 HD
ENDBRANCH   2  11
BRANCH   3  13
ATOM     13  C   UNL     1      14.751 -24.355  20.987  1.00  0.00    -0.001 A 
ATOM     14  C   UNL     1      13.707 -24.700  21.862  1.00  0.00     0.057 A 
ATOM     15  C   UNL     1      15.948 -25.090  21.029  1.00  0.00     0.012 A 
ATOM     16  C   UNL     1      13.848 -25.775  22.751  1.00  0.00     0.157 A 
ATOM     17  C   UNL     1      16.091 -26.162  21.913  1.00  0.00     0.050 A 
ATOM     18  C   UNL     1      15.042 -26.509  22.775  1.00  0.00     0.157 A 
BRANCH  16  19
ATOM     19  O   UNL     1      12.810 -26.120  23.614  1.00  0.00    -0.504 OA
ATOM     20  H   UNL     1      12.990 -26.472  24.546  1.00  0.00     0.293 HD
ENDBRANCH  16  19
BRANCH  18  21
ATOM     21  O   UNL     1      15.179 -27.579  23.659  1.00  0.00    -0.504 OA
ATOM     22  H   UNL     1      14.503 -28.333  23.685  1.00  0.00     0.293 HD
ENDBRANCH  18  21
ENDBRANCH   3  13
BRANCH   9  23
ATOM     23  O   UNL     1      12.345 -19.332  17.387  1.00  0.00    -0.507 OA
ATOM     24  H   UNL     1      12.307 -20.069  16.695  1.00  0.00     0.293 HD
ENDBRANCH   9  23
BRANCH   7  25
ATOM     25  O   UNL     1      14.284 -17.161  21.213  1.00  0.00    -0.508 OA
ATOM     26  H   UNL     1      14.285 -17.132  22.226  1.00  0.00     0.293 HD
ENDBRANCH   7  25
TORSDOF 6
ENDMDL
MODEL 2
REMARK VINA RESULT:    -6.592      2.237      6.974
REMARK INTER + INTRA:          -8.269
REMARK INTER:                  -7.911
REMARK INTRA:                  -0.359
REMARK UNBOUND:                -0.329
REMARK SMILES Oc1cc(O)c2c(c1)O[C@@H](c1ccc(O)c(O)c1)[C@H](O)C2
REMARK SMILES IDX 21 1 19 2 10 3 9 4 7 5 8 6 2 7 3 8 4 9 6 10 20 11 11 13
REMARK SMILES IDX 18 14 12 15 16 16 13 17 14 18 17 19 15 21 5 23 1 25
REMARK H PARENT 20 12 17 20 15 22 5 24 1 26
REMARK Flexibility Score: inf
ROOT
ATOM      1  C   UNL     1      13.601 -20.309  18.376  1.00  0.00     0.079 C 
ATOM      2  C   UNL     1      14.415 -19.127  18.936  1.00  0.00     0.164 C 
ATOM      3  C   UNL     1      14.200 -19.018  20.454  1.00  0.00     0.232 C 
ATOM      4  O   UNL     1      14.554 -20.250  21.083  1.00  0.00    -0.482 OA
ATOM      5  C   UNL     1      14.264 -21.492  20.509  1.00  0.00     0.131 A 
ATOM      6  C   UNL     1      14.467 -22.651  21.262  1.00  0.00     0.093 A 
ATOM      7  C   UNL     1      14.170 -23.906  20.719  1.00  0.00     0.122 A 
ATOM      8  C   UNL     1      13.659 -23.998  19.422  1.00  0.00     0.092 A 
ATOM      9  C   UNL     1      13.448 -22.846  18.654  1.00  0.00     0.126 A 
ATOM     10  C   UNL     1      13.789 -21.578  19.182  1.00  0.00     0.039 A 
ENDROOT
BRANCH   2  11
ATOM     11  O   UNL     1      14.010 -17.935  18.314  1.00  0.00    -0.389 OA
ATOM     12  H   UNL     1      13.831 -18.156  17.362  1.00  0.00     0.211 HD
ENDBRANCH   2  11
BRANCH   3  13
ATOM     13  C   UNL     1      15.022 -17.895  21.043  1.00  0.00    -0.001 A 
ATOM     14  C   UNL     1      14.390 -16.754  21.566  1.00  0.00     0.057 A 
ATOM     15  C   UNL     1      16.426 -17.954  21.030  1.00  0.00     0.012 A 
ATOM     16  C   UNL     1      15.148 -15.696  22.087  1.00  0.00     0.157 A 
ATOM     17  C   UNL     1      17.183 -16.900  21.549  1.00  0.00     0.050 A 
ATOM     18  C   UNL     1      16.548 -15.770  22.080  1.00  0.00     0.157 A 
BRANCH  16  19
ATOM     19  O   UNL     1      14.520 -14.568  22.610  1.00  0.00    -0.504 OA
ATOM     20  H   UNL     1      15.027 -13.887  23.163  1.00  0.00     0.293 HD
ENDBRANCH  16  19
BRANCH  18  21
ATOM     21  O   UNL     1      17.299 -14.717  22.600  1.00  0.00    -0.504 OA
ATOM     22  H   UNL     1      16.856 -13.899  23.002  1.00  0.00     0.293 HD
ENDBRANCH  18  21
ENDBRANCH   3  13
BRANCH   9  23
ATOM     23  O   UNL     1      12.894 -22.999  17.381  1.00  0.00    -0.507 OA
ATOM     24  H   UNL     1      13.241 -22.516  16.562  1.00  0.00     0.293 HD
ENDBRANCH   9  23
BRANCH   7  25
ATOM     25  O   UNL     1      14.371 -25.066  21.462  1.00  0.00    -0.508 OA
ATOM     26  H   UNL     1      15.023 -25.782  21.162  1.00  0.00     0.293 HD
ENDBRANCH   7  25
TORSDOF 6
ENDMDL
MODEL 3
REMARK VINA RESULT:    -6.573      2.196      6.731
REMARK INTER + INTRA:          -8.246
REMARK INTER:                  -7.870
REMARK INTRA:                  -0.376
REMARK UNBOUND:                -0.329
REMARK SMILES Oc1cc(O)c2c(c1)O[C@@H](c1ccc(O)c(O)c1)[C@H](O)C2
REMARK SMILES IDX 21 1 19 2 10 3 9 4 7 5 8 6 2 7 3 8 4 9 6 10 20 11 11 13
REMARK SMILES IDX 18 14 12 15 16 16 13 17 14 18 17 19 15 21 5 23 1 25
REMARK H PARENT 20 12 17 20 15 22 5 24 1 26
REMARK Flexibility Score: inf
ROOT
ATOM      1  C   UNL     1      15.029 -25.731  21.778  1.00  0.00     0.079 C 
ATOM      2  C   UNL     1      14.878 -24.616  20.727  1.00  0.00     0.164 C 
ATOM      3  C   UNL     1      13.841 -23.586  21.203  1.00  0.00     0.232 C 
ATOM      4  O   UNL     1      14.224 -23.066  22.476  1.00  0.00    -0.482 OA
ATOM      5  C   UNL     1      14.795 -23.868  23.469  1.00  0.00     0.131 A 
ATOM      6  C   UNL     1      14.971 -23.339  24.751  1.00  0.00     0.093 A 
ATOM      7  C   UNL     1      15.525 -24.124  25.768  1.00  0.00     0.122 A 
ATOM      8  C   UNL     1      15.894 -25.444  25.503  1.00  0.00     0.092 A 
ATOM      9  C   UNL     1      15.725 -25.991  24.225  1.00  0.00     0.126 A 
ATOM     10  C   UNL     1      15.207 -25.188  23.181  1.00  0.00     0.039 A 
ENDROOT
BRANCH   2  11
ATOM     11  O   UNL     1      14.469 -25.169  19.502  1.00  0.00    -0.389 OA
ATOM     12  H   UNL     1      13.524 -25.455  19.619  1.00  0.00     0.211 HD
ENDBRANCH   2  11
BRANCH   3  13
ATOM     13  C   UNL     1      13.702 -22.453  20.214  1.00  0.00    -0.001 A 
ATOM     14  C   UNL     1      14.784 -21.591  19.968  1.00  0.00     0.057 A 
ATOM     15  C   UNL     1      12.478 -22.216  19.565  1.00  0.00     0.012 A 
ATOM     16  C   UNL     1      14.651 -20.520  19.073  1.00  0.00     0.157 A 
ATOM     17  C   UNL     1      12.344 -21.149  18.673  1.00  0.00     0.050 A 
ATOM     18  C   UNL     1      13.430 -20.299  18.423  1.00  0.00     0.157 A 
BRANCH  16  19
ATOM     19  O   UNL     1      15.726 -19.668  18.827  1.00  0.00    -0.504 OA
ATOM     20  H   UNL     1      15.962 -18.915  19.461  1.00  0.00     0.293 HD
ENDBRANCH  16  19
BRANCH  18  21
ATOM     21  O   UNL     1      13.302 -19.235  17.532  1.00  0.00    -0.504 OA
ATOM     22  H   UNL     1      12.607 -18.510  17.670  1.00  0.00     0.293 HD
ENDBRANCH  18  21
ENDBRANCH   3  13
BRANCH   9  23
ATOM     23  O   UNL     1      16.072 -27.330  24.033  1.00  0.00    -0.507 OA
ATOM     24  H   UNL     1      16.861 -27.625  23.472  1.00  0.00     0.293 HD
ENDBRANCH   9  23
BRANCH   7  25
ATOM     25  O   UNL     1      15.704 -23.603  27.047  1.00  0.00    -0.508 OA
ATOM     26  H   UNL     1      15.083 -22.897  27.424  1.00  0.00     0.293 HD
ENDBRANCH   7  25
TORSDOF 6
ENDMDL
MODEL 4
REMARK VINA RESULT:    -6.507      1.916      6.593
REMARK INTER + INTRA:          -8.167
REMARK INTER:                  -7.840
REMARK INTRA:                  -0.328
REMARK UNBOUND:                -0.329
REMARK SMILES Oc1cc(O)c2c(c1)O[C@@H](c1ccc(O)c(O)c1)[C@H](O)C2
REMARK SMILES IDX 21 1 19 2 10 3 9 4 7 5 8 6 2 7 3 8 4 9 6 10 20 11 11 13
REMARK SMILES IDX 18 14 12 15 16 16 13 17 14 18 17 19 15 21 5 23 1 25
REMARK H PARENT 20 12 17 20 15 22 5 24 1 26
REMARK Flexibility Score: inf
ROOT
ATOM      1  C   UNL     1      14.334 -24.632  20.406  1.00  0.00     0.079 C 
ATOM      2  C   UNL     1      14.134 -23.400  19.504  1.00  0.00     0.164 C 
ATOM      3  C   UNL     1      13.538 -22.244  20.323  1.00  0.00     0.232 C 
ATOM      4  O   UNL     1      14.384 -21.953  21.436  1.00  0.00    -0.482 OA
ATOM      5  C   UNL     1      15.027 -22.957  22.167  1.00  0.00     0.131 A 
ATOM      6  C   UNL     1      15.684 -22.617  23.353  1.00  0.00     0.093 A 
ATOM      7  C   UNL     1      16.323 -23.604  24.112  1.00  0.00     0.122 A 
ATOM      8  C   UNL     1      16.294 -24.934  23.688  1.00  0.00     0.092 A 
ATOM      9  C   UNL     1      15.640 -25.292  22.503  1.00  0.00     0.126 A 
ATOM     10  C   UNL     1      15.031 -24.293  21.708  1.00  0.00     0.039 A 
ENDROOT
BRANCH   2  11
ATOM     11  O   UNL     1      13.271 -23.724  18.444  1.00  0.00    -0.389 OA
ATOM     12  H   UNL     1      13.820 -24.193  17.761  1.00  0.00     0.211 HD
ENDBRANCH   2  11
BRANCH   3  13
ATOM     13  C   UNL     1      13.371 -21.004  19.477  1.00  0.00    -0.001 A 
ATOM     14  C   UNL     1      12.094 -20.611  19.041  1.00  0.00     0.057 A 
ATOM     15  C   UNL     1      14.491 -20.257  19.073  1.00  0.00     0.012 A 
ATOM     16  C   UNL     1      11.937 -19.477  18.231  1.00  0.00     0.157 A 
ATOM     17  C   UNL     1      14.336 -19.127  18.266  1.00  0.00     0.050 A 
ATOM     18  C   UNL     1      13.059 -18.732  17.845  1.00  0.00     0.157 A 
BRANCH  16  19
ATOM     19  O   UNL     1      10.669 -19.085  17.805  1.00  0.00    -0.504 OA
ATOM     20  H   UNL     1      10.416 -18.107  17.724  1.00  0.00     0.293 HD
ENDBRANCH  16  19
BRANCH  18  21
ATOM     21  O   UNL     1      12.899 -17.605  17.041  1.00  0.00    -0.504 OA
ATOM     22  H   UNL     1      12.610 -17.682  16.073  1.00  0.00     0.293 HD
ENDBRANCH  18  21
ENDBRANCH   3  13
BRANCH   9  23
ATOM     23  O   UNL     1      15.608 -26.644  22.154  1.00  0.00    -0.507 OA
ATOM     24  H   UNL     1      15.761 -27.393  22.817  1.00  0.00     0.293 HD
ENDBRANCH   9  23
BRANCH   7  25
ATOM     25  O   UNL     1      16.981 -23.273  25.294  1.00  0.00    -0.508 OA
ATOM     26  H   UNL     1      17.158 -22.308  25.551  1.00  0.00     0.293 HD
ENDBRANCH   7  25
TORSDOF 6
ENDMDL
MODEL 5
REMARK VINA RESULT:    -6.388      2.432      2.796
REMARK INTER + INTRA:          -8.024
REMARK INTER:                  -7.653
REMARK INTRA:                  -0.371
REMARK UNBOUND:                -0.329
REMARK SMILES Oc1cc(O)c2c(c1)O[C@@H](c1ccc(O)c(O)c1)[C@H](O)C2
REMARK SMILES IDX 21 1 19 2 10 3 9 4 7 5 8 6 2 7 3 8 4 9 6 10 20 11 11 13
REMARK SMILES IDX 18 14 12 15 16 16 13 17 14 18 17 19 15 21 5 23 1 25
REMARK H PARENT 20 12 17 20 15 22 5 24 1 26
REMARK Flexibility Score: inf
ROOT
ATOM      1  C   UNL     1      14.429 -23.900  19.568  1.00  0.00     0.079 C 
ATOM      2  C   UNL     1      14.781 -24.393  20.985  1.00  0.00     0.164 C 
ATOM      3  C   UNL     1      15.738 -23.398  21.661  1.00  0.00     0.232 C 
ATOM      4  O   UNL     1      15.148 -22.098  21.684  1.00  0.00    -0.482 OA
ATOM      5  C   UNL     1      14.398 -21.600  20.614  1.00  0.00     0.131 A 
ATOM      6  C   UNL     1      14.011 -20.257  20.624  1.00  0.00     0.093 A 
ATOM      7  C   UNL     1      13.274 -19.727  19.559  1.00  0.00     0.122 A 
ATOM      8  C   UNL     1      12.933 -20.542  18.478  1.00  0.00     0.092 A 
ATOM      9  C   UNL     1      13.313 -21.890  18.451  1.00  0.00     0.126 A 
ATOM     10  C   UNL     1      14.020 -22.442  19.545  1.00  0.00     0.039 A 
ENDROOT
BRANCH   2  11
ATOM     11  O   UNL     1      15.388 -25.658  20.910  1.00  0.00    -0.389 OA
ATOM     12  H   UNL     1      14.781 -26.294  21.374  1.00  0.00     0.211 HD
ENDBRANCH   2  11
BRANCH   3  13
ATOM     13  C   UNL     1      16.068 -23.829  23.071  1.00  0.00    -0.001 A 
ATOM     14  C   UNL     1      15.044 -23.994  24.019  1.00  0.00     0.057 A 
ATOM     15  C   UNL     1      17.402 -24.022  23.465  1.00  0.00     0.012 A 
ATOM     16  C   UNL     1      15.347 -24.366  25.336  1.00  0.00     0.157 A 
ATOM     17  C   UNL     1      17.706 -24.393  24.778  1.00  0.00     0.050 A 
ATOM     18  C   UNL     1      16.680 -24.568  25.716  1.00  0.00     0.157 A 
BRANCH  16  19
ATOM     19  O   UNL     1      14.330 -24.534  26.274  1.00  0.00    -0.504 OA
ATOM     20  H   UNL     1      14.051 -23.784  26.894  1.00  0.00     0.293 HD
ENDBRANCH  16  19
BRANCH  18  21
ATOM     21  O   UNL     1      16.978 -24.939  27.027  1.00  0.00    -0.504 OA
ATOM     22  H   UNL     1      17.493 -24.325  27.647  1.00  0.00     0.293 HD
ENDBRANCH  18  21
ENDBRANCH   3  13
BRANCH   9  23
ATOM     23  O   UNL     1      12.981 -22.643  17.322  1.00  0.00    -0.507 OA
ATOM     24  H   UNL     1      12.039 -22.947  17.114  1.00  0.00     0.293 HD
ENDBRANCH   9  23
BRANCH   7  25
ATOM     25  O   UNL     1      12.883 -18.391  19.563  1.00  0.00    -0.508 OA
ATOM     26  H   UNL     1      13.481 -17.662  19.190  1.00  0.00     0.293 HD
ENDBRANCH   7  25
TORSDOF 6
ENDMDL
MODEL 6
REMARK VINA RESULT:    -6.348      1.884      7.150
REMARK INTER + INTRA:          -7.975
REMARK INTER:                  -7.992
REMARK INTRA:                   0.017
REMARK UNBOUND:                -0.329
REMARK SMILES Oc1cc(O)c2c(c1)O[C@@H](c1ccc(O)c(O)c1)[C@H](O)C2
REMARK SMILES IDX 21 1 19 2 10 3 9 4 7 5 8 6 2 7 3 8 4 9 6 10 20 11 11 13
REMARK SMILES IDX 18 14 12 15 16 16 13 17 14 18 17 19 15 21 5 23 1 25
REMARK H PARENT 20 12 17 20 15 22 5 24 1 26
REMARK Flexibility Score: inf
ROOT
ATOM      1  C   UNL     1      15.700 -21.351  22.197  1.00  0.00     0.079 C 
ATOM      2  C   UNL     1      14.724 -20.529  21.335  1.00  0.00     0.164 C 
ATOM      3  C   UNL     1      14.247 -21.370  20.140  1.00  0.00     0.232 C 
ATOM      4  O   UNL     1      13.651 -22.581  20.607  1.00  0.00    -0.482 OA
ATOM      5  C   UNL     1      14.164 -23.294  21.695  1.00  0.00     0.131 A 
ATOM      6  C   UNL     1      13.648 -24.562  21.979  1.00  0.00     0.093 A 
ATOM      7  C   UNL     1      14.153 -25.304  23.051  1.00  0.00     0.122 A 
ATOM      8  C   UNL     1      15.184 -24.780  23.835  1.00  0.00     0.092 A 
ATOM      9  C   UNL     1      15.712 -23.512  23.565  1.00  0.00     0.126 A 
ATOM     10  C   UNL     1      15.175 -22.738  22.509  1.00  0.00     0.039 A 
ENDROOT
BRANCH   2  11
ATOM     11  O   UNL     1      15.362 -19.367  20.872  1.00  0.00    -0.389 OA
ATOM     12  H   UNL     1      15.842 -19.617  20.038  1.00  0.00     0.211 HD
ENDBRANCH   2  11
BRANCH   3  13
ATOM     13  C   UNL     1      13.251 -20.608  19.298  1.00  0.00    -0.001 A 
ATOM     14  C   UNL     1      13.682 -19.561  18.466  1.00  0.00     0.057 A 
ATOM     15  C   UNL     1      11.879 -20.901  19.372  1.00  0.00     0.012 A 
ATOM     16  C   UNL     1      12.759 -18.831  17.704  1.00  0.00     0.157 A 
ATOM     17  C   UNL     1      10.958 -20.175  18.614  1.00  0.00     0.050 A 
ATOM     18  C   UNL     1      11.394 -19.139  17.777  1.00  0.00     0.157 A 
BRANCH  16  19
ATOM     19  O   UNL     1      13.189 -17.796  16.875  1.00  0.00    -0.504 OA
ATOM     20  H   UNL     1      13.725 -17.978  16.035  1.00  0.00     0.293 HD
ENDBRANCH  16  19
BRANCH  18  21
ATOM     21  O   UNL     1      10.479 -18.413  17.017  1.00  0.00    -0.504 OA
ATOM     22  H   UNL     1      10.151 -18.749  16.119  1.00  0.00     0.293 HD
ENDBRANCH  18  21
ENDBRANCH   3  13
BRANCH   9  23
ATOM     23  O   UNL     1      16.771 -23.060  24.356  1.00  0.00    -0.507 OA
ATOM     24  H   UNL     1      17.596 -22.612  23.977  1.00  0.00     0.293 HD
ENDBRANCH   9  23
BRANCH   7  25
ATOM     25  O   UNL     1      13.644 -26.567  23.342  1.00  0.00    -0.508 OA
ATOM     26  H   UNL     1      12.743 -26.870  22.989  1.00  0.00     0.293 HD
ENDBRANCH   7  25
TORSDOF 6
ENDMDL
MODEL 7
REMARK VINA RESULT:    -6.310      1.562      1.596
REMARK INTER + INTRA:          -7.929
REMARK INTER:                  -7.553
REMARK INTRA:                  -0.376
REMARK UNBOUND:                -0.329
REMARK SMILES Oc1cc(O)c2c(c1)O[C@@H](c1ccc(O)c(O)c1)[C@H](O)C2
REMARK SMILES IDX 21 1 19 2 10 3 9 4 7 5 8 6 2 7 3 8 4 9 6 10 20 11 11 13
REMARK SMILES IDX 18 14 12 15 16 16 13 17 14 18 17 19 15 21 5 23 1 25
REMARK H PARENT 20 12 17 20 15 22 5 24 1 26
REMARK Flexibility Score: inf
ROOT
ATOM      1  C   UNL     1      13.764 -22.374  19.346  1.00  0.00     0.079 C 
ATOM      2  C   UNL     1      13.945 -23.335  20.537  1.00  0.00     0.164 C 
ATOM      3  C   UNL     1      15.219 -22.970  21.314  1.00  0.00     0.232 C 
ATOM      4  O   UNL     1      15.154 -21.608  21.739  1.00  0.00    -0.482 OA
ATOM      5  C   UNL     1      14.616 -20.600  20.933  1.00  0.00     0.131 A 
ATOM      6  C   UNL     1      14.756 -19.267  21.330  1.00  0.00     0.093 A 
ATOM      7  C   UNL     1      14.241 -18.238  20.535  1.00  0.00     0.122 A 
ATOM      8  C   UNL     1      13.594 -18.543  19.335  1.00  0.00     0.092 A 
ATOM      9  C   UNL     1      13.446 -19.873  18.922  1.00  0.00     0.126 A 
ATOM     10  C   UNL     1      13.925 -20.921  19.743  1.00  0.00     0.039 A 
ENDROOT
BRANCH   2  11
ATOM     11  O   UNL     1      14.036 -24.657  20.070  1.00  0.00    -0.389 OA
ATOM     12  H   UNL     1      13.769 -24.641  19.113  1.00  0.00     0.211 HD
ENDBRANCH   2  11
BRANCH   3  13
ATOM     13  C   UNL     1      15.402 -23.867  22.516  1.00  0.00    -0.001 A 
ATOM     14  C   UNL     1      14.450 -23.866  23.551  1.00  0.00     0.057 A 
ATOM     15  C   UNL     1      16.546 -24.673  22.640  1.00  0.00     0.012 A 
ATOM     16  C   UNL     1      14.629 -24.675  24.682  1.00  0.00     0.157 A 
ATOM     17  C   UNL     1      16.725 -25.479  23.767  1.00  0.00     0.050 A 
ATOM     18  C   UNL     1      15.768 -25.484  24.790  1.00  0.00     0.157 A 
BRANCH  16  19
ATOM     19  O   UNL     1      13.682 -24.678  25.704  1.00  0.00    -0.504 OA
ATOM     20  H   UNL     1      13.743 -25.325  26.482  1.00  0.00     0.293 HD
ENDBRANCH  16  19
BRANCH  18  21
ATOM     21  O   UNL     1      15.942 -26.288  25.915  1.00  0.00    -0.504 OA
ATOM     22  H   UNL     1      15.313 -27.056  26.120  1.00  0.00     0.293 HD
ENDBRANCH  18  21
ENDBRANCH   3  13
BRANCH   9  23
ATOM     23  O   UNL     1      12.829 -20.113  17.692  1.00  0.00    -0.507 OA
ATOM     24  H   UNL     1      12.102 -19.521  17.310  1.00  0.00     0.293 HD
ENDBRANCH   9  23
BRANCH   7  25
ATOM     25  O   UNL     1      14.374 -16.907  20.924  1.00  0.00    -0.508 OA
ATOM     26  H   UNL     1      14.092 -16.146  20.318  1.00  0.00     0.293 HD
ENDBRANCH   7  25
TORSDOF 6
ENDMDL
MODEL 8
REMARK VINA RESULT:    -6.017      1.471      2.498
REMARK INTER + INTRA:          -7.576
REMARK INTER:                  -7.803
REMARK INTRA:                   0.227
REMARK UNBOUND:                -0.329
REMARK SMILES Oc1cc(O)c2c(c1)O[C@@H](c1ccc(O)c(O)c1)[C@H](O)C2
REMARK SMILES IDX 21 1 19 2 10 3 9 4 7 5 8 6 2 7 3 8 4 9 6 10 20 11 11 13
REMARK SMILES IDX 18 14 12 15 16 16 13 17 14 18 17 19 15 21 5 23 1 25
REMARK H PARENT 20 12 17 20 15 22 5 24 1 26
REMARK Flexibility Score: inf
ROOT
ATOM      1  C   UNL     1      16.268 -20.475  20.332  1.00  0.00     0.079 C 
ATOM      2  C   UNL     1      16.318 -21.964  20.726  1.00  0.00     0.164 C 
ATOM      3  C   UNL     1      15.031 -22.350  21.473  1.00  0.00     0.232 C 
ATOM      4  O   UNL     1      13.893 -22.054  20.661  1.00  0.00    -0.482 OA
ATOM      5  C   UNL     1      13.822 -20.906  19.866  1.00  0.00     0.131 A 
ATOM      6  C   UNL     1      12.611 -20.583  19.248  1.00  0.00     0.093 A 
ATOM      7  C   UNL     1      12.506 -19.432  18.459  1.00  0.00     0.122 A 
ATOM      8  C   UNL     1      13.615 -18.598  18.298  1.00  0.00     0.092 A 
ATOM      9  C   UNL     1      14.836 -18.906  18.911  1.00  0.00     0.126 A 
ATOM     10  C   UNL     1      14.960 -20.092  19.673  1.00  0.00     0.039 A 
ENDROOT
BRANCH   2  11
ATOM     11  O   UNL     1      17.431 -22.201  21.549  1.00  0.00    -0.389 OA
ATOM     12  H   UNL     1      17.219 -21.809  22.437  1.00  0.00     0.211 HD
ENDBRANCH   2  11
BRANCH   3  13
ATOM     13  C   UNL     1      15.027 -23.816  21.834  1.00  0.00    -0.001 A 
ATOM     14  C   UNL     1      13.967 -24.359  22.580  1.00  0.00     0.057 A 
ATOM     15  C   UNL     1      16.103 -24.644  21.472  1.00  0.00     0.012 A 
ATOM     16  C   UNL     1      13.973 -25.714  22.943  1.00  0.00     0.157 A 
ATOM     17  C   UNL     1      16.110 -25.994  21.833  1.00  0.00     0.050 A 
ATOM     18  C   UNL     1      15.046 -26.534  22.567  1.00  0.00     0.157 A 
BRANCH  16  19
ATOM     19  O   UNL     1      12.919 -26.252  23.678  1.00  0.00    -0.504 OA
ATOM     20  H   UNL     1      11.953 -26.083  23.422  1.00  0.00     0.293 HD
ENDBRANCH  16  19
BRANCH  18  21
ATOM     21  O   UNL     1      15.048 -27.880  22.928  1.00  0.00    -0.504 OA
ATOM     22  H   UNL     1      14.502 -28.218  23.711  1.00  0.00     0.293 HD
ENDBRANCH  18  21
ENDBRANCH   3  13
BRANCH   9  23
ATOM     23  O   UNL     1      15.895 -18.010  18.749  1.00  0.00    -0.507 OA
ATOM     24  H   UNL     1      16.514 -18.020  17.949  1.00  0.00     0.293 HD
ENDBRANCH   9  23
BRANCH   7  25
ATOM     25  O   UNL     1      11.304 -19.105  17.839  1.00  0.00    -0.508 OA
ATOM     26  H   UNL     1      10.467 -18.905  18.375  1.00  0.00     0.293 HD
ENDBRANCH   7  25
TORSDOF 6
ENDMDL
MODEL 9
REMARK VINA RESULT:    -5.911      2.648      7.070
REMARK INTER + INTRA:          -7.449
REMARK INTER:                  -7.075
REMARK INTRA:                  -0.374
REMARK UNBOUND:                -0.329
REMARK SMILES Oc1cc(O)c2c(c1)O[C@@H](c1ccc(O)c(O)c1)[C@H](O)C2
REMARK SMILES IDX 21 1 19 2 10 3 9 4 7 5 8 6 2 7 3 8 4 9 6 10 20 11 11 13
REMARK SMILES IDX 18 14 12 15 16 16 13 17 14 18 17 19 15 21 5 23 1 25
REMARK H PARENT 20 12 17 20 15 22 5 24 1 26
REMARK Flexibility Score: inf
ROOT
ATOM      1  C   UNL     1      17.710 -23.252  21.617  1.00  0.00     0.079 C 
ATOM      2  C   UNL     1      17.141 -22.045  20.846  1.00  0.00     0.164 C 
ATOM      3  C   UNL     1      15.605 -22.098  20.852  1.00  0.00     0.232 C 
ATOM      4  O   UNL     1      15.127 -22.140  22.197  1.00  0.00    -0.482 OA
ATOM      5  C   UNL     1      15.772 -22.877  23.196  1.00  0.00     0.131 A 
ATOM      6  C   UNL     1      15.148 -23.026  24.438  1.00  0.00     0.093 A 
ATOM      7  C   UNL     1      15.763 -23.772  25.449  1.00  0.00     0.122 A 
ATOM      8  C   UNL     1      16.999 -24.376  25.213  1.00  0.00     0.092 A 
ATOM      9  C   UNL     1      17.638 -24.238  23.975  1.00  0.00     0.126 A 
ATOM     10  C   UNL     1      17.042 -23.448  22.963  1.00  0.00     0.039 A 
ENDROOT
BRANCH   2  11
ATOM     11  O   UNL     1      17.610 -22.064  19.522  1.00  0.00    -0.389 OA
ATOM     12  H   UNL     1      18.057 -22.941  19.390  1.00  0.00     0.211 HD
ENDBRANCH   2  11
BRANCH   3  13
ATOM     13  C   UNL     1      15.014 -20.903  20.142  1.00  0.00    -0.001 A 
ATOM     14  C   UNL     1      15.160 -19.614  20.684  1.00  0.00     0.057 A 
ATOM     15  C   UNL     1      14.271 -21.068  18.961  1.00  0.00     0.012 A 
ATOM     16  C   UNL     1      14.588 -18.505  20.044  1.00  0.00     0.157 A 
ATOM     17  C   UNL     1      13.701 -19.963  18.323  1.00  0.00     0.050 A 
ATOM     18  C   UNL     1      13.859 -18.679  18.860  1.00  0.00     0.157 A 
BRANCH  16  19
ATOM     19  O   UNL     1      14.738 -17.227  20.579  1.00  0.00    -0.504 OA
ATOM     20  H   UNL     1      15.372 -17.045  21.348  1.00  0.00     0.293 HD
ENDBRANCH  16  19
BRANCH  18  21
ATOM     21  O   UNL     1      13.294 -17.574  18.226  1.00  0.00    -0.504 OA
ATOM     22  H   UNL     1      12.340 -17.590  17.886  1.00  0.00     0.293 HD
ENDBRANCH  18  21
ENDBRANCH   3  13
BRANCH   9  23
ATOM     23  O   UNL     1      18.851 -24.903  23.784  1.00  0.00    -0.507 OA
ATOM     24  H   UNL     1      19.714 -24.428  23.552  1.00  0.00     0.293 HD
ENDBRANCH   9  23
BRANCH   7  25
ATOM     25  O   UNL     1      15.149 -23.924  26.690  1.00  0.00    -0.508 OA
ATOM     26  H   UNL     1      14.382 -24.573  26.827  1.00  0.00     0.293 HD
ENDBRANCH   7  25
TORSDOF 6
ENDMDL
