MODEL 1
REMARK VINA RESULT:     0.844      0.000      0.000
REMARK INTER + INTRA:           0.861
REMARK INTER:                   0.894
REMARK INTRA:                  -0.033
REMARK UNBOUND:                -0.033
REMARK SMILES COc1ccc2ccc(=O)oc2c1
REMARK SMILES IDX 3 1 13 2 12 3 6 4 5 5 4 6 7 7 8 8 9 9 10 10 11 11 2 12 1 13
REMARK H PARENT
REMARK Flexibility Score: inf
ROOT
ATOM      1  C   UNL     1      17.579  40.893  10.115  1.00  0.00     0.122 A 
ATOM      2  C   UNL     1      17.929  42.201  10.506  1.00  0.00     0.094 A 
ATOM      3  C   UNL     1      19.079  42.425  11.271  1.00  0.00     0.142 A 
ATOM      4  C   UNL     1      19.892  41.336  11.652  1.00  0.00     0.018 A 
ATOM      5  C   UNL     1      19.544  40.036  11.265  1.00  0.00     0.016 A 
ATOM      6  C   UNL     1      18.394  39.820  10.500  1.00  0.00     0.047 A 
ATOM      7  C   UNL     1      21.035  41.591  12.417  1.00  0.00     0.019 A 
ATOM      8  C   UNL     1      21.337  42.904  12.778  1.00  0.00     0.094 A 
ATOM      9  C   UNL     1      20.486  43.934  12.364  1.00  0.00     0.336 A 
ATOM     10  O   UNL     1      20.740  45.125  12.680  1.00  0.00    -0.246 OA
ATOM     11  O   UNL     1      19.404  43.663  11.637  1.00  0.00    -0.423 OA
ENDROOT
BRANCH   1  12
ATOM     12  O   UNL     1      16.436  40.618   9.349  1.00  0.00    -0.497 OA
ATOM     13  C   UNL     1      15.107  40.620   9.859  1.00  0.00     0.278 C 
ENDBRANCH   1  12
TORSDOF 1
ENDMDL
MODEL 2
REMARK VINA RESULT:     2.954      1.073      4.663
REMARK INTER + INTRA:           3.093
REMARK INTER:                   3.130
REMARK INTRA:                  -0.037
REMARK UNBOUND:                -0.033
REMARK SMILES COc1ccc2ccc(=O)oc2c1
REMARK SMILES IDX 3 1 13 2 12 3 6 4 5 5 4 6 7 7 8 8 9 9 10 10 11 11 2 12 1 13
REMARK H PARENT
REMARK Flexibility Score: inf
ROOT
ATOM      1  C   UNL     1      20.341  42.905  11.973  1.00  0.00     0.122 A 
ATOM      2  C   UNL     1      19.067  43.001  11.379  1.00  0.00     0.094 A 
ATOM      3  C   UNL     1      18.455  41.865  10.836  1.00  0.00     0.142 A 
ATOM      4  C   UNL     1      19.118  40.620  10.883  1.00  0.00     0.018 A 
ATOM      5  C   UNL     1      20.385  40.525  11.472  1.00  0.00     0.016 A 
ATOM      6  C   UNL     1      20.989  41.663  12.013  1.00  0.00     0.047 A 
ATOM      7  C   UNL     1      18.481  39.504  10.331  1.00  0.00     0.019 A 
ATOM      8  C   UNL     1      17.219  39.651   9.756  1.00  0.00     0.094 A 
ATOM      9  C   UNL     1      16.622  40.916   9.745  1.00  0.00     0.336 A 
ATOM     10  O   UNL     1      15.485  41.070   9.230  1.00  0.00    -0.246 OA
ATOM     11  O   UNL     1      17.251  41.961  10.278  1.00  0.00    -0.423 OA
ENDROOT
BRANCH   1  12
ATOM     12  O   UNL     1      20.995  44.014  12.531  1.00  0.00    -0.497 OA
ATOM     13  C   UNL     1      20.331  45.125  13.125  1.00  0.00     0.278 C 
ENDBRANCH   1  12
TORSDOF 1
ENDMDL
