MODEL 1
REMARK VINA RESULT:    -2.992      0.000      0.000
REMARK INTER + INTRA:          -4.219
REMARK INTER:                  -3.779
REMARK INTRA:                  -0.440
REMARK UNBOUND:                -0.440
REMARK SMILES O=C(C=Cc1ccc(O)cc1)c1ccc(O)cc1O
REMARK SMILES IDX 4 1 3 2 5 3 6 4 7 5 8 6 11 7 10 8 9 9 2 11 1 12 12 13 18 14
REMARK SMILES IDX 13 15 17 16 14 17 15 18 19 19 16 21
REMARK H PARENT 9 10 19 20 16 22
REMARK Flexibility Score: inf
ROOT
ATOM      1  C   UNL     1     -10.842 -34.889   0.686  1.00  0.00     0.012 C 
ATOM      2  C   UNL     1     -10.098 -35.718   1.434  1.00  0.00     0.053 C 
ENDROOT
BRANCH   1   3
ATOM      3  C   UNL     1     -10.883 -34.931  -0.797  1.00  0.00    -0.025 A 
ATOM      4  C   UNL     1     -11.066 -33.728  -1.499  1.00  0.00     0.012 A 
ATOM      5  C   UNL     1     -11.102 -33.718  -2.897  1.00  0.00     0.047 A 
ATOM      6  C   UNL     1     -10.944 -34.908  -3.613  1.00  0.00     0.115 A 
ATOM      7  C   UNL     1     -10.709 -36.124  -1.526  1.00  0.00     0.012 A 
ATOM      8  C   UNL     1     -10.745 -36.110  -2.924  1.00  0.00     0.047 A 
BRANCH   6   9
ATOM      9  O   UNL     1     -10.981 -34.883  -5.005  1.00  0.00    -0.508 OA
ATOM     10  H   UNL     1     -10.232 -35.278  -5.562  1.00  0.00     0.293 HD
ENDBRANCH   6   9
ENDBRANCH   1   3
BRANCH   2  11
ATOM     11  C   UNL     1     -10.098 -35.657   2.913  1.00  0.00     0.189 C 
ATOM     12  O   UNL     1     -11.125 -36.013   3.554  1.00  0.00    -0.289 OA
BRANCH  11  13
ATOM     13  C   UNL     1      -8.900 -35.192   3.657  1.00  0.00     0.064 A 
ATOM     14  C   UNL     1      -8.570 -33.820   3.716  1.00  0.00     0.130 A 
ATOM     15  C   UNL     1      -8.059 -36.121   4.300  1.00  0.00     0.020 A 
ATOM     16  C   UNL     1      -7.425 -33.402   4.410  1.00  0.00     0.093 A 
ATOM     17  C   UNL     1      -6.922 -35.694   4.990  1.00  0.00     0.047 A 
ATOM     18  C   UNL     1      -6.602 -34.334   5.047  1.00  0.00     0.119 A 
BRANCH  14  19
ATOM     19  O   UNL     1      -9.387 -32.870   3.100  1.00  0.00    -0.507 OA
ATOM     20  H   UNL     1     -10.141 -33.139   2.478  1.00  0.00     0.293 HD
ENDBRANCH  14  19
BRANCH  18  21
ATOM     21  O   UNL     1      -5.470 -33.898   5.732  1.00  0.00    -0.508 OA
ATOM     22  H   UNL     1      -4.827 -33.232   5.320  1.00  0.00     0.293 HD
ENDBRANCH  18  21
ENDBRANCH  11  13
ENDBRANCH   2  11
TORSDOF 6
ENDMDL
MODEL 2
REMARK VINA RESULT:    -0.727      1.854      2.528
REMARK INTER + INTRA:          -1.358
REMARK INTER:                  -0.801
REMARK INTRA:                  -0.557
REMARK UNBOUND:                -0.440
REMARK SMILES O=C(C=Cc1ccc(O)cc1)c1ccc(O)cc1O
REMARK SMILES IDX 4 1 3 2 5 3 6 4 7 5 8 6 11 7 10 8 9 9 2 11 1 12 12 13 18 14
REMARK SMILES IDX 13 15 17 16 14 17 15 18 19 19 16 21
REMARK H PARENT 9 10 19 20 16 22
REMARK Flexibility Score: inf
ROOT
ATOM      1  C   UNL     1      -9.885 -33.551   0.447  1.00  0.00     0.012 C 
ATOM      2  C   UNL     1      -8.933 -34.004   1.277  1.00  0.00     0.053 C 
ENDROOT
BRANCH   1   3
ATOM      3  C   UNL     1     -10.214 -34.187  -0.853  1.00  0.00    -0.025 A 
ATOM      4  C   UNL     1     -10.248 -33.384  -2.005  1.00  0.00     0.012 A 
ATOM      5  C   UNL     1     -10.544 -33.942  -3.253  1.00  0.00     0.047 A 
ATOM      6  C   UNL     1     -10.799 -35.310  -3.369  1.00  0.00     0.115 A 
ATOM      7  C   UNL     1     -10.458 -35.569  -0.980  1.00  0.00     0.012 A 
ATOM      8  C   UNL     1     -10.753 -36.123  -2.230  1.00  0.00     0.047 A 
BRANCH   6   9
ATOM      9  O   UNL     1     -11.093 -35.851  -4.618  1.00  0.00    -0.508 OA
ATOM     10  H   UNL     1     -11.714 -35.380  -5.267  1.00  0.00     0.293 HD
ENDBRANCH   6   9
ENDBRANCH   1   3
BRANCH   2  11
ATOM     11  C   UNL     1      -8.646 -33.353   2.576  1.00  0.00     0.189 C 
ATOM     12  O   UNL     1      -7.931 -32.313   2.609  1.00  0.00    -0.289 OA
BRANCH  11  13
ATOM     13  C   UNL     1      -9.195 -33.901   3.842  1.00  0.00     0.064 A 
ATOM     14  C   UNL     1     -10.369 -33.365   4.415  1.00  0.00     0.130 A 
ATOM     15  C   UNL     1      -8.535 -34.955   4.503  1.00  0.00     0.020 A 
ATOM     16  C   UNL     1     -10.862 -33.887   5.621  1.00  0.00     0.093 A 
ATOM     17  C   UNL     1      -9.035 -35.468   5.702  1.00  0.00     0.047 A 
ATOM     18  C   UNL     1     -10.200 -34.935   6.264  1.00  0.00     0.119 A 
BRANCH  14  19
ATOM     19  O   UNL     1     -11.055 -32.328   3.782  1.00  0.00    -0.507 OA
ATOM     20  H   UNL     1     -10.836 -31.355   3.966  1.00  0.00     0.293 HD
ENDBRANCH  14  19
BRANCH  18  21
ATOM     21  O   UNL     1     -10.708 -35.439   7.460  1.00  0.00    -0.508 OA
ATOM     22  H   UNL     1     -11.639 -35.201   7.780  1.00  0.00     0.293 HD
ENDBRANCH  18  21
ENDBRANCH  11  13
ENDBRANCH   2  11
TORSDOF 6
ENDMDL
MODEL 3
REMARK VINA RESULT:    -0.420      1.294      2.007
REMARK INTER + INTRA:          -0.971
REMARK INTER:                  -0.434
REMARK INTRA:                  -0.537
REMARK UNBOUND:                -0.440
REMARK SMILES O=C(C=Cc1ccc(O)cc1)c1ccc(O)cc1O
REMARK SMILES IDX 4 1 3 2 5 3 6 4 7 5 8 6 11 7 10 8 9 9 2 11 1 12 12 13 18 14
REMARK SMILES IDX 13 15 17 16 14 17 15 18 19 19 16 21
REMARK H PARENT 9 10 19 20 16 22
REMARK Flexibility Score: inf
ROOT
ATOM      1  C   UNL     1      -9.938 -34.028   1.041  1.00  0.00     0.012 C 
ATOM      2  C   UNL     1     -10.851 -33.969   2.021  1.00  0.00     0.053 C 
ENDROOT
BRANCH   1   3
ATOM      3  C   UNL     1     -10.244 -34.457  -0.346  1.00  0.00    -0.025 A 
ATOM      4  C   UNL     1     -10.759 -33.509  -1.246  1.00  0.00     0.012 A 
ATOM      5  C   UNL     1     -11.053 -33.866  -2.565  1.00  0.00     0.047 A 
ATOM      6  C   UNL     1     -10.827 -35.171  -3.008  1.00  0.00     0.115 A 
ATOM      7  C   UNL     1     -10.005 -35.769  -0.804  1.00  0.00     0.012 A 
ATOM      8  C   UNL     1     -10.300 -36.121  -2.125  1.00  0.00     0.047 A 
BRANCH   6   9
ATOM      9  O   UNL     1     -11.125 -35.512  -4.325  1.00  0.00    -0.508 OA
ATOM     10  H   UNL     1     -12.005 -35.250  -4.754  1.00  0.00     0.293 HD
ENDBRANCH   6   9
ENDBRANCH   1   3
BRANCH   2  11
ATOM     11  C   UNL     1     -10.510 -33.518   3.390  1.00  0.00     0.189 C 
ATOM     12  O   UNL     1     -11.124 -32.538   3.896  1.00  0.00    -0.289 OA
BRANCH  11  13
ATOM     13  C   UNL     1      -9.461 -34.208   4.182  1.00  0.00     0.064 A 
ATOM     14  C   UNL     1      -9.753 -35.392   4.895  1.00  0.00     0.130 A 
ATOM     15  C   UNL     1      -8.160 -33.676   4.251  1.00  0.00     0.020 A 
ATOM     16  C   UNL     1      -8.752 -36.020   5.651  1.00  0.00     0.093 A 
ATOM     17  C   UNL     1      -7.170 -34.310   5.006  1.00  0.00     0.047 A 
ATOM     18  C   UNL     1      -7.463 -35.484   5.707  1.00  0.00     0.119 A 
BRANCH  14  19
ATOM     19  O   UNL     1     -11.029 -35.954   4.840  1.00  0.00    -0.507 OA
ATOM     20  H   UNL     1     -11.178 -36.908   4.532  1.00  0.00     0.293 HD
ENDBRANCH  14  19
BRANCH  18  21
ATOM     21  O   UNL     1      -6.484 -36.125   6.463  1.00  0.00    -0.508 OA
ATOM     22  H   UNL     1      -5.856 -36.804   6.048  1.00  0.00     0.293 HD
ENDBRANCH  18  21
ENDBRANCH  11  13
ENDBRANCH   2  11
TORSDOF 6
ENDMDL
