MODEL 1
REMARK VINA RESULT:    -3.453      0.000      0.000
REMARK INTER + INTRA:          -4.496
REMARK INTER:                  -4.866
REMARK INTRA:                   0.370
REMARK UNBOUND:                 0.370
REMARK SMILES CC1=CCC(=C(C)C)C(=O)CC(C)=CCC1
REMARK SMILES IDX 12 1 14 2 13 3 15 4 16 5 2 6 1 7 3 8 11 10 9 11 10 12 5 13
REMARK SMILES IDX 6 14 7 15 8 16 4 17
REMARK H PARENT
REMARK Flexibility Score: 60.00
ROOT
ATOM      1  C   UNL     1       2.584  29.069  70.289  1.00  0.00    -0.070 C 
ATOM      2  C   UNL     1       1.269  29.053  70.610  1.00  0.00    -0.027 C 
ATOM      3  C   UNL     1       3.401  30.247  70.763  1.00  0.00     0.039 C 
ENDROOT
BRANCH   2   4
ATOM      4  C   UNL     1       0.295  27.933  70.333  1.00  0.00     0.032 C 
BRANCH   4   5
ATOM      5  C   UNL     1      -0.110  27.853  68.849  1.00  0.00     0.034 C 
BRANCH   5   6
ATOM      6  C   UNL     1       0.121  26.473  68.266  1.00  0.00    -0.077 C 
ATOM      7  C   UNL     1      -0.582  25.301  68.901  1.00  0.00     0.039 C 
ATOM      8  C   UNL     1       0.945  26.228  67.222  1.00  0.00    -0.023 CG0
ATOM      9  G   UNL     1       1.760  27.258  66.479  1.00  0.00     0.000 G0
ENDBRANCH   5   6
ENDBRANCH   4   5
ENDBRANCH   2   4
BRANCH   1  10
ATOM     10  C   UNL     1       3.286  27.946  69.544  1.00  0.00     0.111 C 
BRANCH  10  11
ATOM     11  C   UNL     1       3.465  28.277  68.082  1.00  0.00     0.163 C 
ATOM     12  O   UNL     1       3.827  29.445  67.779  1.00  0.00    -0.294 OA
BRANCH  11  13
ATOM     13  C   UNL     1       3.178  27.280  67.004  1.00  0.00    -0.002 C 
ATOM     14  C   UNL     1       4.126  26.396  66.570  1.00  0.00    -0.069 C 
ATOM     15  C   UNL     1       3.840  25.417  65.453  1.00  0.00     0.039 C 
ATOM     16  C   UNL     1       5.497  26.328  67.208  1.00  0.00     0.039 C 
BRANCH  13  17
ATOM     17  C   UNL     1       1.761  27.240  66.461  1.00  0.00     0.066 CG0
ATOM     18  G   UNL     1       0.943  26.238  67.237  1.00  0.00     0.000 G0
ENDBRANCH  13  17
ENDBRANCH  11  13
ENDBRANCH  10  11
ENDBRANCH   1  10
TORSDOF 0
ENDMDL
MODEL 2
REMARK VINA RESULT:    -3.333      3.382      4.906
REMARK INTER + INTRA:          -4.326
REMARK INTER:                  -4.979
REMARK INTRA:                   0.652
REMARK UNBOUND:                 0.370
REMARK SMILES CC1=CCC(=C(C)C)C(=O)CC(C)=CCC1
REMARK SMILES IDX 12 1 14 2 13 3 15 4 16 5 2 6 1 7 3 8 11 10 9 11 10 12 5 13
REMARK SMILES IDX 6 14 7 15 8 16 4 17
REMARK H PARENT
REMARK Flexibility Score: 60.00
ROOT
ATOM      1  C   UNL     1       4.740  25.442  66.244  1.00  0.00    -0.070 C 
ATOM      2  C   UNL     1       3.987  26.302  66.970  1.00  0.00    -0.027 C 
ATOM      3  C   UNL     1       6.240  25.555  66.370  1.00  0.00     0.039 C 
ENDROOT
BRANCH   2   4
ATOM      4  C   UNL     1       2.481  26.300  67.078  1.00  0.00     0.032 C 
BRANCH   4   5
ATOM      5  C   UNL     1       1.824  27.406  66.231  1.00  0.00     0.034 C 
BRANCH   5   6
ATOM      6  C   UNL     1       0.900  26.843  65.171  1.00  0.00    -0.077 C 
ATOM      7  C   UNL     1      -0.555  26.649  65.518  1.00  0.00     0.039 C 
ATOM      8  C   UNL     1       1.310  26.478  63.935  1.00  0.00    -0.023 CG0
ATOM      9  G   UNL     1       2.724  26.562  63.413  1.00  0.00     0.000 G0
ENDBRANCH   5   6
ENDBRANCH   4   5
ENDBRANCH   2   4
BRANCH   1  10
ATOM     10  C   UNL     1       4.161  24.341  65.373  1.00  0.00     0.111 C 
BRANCH  10  11
ATOM     11  C   UNL     1       4.352  24.636  63.905  1.00  0.00     0.163 C 
ATOM     12  O   UNL     1       5.495  24.451  63.407  1.00  0.00    -0.294 OA
BRANCH  11  13
ATOM     13  C   UNL     1       3.247  25.181  63.057  1.00  0.00    -0.002 C 
ATOM     14  C   UNL     1       2.671  24.441  62.062  1.00  0.00    -0.069 C 
ATOM     15  C   UNL     1       1.580  25.012  61.184  1.00  0.00     0.039 C 
ATOM     16  C   UNL     1       3.068  23.002  61.814  1.00  0.00     0.039 C 
BRANCH  13  17
ATOM     17  C   UNL     1       2.739  26.570  63.396  1.00  0.00     0.066 CG0
ATOM     18  G   UNL     1       1.334  26.484  63.941  1.00  0.00     0.000 G0
ENDBRANCH  13  17
ENDBRANCH  11  13
ENDBRANCH  10  11
ENDBRANCH   1  10
TORSDOF 0
ENDMDL
MODEL 3
REMARK VINA RESULT:    -3.211      2.576      4.541
REMARK INTER + INTRA:          -4.155
REMARK INTER:                  -4.633
REMARK INTRA:                   0.479
REMARK UNBOUND:                 0.370
REMARK SMILES CC1=CCC(=C(C)C)C(=O)CC(C)=CCC1
REMARK SMILES IDX 12 1 14 2 13 3 15 4 16 5 2 6 1 7 3 8 11 10 9 11 10 12 5 13
REMARK SMILES IDX 6 14 7 15 8 16 4 17
REMARK H PARENT
REMARK Flexibility Score: 60.00
ROOT
ATOM      1  C   UNL     1       0.463  26.823  63.011  1.00  0.00    -0.070 C 
ATOM      2  C   UNL     1      -0.533  26.967  63.917  1.00  0.00    -0.027 C 
ATOM      3  C   UNL     1       0.374  27.641  61.745  1.00  0.00     0.039 C 
ENDROOT
BRANCH   2   4
ATOM      4  C   UNL     1      -0.594  26.332  65.286  1.00  0.00     0.032 C 
BRANCH   4   5
ATOM      5  C   UNL     1      -0.092  27.272  66.398  1.00  0.00     0.034 C 
BRANCH   5   6
ATOM      6  C   UNL     1       0.822  26.563  67.378  1.00  0.00    -0.077 C 
ATOM      7  C   UNL     1       0.195  25.789  68.510  1.00  0.00     0.039 C 
ATOM      8  C   UNL     1       2.172  26.605  67.310  1.00  0.00    -0.023 CG0
ATOM      9  G   UNL     1       2.981  27.351  66.277  1.00  0.00     0.000 G0
ENDBRANCH   5   6
ENDBRANCH   4   5
ENDBRANCH   2   4
BRANCH   1  10
ATOM     10  C   UNL     1       1.682  25.944  63.228  1.00  0.00     0.111 C 
BRANCH  10  11
ATOM     11  C   UNL     1       2.839  26.729  63.797  1.00  0.00     0.163 C 
ATOM     12  O   UNL     1       3.357  27.626  63.079  1.00  0.00    -0.294 OA
BRANCH  11  13
ATOM     13  C   UNL     1       3.406  26.436  65.151  1.00  0.00    -0.002 C 
ATOM     14  C   UNL     1       4.304  25.425  65.350  1.00  0.00    -0.069 C 
ATOM     15  C   UNL     1       4.844  25.109  66.728  1.00  0.00     0.039 C 
ATOM     16  C   UNL     1       4.831  24.595  64.200  1.00  0.00     0.039 C 
BRANCH  13  17
ATOM     17  C   UNL     1       2.998  27.359  66.284  1.00  0.00     0.066 CG0
ATOM     18  G   UNL     1       2.190  26.592  67.303  1.00  0.00     0.000 G0
ENDBRANCH  13  17
ENDBRANCH  11  13
ENDBRANCH  10  11
ENDBRANCH   1  10
TORSDOF 0
ENDMDL
MODEL 4
REMARK VINA RESULT:    -3.174      2.046      5.254
REMARK INTER + INTRA:          -4.103
REMARK INTER:                  -4.624
REMARK INTRA:                   0.521
REMARK UNBOUND:                 0.370
REMARK SMILES CC1=CCC(=C(C)C)C(=O)CC(C)=CCC1
REMARK SMILES IDX 12 1 14 2 13 3 15 4 16 5 2 6 1 7 3 8 11 10 9 11 10 12 5 13
REMARK SMILES IDX 6 14 7 15 8 16 4 17
REMARK H PARENT
REMARK Flexibility Score: 60.00
ROOT
ATOM      1  C   UNL     1       0.671  26.857  67.380  1.00  0.00    -0.070 C 
ATOM      2  C   UNL     1       1.630  26.537  66.479  1.00  0.00    -0.027 C 
ATOM      3  C   UNL     1      -0.272  25.761  67.812  1.00  0.00     0.039 C 
ENDROOT
BRANCH   2   4
ATOM      4  C   UNL     1       2.736  27.441  65.991  1.00  0.00     0.032 C 
BRANCH   4   5
ATOM      5  C   UNL     1       3.984  27.391  66.891  1.00  0.00     0.034 C 
BRANCH   5   6
ATOM      6  C   UNL     1       4.384  28.765  67.393  1.00  0.00    -0.077 C 
ATOM      7  C   UNL     1       5.104  29.691  66.446  1.00  0.00     0.039 C 
ATOM      8  C   UNL     1       4.153  29.200  68.652  1.00  0.00    -0.023 CG0
ATOM      9  G   UNL     1       3.481  28.412  69.750  1.00  0.00     0.000 G0
ENDBRANCH   5   6
ENDBRANCH   4   5
ENDBRANCH   2   4
BRANCH   1  10
ATOM     10  C   UNL     1       0.538  28.229  68.020  1.00  0.00     0.111 C 
BRANCH  10  11
ATOM     11  C   UNL     1       0.923  28.200  69.479  1.00  0.00     0.163 C 
ATOM     12  O   UNL     1       0.212  27.520  70.267  1.00  0.00    -0.294 OA
BRANCH  11  13
ATOM     13  C   UNL     1       2.079  28.989  70.009  1.00  0.00    -0.002 C 
ATOM     14  C   UNL     1       1.897  30.128  70.742  1.00  0.00    -0.069 C 
ATOM     15  C   UNL     1       3.071  30.942  71.241  1.00  0.00     0.039 C 
ATOM     16  C   UNL     1       0.515  30.614  71.121  1.00  0.00     0.039 C 
BRANCH  13  17
ATOM     17  C   UNL     1       3.468  28.428  69.761  1.00  0.00     0.066 CG0
ATOM     18  G   UNL     1       4.140  29.196  68.648  1.00  0.00     0.000 G0
ENDBRANCH  13  17
ENDBRANCH  11  13
ENDBRANCH  10  11
ENDBRANCH   1  10
TORSDOF 0
ENDMDL
MODEL 5
REMARK VINA RESULT:    -3.153      5.332      7.017
REMARK INTER + INTRA:          -4.073
REMARK INTER:                  -4.473
REMARK INTRA:                   0.399
REMARK UNBOUND:                 0.370
REMARK SMILES CC1=CCC(=C(C)C)C(=O)CC(C)=CCC1
REMARK SMILES IDX 12 1 14 2 13 3 15 4 16 5 2 6 1 7 3 8 11 10 9 11 10 12 5 13
REMARK SMILES IDX 6 14 7 15 8 16 4 17
REMARK H PARENT
REMARK Flexibility Score: 60.00
ROOT
ATOM      1  C   UNL     1       2.140  28.499  62.330  1.00  0.00    -0.070 C 
ATOM      2  C   UNL     1       3.156  28.603  63.218  1.00  0.00    -0.027 C 
ATOM      3  C   UNL     1       1.950  29.635  61.354  1.00  0.00     0.039 C 
ENDROOT
BRANCH   2   4
ATOM      4  C   UNL     1       3.590  27.548  64.207  1.00  0.00     0.032 C 
BRANCH   4   5
ATOM      5  C   UNL     1       4.630  26.575  63.619  1.00  0.00     0.034 C 
BRANCH   5   6
ATOM      6  C   UNL     1       4.309  25.130  63.944  1.00  0.00    -0.077 C 
ATOM      7  C   UNL     1       4.592  24.629  65.337  1.00  0.00     0.039 C 
ATOM      8  C   UNL     1       3.805  24.253  63.046  1.00  0.00    -0.023 CG0
ATOM      9  G   UNL     1       3.489  24.552  61.600  1.00  0.00     0.000 G0
ENDBRANCH   5   6
ENDBRANCH   4   5
ENDBRANCH   2   4
BRANCH   1  10
ATOM     10  C   UNL     1       1.232  27.286  62.223  1.00  0.00     0.111 C 
BRANCH  10  11
ATOM     11  C   UNL     1       1.700  26.336  61.146  1.00  0.00     0.163 C 
ATOM     12  O   UNL     1       1.774  26.770  59.965  1.00  0.00    -0.294 OA
BRANCH  11  13
ATOM     13  C   UNL     1       2.020  24.904  61.438  1.00  0.00    -0.002 C 
ATOM     14  C   UNL     1       1.047  23.946  61.494  1.00  0.00    -0.069 C 
ATOM     15  C   UNL     1       1.374  22.507  61.827  1.00  0.00     0.039 C 
ATOM     16  C   UNL     1      -0.400  24.268  61.190  1.00  0.00     0.039 C 
BRANCH  13  17
ATOM     17  C   UNL     1       3.486  24.544  61.597  1.00  0.00     0.066 CG0
ATOM     18  G   UNL     1       3.787  24.246  63.045  1.00  0.00     0.000 G0
ENDBRANCH  13  17
ENDBRANCH  11  13
ENDBRANCH  10  11
ENDBRANCH   1  10
TORSDOF 0
ENDMDL
MODEL 6
REMARK VINA RESULT:    -3.125      3.225      5.563
REMARK INTER + INTRA:          -4.034
REMARK INTER:                  -4.481
REMARK INTRA:                   0.447
REMARK UNBOUND:                 0.370
REMARK SMILES CC1=CCC(=C(C)C)C(=O)CC(C)=CCC1
REMARK SMILES IDX 12 1 14 2 13 3 15 4 16 5 2 6 1 7 3 8 11 10 9 11 10 12 5 13
REMARK SMILES IDX 6 14 7 15 8 16 4 17
REMARK H PARENT
REMARK Flexibility Score: 60.00
ROOT
ATOM      1  C   UNL     1       4.466  25.920  66.261  1.00  0.00    -0.070 C 
ATOM      2  C   UNL     1       5.276  25.195  65.454  1.00  0.00    -0.027 C 
ATOM      3  C   UNL     1       5.114  26.956  67.147  1.00  0.00     0.039 C 
ENDROOT
BRANCH   2   4
ATOM      4  C   UNL     1       4.837  24.188  64.418  1.00  0.00     0.032 C 
BRANCH   4   5
ATOM      5  C   UNL     1       4.418  24.847  63.090  1.00  0.00     0.034 C 
BRANCH   5   6
ATOM      6  C   UNL     1       3.054  24.380  62.624  1.00  0.00    -0.077 C 
ATOM      7  C   UNL     1       2.914  22.964  62.125  1.00  0.00     0.039 C 
ATOM      8  C   UNL     1       1.956  25.169  62.606  1.00  0.00    -0.023 CG0
ATOM      9  G   UNL     1       1.903  26.617  63.031  1.00  0.00     0.000 G0
ENDBRANCH   5   6
ENDBRANCH   4   5
ENDBRANCH   2   4
BRANCH   1  10
ATOM     10  C   UNL     1       2.952  25.795  66.272  1.00  0.00     0.111 C 
BRANCH  10  11
ATOM     11  C   UNL     1       2.294  26.945  65.549  1.00  0.00     0.163 C 
ATOM     12  O   UNL     1       2.548  28.115  65.943  1.00  0.00    -0.294 OA
BRANCH  11  13
ATOM     13  C   UNL     1       1.325  26.727  64.430  1.00  0.00    -0.002 C 
ATOM     14  C   UNL     1      -0.025  26.696  64.643  1.00  0.00    -0.069 C 
ATOM     15  C   UNL     1      -0.997  26.437  63.513  1.00  0.00     0.039 C 
ATOM     16  C   UNL     1      -0.617  26.955  66.011  1.00  0.00     0.039 C 
BRANCH  13  17
ATOM     17  C   UNL     1       1.902  26.615  63.030  1.00  0.00     0.066 CG0
ATOM     18  G   UNL     1       1.931  25.169  62.601  1.00  0.00     0.000 G0
ENDBRANCH  13  17
ENDBRANCH  11  13
ENDBRANCH  10  11
ENDBRANCH   1  10
TORSDOF 0
ENDMDL
MODEL 7
REMARK VINA RESULT:    -3.045      1.610      3.602
REMARK INTER + INTRA:          -3.920
REMARK INTER:                  -4.663
REMARK INTRA:                   0.743
REMARK UNBOUND:                 0.370
REMARK SMILES CC1=CCC(=C(C)C)C(=O)CC(C)=CCC1
REMARK SMILES IDX 12 1 14 2 13 3 15 4 16 5 2 6 1 7 3 8 11 10 9 11 10 12 5 13
REMARK SMILES IDX 6 14 7 15 8 16 4 17
REMARK H PARENT
REMARK Flexibility Score: 60.00
ROOT
ATOM      1  C   UNL     1       0.705  28.140  70.391  1.00  0.00    -0.070 C 
ATOM      2  C   UNL     1       0.111  27.268  69.542  1.00  0.00    -0.027 C 
ATOM      3  C   UNL     1      -0.182  29.135  71.098  1.00  0.00     0.039 C 
ENDROOT
BRANCH   2   4
ATOM      4  C   UNL     1       0.785  26.129  68.815  1.00  0.00     0.032 C 
BRANCH   4   5
ATOM      5  C   UNL     1       0.874  26.365  67.296  1.00  0.00     0.034 C 
BRANCH   5   6
ATOM      6  C   UNL     1       2.267  26.775  66.861  1.00  0.00    -0.077 C 
ATOM      7  C   UNL     1       3.224  25.698  66.416  1.00  0.00     0.039 C 
ATOM      8  C   UNL     1       2.712  28.052  66.872  1.00  0.00    -0.023 CG0
ATOM      9  G   UNL     1       1.921  29.258  67.315  1.00  0.00     0.000 G0
ENDBRANCH   5   6
ENDBRANCH   4   5
ENDBRANCH   2   4
BRANCH   1  10
ATOM     10  C   UNL     1       2.190  28.126  70.714  1.00  0.00     0.111 C 
BRANCH  10  11
ATOM     11  C   UNL     1       3.008  28.718  69.592  1.00  0.00     0.163 C 
ATOM     12  O   UNL     1       4.207  28.347  69.474  1.00  0.00    -0.294 OA
BRANCH  11  13
ATOM     13  C   UNL     1       2.452  29.754  68.667  1.00  0.00    -0.002 C 
ATOM     14  C   UNL     1       2.472  31.084  68.982  1.00  0.00    -0.069 C 
ATOM     15  C   UNL     1       1.874  32.123  68.059  1.00  0.00     0.039 C 
ATOM     16  C   UNL     1       3.125  31.589  70.250  1.00  0.00     0.039 C 
BRANCH  13  17
ATOM     17  C   UNL     1       1.930  29.273  67.326  1.00  0.00     0.066 CG0
ATOM     18  G   UNL     1       2.704  28.056  66.881  1.00  0.00     0.000 G0
ENDBRANCH  13  17
ENDBRANCH  11  13
ENDBRANCH  10  11
ENDBRANCH   1  10
TORSDOF 0
ENDMDL
MODEL 8
REMARK VINA RESULT:    -3.009      8.823     10.423
REMARK INTER + INTRA:          -3.869
REMARK INTER:                  -4.484
REMARK INTRA:                   0.615
REMARK UNBOUND:                 0.370
REMARK SMILES CC1=CCC(=C(C)C)C(=O)CC(C)=CCC1
REMARK SMILES IDX 12 1 14 2 13 3 15 4 16 5 2 6 1 7 3 8 11 10 9 11 10 12 5 13
REMARK SMILES IDX 6 14 7 15 8 16 4 17
REMARK H PARENT
REMARK Flexibility Score: 60.00
ROOT
ATOM      1  C   UNL     1       8.992  35.679  65.685  1.00  0.00    -0.070 C 
ATOM      2  C   UNL     1      10.024  34.812  65.557  1.00  0.00    -0.027 C 
ATOM      3  C   UNL     1       8.675  36.184  67.072  1.00  0.00     0.039 C 
ENDROOT
BRANCH   2   4
ATOM      4  C   UNL     1      10.578  34.266  64.263  1.00  0.00     0.032 C 
BRANCH   4   5
ATOM      5  C   UNL     1      10.486  32.731  64.179  1.00  0.00     0.034 C 
BRANCH   5   6
ATOM      6  C   UNL     1       9.106  32.219  64.541  1.00  0.00    -0.077 C 
ATOM      7  C   UNL     1       8.977  31.267  65.702  1.00  0.00     0.039 C 
ATOM      8  C   UNL     1       7.983  32.548  63.863  1.00  0.00    -0.023 CG0
ATOM      9  G   UNL     1       7.911  33.453  62.658  1.00  0.00     0.000 G0
ENDBRANCH   5   6
ENDBRANCH   4   5
ENDBRANCH   2   4
BRANCH   1  10
ATOM     10  C   UNL     1       8.188  36.215  64.512  1.00  0.00     0.111 C 
BRANCH  10  11
ATOM     11  C   UNL     1       7.017  35.319  64.186  1.00  0.00     0.163 C 
ATOM     12  O   UNL     1       6.123  35.172  65.062  1.00  0.00    -0.294 OA
BRANCH  11  13
ATOM     13  C   UNL     1       6.924  34.577  62.890  1.00  0.00    -0.002 C 
ATOM     14  C   UNL     1       6.024  34.929  61.924  1.00  0.00    -0.069 C 
ATOM     15  C   UNL     1       5.909  34.150  60.631  1.00  0.00     0.039 C 
ATOM     16  C   UNL     1       5.122  36.134  62.080  1.00  0.00     0.039 C 
BRANCH  13  17
ATOM     17  C   UNL     1       7.926  33.461  62.662  1.00  0.00     0.066 CG0
ATOM     18  G   UNL     1       7.959  32.548  63.864  1.00  0.00     0.000 G0
ENDBRANCH  13  17
ENDBRANCH  11  13
ENDBRANCH  10  11
ENDBRANCH   1  10
TORSDOF 0
ENDMDL
MODEL 9
REMARK VINA RESULT:    -2.958      1.648      3.952
REMARK INTER + INTRA:          -3.798
REMARK INTER:                  -4.466
REMARK INTRA:                   0.668
REMARK UNBOUND:                 0.370
REMARK SMILES CC1=CCC(=C(C)C)C(=O)CC(C)=CCC1
REMARK SMILES IDX 12 1 14 2 13 3 15 4 16 5 2 6 1 7 3 8 11 10 9 11 10 12 5 13
REMARK SMILES IDX 6 14 7 15 8 16 4 17
REMARK H PARENT
REMARK Flexibility Score: 60.00
ROOT
ATOM      1  C   UNL     1       3.313  26.714  66.710  1.00  0.00    -0.070 C 
ATOM      2  C   UNL     1       1.987  26.476  66.570  1.00  0.00    -0.027 C 
ATOM      3  C   UNL     1       4.255  25.557  66.486  1.00  0.00     0.039 C 
ENDROOT
BRANCH   2   4
ATOM      4  C   UNL     1       0.882  27.502  66.644  1.00  0.00     0.032 C 
BRANCH   4   5
ATOM      5  C   UNL     1      -0.058  27.275  67.842  1.00  0.00     0.034 C 
BRANCH   5   6
ATOM      6  C   UNL     1       0.695  26.857  69.090  1.00  0.00    -0.077 C 
ATOM      7  C   UNL     1       0.470  25.468  69.630  1.00  0.00     0.039 C 
ATOM      8  C   UNL     1       1.540  27.669  69.763  1.00  0.00    -0.023 CG0
ATOM      9  G   UNL     1       1.868  29.098  69.403  1.00  0.00     0.000 G0
ENDBRANCH   5   6
ENDBRANCH   4   5
ENDBRANCH   2   4
BRANCH   1  10
ATOM     10  C   UNL     1       3.898  28.083  67.013  1.00  0.00     0.111 C 
BRANCH  10  11
ATOM     11  C   UNL     1       4.129  28.273  68.493  1.00  0.00     0.163 C 
ATOM     12  O   UNL     1       4.954  27.512  69.066  1.00  0.00    -0.294 OA
BRANCH  11  13
ATOM     13  C   UNL     1       3.375  29.293  69.288  1.00  0.00    -0.002 C 
ATOM     14  C   UNL     1       3.996  30.381  69.834  1.00  0.00    -0.069 C 
ATOM     15  C   UNL     1       3.235  31.387  70.669  1.00  0.00     0.039 C 
ATOM     16  C   UNL     1       5.466  30.654  69.603  1.00  0.00     0.039 C 
BRANCH  13  17
ATOM     17  C   UNL     1       1.873  29.107  69.400  1.00  0.00     0.066 CG0
ATOM     18  G   UNL     1       1.560  27.678  69.771  1.00  0.00     0.000 G0
ENDBRANCH  13  17
ENDBRANCH  11  13
ENDBRANCH  10  11
ENDBRANCH   1  10
TORSDOF 0
ENDMDL
