MODEL 1
REMARK VINA RESULT:    -4.844      0.000      0.000
REMARK INTER + INTRA:          -5.687
REMARK INTER:                  -5.552
REMARK INTRA:                  -0.135
REMARK UNBOUND:                -0.135
REMARK SMILES COc1ccc(C(C)=O)cc1O
REMARK SMILES IDX 6 1 10 2 11 3 3 4 4 5 5 6 7 7 8 8 9 9 12 10 2 12 1 13
REMARK H PARENT 12 11
REMARK Flexibility Score: inf
ROOT
ATOM      1  C   UNL     1      14.096 -11.551  12.555  1.00  0.00     0.021 A 
ATOM      2  C   UNL     1      15.476 -11.810  12.445  1.00  0.00     0.062 A 
ATOM      3  C   UNL     1      16.402 -10.762  12.394  1.00  0.00     0.158 A 
ATOM      4  C   UNL     1      15.963  -9.427  12.450  1.00  0.00     0.160 A 
ATOM      5  C   UNL     1      14.585  -9.165  12.560  1.00  0.00     0.051 A 
ATOM      6  C   UNL     1      13.665 -10.215  12.611  1.00  0.00     0.016 A 
ENDROOT
BRANCH   1   7
ATOM      7  C   UNL     1      13.103 -12.658  12.611  1.00  0.00     0.159 C 
ATOM      8  C   UNL     1      11.670 -12.459  12.218  1.00  0.00     0.093 C 
ATOM      9  O   UNL     1      13.464 -13.803  12.998  1.00  0.00    -0.295 OA
ENDBRANCH   1   7
BRANCH   3  10
ATOM     10  O   UNL     1      17.758 -11.068  12.285  1.00  0.00    -0.504 OA
ATOM     11  H   UNL     1      18.137 -11.569  11.489  1.00  0.00     0.293 HD
ENDBRANCH   3  10
BRANCH   4  12
ATOM     12  O   UNL     1      16.914  -8.396  12.397  1.00  0.00    -0.493 OA
ATOM     13  C   UNL     1      17.472  -7.753  13.538  1.00  0.00     0.278 C 
ENDBRANCH   4  12
TORSDOF 3
ENDMDL
MODEL 2
REMARK VINA RESULT:    -4.793      1.194      4.762
REMARK INTER + INTRA:          -5.629
REMARK INTER:                  -5.509
REMARK INTRA:                  -0.119
REMARK UNBOUND:                -0.135
REMARK SMILES COc1ccc(C(C)=O)cc1O
REMARK SMILES IDX 6 1 10 2 11 3 3 4 4 5 5 6 7 7 8 8 9 9 12 10 2 12 1 13
REMARK H PARENT 12 11
REMARK Flexibility Score: inf
ROOT
ATOM      1  C   UNL     1      16.608  -9.176  12.718  1.00  0.00     0.021 A 
ATOM      2  C   UNL     1      17.070 -10.506  12.688  1.00  0.00     0.062 A 
ATOM      3  C   UNL     1      16.186 -11.569  12.469  1.00  0.00     0.158 A 
ATOM      4  C   UNL     1      14.816 -11.320  12.277  1.00  0.00     0.160 A 
ATOM      5  C   UNL     1      14.350  -9.993  12.306  1.00  0.00     0.051 A 
ATOM      6  C   UNL     1      15.236  -8.936  12.525  1.00  0.00     0.016 A 
ENDROOT
BRANCH   1   7
ATOM      7  C   UNL     1      17.538  -8.037  12.950  1.00  0.00     0.159 C 
ATOM      8  C   UNL     1      17.641  -7.354  14.280  1.00  0.00     0.093 C 
ATOM      9  O   UNL     1      18.268  -7.625  12.007  1.00  0.00    -0.295 OA
ENDBRANCH   1   7
BRANCH   3  10
ATOM     10  O   UNL     1      16.691 -12.868  12.449  1.00  0.00    -0.504 OA
ATOM     11  H   UNL     1      17.200 -13.263  13.231  1.00  0.00     0.293 HD
ENDBRANCH   3  10
BRANCH   4  12
ATOM     12  O   UNL     1      13.953 -12.406  12.059  1.00  0.00    -0.493 OA
ATOM     13  C   UNL     1      13.078 -12.952  13.041  1.00  0.00     0.278 C 
ENDBRANCH   4  12
TORSDOF 3
ENDMDL
MODEL 3
REMARK VINA RESULT:    -4.662      1.609      4.506
REMARK INTER + INTRA:          -5.479
REMARK INTER:                  -5.385
REMARK INTRA:                  -0.094
REMARK UNBOUND:                -0.135
REMARK SMILES COc1ccc(C(C)=O)cc1O
REMARK SMILES IDX 6 1 10 2 11 3 3 4 4 5 5 6 7 7 8 8 9 9 12 10 2 12 1 13
REMARK H PARENT 12 11
REMARK Flexibility Score: inf
ROOT
ATOM      1  C   UNL     1      15.181  -8.528  12.662  1.00  0.00     0.021 A 
ATOM      2  C   UNL     1      16.408  -9.207  12.539  1.00  0.00     0.062 A 
ATOM      3  C   UNL     1      16.448 -10.599  12.402  1.00  0.00     0.158 A 
ATOM      4  C   UNL     1      15.255 -11.343  12.386  1.00  0.00     0.160 A 
ATOM      5  C   UNL     1      14.027 -10.667  12.507  1.00  0.00     0.051 A 
ATOM      6  C   UNL     1      13.992  -9.278  12.644  1.00  0.00     0.016 A 
ENDROOT
BRANCH   1   7
ATOM      7  C   UNL     1      15.126  -7.047  12.808  1.00  0.00     0.159 C 
ATOM      8  C   UNL     1      15.877  -6.328  13.888  1.00  0.00     0.093 C 
ATOM      9  O   UNL     1      14.432  -6.365  12.006  1.00  0.00    -0.295 OA
ENDBRANCH   1   7
BRANCH   3  10
ATOM     10  O   UNL     1      17.688 -11.227  12.285  1.00  0.00    -0.504 OA
ATOM     11  H   UNL     1      17.914 -11.836  11.507  1.00  0.00     0.293 HD
ENDBRANCH   3  10
BRANCH   4  12
ATOM     12  O   UNL     1      15.326 -12.738  12.247  1.00  0.00    -0.493 OA
ATOM     13  C   UNL     1      14.305 -13.643  12.653  1.00  0.00     0.278 C 
ENDBRANCH   4  12
TORSDOF 3
ENDMDL
MODEL 4
REMARK VINA RESULT:    -4.494      1.625      1.950
REMARK INTER + INTRA:          -5.286
REMARK INTER:                  -5.158
REMARK INTRA:                  -0.128
REMARK UNBOUND:                -0.135
REMARK SMILES COc1ccc(C(C)=O)cc1O
REMARK SMILES IDX 6 1 10 2 11 3 3 4 4 5 5 6 7 7 8 8 9 9 12 10 2 12 1 13
REMARK H PARENT 12 11
REMARK Flexibility Score: inf
ROOT
ATOM      1  C   UNL     1      15.563 -10.938  12.504  1.00  0.00     0.021 A 
ATOM      2  C   UNL     1      16.886 -10.493  12.682  1.00  0.00     0.062 A 
ATOM      3  C   UNL     1      17.173  -9.131  12.827  1.00  0.00     0.158 A 
ATOM      4  C   UNL     1      16.135  -8.183  12.797  1.00  0.00     0.160 A 
ATOM      5  C   UNL     1      14.810  -8.624  12.620  1.00  0.00     0.051 A 
ATOM      6  C   UNL     1      14.530  -9.985  12.474  1.00  0.00     0.016 A 
ENDROOT
BRANCH   1   7
ATOM      7  C   UNL     1      15.246 -12.385  12.349  1.00  0.00     0.159 C 
ATOM      8  C   UNL     1      13.905 -12.857  11.876  1.00  0.00     0.093 C 
ATOM      9  O   UNL     1      16.124 -13.249  12.620  1.00  0.00    -0.295 OA
ENDBRANCH   1   7
BRANCH   3  10
ATOM     10  O   UNL     1      18.500  -8.738  13.001  1.00  0.00    -0.504 OA
ATOM     11  H   UNL     1      19.039  -8.312  12.256  1.00  0.00     0.293 HD
ENDBRANCH   3  10
BRANCH   4  12
ATOM     12  O   UNL     1      16.452  -6.823  12.945  1.00  0.00    -0.493 OA
ATOM     13  C   UNL     1      15.847  -5.953  13.896  1.00  0.00     0.278 C 
ENDBRANCH   4  12
TORSDOF 3
ENDMDL
MODEL 5
REMARK VINA RESULT:    -4.474      0.861      1.939
REMARK INTER + INTRA:          -5.263
REMARK INTER:                  -5.148
REMARK INTRA:                  -0.115
REMARK UNBOUND:                -0.135
REMARK SMILES COc1ccc(C(C)=O)cc1O
REMARK SMILES IDX 6 1 10 2 11 3 3 4 4 5 5 6 7 7 8 8 9 9 12 10 2 12 1 13
REMARK H PARENT 12 11
REMARK Flexibility Score: inf
ROOT
ATOM      1  C   UNL     1      14.421 -11.801  12.450  1.00  0.00     0.021 A 
ATOM      2  C   UNL     1      14.087 -10.442  12.604  1.00  0.00     0.062 A 
ATOM      3  C   UNL     1      15.070  -9.449  12.536  1.00  0.00     0.158 A 
ATOM      4  C   UNL     1      16.414  -9.798  12.312  1.00  0.00     0.160 A 
ATOM      5  C   UNL     1      16.751 -11.155  12.157  1.00  0.00     0.051 A 
ATOM      6  C   UNL     1      15.766 -12.143  12.226  1.00  0.00     0.016 A 
ENDROOT
BRANCH   1   7
ATOM      7  C   UNL     1      13.383 -12.866  12.520  1.00  0.00     0.159 C 
ATOM      8  C   UNL     1      11.983 -12.643  12.034  1.00  0.00     0.093 C 
ATOM      9  O   UNL     1      13.677 -13.995  13.001  1.00  0.00    -0.295 OA
ENDBRANCH   1   7
BRANCH   3  10
ATOM     10  O   UNL     1      14.691  -8.116  12.696  1.00  0.00    -0.504 OA
ATOM     11  H   UNL     1      15.367  -7.375  12.833  1.00  0.00     0.293 HD
ENDBRANCH   3  10
BRANCH   4  12
ATOM     12  O   UNL     1      17.379  -8.780  12.248  1.00  0.00    -0.493 OA
ATOM     13  C   UNL     1      18.245  -8.420  13.320  1.00  0.00     0.278 C 
ENDBRANCH   4  12
TORSDOF 3
ENDMDL
MODEL 6
REMARK VINA RESULT:    -4.387      1.664      5.032
REMARK INTER + INTRA:          -5.164
REMARK INTER:                  -5.051
REMARK INTRA:                  -0.113
REMARK UNBOUND:                -0.135
REMARK SMILES COc1ccc(C(C)=O)cc1O
REMARK SMILES IDX 6 1 10 2 11 3 3 4 4 5 5 6 7 7 8 8 9 9 12 10 2 12 1 13
REMARK H PARENT 12 11
REMARK Flexibility Score: inf
ROOT
ATOM      1  C   UNL     1      16.605  -9.631  12.639  1.00  0.00     0.021 A 
ATOM      2  C   UNL     1      15.311  -9.083  12.724  1.00  0.00     0.062 A 
ATOM      3  C   UNL     1      14.177  -9.890  12.576  1.00  0.00     0.158 A 
ATOM      4  C   UNL     1      14.317 -11.269  12.339  1.00  0.00     0.160 A 
ATOM      5  C   UNL     1      15.609 -11.821  12.255  1.00  0.00     0.051 A 
ATOM      6  C   UNL     1      16.737 -11.011  12.402  1.00  0.00     0.016 A 
ENDROOT
BRANCH   1   7
ATOM      7  C   UNL     1      17.817  -8.782  12.795  1.00  0.00     0.159 C 
ATOM      8  C   UNL     1      18.106  -7.634  11.875  1.00  0.00     0.093 C 
ATOM      9  O   UNL     1      18.635  -9.025  13.724  1.00  0.00    -0.295 OA
ENDBRANCH   1   7
BRANCH   3  10
ATOM     10  O   UNL     1      12.916  -9.301  12.667  1.00  0.00    -0.504 OA
ATOM     11  H   UNL     1      12.585  -8.864  13.519  1.00  0.00     0.293 HD
ENDBRANCH   3  10
BRANCH   4  12
ATOM     12  O   UNL     1      13.162 -12.054  12.196  1.00  0.00    -0.493 OA
ATOM     13  C   UNL     1      12.571 -12.819  13.241  1.00  0.00     0.278 C 
ENDBRANCH   4  12
TORSDOF 3
ENDMDL
MODEL 7
REMARK VINA RESULT:    -4.230      2.269      5.413
REMARK INTER + INTRA:          -4.983
REMARK INTER:                  -4.875
REMARK INTRA:                  -0.108
REMARK UNBOUND:                -0.135
REMARK SMILES COc1ccc(C(C)=O)cc1O
REMARK SMILES IDX 6 1 10 2 11 3 3 4 4 5 5 6 7 7 8 8 9 9 12 10 2 12 1 13
REMARK H PARENT 12 11
REMARK Flexibility Score: inf
ROOT
ATOM      1  C   UNL     1      17.068  -7.939  13.478  1.00  0.00     0.021 A 
ATOM      2  C   UNL     1      15.785  -8.134  12.932  1.00  0.00     0.062 A 
ATOM      3  C   UNL     1      15.410  -9.375  12.405  1.00  0.00     0.158 A 
ATOM      4  C   UNL     1      16.316 -10.450  12.412  1.00  0.00     0.160 A 
ATOM      5  C   UNL     1      17.599 -10.259  12.957  1.00  0.00     0.051 A 
ATOM      6  C   UNL     1      17.969  -9.019  13.482  1.00  0.00     0.016 A 
ENDROOT
BRANCH   1   7
ATOM      7  C   UNL     1      17.478  -6.624  14.042  1.00  0.00     0.159 C 
ATOM      8  C   UNL     1      18.008  -5.520  13.177  1.00  0.00     0.093 C 
ATOM      9  O   UNL     1      17.383  -6.419  15.283  1.00  0.00    -0.295 OA
ENDBRANCH   1   7
BRANCH   3  10
ATOM     10  O   UNL     1      14.128  -9.519  11.875  1.00  0.00    -0.504 OA
ATOM     11  H   UNL     1      13.942  -9.444  10.882  1.00  0.00     0.293 HD
ENDBRANCH   3  10
BRANCH   4  12
ATOM     12  O   UNL     1      15.912 -11.683  11.877  1.00  0.00    -0.493 OA
ATOM     13  C   UNL     1      15.848 -12.901  12.612  1.00  0.00     0.278 C 
ENDBRANCH   4  12
TORSDOF 3
ENDMDL
MODEL 8
REMARK VINA RESULT:    -4.176      4.963      6.678
REMARK INTER + INTRA:          -4.921
REMARK INTER:                  -4.790
REMARK INTRA:                  -0.131
REMARK UNBOUND:                -0.135
REMARK SMILES COc1ccc(C(C)=O)cc1O
REMARK SMILES IDX 6 1 10 2 11 3 3 4 4 5 5 6 7 7 8 8 9 9 12 10 2 12 1 13
REMARK H PARENT 12 11
REMARK Flexibility Score: inf
ROOT
ATOM      1  C   UNL     1      16.507  -6.507  14.181  1.00  0.00     0.021 A 
ATOM      2  C   UNL     1      15.344  -5.794  14.530  1.00  0.00     0.062 A 
ATOM      3  C   UNL     1      15.096  -5.430  15.858  1.00  0.00     0.158 A 
ATOM      4  C   UNL     1      16.011  -5.774  16.869  1.00  0.00     0.160 A 
ATOM      5  C   UNL     1      17.174  -6.487  16.524  1.00  0.00     0.051 A 
ATOM      6  C   UNL     1      17.417  -6.848  15.197  1.00  0.00     0.016 A 
ENDROOT
BRANCH   1   7
ATOM      7  C   UNL     1      16.781  -6.900  12.772  1.00  0.00     0.159 C 
ATOM      8  C   UNL     1      18.047  -7.597  12.374  1.00  0.00     0.093 C 
ATOM      9  O   UNL     1      15.932  -6.644  11.875  1.00  0.00    -0.295 OA
ENDBRANCH   1   7
BRANCH   3  10
ATOM     10  O   UNL     1      13.930  -4.724  16.154  1.00  0.00    -0.504 OA
ATOM     11  H   UNL     1      13.299  -4.396  15.433  1.00  0.00     0.293 HD
ENDBRANCH   3  10
BRANCH   4  12
ATOM     12  O   UNL     1      15.736  -5.395  18.192  1.00  0.00    -0.493 OA
ATOM     13  C   UNL     1      16.602  -4.608  19.003  1.00  0.00     0.278 C 
ENDBRANCH   4  12
TORSDOF 3
ENDMDL
MODEL 9
REMARK VINA RESULT:    -4.065      1.957      2.865
REMARK INTER + INTRA:          -4.794
REMARK INTER:                  -4.721
REMARK INTRA:                  -0.073
REMARK UNBOUND:                -0.135
REMARK SMILES COc1ccc(C(C)=O)cc1O
REMARK SMILES IDX 6 1 10 2 11 3 3 4 4 5 5 6 7 7 8 8 9 9 12 10 2 12 1 13
REMARK H PARENT 12 11
REMARK Flexibility Score: inf
ROOT
ATOM      1  C   UNL     1      15.577 -10.598  12.575  1.00  0.00     0.021 A 
ATOM      2  C   UNL     1      14.828  -9.406  12.560  1.00  0.00     0.062 A 
ATOM      3  C   UNL     1      15.442  -8.169  12.786  1.00  0.00     0.158 A 
ATOM      4  C   UNL     1      16.825  -8.100  13.033  1.00  0.00     0.160 A 
ATOM      5  C   UNL     1      17.577  -9.290  13.047  1.00  0.00     0.051 A 
ATOM      6  C   UNL     1      16.959 -10.522  12.822  1.00  0.00     0.016 A 
ENDROOT
BRANCH   1   7
ATOM      7  C   UNL     1      14.935 -11.920  12.336  1.00  0.00     0.159 C 
ATOM      8  C   UNL     1      15.641 -13.209  12.625  1.00  0.00     0.093 C 
ATOM      9  O   UNL     1      13.761 -11.970  11.876  1.00  0.00    -0.295 OA
ENDBRANCH   1   7
BRANCH   3  10
ATOM     10  O   UNL     1      14.658  -7.016  12.762  1.00  0.00    -0.504 OA
ATOM     11  H   UNL     1      15.063  -6.087  12.750  1.00  0.00     0.293 HD
ENDBRANCH   3  10
BRANCH   4  12
ATOM     12  O   UNL     1      17.414  -6.846  13.255  1.00  0.00    -0.493 OA
ATOM     13  C   UNL     1      17.375  -6.144  14.493  1.00  0.00     0.278 C 
ENDBRANCH   4  12
TORSDOF 3
ENDMDL
