MODEL 1
REMARK VINA RESULT:    -3.709      0.000      0.000
REMARK INTER + INTRA:          -6.616
REMARK INTER:                  -5.335
REMARK INTRA:                  -1.280
REMARK UNBOUND:                -1.280
REMARK SMILES O=C(CO)[C@H](O)[C@H](O)[C@H](O)CO
REMARK SMILES IDX 7 1 9 2 11 3 12 4 10 6 5 8 2 9 1 10 3 11 4 12 6 14 8 16
REMARK H PARENT 12 5 10 7 4 13 6 15 8 17
REMARK Flexibility Score: inf
ROOT
ATOM      1  C   UNL     1      43.880  27.040  -2.498  1.00  0.00     0.181 C 
ENDROOT
BRANCH   1   2
ATOM      2  C   UNL     1      44.362  27.203  -3.967  1.00  0.00     0.171 C 
BRANCH   2   3
ATOM      3  C   UNL     1      45.882  27.384  -4.117  1.00  0.00     0.190 C 
BRANCH   3   4
ATOM      4  O   UNL     1      46.546  26.310  -3.510  1.00  0.00    -0.394 OA
ATOM      5  H   UNL     1      47.360  26.144  -4.053  1.00  0.00     0.210 HD
ENDBRANCH   3   4
ENDBRANCH   2   3
BRANCH   2   6
ATOM      6  O   UNL     1      43.963  26.065  -4.688  1.00  0.00    -0.388 OA
ATOM      7  H   UNL     1      43.247  25.618  -4.164  1.00  0.00     0.211 HD
ENDBRANCH   2   6
ENDBRANCH   1   2
BRANCH   1   8
ATOM      8  C   UNL     1      44.334  28.142  -1.499  1.00  0.00     0.214 C 
BRANCH   8   9
ATOM      9  C   UNL     1      45.271  27.597  -0.435  1.00  0.00     0.189 C 
ATOM     10  O   UNL     1      46.440  27.390  -0.724  1.00  0.00    -0.294 OA
BRANCH   9  11
ATOM     11  C   UNL     1      44.809  27.322   0.974  1.00  0.00     0.234 C 
BRANCH  11  12
ATOM     12  O   UNL     1      43.724  26.436   0.971  1.00  0.00    -0.388 OA
ATOM     13  H   UNL     1      43.408  26.378   0.031  1.00  0.00     0.211 HD
ENDBRANCH  11  12
ENDBRANCH   9  11
ENDBRANCH   8   9
BRANCH   8  14
ATOM     14  O   UNL     1      43.224  28.782  -0.920  1.00  0.00    -0.382 OA
ATOM     15  H   UNL     1      42.442  28.185  -1.053  1.00  0.00     0.211 HD
ENDBRANCH   8  14
ENDBRANCH   1   8
BRANCH   1  16
ATOM     16  O   UNL     1      44.167  25.753  -2.006  1.00  0.00    -0.387 OA
ATOM     17  H   UNL     1      43.907  25.722  -1.050  1.00  0.00     0.211 HD
ENDBRANCH   1  16
TORSDOF 10
ENDMDL
MODEL 2
REMARK VINA RESULT:    -3.660      1.636      3.123
REMARK INTER + INTRA:          -6.544
REMARK INTER:                  -5.496
REMARK INTRA:                  -1.048
REMARK UNBOUND:                -1.280
REMARK SMILES O=C(CO)[C@H](O)[C@H](O)[C@H](O)CO
REMARK SMILES IDX 7 1 9 2 11 3 12 4 10 6 5 8 2 9 1 10 3 11 4 12 6 14 8 16
REMARK H PARENT 12 5 10 7 4 13 6 15 8 17
REMARK Flexibility Score: inf
ROOT
ATOM      1  C   UNL     1      43.564  27.832  -3.371  1.00  0.00     0.181 C 
ENDROOT
BRANCH   1   2
ATOM      2  C   UNL     1      43.353  26.886  -4.587  1.00  0.00     0.171 C 
BRANCH   2   3
ATOM      3  C   UNL     1      42.926  27.604  -5.879  1.00  0.00     0.190 C 
BRANCH   3   4
ATOM      4  O   UNL     1      41.613  28.074  -5.744  1.00  0.00    -0.394 OA
ATOM      5  H   UNL     1      41.677  29.062  -5.685  1.00  0.00     0.210 HD
ENDBRANCH   3   4
ENDBRANCH   2   3
BRANCH   2   6
ATOM      6  O   UNL     1      44.555  26.197  -4.821  1.00  0.00    -0.388 OA
ATOM      7  H   UNL     1      44.747  26.258  -5.793  1.00  0.00     0.211 HD
ENDBRANCH   2   6
ENDBRANCH   1   2
BRANCH   1   8
ATOM      8  C   UNL     1      44.034  27.160  -2.049  1.00  0.00     0.214 C 
BRANCH   8   9
ATOM      9  C   UNL     1      45.374  27.699  -1.581  1.00  0.00     0.189 C 
ATOM     10  O   UNL     1      45.486  28.094  -0.429  1.00  0.00    -0.294 OA
BRANCH   9  11
ATOM     11  C   UNL     1      46.580  27.743  -2.485  1.00  0.00     0.234 C 
BRANCH  11  12
ATOM     12  O   UNL     1      46.817  26.483  -3.049  1.00  0.00    -0.388 OA
ATOM     13  H   UNL     1      46.056  25.904  -2.780  1.00  0.00     0.211 HD
ENDBRANCH  11  12
ENDBRANCH   9  11
ENDBRANCH   8   9
BRANCH   8  14
ATOM     14  O   UNL     1      44.066  25.761  -2.183  1.00  0.00    -0.382 OA
ATOM     15  H   UNL     1      44.923  25.530  -2.628  1.00  0.00     0.211 HD
ENDBRANCH   8  14
ENDBRANCH   1   8
BRANCH   1  16
ATOM     16  O   UNL     1      42.438  28.648  -3.158  1.00  0.00    -0.387 OA
ATOM     17  H   UNL     1      42.376  29.294  -3.908  1.00  0.00     0.211 HD
ENDBRANCH   1  16
TORSDOF 10
ENDMDL
MODEL 3
REMARK VINA RESULT:    -3.426      2.000      4.507
REMARK INTER + INTRA:          -6.208
REMARK INTER:                  -5.552
REMARK INTRA:                  -0.656
REMARK UNBOUND:                -1.280
REMARK SMILES O=C(CO)[C@H](O)[C@H](O)[C@H](O)CO
REMARK SMILES IDX 7 1 9 2 11 3 12 4 10 6 5 8 2 9 1 10 3 11 4 12 6 14 8 16
REMARK H PARENT 12 5 10 7 4 13 6 15 8 17
REMARK Flexibility Score: inf
ROOT
ATOM      1  C   UNL     1      44.513  26.838  -4.780  1.00  0.00     0.181 C 
ENDROOT
BRANCH   1   2
ATOM      2  C   UNL     1      45.133  27.265  -3.420  1.00  0.00     0.171 C 
BRANCH   2   3
ATOM      3  C   UNL     1      44.198  27.078  -2.212  1.00  0.00     0.190 C 
BRANCH   3   4
ATOM      4  O   UNL     1      44.039  25.711  -1.947  1.00  0.00    -0.394 OA
ATOM      5  H   UNL     1      44.847  25.430  -1.446  1.00  0.00     0.210 HD
ENDBRANCH   3   4
ENDBRANCH   2   3
BRANCH   2   6
ATOM      6  O   UNL     1      46.302  26.513  -3.215  1.00  0.00    -0.388 OA
ATOM      7  H   UNL     1      46.858  27.004  -2.554  1.00  0.00     0.211 HD
ENDBRANCH   2   6
ENDBRANCH   1   2
BRANCH   1   8
ATOM      8  C   UNL     1      44.083  27.989  -5.733  1.00  0.00     0.214 C 
BRANCH   8   9
ATOM      9  C   UNL     1      42.807  28.668  -5.268  1.00  0.00     0.189 C 
ATOM     10  O   UNL     1      41.731  28.138  -5.509  1.00  0.00    -0.294 OA
BRANCH   9  11
ATOM     11  C   UNL     1      42.823  29.965  -4.500  1.00  0.00     0.234 C 
BRANCH  11  12
ATOM     12  O   UNL     1      42.194  29.808  -3.259  1.00  0.00    -0.388 OA
ATOM     13  H   UNL     1      41.428  29.193  -3.405  1.00  0.00     0.211 HD
ENDBRANCH  11  12
ENDBRANCH   9  11
ENDBRANCH   8   9
BRANCH   8  14
ATOM     14  O   UNL     1      43.962  27.527  -7.054  1.00  0.00    -0.382 OA
ATOM     15  H   UNL     1      43.134  26.981  -7.097  1.00  0.00     0.211 HD
ENDBRANCH   8  14
ENDBRANCH   1   8
BRANCH   1  16
ATOM     16  O   UNL     1      43.471  25.910  -4.597  1.00  0.00    -0.387 OA
ATOM     17  H   UNL     1      42.615  26.408  -4.559  1.00  0.00     0.211 HD
ENDBRANCH   1  16
TORSDOF 10
ENDMDL
MODEL 4
REMARK VINA RESULT:    -3.420      1.498      2.506
REMARK INTER + INTRA:          -6.199
REMARK INTER:                  -5.270
REMARK INTRA:                  -0.929
REMARK UNBOUND:                -1.280
REMARK SMILES O=C(CO)[C@H](O)[C@H](O)[C@H](O)CO
REMARK SMILES IDX 7 1 9 2 11 3 12 4 10 6 5 8 2 9 1 10 3 11 4 12 6 14 8 16
REMARK H PARENT 12 5 10 7 4 13 6 15 8 17
REMARK Flexibility Score: inf
ROOT
ATOM      1  C   UNL     1      43.895  27.747  -3.312  1.00  0.00     0.181 C 
ENDROOT
BRANCH   1   2
ATOM      2  C   UNL     1      43.423  26.935  -4.551  1.00  0.00     0.171 C 
BRANCH   2   3
ATOM      3  C   UNL     1      42.955  27.802  -5.733  1.00  0.00     0.190 C 
BRANCH   3   4
ATOM      4  O   UNL     1      41.596  28.110  -5.582  1.00  0.00    -0.394 OA
ATOM      5  H   UNL     1      41.280  28.412  -6.472  1.00  0.00     0.210 HD
ENDBRANCH   3   4
ENDBRANCH   2   3
BRANCH   2   6
ATOM      6  O   UNL     1      44.487  26.120  -4.972  1.00  0.00    -0.388 OA
ATOM      7  H   UNL     1      44.118  25.461  -5.618  1.00  0.00     0.211 HD
ENDBRANCH   2   6
ENDBRANCH   1   2
BRANCH   1   8
ATOM      8  C   UNL     1      43.839  27.009  -1.943  1.00  0.00     0.214 C 
BRANCH   8   9
ATOM      9  C   UNL     1      44.795  27.614  -0.930  1.00  0.00     0.189 C 
ATOM     10  O   UNL     1      45.708  28.324  -1.325  1.00  0.00    -0.294 OA
BRANCH   9  11
ATOM     11  C   UNL     1      44.641  27.384   0.552  1.00  0.00     0.234 C 
BRANCH  11  12
ATOM     12  O   UNL     1      43.793  26.296   0.795  1.00  0.00    -0.388 OA
ATOM     13  H   UNL     1      44.143  25.538   0.256  1.00  0.00     0.211 HD
ENDBRANCH  11  12
ENDBRANCH   9  11
ENDBRANCH   8   9
BRANCH   8  14
ATOM     14  O   UNL     1      44.074  25.633  -2.107  1.00  0.00    -0.382 OA
ATOM     15  H   UNL     1      44.616  25.526  -2.931  1.00  0.00     0.211 HD
ENDBRANCH   8  14
ENDBRANCH   1   8
BRANCH   1  16
ATOM     16  O   UNL     1      43.252  28.997  -3.245  1.00  0.00    -0.387 OA
ATOM     17  H   UNL     1      43.731  29.624  -3.845  1.00  0.00     0.211 HD
ENDBRANCH   1  16
TORSDOF 10
ENDMDL
MODEL 5
REMARK VINA RESULT:    -3.406      1.857      4.575
REMARK INTER + INTRA:          -6.179
REMARK INTER:                  -5.248
REMARK INTRA:                  -0.931
REMARK UNBOUND:                -1.280
REMARK SMILES O=C(CO)[C@H](O)[C@H](O)[C@H](O)CO
REMARK SMILES IDX 7 1 9 2 11 3 12 4 10 6 5 8 2 9 1 10 3 11 4 12 6 14 8 16
REMARK H PARENT 12 5 10 7 4 13 6 15 8 17
REMARK Flexibility Score: inf
ROOT
ATOM      1  C   UNL     1      45.212  27.530  -3.547  1.00  0.00     0.181 C 
ENDROOT
BRANCH   1   2
ATOM      2  C   UNL     1      44.130  27.870  -2.484  1.00  0.00     0.171 C 
BRANCH   2   3
ATOM      3  C   UNL     1      44.011  26.835  -1.351  1.00  0.00     0.190 C 
BRANCH   3   4
ATOM      4  O   UNL     1      43.832  25.557  -1.897  1.00  0.00    -0.394 OA
ATOM      5  H   UNL     1      43.444  24.999  -1.175  1.00  0.00     0.210 HD
ENDBRANCH   3   4
ENDBRANCH   2   3
BRANCH   2   6
ATOM      6  O   UNL     1      44.438  29.124  -1.930  1.00  0.00    -0.388 OA
ATOM      7  H   UNL     1      44.894  29.655  -2.634  1.00  0.00     0.211 HD
ENDBRANCH   2   6
ENDBRANCH   1   2
BRANCH   1   8
ATOM      8  C   UNL     1      44.691  27.099  -4.947  1.00  0.00     0.214 C 
BRANCH   8   9
ATOM      9  C   UNL     1      44.013  28.243  -5.680  1.00  0.00     0.189 C 
ATOM     10  O   UNL     1      44.634  29.279  -5.867  1.00  0.00    -0.294 OA
BRANCH   9  11
ATOM     11  C   UNL     1      42.604  28.135  -6.206  1.00  0.00     0.234 C 
BRANCH  11  12
ATOM     12  O   UNL     1      41.701  27.937  -5.153  1.00  0.00    -0.388 OA
ATOM     13  H   UNL     1      41.114  28.738  -5.129  1.00  0.00     0.211 HD
ENDBRANCH  11  12
ENDBRANCH   9  11
ENDBRANCH   8   9
BRANCH   8  14
ATOM     14  O   UNL     1      43.839  25.985  -4.844  1.00  0.00    -0.382 OA
ATOM     15  H   UNL     1      44.012  25.568  -3.960  1.00  0.00     0.211 HD
ENDBRANCH   8  14
ENDBRANCH   1   8
BRANCH   1  16
ATOM     16  O   UNL     1      46.150  26.608  -3.044  1.00  0.00    -0.387 OA
ATOM     17  H   UNL     1      46.760  26.352  -3.783  1.00  0.00     0.211 HD
ENDBRANCH   1  16
TORSDOF 10
ENDMDL
MODEL 6
REMARK VINA RESULT:    -3.378      1.473      4.519
REMARK INTER + INTRA:          -6.139
REMARK INTER:                  -5.325
REMARK INTRA:                  -0.814
REMARK UNBOUND:                -1.280
REMARK SMILES O=C(CO)[C@H](O)[C@H](O)[C@H](O)CO
REMARK SMILES IDX 7 1 9 2 11 3 12 4 10 6 5 8 2 9 1 10 3 11 4 12 6 14 8 16
REMARK H PARENT 12 5 10 7 4 13 6 15 8 17
REMARK Flexibility Score: inf
ROOT
ATOM      1  C   UNL     1      44.478  27.428  -0.591  1.00  0.00     0.181 C 
ENDROOT
BRANCH   1   2
ATOM      2  C   UNL     1      43.424  26.961   0.451  1.00  0.00     0.171 C 
BRANCH   2   3
ATOM      3  C   UNL     1      43.902  27.035   1.911  1.00  0.00     0.190 C 
BRANCH   3   4
ATOM      4  O   UNL     1      44.617  25.873   2.232  1.00  0.00    -0.394 OA
ATOM      5  H   UNL     1      44.328  25.181   1.582  1.00  0.00     0.210 HD
ENDBRANCH   3   4
ENDBRANCH   2   3
BRANCH   2   6
ATOM      6  O   UNL     1      42.276  27.759   0.303  1.00  0.00    -0.388 OA
ATOM      7  H   UNL     1      42.188  27.974  -0.662  1.00  0.00     0.211 HD
ENDBRANCH   2   6
ENDBRANCH   1   2
BRANCH   1   8
ATOM      8  C   UNL     1      44.369  26.802  -2.010  1.00  0.00     0.214 C 
BRANCH   8   9
ATOM      9  C   UNL     1      43.560  27.671  -2.957  1.00  0.00     0.189 C 
ATOM     10  O   UNL     1      42.976  28.649  -2.513  1.00  0.00    -0.294 OA
BRANCH   9  11
ATOM     11  C   UNL     1      43.470  27.378  -4.433  1.00  0.00     0.234 C 
BRANCH  11  12
ATOM     12  O   UNL     1      43.923  26.081  -4.705  1.00  0.00    -0.388 OA
ATOM     13  H   UNL     1      43.743  25.541  -3.891  1.00  0.00     0.211 HD
ENDBRANCH  11  12
ENDBRANCH   9  11
ENDBRANCH   8   9
BRANCH   8  14
ATOM     14  O   UNL     1      43.846  25.499  -1.943  1.00  0.00    -0.382 OA
ATOM     15  H   UNL     1      43.752  25.174  -2.877  1.00  0.00     0.211 HD
ENDBRANCH   8  14
ENDBRANCH   1   8
BRANCH   1  16
ATOM     16  O   UNL     1      45.785  27.315  -0.081  1.00  0.00    -0.387 OA
ATOM     17  H   UNL     1      46.066  28.206   0.251  1.00  0.00     0.211 HD
ENDBRANCH   1  16
TORSDOF 10
ENDMDL
MODEL 7
REMARK VINA RESULT:    -3.356      1.170      2.176
REMARK INTER + INTRA:          -6.108
REMARK INTER:                  -5.118
REMARK INTRA:                  -0.990
REMARK UNBOUND:                -1.280
REMARK SMILES O=C(CO)[C@H](O)[C@H](O)[C@H](O)CO
REMARK SMILES IDX 7 1 9 2 11 3 12 4 10 6 5 8 2 9 1 10 3 11 4 12 6 14 8 16
REMARK H PARENT 12 5 10 7 4 13 6 15 8 17
REMARK Flexibility Score: inf
ROOT
ATOM      1  C   UNL     1      44.851  27.934  -3.076  1.00  0.00     0.181 C 
ENDROOT
BRANCH   1   2
ATOM      2  C   UNL     1      45.342  27.376  -4.441  1.00  0.00     0.171 C 
BRANCH   2   3
ATOM      3  C   UNL     1      46.814  26.927  -4.448  1.00  0.00     0.190 C 
BRANCH   3   4
ATOM      4  O   UNL     1      47.070  26.136  -3.320  1.00  0.00    -0.394 OA
ATOM      5  H   UNL     1      46.460  25.357  -3.384  1.00  0.00     0.210 HD
ENDBRANCH   3   4
ENDBRANCH   2   3
BRANCH   2   6
ATOM      6  O   UNL     1      44.527  26.285  -4.788  1.00  0.00    -0.388 OA
ATOM      7  H   UNL     1      43.992  26.049  -3.985  1.00  0.00     0.211 HD
ENDBRANCH   2   6
ENDBRANCH   1   2
BRANCH   1   8
ATOM      8  C   UNL     1      43.769  27.095  -2.338  1.00  0.00     0.214 C 
BRANCH   8   9
ATOM      9  C   UNL     1      43.326  27.748  -1.041  1.00  0.00     0.189 C 
ATOM     10  O   UNL     1      42.710  28.803  -1.088  1.00  0.00    -0.294 OA
BRANCH   9  11
ATOM     11  C   UNL     1      43.603  27.127   0.304  1.00  0.00     0.234 C 
BRANCH  11  12
ATOM     12  O   UNL     1      44.961  26.806   0.427  1.00  0.00    -0.388 OA
ATOM     13  H   UNL     1      45.010  25.821   0.542  1.00  0.00     0.211 HD
ENDBRANCH  11  12
ENDBRANCH   9  11
ENDBRANCH   8   9
BRANCH   8  14
ATOM     14  O   UNL     1      44.217  25.781  -2.119  1.00  0.00    -0.382 OA
ATOM     15  H   UNL     1      43.441  25.260  -1.784  1.00  0.00     0.211 HD
ENDBRANCH   8  14
ENDBRANCH   1   8
BRANCH   1  16
ATOM     16  O   UNL     1      44.467  29.283  -3.183  1.00  0.00    -0.387 OA
ATOM     17  H   UNL     1      45.256  29.848  -2.976  1.00  0.00     0.211 HD
ENDBRANCH   1  16
TORSDOF 10
ENDMDL
MODEL 8
REMARK VINA RESULT:    -3.268      1.417      4.328
REMARK INTER + INTRA:          -5.980
REMARK INTER:                  -5.086
REMARK INTRA:                  -0.894
REMARK UNBOUND:                -1.280
REMARK SMILES O=C(CO)[C@H](O)[C@H](O)[C@H](O)CO
REMARK SMILES IDX 7 1 9 2 11 3 12 4 10 6 5 8 2 9 1 10 3 11 4 12 6 14 8 16
REMARK H PARENT 12 5 10 7 4 13 6 15 8 17
REMARK Flexibility Score: inf
ROOT
ATOM      1  C   UNL     1      44.232  27.162  -1.565  1.00  0.00     0.181 C 
ENDROOT
BRANCH   1   2
ATOM      2  C   UNL     1      43.173  27.601  -0.515  1.00  0.00     0.171 C 
BRANCH   2   3
ATOM      3  C   UNL     1      43.446  27.086   0.909  1.00  0.00     0.190 C 
BRANCH   3   4
ATOM      4  O   UNL     1      44.716  26.497   0.962  1.00  0.00    -0.394 OA
ATOM      5  H   UNL     1      44.706  25.885   1.742  1.00  0.00     0.210 HD
ENDBRANCH   3   4
ENDBRANCH   2   3
BRANCH   2   6
ATOM      6  O   UNL     1      43.131  29.006  -0.494  1.00  0.00    -0.388 OA
ATOM      7  H   UNL     1      42.629  29.275   0.319  1.00  0.00     0.211 HD
ENDBRANCH   2   6
ENDBRANCH   1   2
BRANCH   1   8
ATOM      8  C   UNL     1      44.387  28.081  -2.811  1.00  0.00     0.214 C 
BRANCH   8   9
ATOM      9  C   UNL     1      43.167  28.029  -3.713  1.00  0.00     0.189 C 
ATOM     10  O   UNL     1      42.175  28.676  -3.409  1.00  0.00    -0.294 OA
BRANCH   9  11
ATOM     11  C   UNL     1      43.146  27.222  -4.987  1.00  0.00     0.234 C 
BRANCH  11  12
ATOM     12  O   UNL     1      43.601  25.919  -4.749  1.00  0.00    -0.388 OA
ATOM     13  H   UNL     1      43.835  25.535  -5.635  1.00  0.00     0.211 HD
ENDBRANCH  11  12
ENDBRANCH   9  11
ENDBRANCH   8   9
BRANCH   8  14
ATOM     14  O   UNL     1      45.559  27.768  -3.521  1.00  0.00    -0.382 OA
ATOM     15  H   UNL     1      46.080  28.608  -3.609  1.00  0.00     0.211 HD
ENDBRANCH   8  14
ENDBRANCH   1   8
BRANCH   1  16
ATOM     16  O   UNL     1      44.052  25.818  -1.940  1.00  0.00    -0.387 OA
ATOM     17  H   UNL     1      43.327  25.778  -2.615  1.00  0.00     0.211 HD
ENDBRANCH   1  16
TORSDOF 10
ENDMDL
MODEL 9
REMARK VINA RESULT:    -3.243      1.639      4.447
REMARK INTER + INTRA:          -5.945
REMARK INTER:                  -5.058
REMARK INTRA:                  -0.887
REMARK UNBOUND:                -1.280
REMARK SMILES O=C(CO)[C@H](O)[C@H](O)[C@H](O)CO
REMARK SMILES IDX 7 1 9 2 11 3 12 4 10 6 5 8 2 9 1 10 3 11 4 12 6 14 8 16
REMARK H PARENT 12 5 10 7 4 13 6 15 8 17
REMARK Flexibility Score: inf
ROOT
ATOM      1  C   UNL     1      43.223  28.195  -2.002  1.00  0.00     0.181 C 
ENDROOT
BRANCH   1   2
ATOM      2  C   UNL     1      43.944  27.149  -1.106  1.00  0.00     0.171 C 
BRANCH   2   3
ATOM      3  C   UNL     1      43.237  26.868   0.231  1.00  0.00     0.190 C 
BRANCH   3   4
ATOM      4  O   UNL     1      44.172  26.411   1.170  1.00  0.00    -0.394 OA
ATOM      5  H   UNL     1      44.433  25.499   0.880  1.00  0.00     0.210 HD
ENDBRANCH   3   4
ENDBRANCH   2   3
BRANCH   2   6
ATOM      6  O   UNL     1      44.048  25.949  -1.831  1.00  0.00    -0.388 OA
ATOM      7  H   UNL     1      43.229  25.866  -2.386  1.00  0.00     0.211 HD
ENDBRANCH   2   6
ENDBRANCH   1   2
BRANCH   1   8
ATOM      8  C   UNL     1      43.941  28.579  -3.327  1.00  0.00     0.214 C 
BRANCH   8   9
ATOM      9  C   UNL     1      43.092  28.266  -4.547  1.00  0.00     0.189 C 
ATOM     10  O   UNL     1      42.152  28.999  -4.820  1.00  0.00    -0.294 OA
BRANCH   9  11
ATOM     11  C   UNL     1      43.384  27.092  -5.446  1.00  0.00     0.234 C 
BRANCH  11  12
ATOM     12  O   UNL     1      43.557  25.926  -4.690  1.00  0.00    -0.388 OA
ATOM     13  H   UNL     1      44.536  25.767  -4.635  1.00  0.00     0.211 HD
ENDBRANCH  11  12
ENDBRANCH   9  11
ENDBRANCH   8   9
BRANCH   8  14
ATOM     14  O   UNL     1      45.200  27.961  -3.411  1.00  0.00    -0.382 OA
ATOM     15  H   UNL     1      45.433  27.903  -4.375  1.00  0.00     0.211 HD
ENDBRANCH   8  14
ENDBRANCH   1   8
BRANCH   1  16
ATOM     16  O   UNL     1      42.865  29.339  -1.264  1.00  0.00    -0.387 OA
ATOM     17  H   UNL     1      42.384  29.044  -0.448  1.00  0.00     0.211 HD
ENDBRANCH   1  16
TORSDOF 10
ENDMDL
