MODEL 1
REMARK VINA RESULT:    -2.974      0.000      0.000
REMARK INTER + INTRA:         -11.373
REMARK INTER:                  -6.800
REMARK INTRA:                  -4.573
REMARK UNBOUND:                -4.573
REMARK SMILES CCCCCCCCCCCCCCCCCCCCCCCC(=O)[O-]
REMARK SMILES IDX 13 1 14 2 15 3 16 4 17 5 18 6 19 7 20 8 21 9 22 10 23 11
REMARK SMILES IDX 24 12 25 13 26 14 12 15 11 16 10 17 9 18 8 19 7 20 6 21 5 22
REMARK SMILES IDX 4 23 3 24 2 25 1 26
REMARK H PARENT
REMARK Flexibility Score: inf
ROOT
ATOM      1  C   UNL     1     -98.217 -46.026 -12.017  1.00  0.00     0.000 C 
ENDROOT
BRANCH   1   2
ATOM      2  C   UNL     1     -98.105 -46.934 -10.778  1.00  0.00     0.000 C 
BRANCH   2   3
ATOM      3  C   UNL     1     -99.473 -47.343 -10.207  1.00  0.00     0.000 C 
BRANCH   3   4
ATOM      4  C   UNL     1     -99.951 -46.395  -9.083  1.00  0.00     0.000 C 
BRANCH   4   5
ATOM      5  C   UNL     1    -101.294 -45.709  -9.392  1.00  0.00     0.000 C 
BRANCH   5   6
ATOM      6  C   UNL     1    -101.167 -44.301 -10.005  1.00  0.00     0.000 C 
BRANCH   6   7
ATOM      7  C   UNL     1    -102.041 -44.089 -11.262  1.00  0.00     0.000 C 
BRANCH   7   8
ATOM      8  C   UNL     1    -101.282 -44.374 -12.569  1.00  0.00     0.000 C 
BRANCH   8   9
ATOM      9  C   UNL     1    -101.972 -45.437 -13.444  1.00  0.00     0.000 C 
BRANCH   9  10
ATOM     10  C   UNL     1    -101.759 -46.894 -12.988  1.00  0.00     0.006 C 
BRANCH  10  11
ATOM     11  C   UNL     1    -100.877 -47.736 -13.923  1.00  0.00     0.053 C 
BRANCH  11  12
ATOM     12  C   UNL     1    -100.757 -49.155 -13.455  1.00  0.00     0.041 C 
ATOM     13  O   UNL     1     -99.762 -49.516 -12.774  1.00  0.00    -0.550 OA
ATOM     14  O   UNL     1    -101.733 -50.082 -13.796  1.00  0.00    -0.550 OA
ENDBRANCH  11  12
ENDBRANCH  10  11
ENDBRANCH   9  10
ENDBRANCH   8   9
ENDBRANCH   7   8
ENDBRANCH   6   7
ENDBRANCH   5   6
ENDBRANCH   4   5
ENDBRANCH   3   4
ENDBRANCH   2   3
ENDBRANCH   1   2
BRANCH   1  15
ATOM     15  C   UNL     1     -97.243 -44.832 -12.046  1.00  0.00     0.000 C 
BRANCH  15  16
ATOM     16  C   UNL     1     -97.829 -43.563 -11.402  1.00  0.00     0.000 C 
BRANCH  16  17
ATOM     17  C   UNL     1     -97.038 -43.094 -10.166  1.00  0.00     0.000 C 
BRANCH  17  18
ATOM     18  C   UNL     1     -97.652 -43.480  -8.807  1.00  0.00    -0.000 C 
BRANCH  18  19
ATOM     19  C   UNL     1     -96.911 -44.642  -8.121  1.00  0.00    -0.000 C 
BRANCH  19  20
ATOM     20  C   UNL     1     -95.567 -44.974  -8.805  1.00  0.00    -0.000 C 
BRANCH  20  21
ATOM     21  C   UNL     1     -95.149 -46.450  -8.671  1.00  0.00    -0.000 C 
BRANCH  21  22
ATOM     22  C   UNL     1     -94.068 -46.917  -9.665  1.00  0.00    -0.000 C 
BRANCH  22  23
ATOM     23  C   UNL     1     -94.435 -46.749 -11.151  1.00  0.00    -0.000 C 
BRANCH  23  24
ATOM     24  C   UNL     1     -93.494 -47.518 -12.089  1.00  0.00    -0.000 C 
BRANCH  24  25
ATOM     25  C   UNL     1     -94.050 -48.912 -12.402  1.00  0.00    -0.003 C 
ATOM     26  C   UNL     1     -95.555 -48.866 -12.645  1.00  0.00     0.004 C 
ENDBRANCH  24  25
ENDBRANCH  23  24
ENDBRANCH  22  23
ENDBRANCH  21  22
ENDBRANCH  20  21
ENDBRANCH  19  20
ENDBRANCH  18  19
ENDBRANCH  17  18
ENDBRANCH  16  17
ENDBRANCH  15  16
ENDBRANCH   1  15
TORSDOF 22
ENDMDL
MODEL 2
REMARK VINA RESULT:    -2.890      2.101      6.158
REMARK INTER + INTRA:         -11.181
REMARK INTER:                  -6.335
REMARK INTRA:                  -4.846
REMARK UNBOUND:                -4.573
REMARK SMILES CCCCCCCCCCCCCCCCCCCCCCCC(=O)[O-]
REMARK SMILES IDX 13 1 14 2 15 3 16 4 17 5 18 6 19 7 20 8 21 9 22 10 23 11
REMARK SMILES IDX 24 12 25 13 26 14 12 15 11 16 10 17 9 18 8 19 7 20 6 21 5 22
REMARK SMILES IDX 4 23 3 24 2 25 1 26
REMARK H PARENT
REMARK Flexibility Score: inf
ROOT
ATOM      1  C   UNL     1     -98.052 -46.111 -12.050  1.00  0.00     0.000 C 
ENDROOT
BRANCH   1   2
ATOM      2  C   UNL     1     -99.074 -45.017 -12.410  1.00  0.00     0.000 C 
BRANCH   2   3
ATOM      3  C   UNL     1     -98.624 -43.609 -11.984  1.00  0.00     0.000 C 
BRANCH   3   4
ATOM      4  C   UNL     1     -97.195 -43.599 -11.394  1.00  0.00     0.000 C 
BRANCH   4   5
ATOM      5  C   UNL     1     -97.119 -42.984  -9.985  1.00  0.00     0.000 C 
BRANCH   5   6
ATOM      6  C   UNL     1     -98.131 -43.562  -8.978  1.00  0.00     0.000 C 
BRANCH   6   7
ATOM      7  C   UNL     1     -97.493 -44.480  -7.911  1.00  0.00     0.000 C 
BRANCH   7   8
ATOM      8  C   UNL     1     -96.991 -45.811  -8.495  1.00  0.00     0.000 C 
BRANCH   8   9
ATOM      9  C   UNL     1     -95.458 -45.939  -8.468  1.00  0.00     0.000 C 
BRANCH   9  10
ATOM     10  C   UNL     1     -94.781 -45.968  -9.853  1.00  0.00     0.006 C 
BRANCH  10  11
ATOM     11  C   UNL     1     -94.752 -47.351 -10.523  1.00  0.00     0.053 C 
BRANCH  11  12
ATOM     12  C   UNL     1     -94.584 -47.250 -12.009  1.00  0.00     0.041 C 
ATOM     13  O   UNL     1     -94.250 -46.158 -12.537  1.00  0.00    -0.550 OA
ATOM     14  O   UNL     1     -94.826 -48.358 -12.811  1.00  0.00    -0.550 OA
ENDBRANCH  11  12
ENDBRANCH  10  11
ENDBRANCH   9  10
ENDBRANCH   8   9
ENDBRANCH   7   8
ENDBRANCH   6   7
ENDBRANCH   5   6
ENDBRANCH   4   5
ENDBRANCH   3   4
ENDBRANCH   2   3
ENDBRANCH   1   2
BRANCH   1  15
ATOM     15  C   UNL     1     -98.324 -47.494 -12.672  1.00  0.00     0.000 C 
BRANCH  15  16
ATOM     16  C   UNL     1     -98.182 -48.646 -11.663  1.00  0.00     0.000 C 
BRANCH  16  17
ATOM     17  C   UNL     1     -98.578 -48.245 -10.229  1.00  0.00     0.000 C 
BRANCH  17  18
ATOM     18  C   UNL     1     -99.875 -48.886  -9.702  1.00  0.00    -0.000 C 
BRANCH  18  19
ATOM     19  C   UNL     1    -100.789 -47.884  -8.974  1.00  0.00    -0.000 C 
BRANCH  19  20
ATOM     20  C   UNL     1    -100.626 -46.442  -9.502  1.00  0.00    -0.000 C 
BRANCH  20  21
ATOM     21  C   UNL     1    -101.954 -45.768  -9.895  1.00  0.00    -0.000 C 
BRANCH  21  22
ATOM     22  C   UNL     1    -102.764 -46.502 -10.980  1.00  0.00    -0.000 C 
BRANCH  22  23
ATOM     23  C   UNL     1    -102.623 -45.924 -12.400  1.00  0.00    -0.000 C 
BRANCH  23  24
ATOM     24  C   UNL     1    -102.090 -46.948 -13.412  1.00  0.00    -0.000 C 
BRANCH  24  25
ATOM     25  C   UNL     1    -101.713 -48.261 -12.718  1.00  0.00    -0.003 C 
ATOM     26  C   UNL     1    -101.633 -49.412 -13.718  1.00  0.00     0.004 C 
ENDBRANCH  24  25
ENDBRANCH  23  24
ENDBRANCH  22  23
ENDBRANCH  21  22
ENDBRANCH  20  21
ENDBRANCH  19  20
ENDBRANCH  18  19
ENDBRANCH  17  18
ENDBRANCH  16  17
ENDBRANCH  15  16
ENDBRANCH   1  15
TORSDOF 22
ENDMDL
MODEL 3
REMARK VINA RESULT:    -2.879      1.413      2.717
REMARK INTER + INTRA:         -11.156
REMARK INTER:                  -6.672
REMARK INTRA:                  -4.485
REMARK UNBOUND:                -4.573
REMARK SMILES CCCCCCCCCCCCCCCCCCCCCCCC(=O)[O-]
REMARK SMILES IDX 13 1 14 2 15 3 16 4 17 5 18 6 19 7 20 8 21 9 22 10 23 11
REMARK SMILES IDX 24 12 25 13 26 14 12 15 11 16 10 17 9 18 8 19 7 20 6 21 5 22
REMARK SMILES IDX 4 23 3 24 2 25 1 26
REMARK H PARENT
REMARK Flexibility Score: inf
ROOT
ATOM      1  C   UNL     1     -99.421 -44.705 -12.422  1.00  0.00     0.000 C 
ENDROOT
BRANCH   1   2
ATOM      2  C   UNL     1    -100.931 -44.721 -12.120  1.00  0.00     0.000 C 
BRANCH   2   3
ATOM      3  C   UNL     1    -101.328 -45.800 -11.097  1.00  0.00     0.000 C 
BRANCH   3   4
ATOM      4  C   UNL     1    -100.282 -45.961  -9.971  1.00  0.00     0.000 C 
BRANCH   4   5
ATOM      5  C   UNL     1     -99.890 -47.425  -9.704  1.00  0.00     0.000 C 
BRANCH   5   6
ATOM      6  C   UNL     1     -98.377 -47.663  -9.543  1.00  0.00     0.000 C 
BRANCH   6   7
ATOM      7  C   UNL     1     -97.735 -48.415 -10.730  1.00  0.00     0.000 C 
BRANCH   7   8
ATOM      8  C   UNL     1     -97.899 -47.669 -12.065  1.00  0.00     0.000 C 
BRANCH   8   9
ATOM      9  C   UNL     1     -98.457 -48.562 -13.188  1.00  0.00     0.000 C 
BRANCH   9  10
ATOM     10  C   UNL     1     -99.935 -48.309 -13.548  1.00  0.00     0.006 C 
BRANCH  10  11
ATOM     11  C   UNL     1    -100.936 -49.223 -12.825  1.00  0.00     0.053 C 
BRANCH  11  12
ATOM     12  C   UNL     1    -102.314 -49.116 -13.405  1.00  0.00     0.041 C 
ATOM     13  O   UNL     1    -102.698 -49.934 -14.282  1.00  0.00    -0.550 OA
ATOM     14  O   UNL     1    -103.162 -48.096 -12.995  1.00  0.00    -0.550 OA
ENDBRANCH  11  12
ENDBRANCH  10  11
ENDBRANCH   9  10
ENDBRANCH   8   9
ENDBRANCH   7   8
ENDBRANCH   6   7
ENDBRANCH   5   6
ENDBRANCH   4   5
ENDBRANCH   3   4
ENDBRANCH   2   3
ENDBRANCH   1   2
BRANCH   1  15
ATOM     15  C   UNL     1     -98.711 -43.366 -12.146  1.00  0.00     0.000 C 
BRANCH  15  16
ATOM     16  C   UNL     1     -97.193 -43.522 -11.941  1.00  0.00     0.000 C 
BRANCH  16  17
ATOM     17  C   UNL     1     -96.835 -44.538 -10.840  1.00  0.00     0.000 C 
BRANCH  17  18
ATOM     18  C   UNL     1     -97.015 -44.035  -9.396  1.00  0.00    -0.000 C 
BRANCH  18  19
ATOM     19  C   UNL     1     -96.245 -44.878  -8.364  1.00  0.00    -0.000 C 
BRANCH  19  20
ATOM     20  C   UNL     1     -95.036 -45.612  -8.984  1.00  0.00    -0.000 C 
BRANCH  20  21
ATOM     21  C   UNL     1     -94.868 -47.062  -8.490  1.00  0.00    -0.000 C 
BRANCH  21  22
ATOM     22  C   UNL     1     -93.687 -47.832  -9.111  1.00  0.00    -0.000 C 
BRANCH  22  23
ATOM     23  C   UNL     1     -94.065 -48.792 -10.253  1.00  0.00    -0.000 C 
BRANCH  23  24
ATOM     24  C   UNL     1     -93.473 -48.376 -11.606  1.00  0.00    -0.000 C 
BRANCH  24  25
ATOM     25  C   UNL     1     -94.456 -47.500 -12.390  1.00  0.00    -0.003 C 
ATOM     26  C   UNL     1     -93.898 -46.096 -12.604  1.00  0.00     0.004 C 
ENDBRANCH  24  25
ENDBRANCH  23  24
ENDBRANCH  22  23
ENDBRANCH  21  22
ENDBRANCH  20  21
ENDBRANCH  19  20
ENDBRANCH  18  19
ENDBRANCH  17  18
ENDBRANCH  16  17
ENDBRANCH  15  16
ENDBRANCH   1  15
TORSDOF 22
ENDMDL
MODEL 4
REMARK VINA RESULT:    -2.813      1.876      5.554
REMARK INTER + INTRA:         -11.004
REMARK INTER:                  -6.381
REMARK INTRA:                  -4.623
REMARK UNBOUND:                -4.573
REMARK SMILES CCCCCCCCCCCCCCCCCCCCCCCC(=O)[O-]
REMARK SMILES IDX 13 1 14 2 15 3 16 4 17 5 18 6 19 7 20 8 21 9 22 10 23 11
REMARK SMILES IDX 24 12 25 13 26 14 12 15 11 16 10 17 9 18 8 19 7 20 6 21 5 22
REMARK SMILES IDX 4 23 3 24 2 25 1 26
REMARK H PARENT
REMARK Flexibility Score: inf
ROOT
ATOM      1  C   UNL     1     -96.987 -45.045  -8.073  1.00  0.00     0.000 C 
ENDROOT
BRANCH   1   2
ATOM      2  C   UNL     1     -97.040 -46.526  -8.490  1.00  0.00     0.000 C 
BRANCH   2   3
ATOM      3  C   UNL     1     -95.647 -47.170  -8.600  1.00  0.00     0.000 C 
BRANCH   3   4
ATOM      4  C   UNL     1     -94.588 -46.195  -9.161  1.00  0.00     0.000 C 
BRANCH   4   5
ATOM      5  C   UNL     1     -94.051 -46.604 -10.544  1.00  0.00     0.000 C 
BRANCH   5   6
ATOM      6  C   UNL     1     -93.561 -48.062 -10.635  1.00  0.00     0.000 C 
BRANCH   6   7
ATOM      7  C   UNL     1     -94.008 -48.790 -11.922  1.00  0.00     0.000 C 
BRANCH   7   8
ATOM      8  C   UNL     1     -95.177 -48.084 -12.629  1.00  0.00     0.000 C 
BRANCH   8   9
ATOM      9  C   UNL     1     -96.468 -48.923 -12.640  1.00  0.00     0.000 C 
BRANCH   9  10
ATOM     10  C   UNL     1     -96.860 -49.533 -11.280  1.00  0.00     0.006 C 
BRANCH  10  11
ATOM     11  C   UNL     1     -98.004 -50.557 -11.343  1.00  0.00     0.053 C 
BRANCH  11  12
ATOM     12  C   UNL     1     -97.496 -51.967 -11.327  1.00  0.00     0.041 C 
ATOM     13  O   UNL     1     -96.478 -52.266 -10.649  1.00  0.00    -0.550 OA
ATOM     14  O   UNL     1     -98.132 -52.942 -12.083  1.00  0.00    -0.550 OA
ENDBRANCH  11  12
ENDBRANCH  10  11
ENDBRANCH   9  10
ENDBRANCH   8   9
ENDBRANCH   7   8
ENDBRANCH   6   7
ENDBRANCH   5   6
ENDBRANCH   4   5
ENDBRANCH   3   4
ENDBRANCH   2   3
ENDBRANCH   1   2
BRANCH   1  15
ATOM     15  C   UNL     1     -98.326 -44.288  -8.170  1.00  0.00     0.000 C 
BRANCH  15  16
ATOM     16  C   UNL     1     -98.227 -42.998  -9.004  1.00  0.00     0.000 C 
BRANCH  16  17
ATOM     17  C   UNL     1     -96.980 -42.957  -9.907  1.00  0.00     0.000 C 
BRANCH  17  18
ATOM     18  C   UNL     1     -97.238 -43.246 -11.397  1.00  0.00    -0.000 C 
BRANCH  18  19
ATOM     19  C   UNL     1     -96.754 -44.640 -11.833  1.00  0.00    -0.000 C 
BRANCH  19  20
ATOM     20  C   UNL     1     -97.917 -45.639 -12.019  1.00  0.00    -0.000 C 
BRANCH  20  21
ATOM     21  C   UNL     1     -99.255 -44.974 -12.393  1.00  0.00    -0.000 C 
BRANCH  21  22
ATOM     22  C   UNL     1    -100.462 -45.407 -11.540  1.00  0.00    -0.000 C 
BRANCH  22  23
ATOM     23  C   UNL     1    -100.181 -46.551 -10.550  1.00  0.00    -0.000 C 
BRANCH  23  24
ATOM     24  C   UNL     1    -100.498 -47.936 -11.131  1.00  0.00    -0.000 C 
BRANCH  24  25
ATOM     25  C   UNL     1    -101.101 -47.818 -12.535  1.00  0.00    -0.003 C 
ATOM     26  C   UNL     1    -100.199 -48.465 -13.581  1.00  0.00     0.004 C 
ENDBRANCH  24  25
ENDBRANCH  23  24
ENDBRANCH  22  23
ENDBRANCH  21  22
ENDBRANCH  20  21
ENDBRANCH  19  20
ENDBRANCH  18  19
ENDBRANCH  17  18
ENDBRANCH  16  17
ENDBRANCH  15  16
ENDBRANCH   1  15
TORSDOF 22
ENDMDL
MODEL 5
REMARK VINA RESULT:    -2.807      1.710      4.222
REMARK INTER + INTRA:         -10.991
REMARK INTER:                  -6.442
REMARK INTRA:                  -4.548
REMARK UNBOUND:                -4.573
REMARK SMILES CCCCCCCCCCCCCCCCCCCCCCCC(=O)[O-]
REMARK SMILES IDX 13 1 14 2 15 3 16 4 17 5 18 6 19 7 20 8 21 9 22 10 23 11
REMARK SMILES IDX 24 12 25 13 26 14 12 15 11 16 10 17 9 18 8 19 7 20 6 21 5 22
REMARK SMILES IDX 4 23 3 24 2 25 1 26
REMARK H PARENT
REMARK Flexibility Score: inf
ROOT
ATOM      1  C   UNL     1     -97.232 -48.124 -12.359  1.00  0.00     0.000 C 
ENDROOT
BRANCH   1   2
ATOM      2  C   UNL     1     -98.030 -46.829 -12.119  1.00  0.00     0.000 C 
BRANCH   2   3
ATOM      3  C   UNL     1     -98.734 -46.800 -10.752  1.00  0.00     0.000 C 
BRANCH   3   4
ATOM      4  C   UNL     1     -98.858 -48.205 -10.121  1.00  0.00     0.000 C 
BRANCH   4   5
ATOM      5  C   UNL     1    -100.315 -48.651  -9.901  1.00  0.00     0.000 C 
BRANCH   5   6
ATOM      6  C   UNL     1    -100.707 -49.945 -10.639  1.00  0.00     0.000 C 
BRANCH   6   7
ATOM      7  C   UNL     1    -101.542 -49.704 -11.917  1.00  0.00     0.000 C 
BRANCH   7   8
ATOM      8  C   UNL     1    -100.688 -49.715 -13.196  1.00  0.00     0.000 C 
BRANCH   8   9
ATOM      9  C   UNL     1    -100.600 -48.336 -13.872  1.00  0.00     0.000 C 
BRANCH   9  10
ATOM     10  C   UNL     1    -101.621 -47.296 -13.367  1.00  0.00     0.006 C 
BRANCH  10  11
ATOM     11  C   UNL     1    -102.608 -46.796 -14.433  1.00  0.00     0.053 C 
BRANCH  11  12
ATOM     12  C   UNL     1    -103.877 -47.593 -14.441  1.00  0.00     0.041 C 
ATOM     13  O   UNL     1    -103.857 -48.815 -14.743  1.00  0.00    -0.550 OA
ATOM     14  O   UNL     1    -105.085 -46.977 -14.140  1.00  0.00    -0.550 OA
ENDBRANCH  11  12
ENDBRANCH  10  11
ENDBRANCH   9  10
ENDBRANCH   8   9
ENDBRANCH   7   8
ENDBRANCH   6   7
ENDBRANCH   5   6
ENDBRANCH   4   5
ENDBRANCH   3   4
ENDBRANCH   2   3
ENDBRANCH   1   2
BRANCH   1  15
ATOM     15  C   UNL     1     -95.734 -48.045 -12.010  1.00  0.00     0.000 C 
BRANCH  15  16
ATOM     16  C   UNL     1     -95.204 -46.602 -11.952  1.00  0.00     0.000 C 
BRANCH  16  17
ATOM     17  C   UNL     1     -94.567 -46.247 -10.596  1.00  0.00     0.000 C 
BRANCH  17  18
ATOM     18  C   UNL     1     -94.994 -47.140  -9.415  1.00  0.00    -0.000 C 
BRANCH  18  19
ATOM     19  C   UNL     1     -95.864 -46.399  -8.384  1.00  0.00    -0.000 C 
BRANCH  19  20
ATOM     20  C   UNL     1     -95.911 -44.876  -8.634  1.00  0.00    -0.000 C 
BRANCH  20  21
ATOM     21  C   UNL     1     -97.312 -44.259  -8.460  1.00  0.00    -0.000 C 
BRANCH  21  22
ATOM     22  C   UNL     1     -97.724 -43.252  -9.549  1.00  0.00    -0.000 C 
BRANCH  22  23
ATOM     23  C   UNL     1     -97.065 -43.474 -10.923  1.00  0.00    -0.000 C 
BRANCH  23  24
ATOM     24  C   UNL     1     -98.044 -43.295 -12.092  1.00  0.00    -0.000 C 
BRANCH  24  25
ATOM     25  C   UNL     1     -99.477 -43.100 -11.584  1.00  0.00    -0.003 C 
ATOM     26  C   UNL     1    -100.467 -43.939 -12.386  1.00  0.00     0.004 C 
ENDBRANCH  24  25
ENDBRANCH  23  24
ENDBRANCH  22  23
ENDBRANCH  21  22
ENDBRANCH  20  21
ENDBRANCH  19  20
ENDBRANCH  18  19
ENDBRANCH  17  18
ENDBRANCH  16  17
ENDBRANCH  15  16
ENDBRANCH   1  15
TORSDOF 22
ENDMDL
MODEL 6
REMARK VINA RESULT:    -2.802      1.771      6.120
REMARK INTER + INTRA:         -10.980
REMARK INTER:                  -6.440
REMARK INTRA:                  -4.540
REMARK UNBOUND:                -4.573
REMARK SMILES CCCCCCCCCCCCCCCCCCCCCCCC(=O)[O-]
REMARK SMILES IDX 13 1 14 2 15 3 16 4 17 5 18 6 19 7 20 8 21 9 22 10 23 11
REMARK SMILES IDX 24 12 25 13 26 14 12 15 11 16 10 17 9 18 8 19 7 20 6 21 5 22
REMARK SMILES IDX 4 23 3 24 2 25 1 26
REMARK H PARENT
REMARK Flexibility Score: inf
ROOT
ATOM      1  C   UNL     1     -99.369 -44.585 -12.358  1.00  0.00     0.000 C 
ENDROOT
BRANCH   1   2
ATOM      2  C   UNL     1     -98.578 -43.310 -12.014  1.00  0.00     0.000 C 
BRANCH   2   3
ATOM      3  C   UNL     1     -97.197 -43.604 -11.404  1.00  0.00     0.000 C 
BRANCH   3   4
ATOM      4  C   UNL     1     -97.046 -43.027  -9.978  1.00  0.00     0.000 C 
BRANCH   4   5
ATOM      5  C   UNL     1     -96.662 -44.085  -8.928  1.00  0.00     0.000 C 
BRANCH   5   6
ATOM      6  C   UNL     1     -96.279 -45.457  -9.512  1.00  0.00     0.000 C 
BRANCH   6   7
ATOM      7  C   UNL     1     -94.829 -45.886  -9.193  1.00  0.00     0.000 C 
BRANCH   7   8
ATOM      8  C   UNL     1     -94.105 -46.487 -10.410  1.00  0.00     0.000 C 
BRANCH   8   9
ATOM      9  C   UNL     1     -95.011 -46.605 -11.649  1.00  0.00     0.000 C 
BRANCH   9  10
ATOM     10  C   UNL     1     -94.934 -47.957 -12.386  1.00  0.00     0.006 C 
BRANCH  10  11
ATOM     11  C   UNL     1     -96.195 -48.826 -12.263  1.00  0.00     0.053 C 
BRANCH  11  12
ATOM     12  C   UNL     1     -96.162 -49.692 -11.040  1.00  0.00     0.041 C 
ATOM     13  O   UNL     1     -97.229 -50.168 -10.571  1.00  0.00    -0.550 OA
ATOM     14  O   UNL     1     -94.954 -49.951 -10.405  1.00  0.00    -0.550 OA
ENDBRANCH  11  12
ENDBRANCH  10  11
ENDBRANCH   9  10
ENDBRANCH   8   9
ENDBRANCH   7   8
ENDBRANCH   6   7
ENDBRANCH   5   6
ENDBRANCH   4   5
ENDBRANCH   3   4
ENDBRANCH   2   3
ENDBRANCH   1   2
BRANCH   1  15
ATOM     15  C   UNL     1     -98.575 -45.901 -12.242  1.00  0.00     0.000 C 
BRANCH  15  16
ATOM     16  C   UNL     1     -99.144 -46.854 -11.177  1.00  0.00     0.000 C 
BRANCH  16  17
ATOM     17  C   UNL     1     -99.959 -46.128 -10.091  1.00  0.00     0.000 C 
BRANCH  17  18
ATOM     18  C   UNL     1    -101.407 -46.622  -9.914  1.00  0.00    -0.000 C 
BRANCH  18  19
ATOM     19  C   UNL     1    -102.334 -46.196 -11.066  1.00  0.00    -0.000 C 
BRANCH  19  20
ATOM     20  C   UNL     1    -103.302 -47.321 -11.494  1.00  0.00    -0.000 C 
BRANCH  20  21
ATOM     21  C   UNL     1    -103.108 -47.789 -12.949  1.00  0.00    -0.000 C 
BRANCH  21  22
ATOM     22  C   UNL     1    -101.833 -47.271 -13.638  1.00  0.00    -0.000 C 
BRANCH  22  23
ATOM     23  C   UNL     1    -100.770 -48.346 -13.932  1.00  0.00    -0.000 C 
BRANCH  23  24
ATOM     24  C   UNL     1    -101.207 -49.753 -13.502  1.00  0.00    -0.000 C 
BRANCH  24  25
ATOM     25  C   UNL     1    -100.267 -50.317 -12.431  1.00  0.00    -0.003 C 
ATOM     26  C   UNL     1    -100.851 -50.136 -11.033  1.00  0.00     0.004 C 
ENDBRANCH  24  25
ENDBRANCH  23  24
ENDBRANCH  22  23
ENDBRANCH  21  22
ENDBRANCH  20  21
ENDBRANCH  19  20
ENDBRANCH  18  19
ENDBRANCH  17  18
ENDBRANCH  16  17
ENDBRANCH  15  16
ENDBRANCH   1  15
TORSDOF 22
ENDMDL
MODEL 7
REMARK VINA RESULT:    -2.792      1.755      3.661
REMARK INTER + INTRA:         -10.956
REMARK INTER:                  -6.298
REMARK INTRA:                  -4.658
REMARK UNBOUND:                -4.573
REMARK SMILES CCCCCCCCCCCCCCCCCCCCCCCC(=O)[O-]
REMARK SMILES IDX 13 1 14 2 15 3 16 4 17 5 18 6 19 7 20 8 21 9 22 10 23 11
REMARK SMILES IDX 24 12 25 13 26 14 12 15 11 16 10 17 9 18 8 19 7 20 6 21 5 22
REMARK SMILES IDX 4 23 3 24 2 25 1 26
REMARK H PARENT
REMARK Flexibility Score: inf
ROOT
ATOM      1  C   UNL     1    -100.003 -45.469 -11.218  1.00  0.00     0.000 C 
ENDROOT
BRANCH   1   2
ATOM      2  C   UNL     1     -99.167 -46.755 -11.086  1.00  0.00     0.000 C 
BRANCH   2   3
ATOM      3  C   UNL     1     -98.146 -46.929 -12.223  1.00  0.00     0.000 C 
BRANCH   3   4
ATOM      4  C   UNL     1     -98.080 -48.384 -12.741  1.00  0.00     0.000 C 
BRANCH   4   5
ATOM      5  C   UNL     1     -96.785 -49.116 -12.346  1.00  0.00     0.000 C 
BRANCH   5   6
ATOM      6  C   UNL     1     -97.000 -50.379 -11.491  1.00  0.00     0.000 C 
BRANCH   6   7
ATOM      7  C   UNL     1     -97.849 -50.135 -10.223  1.00  0.00     0.000 C 
BRANCH   7   8
ATOM      8  C   UNL     1     -99.183 -50.901 -10.246  1.00  0.00     0.000 C 
BRANCH   8   9
ATOM      9  C   UNL     1    -100.409 -49.974 -10.152  1.00  0.00     0.000 C 
BRANCH   9  10
ATOM     10  C   UNL     1    -101.450 -50.156 -11.274  1.00  0.00     0.006 C 
BRANCH  10  11
ATOM     11  C   UNL     1    -102.045 -48.847 -11.814  1.00  0.00     0.053 C 
BRANCH  11  12
ATOM     12  C   UNL     1    -101.659 -48.601 -13.241  1.00  0.00     0.041 C 
ATOM     13  O   UNL     1    -101.180 -49.534 -13.938  1.00  0.00    -0.550 OA
ATOM     14  O   UNL     1    -101.802 -47.334 -13.790  1.00  0.00    -0.550 OA
ENDBRANCH  11  12
ENDBRANCH  10  11
ENDBRANCH   9  10
ENDBRANCH   8   9
ENDBRANCH   7   8
ENDBRANCH   6   7
ENDBRANCH   5   6
ENDBRANCH   4   5
ENDBRANCH   3   4
ENDBRANCH   2   3
ENDBRANCH   1   2
BRANCH   1  15
ATOM     15  C   UNL     1     -99.599 -44.540 -12.378  1.00  0.00     0.000 C 
BRANCH  15  16
ATOM     16  C   UNL     1     -98.898 -43.255 -11.903  1.00  0.00     0.000 C 
BRANCH  16  17
ATOM     17  C   UNL     1     -97.397 -43.456 -11.622  1.00  0.00     0.000 C 
BRANCH  17  18
ATOM     18  C   UNL     1     -96.930 -43.038 -10.215  1.00  0.00    -0.000 C 
BRANCH  18  19
ATOM     19  C   UNL     1     -97.940 -43.404  -9.112  1.00  0.00    -0.000 C 
BRANCH  19  20
ATOM     20  C   UNL     1     -97.546 -44.687  -8.350  1.00  0.00    -0.000 C 
BRANCH  20  21
ATOM     21  C   UNL     1     -96.126 -45.191  -8.672  1.00  0.00    -0.000 C 
BRANCH  21  22
ATOM     22  C   UNL     1     -96.030 -46.681  -9.052  1.00  0.00    -0.000 C 
BRANCH  22  23
ATOM     23  C   UNL     1     -94.913 -47.027 -10.053  1.00  0.00    -0.000 C 
BRANCH  23  24
ATOM     24  C   UNL     1     -94.873 -46.075 -11.257  1.00  0.00    -0.000 C 
BRANCH  24  25
ATOM     25  C   UNL     1     -93.978 -46.634 -12.369  1.00  0.00    -0.003 C 
ATOM     26  C   UNL     1     -93.291 -47.923 -11.930  1.00  0.00     0.004 C 
ENDBRANCH  24  25
ENDBRANCH  23  24
ENDBRANCH  22  23
ENDBRANCH  21  22
ENDBRANCH  20  21
ENDBRANCH  19  20
ENDBRANCH  18  19
ENDBRANCH  17  18
ENDBRANCH  16  17
ENDBRANCH  15  16
ENDBRANCH   1  15
TORSDOF 22
ENDMDL
MODEL 8
REMARK VINA RESULT:    -2.782      1.154      5.910
REMARK INTER + INTRA:         -10.935
REMARK INTER:                  -6.687
REMARK INTRA:                  -4.248
REMARK UNBOUND:                -4.573
REMARK SMILES CCCCCCCCCCCCCCCCCCCCCCCC(=O)[O-]
REMARK SMILES IDX 13 1 14 2 15 3 16 4 17 5 18 6 19 7 20 8 21 9 22 10 23 11
REMARK SMILES IDX 24 12 25 13 26 14 12 15 11 16 10 17 9 18 8 19 7 20 6 21 5 22
REMARK SMILES IDX 4 23 3 24 2 25 1 26
REMARK H PARENT
REMARK Flexibility Score: inf
ROOT
ATOM      1  C   UNL     1     -96.049 -44.177  -8.995  1.00  0.00     0.000 C 
ENDROOT
BRANCH   1   2
ATOM      2  C   UNL     1     -96.188 -45.588  -8.394  1.00  0.00     0.000 C 
BRANCH   2   3
ATOM      3  C   UNL     1     -95.708 -46.697  -9.346  1.00  0.00     0.000 C 
BRANCH   3   4
ATOM      4  C   UNL     1     -94.381 -46.336 -10.052  1.00  0.00     0.000 C 
BRANCH   4   5
ATOM      5  C   UNL     1     -94.491 -46.311 -11.587  1.00  0.00     0.000 C 
BRANCH   5   6
ATOM      6  C   UNL     1     -93.649 -47.381 -12.307  1.00  0.00     0.000 C 
BRANCH   6   7
ATOM      7  C   UNL     1     -94.171 -48.822 -12.107  1.00  0.00     0.000 C 
BRANCH   7   8
ATOM      8  C   UNL     1     -95.533 -49.059 -12.779  1.00  0.00     0.000 C 
BRANCH   8   9
ATOM      9  C   UNL     1     -96.650 -49.389 -11.772  1.00  0.00     0.000 C 
BRANCH   9  10
ATOM     10  C   UNL     1     -97.844 -48.414 -11.781  1.00  0.00     0.006 C 
BRANCH  10  11
ATOM     11  C   UNL     1     -98.628 -48.373 -13.101  1.00  0.00     0.053 C 
BRANCH  11  12
ATOM     12  C   UNL     1     -99.908 -49.148 -13.018  1.00  0.00     0.041 C 
ATOM     13  O   UNL     1    -100.027 -50.091 -12.193  1.00  0.00    -0.550 OA
ATOM     14  O   UNL     1    -100.960 -48.845 -13.873  1.00  0.00    -0.550 OA
ENDBRANCH  11  12
ENDBRANCH  10  11
ENDBRANCH   9  10
ENDBRANCH   8   9
ENDBRANCH   7   8
ENDBRANCH   6   7
ENDBRANCH   5   6
ENDBRANCH   4   5
ENDBRANCH   3   4
ENDBRANCH   2   3
ENDBRANCH   1   2
BRANCH   1  15
ATOM     15  C   UNL     1     -97.364 -43.539  -9.482  1.00  0.00     0.000 C 
BRANCH  15  16
ATOM     16  C   UNL     1     -97.364 -43.238 -10.991  1.00  0.00     0.000 C 
BRANCH  16  17
ATOM     17  C   UNL     1     -97.425 -44.509 -11.859  1.00  0.00     0.000 C 
BRANCH  17  18
ATOM     18  C   UNL     1     -98.828 -44.895 -12.363  1.00  0.00    -0.000 C 
BRANCH  18  19
ATOM     19  C   UNL     1     -99.806 -43.707 -12.389  1.00  0.00    -0.000 C 
BRANCH  19  20
ATOM     20  C   UNL     1    -101.281 -44.156 -12.467  1.00  0.00    -0.000 C 
BRANCH  20  21
ATOM     21  C   UNL     1    -101.462 -45.679 -12.613  1.00  0.00    -0.000 C 
BRANCH  21  22
ATOM     22  C   UNL     1    -102.225 -46.360 -11.462  1.00  0.00    -0.000 C 
BRANCH  22  23
ATOM     23  C   UNL     1    -101.338 -47.085 -10.433  1.00  0.00    -0.000 C 
BRANCH  23  24
ATOM     24  C   UNL     1    -100.631 -46.122  -9.469  1.00  0.00    -0.000 C 
BRANCH  24  25
ATOM     25  C   UNL     1    -101.622 -45.118  -8.869  1.00  0.00    -0.003 C 
ATOM     26  C   UNL     1    -100.950 -43.778  -8.588  1.00  0.00     0.004 C 
ENDBRANCH  24  25
ENDBRANCH  23  24
ENDBRANCH  22  23
ENDBRANCH  21  22
ENDBRANCH  20  21
ENDBRANCH  19  20
ENDBRANCH  18  19
ENDBRANCH  17  18
ENDBRANCH  16  17
ENDBRANCH  15  16
ENDBRANCH   1  15
TORSDOF 22
ENDMDL
MODEL 9
REMARK VINA RESULT:    -2.747      1.742      3.949
REMARK INTER + INTRA:         -10.853
REMARK INTER:                  -5.918
REMARK INTRA:                  -4.935
REMARK UNBOUND:                -4.573
REMARK SMILES CCCCCCCCCCCCCCCCCCCCCCCC(=O)[O-]
REMARK SMILES IDX 13 1 14 2 15 3 16 4 17 5 18 6 19 7 20 8 21 9 22 10 23 11
REMARK SMILES IDX 24 12 25 13 26 14 12 15 11 16 10 17 9 18 8 19 7 20 6 21 5 22
REMARK SMILES IDX 4 23 3 24 2 25 1 26
REMARK H PARENT
REMARK Flexibility Score: inf
ROOT
ATOM      1  C   UNL     1     -98.110 -44.979 -12.012  1.00  0.00     0.000 C 
ENDROOT
BRANCH   1   2
ATOM      2  C   UNL     1     -97.597 -43.572 -11.657  1.00  0.00     0.000 C 
BRANCH   2   3
ATOM      3  C   UNL     1     -98.147 -43.052 -10.318  1.00  0.00     0.000 C 
BRANCH   3   4
ATOM      4  C   UNL     1     -97.361 -43.598  -9.104  1.00  0.00     0.000 C 
BRANCH   4   5
ATOM      5  C   UNL     1     -98.213 -44.469  -8.164  1.00  0.00     0.000 C 
BRANCH   5   6
ATOM      6  C   UNL     1     -99.733 -44.265  -8.306  1.00  0.00     0.000 C 
BRANCH   6   7
ATOM      7  C   UNL     1    -100.485 -45.517  -8.811  1.00  0.00     0.000 C 
BRANCH   7   8
ATOM      8  C   UNL     1     -99.541 -46.689  -9.127  1.00  0.00     0.000 C 
BRANCH   8   9
ATOM      9  C   UNL     1    -100.026 -47.549 -10.309  1.00  0.00     0.000 C 
BRANCH   9  10
ATOM     10  C   UNL     1     -99.294 -48.895 -10.478  1.00  0.00     0.006 C 
BRANCH  10  11
ATOM     11  C   UNL     1     -98.847 -49.205 -11.915  1.00  0.00     0.053 C 
BRANCH  11  12
ATOM     12  C   UNL     1    -100.005 -49.255 -12.865  1.00  0.00     0.041 C 
ATOM     13  O   UNL     1    -100.033 -48.498 -13.871  1.00  0.00    -0.550 OA
ATOM     14  O   UNL     1    -101.065 -50.118 -12.622  1.00  0.00    -0.550 OA
ENDBRANCH  11  12
ENDBRANCH  10  11
ENDBRANCH   9  10
ENDBRANCH   8   9
ENDBRANCH   7   8
ENDBRANCH   6   7
ENDBRANCH   5   6
ENDBRANCH   4   5
ENDBRANCH   3   4
ENDBRANCH   2   3
ENDBRANCH   1   2
BRANCH   1  15
ATOM     15  C   UNL     1     -97.040 -46.088 -12.011  1.00  0.00     0.000 C 
BRANCH  15  16
ATOM     16  C   UNL     1     -95.618 -45.551 -11.764  1.00  0.00     0.000 C 
BRANCH  16  17
ATOM     17  C   UNL     1     -94.525 -46.420 -12.414  1.00  0.00     0.000 C 
BRANCH  17  18
ATOM     18  C   UNL     1     -94.787 -47.937 -12.385  1.00  0.00    -0.000 C 
BRANCH  18  19
ATOM     19  C   UNL     1     -93.547 -48.755 -11.984  1.00  0.00    -0.000 C 
BRANCH  19  20
ATOM     20  C   UNL     1     -93.886 -49.910 -11.017  1.00  0.00    -0.000 C 
BRANCH  20  21
ATOM     21  C   UNL     1     -95.395 -50.199 -10.896  1.00  0.00    -0.000 C 
BRANCH  21  22
ATOM     22  C   UNL     1     -95.985 -50.017  -9.486  1.00  0.00    -0.000 C 
BRANCH  22  23
ATOM     23  C   UNL     1     -95.298 -48.940  -8.627  1.00  0.00    -0.000 C 
BRANCH  23  24
ATOM     24  C   UNL     1     -96.011 -47.582  -8.686  1.00  0.00    -0.000 C 
BRANCH  24  25
ATOM     25  C   UNL     1     -95.069 -46.448  -8.269  1.00  0.00    -0.003 C 
ATOM     26  C   UNL     1     -93.634 -46.733  -8.703  1.00  0.00     0.004 C 
ENDBRANCH  24  25
ENDBRANCH  23  24
ENDBRANCH  22  23
ENDBRANCH  21  22
ENDBRANCH  20  21
ENDBRANCH  19  20
ENDBRANCH  18  19
ENDBRANCH  17  18
ENDBRANCH  16  17
ENDBRANCH  15  16
ENDBRANCH   1  15
TORSDOF 22
ENDMDL
