MODEL 1
REMARK VINA RESULT:    -4.560      0.000      0.000
REMARK INTER + INTRA:          -5.741
REMARK INTER:                  -5.493
REMARK INTRA:                  -0.248
REMARK UNBOUND:                -0.248
REMARK SMILES NC(=O)C[C@@H]([NH3+])C(=O)[O-]
REMARK SMILES IDX 4 1 5 2 6 3 7 7 8 8 9 9 2 10 3 11 1 12
REMARK H PARENT 6 4 6 5 6 6 1 13 1 14
REMARK Flexibility Score: inf
ROOT
ATOM      1  C   UNL     1      15.616  -3.887  17.399  1.00  0.00     0.171 C 
ENDROOT
BRANCH   1   2
ATOM      2  C   UNL     1      17.110  -3.949  17.776  1.00  0.00     0.237 C 
BRANCH   2   3
ATOM      3  N   UNL     1      17.779  -5.031  17.043  1.00  0.00    -0.350 N 
ATOM      4  H   UNL     1      17.085  -5.773  16.795  1.00  0.00     0.345 HD
ATOM      5  H   UNL     1      18.518  -5.463  17.645  1.00  0.00     0.345 HD
ATOM      6  H   UNL     1      18.219  -4.667  16.166  1.00  0.00     0.345 HD
ENDBRANCH   2   3
BRANCH   2   7
ATOM      7  C   UNL     1      17.793  -2.634  17.504  1.00  0.00     0.100 C 
ATOM      8  O   UNL     1      18.651  -2.536  16.587  1.00  0.00    -0.544 OA
ATOM      9  O   UNL     1      17.467  -1.514  18.260  1.00  0.00    -0.544 OA
ENDBRANCH   2   7
ENDBRANCH   1   2
BRANCH   1  10
ATOM     10  C   UNL     1      14.958  -5.231  17.523  1.00  0.00     0.223 C 
ATOM     11  O   UNL     1      15.146  -6.106  16.635  1.00  0.00    -0.275 OA
ATOM     12  N   UNL     1      14.093  -5.514  18.622  1.00  0.00    -0.369 N 
ATOM     13  H   UNL     1      13.915  -4.793  19.357  1.00  0.00     0.159 HD
ATOM     14  H   UNL     1      13.625  -6.444  18.701  1.00  0.00     0.159 HD
ENDBRANCH   1  10
TORSDOF 4
ENDMDL
MODEL 2
REMARK VINA RESULT:    -4.468      6.334      7.905
REMARK INTER + INTRA:          -5.630
REMARK INTER:                  -5.298
REMARK INTRA:                  -0.332
REMARK UNBOUND:                -0.248
REMARK SMILES NC(=O)C[C@@H]([NH3+])C(=O)[O-]
REMARK SMILES IDX 4 1 5 2 6 3 7 7 8 8 9 9 2 10 3 11 1 12
REMARK H PARENT 6 4 6 5 6 6 1 13 1 14
REMARK Flexibility Score: inf
ROOT
ATOM      1  C   UNL     1      19.009  -8.866  13.165  1.00  0.00     0.171 C 
ENDROOT
BRANCH   1   2
ATOM      2  C   UNL     1      18.611 -10.356  13.174  1.00  0.00     0.237 C 
BRANCH   2   3
ATOM      3  N   UNL     1      18.381 -10.816  14.549  1.00  0.00    -0.350 N 
ATOM      4  H   UNL     1      19.286 -10.835  15.073  1.00  0.00     0.345 HD
ATOM      5  H   UNL     1      17.991 -11.788  14.537  1.00  0.00     0.345 HD
ATOM      6  H   UNL     1      17.711 -10.183  15.044  1.00  0.00     0.345 HD
ENDBRANCH   2   3
BRANCH   2   7
ATOM      7  C   UNL     1      17.385 -10.595  12.332  1.00  0.00     0.100 C 
ATOM      8  O   UNL     1      16.235 -10.515  12.839  1.00  0.00    -0.544 OA
ATOM      9  O   UNL     1      17.519 -10.893  10.981  1.00  0.00    -0.544 OA
ENDBRANCH   2   7
ENDBRANCH   1   2
BRANCH   1  10
ATOM     10  C   UNL     1      18.580  -8.171  14.425  1.00  0.00     0.223 C 
ATOM     11  O   UNL     1      17.357  -7.956  14.638  1.00  0.00    -0.275 OA
ATOM     12  N   UNL     1      19.552  -7.722  15.369  1.00  0.00    -0.369 N 
ATOM     13  H   UNL     1      20.571  -7.879  15.199  1.00  0.00     0.159 HD
ATOM     14  H   UNL     1      19.254  -7.227  16.239  1.00  0.00     0.159 HD
ENDBRANCH   1  10
TORSDOF 4
ENDMDL
MODEL 3
REMARK VINA RESULT:    -4.444      6.859      7.968
REMARK INTER + INTRA:          -5.600
REMARK INTER:                  -5.265
REMARK INTRA:                  -0.336
REMARK UNBOUND:                -0.248
REMARK SMILES NC(=O)C[C@@H]([NH3+])C(=O)[O-]
REMARK SMILES IDX 4 1 5 2 6 3 7 7 8 8 9 9 2 10 3 11 1 12
REMARK H PARENT 6 4 6 5 6 6 1 13 1 14
REMARK Flexibility Score: inf
ROOT
ATOM      1  C   UNL     1      18.089  -9.860  14.474  1.00  0.00     0.171 C 
ENDROOT
BRANCH   1   2
ATOM      2  C   UNL     1      18.432 -10.226  13.015  1.00  0.00     0.237 C 
BRANCH   2   3
ATOM      3  N   UNL     1      18.654  -9.012  12.221  1.00  0.00    -0.350 N 
ATOM      4  H   UNL     1      17.813  -8.393  12.277  1.00  0.00     0.345 HD
ATOM      5  H   UNL     1      18.804  -9.268  11.216  1.00  0.00     0.345 HD
ATOM      6  H   UNL     1      19.489  -8.489  12.571  1.00  0.00     0.345 HD
ENDBRANCH   2   3
BRANCH   2   7
ATOM      7  C   UNL     1      19.642 -11.121  12.951  1.00  0.00     0.100 C 
ATOM      8  O   UNL     1      19.511 -12.375  12.944  1.00  0.00    -0.544 OA
ATOM      9  O   UNL     1      20.914 -10.565  12.886  1.00  0.00    -0.544 OA
ENDBRANCH   2   7
ENDBRANCH   1   2
BRANCH   1  10
ATOM     10  C   UNL     1      18.529  -8.465  14.811  1.00  0.00     0.223 C 
ATOM     11  O   UNL     1      19.757  -8.204  14.918  1.00  0.00    -0.275 OA
ATOM     12  N   UNL     1      17.565  -7.439  15.045  1.00  0.00    -0.369 N 
ATOM     13  H   UNL     1      16.543  -7.645  14.976  1.00  0.00     0.159 HD
ATOM     14  H   UNL     1      17.872  -6.473  15.294  1.00  0.00     0.159 HD
ENDBRANCH   1  10
TORSDOF 4
ENDMDL
MODEL 4
REMARK VINA RESULT:    -4.426      3.845      5.346
REMARK INTER + INTRA:          -5.579
REMARK INTER:                  -5.338
REMARK INTRA:                  -0.241
REMARK UNBOUND:                -0.248
REMARK SMILES NC(=O)C[C@@H]([NH3+])C(=O)[O-]
REMARK SMILES IDX 4 1 5 2 6 3 7 7 8 8 9 9 2 10 3 11 1 12
REMARK H PARENT 6 4 6 5 6 6 1 13 1 14
REMARK Flexibility Score: inf
ROOT
ATOM      1  C   UNL     1      21.266  -4.646  18.498  1.00  0.00     0.171 C 
ENDROOT
BRANCH   1   2
ATOM      2  C   UNL     1      19.766  -4.322  18.340  1.00  0.00     0.237 C 
BRANCH   2   3
ATOM      3  N   UNL     1      19.118  -5.308  17.466  1.00  0.00    -0.350 N 
ATOM      4  H   UNL     1      18.569  -4.816  16.724  1.00  0.00     0.345 HD
ATOM      5  H   UNL     1      18.457  -5.897  18.025  1.00  0.00     0.345 HD
ATOM      6  H   UNL     1      19.830  -5.926  17.013  1.00  0.00     0.345 HD
ENDBRANCH   2   3
BRANCH   2   7
ATOM      7  C   UNL     1      19.077  -4.279  19.679  1.00  0.00     0.100 C 
ATOM      8  O   UNL     1      18.505  -5.304  20.138  1.00  0.00    -0.544 OA
ATOM      9  O   UNL     1      19.082  -3.106  20.424  1.00  0.00    -0.544 OA
ENDBRANCH   2   7
ENDBRANCH   1   2
BRANCH   1  10
ATOM     10  C   UNL     1      21.927  -4.869  17.168  1.00  0.00     0.223 C 
ATOM     11  O   UNL     1      21.735  -5.948  16.545  1.00  0.00    -0.275 OA
ATOM     12  N   UNL     1      22.797  -3.881  16.619  1.00  0.00    -0.369 N 
ATOM     13  H   UNL     1      22.979  -2.989  17.131  1.00  0.00     0.159 HD
ATOM     14  H   UNL     1      23.267  -4.043  15.700  1.00  0.00     0.159 HD
ENDBRANCH   1  10
TORSDOF 4
ENDMDL
MODEL 5
REMARK VINA RESULT:    -4.337      1.557      1.908
REMARK INTER + INTRA:          -5.472
REMARK INTER:                  -5.392
REMARK INTRA:                  -0.080
REMARK UNBOUND:                -0.248
REMARK SMILES NC(=O)C[C@@H]([NH3+])C(=O)[O-]
REMARK SMILES IDX 4 1 5 2 6 3 7 7 8 8 9 9 2 10 3 11 1 12
REMARK H PARENT 6 4 6 5 6 6 1 13 1 14
REMARK Flexibility Score: inf
ROOT
ATOM      1  C   UNL     1      16.066  -4.504  18.342  1.00  0.00     0.171 C 
ENDROOT
BRANCH   1   2
ATOM      2  C   UNL     1      15.896  -3.073  17.795  1.00  0.00     0.237 C 
BRANCH   2   3
ATOM      3  N   UNL     1      14.938  -2.321  18.615  1.00  0.00    -0.350 N 
ATOM      4  H   UNL     1      13.961  -2.574  18.340  1.00  0.00     0.345 HD
ATOM      5  H   UNL     1      15.065  -1.293  18.456  1.00  0.00     0.345 HD
ATOM      6  H   UNL     1      15.074  -2.532  19.630  1.00  0.00     0.345 HD
ENDBRANCH   2   3
BRANCH   2   7
ATOM      7  C   UNL     1      17.217  -2.351  17.743  1.00  0.00     0.100 C 
ATOM      8  O   UNL     1      17.367  -1.247  18.330  1.00  0.00    -0.544 OA
ATOM      9  O   UNL     1      18.287  -2.911  17.054  1.00  0.00    -0.544 OA
ENDBRANCH   2   7
ENDBRANCH   1   2
BRANCH   1  10
ATOM     10  C   UNL     1      14.995  -5.424  17.829  1.00  0.00     0.223 C 
ATOM     11  O   UNL     1      15.096  -5.923  16.677  1.00  0.00    -0.275 OA
ATOM     12  N   UNL     1      13.845  -5.709  18.626  1.00  0.00    -0.369 N 
ATOM     13  H   UNL     1      13.740  -5.289  19.577  1.00  0.00     0.159 HD
ATOM     14  H   UNL     1      13.094  -6.337  18.263  1.00  0.00     0.159 HD
ENDBRANCH   1  10
TORSDOF 4
ENDMDL
MODEL 6
REMARK VINA RESULT:    -4.245      2.342      2.623
REMARK INTER + INTRA:          -5.361
REMARK INTER:                  -5.114
REMARK INTRA:                  -0.247
REMARK UNBOUND:                -0.248
REMARK SMILES NC(=O)C[C@@H]([NH3+])C(=O)[O-]
REMARK SMILES IDX 4 1 5 2 6 3 7 7 8 8 9 9 2 10 3 11 1 12
REMARK H PARENT 6 4 6 5 6 6 1 13 1 14
REMARK Flexibility Score: inf
ROOT
ATOM      1  C   UNL     1      16.295  -4.424  18.892  1.00  0.00     0.171 C 
ENDROOT
BRANCH   1   2
ATOM      2  C   UNL     1      16.312  -2.882  18.898  1.00  0.00     0.237 C 
BRANCH   2   3
ATOM      3  N   UNL     1      15.000  -2.353  18.505  1.00  0.00    -0.350 N 
ATOM      4  H   UNL     1      14.421  -2.174  19.357  1.00  0.00     0.345 HD
ATOM      5  H   UNL     1      14.499  -3.054  17.910  1.00  0.00     0.345 HD
ATOM      6  H   UNL     1      15.106  -1.461  17.969  1.00  0.00     0.345 HD
ENDBRANCH   2   3
BRANCH   2   7
ATOM      7  C   UNL     1      16.705  -2.350  20.252  1.00  0.00     0.100 C 
ATOM      8  O   UNL     1      17.871  -2.528  20.696  1.00  0.00    -0.544 OA
ATOM      9  O   UNL     1      15.782  -1.644  21.015  1.00  0.00    -0.544 OA
ENDBRANCH   2   7
ENDBRANCH   1   2
BRANCH   1  10
ATOM     10  C   UNL     1      15.236  -4.961  17.972  1.00  0.00     0.223 C 
ATOM     11  O   UNL     1      15.346  -4.799  16.727  1.00  0.00    -0.275 OA
ATOM     12  N   UNL     1      14.089  -5.625  18.501  1.00  0.00    -0.369 N 
ATOM     13  H   UNL     1      13.976  -5.752  19.532  1.00  0.00     0.159 HD
ATOM     14  H   UNL     1      13.347  -5.986  17.861  1.00  0.00     0.159 HD
ENDBRANCH   1  10
TORSDOF 4
ENDMDL
MODEL 7
REMARK VINA RESULT:    -4.145      1.571      4.136
REMARK INTER + INTRA:          -5.240
REMARK INTER:                  -4.765
REMARK INTRA:                  -0.475
REMARK UNBOUND:                -0.248
REMARK SMILES NC(=O)C[C@@H]([NH3+])C(=O)[O-]
REMARK SMILES IDX 4 1 5 2 6 3 7 7 8 8 9 9 2 10 3 11 1 12
REMARK H PARENT 6 4 6 5 6 6 1 13 1 14
REMARK Flexibility Score: inf
ROOT
ATOM      1  C   UNL     1      17.218  -4.299  18.601  1.00  0.00     0.171 C 
ENDROOT
BRANCH   1   2
ATOM      2  C   UNL     1      15.683  -4.410  18.505  1.00  0.00     0.237 C 
BRANCH   2   3
ATOM      3  N   UNL     1      15.079  -3.077  18.391  1.00  0.00    -0.350 N 
ATOM      4  H   UNL     1      15.447  -2.593  17.540  1.00  0.00     0.345 HD
ATOM      5  H   UNL     1      15.330  -2.501  19.228  1.00  0.00     0.345 HD
ATOM      6  H   UNL     1      14.037  -3.148  18.321  1.00  0.00     0.345 HD
ENDBRANCH   2   3
BRANCH   2   7
ATOM      7  C   UNL     1      15.274  -5.271  17.338  1.00  0.00     0.100 C 
ATOM      8  O   UNL     1      14.147  -5.835  17.324  1.00  0.00    -0.544 OA
ATOM      9  O   UNL     1      16.136  -5.435  16.261  1.00  0.00    -0.544 OA
ENDBRANCH   2   7
ENDBRANCH   1   2
BRANCH   1  10
ATOM     10  C   UNL     1      17.717  -3.008  18.018  1.00  0.00     0.223 C 
ATOM     11  O   UNL     1      17.716  -1.961  18.720  1.00  0.00    -0.275 OA
ATOM     12  N   UNL     1      18.160  -2.950  16.663  1.00  0.00    -0.369 N 
ATOM     13  H   UNL     1      18.151  -3.806  16.064  1.00  0.00     0.159 HD
ATOM     14  H   UNL     1      18.493  -2.049  16.254  1.00  0.00     0.159 HD
ENDBRANCH   1  10
TORSDOF 4
ENDMDL
MODEL 8
REMARK VINA RESULT:    -4.126      2.072      2.352
REMARK INTER + INTRA:          -5.218
REMARK INTER:                  -4.903
REMARK INTRA:                  -0.315
REMARK UNBOUND:                -0.248
REMARK SMILES NC(=O)C[C@@H]([NH3+])C(=O)[O-]
REMARK SMILES IDX 4 1 5 2 6 3 7 7 8 8 9 9 2 10 3 11 1 12
REMARK H PARENT 6 4 6 5 6 6 1 13 1 14
REMARK Flexibility Score: inf
ROOT
ATOM      1  C   UNL     1      15.672  -3.231  17.585  1.00  0.00     0.171 C 
ENDROOT
BRANCH   1   2
ATOM      2  C   UNL     1      15.638  -1.981  18.488  1.00  0.00     0.237 C 
BRANCH   2   3
ATOM      3  N   UNL     1      15.665  -2.370  19.904  1.00  0.00    -0.350 N 
ATOM      4  H   UNL     1      16.574  -2.838  20.124  1.00  0.00     0.345 HD
ATOM      5  H   UNL     1      14.893  -3.050  20.099  1.00  0.00     0.345 HD
ATOM      6  H   UNL     1      15.552  -1.533  20.520  1.00  0.00     0.345 HD
ENDBRANCH   2   3
BRANCH   2   7
ATOM      7  C   UNL     1      16.787  -1.057  18.179  1.00  0.00     0.100 C 
ATOM      8  O   UNL     1      17.944  -1.518  17.984  1.00  0.00    -0.544 OA
ATOM      9  O   UNL     1      16.572   0.313  18.094  1.00  0.00    -0.544 OA
ENDBRANCH   2   7
ENDBRANCH   1   2
BRANCH   1  10
ATOM     10  C   UNL     1      15.703  -4.496  18.393  1.00  0.00     0.223 C 
ATOM     11  O   UNL     1      16.787  -4.889  18.902  1.00  0.00    -0.275 OA
ATOM     12  N   UNL     1      14.519  -5.276  18.560  1.00  0.00    -0.369 N 
ATOM     13  H   UNL     1      13.617  -4.971  18.130  1.00  0.00     0.159 HD
ATOM     14  H   UNL     1      14.544  -6.163  19.111  1.00  0.00     0.159 HD
ENDBRANCH   1  10
TORSDOF 4
ENDMDL
MODEL 9
REMARK VINA RESULT:    -4.084      5.239      5.987
REMARK INTER + INTRA:          -5.167
REMARK INTER:                  -4.872
REMARK INTRA:                  -0.295
REMARK UNBOUND:                -0.248
REMARK SMILES NC(=O)C[C@@H]([NH3+])C(=O)[O-]
REMARK SMILES IDX 4 1 5 2 6 3 7 7 8 8 9 9 2 10 3 11 1 12
REMARK H PARENT 6 4 6 5 6 6 1 13 1 14
REMARK Flexibility Score: inf
ROOT
ATOM      1  C   UNL     1      21.357  -4.426  19.154  1.00  0.00     0.171 C 
ENDROOT
BRANCH   1   2
ATOM      2  C   UNL     1      21.534  -3.264  20.152  1.00  0.00     0.237 C 
BRANCH   2   3
ATOM      3  N   UNL     1      21.332  -1.975  19.480  1.00  0.00    -0.350 N 
ATOM      4  H   UNL     1      22.139  -1.776  18.845  1.00  0.00     0.345 HD
ATOM      5  H   UNL     1      21.279  -1.208  20.191  1.00  0.00     0.345 HD
ATOM      6  H   UNL     1      20.449  -1.985  18.918  1.00  0.00     0.345 HD
ENDBRANCH   2   3
BRANCH   2   7
ATOM      7  C   UNL     1      20.586  -3.400  21.316  1.00  0.00     0.100 C 
ATOM      8  O   UNL     1      19.345  -3.501  21.121  1.00  0.00    -0.544 OA
ATOM      9  O   UNL     1      21.081  -3.429  22.614  1.00  0.00    -0.544 OA
ENDBRANCH   2   7
ENDBRANCH   1   2
BRANCH   1  10
ATOM     10  C   UNL     1      21.341  -3.937  17.734  1.00  0.00     0.223 C 
ATOM     11  O   UNL     1      20.284  -3.449  17.251  1.00  0.00    -0.275 OA
ATOM     12  N   UNL     1      22.504  -4.053  16.916  1.00  0.00    -0.369 N 
ATOM     13  H   UNL     1      23.383  -4.471  17.298  1.00  0.00     0.159 HD
ATOM     14  H   UNL     1      22.488  -3.726  15.925  1.00  0.00     0.159 HD
ENDBRANCH   1  10
TORSDOF 4
ENDMDL
