MODEL 1
REMARK VINA RESULT:    -3.779      0.000      0.000
REMARK INTER + INTRA:          -5.639
REMARK INTER:                  -5.105
REMARK INTRA:                  -0.534
REMARK UNBOUND:                -0.534
REMARK SMILES C[C@@H](O)[C@@H](O)[C@H](O)[C@H](O)C=O
REMARK SMILES IDX 4 1 2 2 1 3 3 4 6 6 8 7 10 8 11 9 9 10 7 12 5 14
REMARK H PARENT 3 5 9 11 7 13 5 15
REMARK Flexibility Score: inf
ROOT
ATOM      1  C   UNL     1      45.103  27.641  -3.842  1.00  0.00     0.174 C 
ENDROOT
BRANCH   1   2
ATOM      2  C   UNL     1      45.578  27.833  -2.379  1.00  0.00     0.142 C 
ATOM      3  C   UNL     1      45.093  29.165  -1.790  1.00  0.00     0.041 C 
BRANCH   2   4
ATOM      4  O   UNL     1      45.151  26.769  -1.564  1.00  0.00    -0.391 OA
ATOM      5  H   UNL     1      45.799  26.025  -1.679  1.00  0.00     0.211 HD
ENDBRANCH   2   4
ENDBRANCH   1   2
BRANCH   1   6
ATOM      6  C   UNL     1      43.577  27.370  -3.918  1.00  0.00     0.181 C 
BRANCH   6   7
ATOM      7  C   UNL     1      42.987  27.727  -5.308  1.00  0.00     0.209 C 
BRANCH   7   8
ATOM      8  C   UNL     1      42.676  29.197  -5.415  1.00  0.00     0.258 C 
ATOM      9  O   UNL     1      41.521  29.587  -5.485  1.00  0.00    -0.300 OA
ENDBRANCH   7   8
BRANCH   7  10
ATOM     10  O   UNL     1      43.851  27.339  -6.349  1.00  0.00    -0.383 OA
ATOM     11  H   UNL     1      44.490  26.674  -5.979  1.00  0.00     0.211 HD
ENDBRANCH   7  10
ENDBRANCH   6   7
BRANCH   6  12
ATOM     12  O   UNL     1      43.287  26.034  -3.581  1.00  0.00    -0.387 OA
ATOM     13  H   UNL     1      43.391  25.940  -2.598  1.00  0.00     0.211 HD
ENDBRANCH   6  12
ENDBRANCH   1   6
BRANCH   1  14
ATOM     14  O   UNL     1      45.797  26.568  -4.430  1.00  0.00    -0.388 OA
ATOM     15  H   UNL     1      45.128  25.870  -4.656  1.00  0.00     0.211 HD
ENDBRANCH   1  14
TORSDOF 8
ENDMDL
MODEL 2
REMARK VINA RESULT:    -3.604      1.061      3.995
REMARK INTER + INTRA:          -5.402
REMARK INTER:                  -5.024
REMARK INTRA:                  -0.377
REMARK UNBOUND:                -0.534
REMARK SMILES C[C@@H](O)[C@@H](O)[C@H](O)[C@H](O)C=O
REMARK SMILES IDX 4 1 2 2 1 3 3 4 6 6 8 7 10 8 11 9 9 10 7 12 5 14
REMARK H PARENT 3 5 9 11 7 13 5 15
REMARK Flexibility Score: inf
ROOT
ATOM      1  C   UNL     1      43.692  27.427  -3.585  1.00  0.00     0.174 C 
ENDROOT
BRANCH   1   2
ATOM      2  C   UNL     1      42.762  28.270  -4.495  1.00  0.00     0.142 C 
ATOM      3  C   UNL     1      42.781  29.756  -4.113  1.00  0.00     0.041 C 
BRANCH   2   4
ATOM      4  O   UNL     1      43.109  28.122  -5.850  1.00  0.00    -0.391 OA
ATOM      5  H   UNL     1      44.036  27.766  -5.885  1.00  0.00     0.211 HD
ENDBRANCH   2   4
ENDBRANCH   1   2
BRANCH   1   6
ATOM      6  C   UNL     1      45.185  27.606  -3.970  1.00  0.00     0.181 C 
BRANCH   6   7
ATOM      7  C   UNL     1      46.100  27.725  -2.723  1.00  0.00     0.209 C 
BRANCH   7   8
ATOM      8  C   UNL     1      45.296  27.952  -1.468  1.00  0.00     0.258 C 
ATOM      9  O   UNL     1      45.265  27.108  -0.586  1.00  0.00    -0.300 OA
ENDBRANCH   7   8
BRANCH   7  10
ATOM     10  O   UNL     1      46.919  26.591  -2.574  1.00  0.00    -0.383 OA
ATOM     11  H   UNL     1      46.743  25.988  -3.344  1.00  0.00     0.211 HD
ENDBRANCH   7  10
ENDBRANCH   6   7
BRANCH   6  12
ATOM     12  O   UNL     1      45.616  26.558  -4.806  1.00  0.00    -0.387 OA
ATOM     13  H   UNL     1      44.811  26.156  -5.227  1.00  0.00     0.211 HD
ENDBRANCH   6  12
ENDBRANCH   1   6
BRANCH   1  14
ATOM     14  O   UNL     1      43.345  26.066  -3.681  1.00  0.00    -0.388 OA
ATOM     15  H   UNL     1      43.675  25.618  -2.859  1.00  0.00     0.211 HD
ENDBRANCH   1  14
TORSDOF 8
ENDMDL
MODEL 3
REMARK VINA RESULT:    -3.364      1.899      2.562
REMARK INTER + INTRA:          -5.077
REMARK INTER:                  -4.374
REMARK INTRA:                  -0.703
REMARK UNBOUND:                -0.534
REMARK SMILES C[C@@H](O)[C@@H](O)[C@H](O)[C@H](O)C=O
REMARK SMILES IDX 4 1 2 2 1 3 3 4 6 6 8 7 10 8 11 9 9 10 7 12 5 14
REMARK H PARENT 3 5 9 11 7 13 5 15
REMARK Flexibility Score: inf
ROOT
ATOM      1  C   UNL     1      45.516  27.830  -1.684  1.00  0.00     0.174 C 
ENDROOT
BRANCH   1   2
ATOM      2  C   UNL     1      45.454  28.789  -0.466  1.00  0.00     0.142 C 
ATOM      3  C   UNL     1      45.703  28.051   0.856  1.00  0.00     0.041 C 
BRANCH   2   4
ATOM      4  O   UNL     1      46.374  29.843  -0.604  1.00  0.00    -0.391 OA
ATOM      5  H   UNL     1      47.103  29.694   0.054  1.00  0.00     0.211 HD
ENDBRANCH   2   4
ENDBRANCH   1   2
BRANCH   1   6
ATOM      6  C   UNL     1      44.805  28.434  -2.924  1.00  0.00     0.181 C 
BRANCH   6   7
ATOM      7  C   UNL     1      43.970  27.375  -3.692  1.00  0.00     0.209 C 
BRANCH   7   8
ATOM      8  C   UNL     1      42.955  28.024  -4.598  1.00  0.00     0.258 C 
ATOM      9  O   UNL     1      41.820  28.244  -4.206  1.00  0.00    -0.300 OA
ENDBRANCH   7   8
BRANCH   7  10
ATOM     10  O   UNL     1      44.794  26.508  -4.433  1.00  0.00    -0.383 OA
ATOM     11  H   UNL     1      44.287  26.224  -5.239  1.00  0.00     0.211 HD
ENDBRANCH   7  10
ENDBRANCH   6   7
BRANCH   6  12
ATOM     12  O   UNL     1      44.003  29.532  -2.558  1.00  0.00    -0.387 OA
ATOM     13  H   UNL     1      44.372  30.338  -3.006  1.00  0.00     0.211 HD
ENDBRANCH   6  12
ENDBRANCH   1   6
BRANCH   1  14
ATOM     14  O   UNL     1      44.916  26.601  -1.353  1.00  0.00    -0.388 OA
ATOM     15  H   UNL     1      44.161  26.797  -0.740  1.00  0.00     0.211 HD
ENDBRANCH   1  14
TORSDOF 8
ENDMDL
MODEL 4
REMARK VINA RESULT:    -3.295      1.111      4.106
REMARK INTER + INTRA:          -4.985
REMARK INTER:                  -4.613
REMARK INTRA:                  -0.372
REMARK UNBOUND:                -0.534
REMARK SMILES C[C@@H](O)[C@@H](O)[C@H](O)[C@H](O)C=O
REMARK SMILES IDX 4 1 2 2 1 3 3 4 6 6 8 7 10 8 11 9 9 10 7 12 5 14
REMARK H PARENT 3 5 9 11 7 13 5 15
REMARK Flexibility Score: inf
ROOT
ATOM      1  C   UNL     1      42.806  28.499  -4.124  1.00  0.00     0.174 C 
ENDROOT
BRANCH   1   2
ATOM      2  C   UNL     1      42.843  29.497  -5.311  1.00  0.00     0.142 C 
ATOM      3  C   UNL     1      43.266  28.814  -6.619  1.00  0.00     0.041 C 
BRANCH   2   4
ATOM      4  O   UNL     1      41.597  30.125  -5.483  1.00  0.00    -0.391 OA
ATOM      5  H   UNL     1      41.770  31.062  -5.763  1.00  0.00     0.211 HD
ENDBRANCH   2   4
ENDBRANCH   1   2
BRANCH   1   6
ATOM      6  C   UNL     1      43.881  27.390  -4.275  1.00  0.00     0.181 C 
BRANCH   6   7
ATOM      7  C   UNL     1      45.240  27.802  -3.650  1.00  0.00     0.209 C 
BRANCH   7   8
ATOM      8  C   UNL     1      45.123  28.006  -2.161  1.00  0.00     0.258 C 
ATOM      9  O   UNL     1      45.170  27.056  -1.396  1.00  0.00    -0.300 OA
ENDBRANCH   7   8
BRANCH   7  10
ATOM     10  O   UNL     1      46.243  26.858  -3.931  1.00  0.00    -0.383 OA
ATOM     11  H   UNL     1      45.949  26.328  -4.718  1.00  0.00     0.211 HD
ENDBRANCH   7  10
ENDBRANCH   6   7
BRANCH   6  12
ATOM     12  O   UNL     1      43.427  26.175  -3.727  1.00  0.00    -0.387 OA
ATOM     13  H   UNL     1      43.659  25.450  -4.365  1.00  0.00     0.211 HD
ENDBRANCH   6  12
ENDBRANCH   1   6
BRANCH   1  14
ATOM     14  O   UNL     1      41.532  27.907  -4.040  1.00  0.00    -0.388 OA
ATOM     15  H   UNL     1      41.220  28.010  -3.103  1.00  0.00     0.211 HD
ENDBRANCH   1  14
TORSDOF 8
ENDMDL
MODEL 5
REMARK VINA RESULT:    -3.227      1.767      4.305
REMARK INTER + INTRA:          -4.893
REMARK INTER:                  -4.160
REMARK INTRA:                  -0.733
REMARK UNBOUND:                -0.534
REMARK SMILES C[C@@H](O)[C@@H](O)[C@H](O)[C@H](O)C=O
REMARK SMILES IDX 4 1 2 2 1 3 3 4 6 6 8 7 10 8 11 9 9 10 7 12 5 14
REMARK H PARENT 3 5 9 11 7 13 5 15
REMARK Flexibility Score: inf
ROOT
ATOM      1  C   UNL     1      45.152  28.342  -4.069  1.00  0.00     0.174 C 
ENDROOT
BRANCH   1   2
ATOM      2  C   UNL     1      43.707  27.806  -3.900  1.00  0.00     0.142 C 
ATOM      3  C   UNL     1      42.766  28.346  -4.986  1.00  0.00     0.041 C 
BRANCH   2   4
ATOM      4  O   UNL     1      43.685  26.400  -3.907  1.00  0.00    -0.391 OA
ATOM      5  H   UNL     1      43.617  26.097  -2.963  1.00  0.00     0.211 HD
ENDBRANCH   2   4
ENDBRANCH   1   2
BRANCH   1   6
ATOM      6  C   UNL     1      45.978  28.180  -2.766  1.00  0.00     0.181 C 
BRANCH   6   7
ATOM      7  C   UNL     1      45.215  28.703  -1.520  1.00  0.00     0.209 C 
BRANCH   7   8
ATOM      8  C   UNL     1      45.782  28.133  -0.245  1.00  0.00     0.258 C 
ATOM      9  O   UNL     1      45.179  27.272   0.375  1.00  0.00    -0.300 OA
ENDBRANCH   7   8
BRANCH   7  10
ATOM     10  O   UNL     1      45.220  30.109  -1.466  1.00  0.00    -0.383 OA
ATOM     11  H   UNL     1      44.875  30.447  -2.334  1.00  0.00     0.211 HD
ENDBRANCH   7  10
ENDBRANCH   6   7
BRANCH   6  12
ATOM     12  O   UNL     1      46.371  26.840  -2.583  1.00  0.00    -0.387 OA
ATOM     13  H   UNL     1      46.689  26.743  -1.647  1.00  0.00     0.211 HD
ENDBRANCH   6  12
ENDBRANCH   1   6
BRANCH   1  14
ATOM     14  O   UNL     1      45.116  29.701  -4.433  1.00  0.00    -0.388 OA
ATOM     15  H   UNL     1      45.958  29.899  -4.920  1.00  0.00     0.211 HD
ENDBRANCH   1  14
TORSDOF 8
ENDMDL
MODEL 6
REMARK VINA RESULT:    -3.211      2.202      4.486
REMARK INTER + INTRA:          -4.872
REMARK INTER:                  -4.309
REMARK INTRA:                  -0.563
REMARK UNBOUND:                -0.534
REMARK SMILES C[C@@H](O)[C@@H](O)[C@H](O)[C@H](O)C=O
REMARK SMILES IDX 4 1 2 2 1 3 3 4 6 6 8 7 10 8 11 9 9 10 7 12 5 14
REMARK H PARENT 3 5 9 11 7 13 5 15
REMARK Flexibility Score: inf
ROOT
ATOM      1  C   UNL     1      44.786  27.570  -2.690  1.00  0.00     0.174 C 
ENDROOT
BRANCH   1   2
ATOM      2  C   UNL     1      44.799  27.608  -4.241  1.00  0.00     0.142 C 
ATOM      3  C   UNL     1      45.423  28.904  -4.776  1.00  0.00     0.041 C 
BRANCH   2   4
ATOM      4  O   UNL     1      45.483  26.497  -4.768  1.00  0.00    -0.391 OA
ATOM      5  H   UNL     1      45.843  25.976  -4.003  1.00  0.00     0.211 HD
ENDBRANCH   2   4
ENDBRANCH   1   2
BRANCH   1   6
ATOM      6  C   UNL     1      46.191  27.856  -2.099  1.00  0.00     0.181 C 
BRANCH   6   7
ATOM      7  C   UNL     1      46.128  28.226  -0.593  1.00  0.00     0.209 C 
BRANCH   7   8
ATOM      8  C   UNL     1      45.550  29.603  -0.387  1.00  0.00     0.258 C 
ATOM      9  O   UNL     1      45.189  29.968   0.721  1.00  0.00    -0.300 OA
ENDBRANCH   7   8
BRANCH   7  10
ATOM     10  O   UNL     1      45.391  27.278   0.140  1.00  0.00    -0.383 OA
ATOM     11  H   UNL     1      44.493  27.203  -0.279  1.00  0.00     0.211 HD
ENDBRANCH   7  10
ENDBRANCH   6   7
BRANCH   6  12
ATOM     12  O   UNL     1      47.055  26.764  -2.308  1.00  0.00    -0.387 OA
ATOM     13  H   UNL     1      47.870  26.914  -1.759  1.00  0.00     0.211 HD
ENDBRANCH   6  12
ENDBRANCH   1   6
BRANCH   1  14
ATOM     14  O   UNL     1      44.341  26.310  -2.249  1.00  0.00    -0.388 OA
ATOM     15  H   UNL     1      45.042  25.942  -1.651  1.00  0.00     0.211 HD
ENDBRANCH   1  14
TORSDOF 8
ENDMDL
MODEL 7
REMARK VINA RESULT:    -3.148      1.176      2.029
REMARK INTER + INTRA:          -4.786
REMARK INTER:                  -4.565
REMARK INTRA:                  -0.221
REMARK UNBOUND:                -0.534
REMARK SMILES C[C@@H](O)[C@@H](O)[C@H](O)[C@H](O)C=O
REMARK SMILES IDX 4 1 2 2 1 3 3 4 6 6 8 7 10 8 11 9 9 10 7 12 5 14
REMARK H PARENT 3 5 9 11 7 13 5 15
REMARK Flexibility Score: inf
ROOT
ATOM      1  C   UNL     1      44.096  27.289  -3.971  1.00  0.00     0.174 C 
ENDROOT
BRANCH   1   2
ATOM      2  C   UNL     1      45.072  27.663  -2.825  1.00  0.00     0.142 C 
ATOM      3  C   UNL     1      44.796  29.068  -2.274  1.00  0.00     0.041 C 
BRANCH   2   4
ATOM      4  O   UNL     1      45.011  26.722  -1.781  1.00  0.00    -0.391 OA
ATOM      5  H   UNL     1      44.084  26.363  -1.755  1.00  0.00     0.211 HD
ENDBRANCH   2   4
ENDBRANCH   1   2
BRANCH   1   6
ATOM      6  C   UNL     1      43.072  28.423  -4.244  1.00  0.00     0.181 C 
BRANCH   6   7
ATOM      7  C   UNL     1      43.154  28.947  -5.702  1.00  0.00     0.209 C 
BRANCH   7   8
ATOM      8  C   UNL     1      44.039  28.073  -6.554  1.00  0.00     0.258 C 
ATOM      9  O   UNL     1      45.012  28.539  -7.125  1.00  0.00    -0.300 OA
ENDBRANCH   7   8
BRANCH   7  10
ATOM     10  O   UNL     1      41.878  29.054  -6.283  1.00  0.00    -0.383 OA
ATOM     11  H   UNL     1      41.651  28.172  -6.680  1.00  0.00     0.211 HD
ENDBRANCH   7  10
ENDBRANCH   6   7
BRANCH   6  12
ATOM     12  O   UNL     1      41.764  28.002  -3.938  1.00  0.00    -0.387 OA
ATOM     13  H   UNL     1      41.509  27.305  -4.598  1.00  0.00     0.211 HD
ENDBRANCH   6  12
ENDBRANCH   1   6
BRANCH   1  14
ATOM     14  O   UNL     1      43.407  26.107  -3.643  1.00  0.00    -0.388 OA
ATOM     15  H   UNL     1      43.184  26.153  -2.676  1.00  0.00     0.211 HD
ENDBRANCH   1  14
TORSDOF 8
ENDMDL
MODEL 8
REMARK VINA RESULT:    -3.075      1.744      4.029
REMARK INTER + INTRA:          -4.687
REMARK INTER:                  -4.120
REMARK INTRA:                  -0.568
REMARK UNBOUND:                -0.534
REMARK SMILES C[C@@H](O)[C@@H](O)[C@H](O)[C@H](O)C=O
REMARK SMILES IDX 4 1 2 2 1 3 3 4 6 6 8 7 10 8 11 9 9 10 7 12 5 14
REMARK H PARENT 3 5 9 11 7 13 5 15
REMARK Flexibility Score: inf
ROOT
ATOM      1  C   UNL     1      43.528  27.668  -3.731  1.00  0.00     0.174 C 
ENDROOT
BRANCH   1   2
ATOM      2  C   UNL     1      43.047  28.450  -4.980  1.00  0.00     0.142 C 
ATOM      3  C   UNL     1      43.626  27.868  -6.277  1.00  0.00     0.041 C 
BRANCH   2   4
ATOM      4  O   UNL     1      41.643  28.473  -5.054  1.00  0.00    -0.391 OA
ATOM      5  H   UNL     1      41.395  28.754  -5.974  1.00  0.00     0.211 HD
ENDBRANCH   2   4
ENDBRANCH   1   2
BRANCH   1   6
ATOM      6  C   UNL     1      44.812  28.292  -3.124  1.00  0.00     0.181 C 
BRANCH   6   7
ATOM      7  C   UNL     1      46.095  27.543  -3.571  1.00  0.00     0.209 C 
BRANCH   7   8
ATOM      8  C   UNL     1      47.124  28.493  -4.127  1.00  0.00     0.258 C 
ATOM      9  O   UNL     1      47.014  28.940  -5.258  1.00  0.00    -0.300 OA
ENDBRANCH   7   8
BRANCH   7  10
ATOM     10  O   UNL     1      46.648  26.794  -2.516  1.00  0.00    -0.383 OA
ATOM     11  H   UNL     1      45.966  26.135  -2.222  1.00  0.00     0.211 HD
ENDBRANCH   7  10
ENDBRANCH   6   7
BRANCH   6  12
ATOM     12  O   UNL     1      44.900  29.662  -3.438  1.00  0.00    -0.387 OA
ATOM     13  H   UNL     1      45.578  30.068  -2.835  1.00  0.00     0.211 HD
ENDBRANCH   6  12
ENDBRANCH   1   6
BRANCH   1  14
ATOM     14  O   UNL     1      43.779  26.327  -4.077  1.00  0.00    -0.388 OA
ATOM     15  H   UNL     1      43.768  26.270  -5.068  1.00  0.00     0.211 HD
ENDBRANCH   1  14
TORSDOF 8
ENDMDL
MODEL 9
REMARK VINA RESULT:    -2.978      1.837      4.382
REMARK INTER + INTRA:          -4.556
REMARK INTER:                  -3.756
REMARK INTRA:                  -0.801
REMARK UNBOUND:                -0.534
REMARK SMILES C[C@@H](O)[C@@H](O)[C@H](O)[C@H](O)C=O
REMARK SMILES IDX 4 1 2 2 1 3 3 4 6 6 8 7 10 8 11 9 9 10 7 12 5 14
REMARK H PARENT 3 5 9 11 7 13 5 15
REMARK Flexibility Score: inf
ROOT
ATOM      1  C   UNL     1      42.877  29.271  -4.478  1.00  0.00     0.174 C 
ENDROOT
BRANCH   1   2
ATOM      2  C   UNL     1      42.773  29.201  -6.024  1.00  0.00     0.142 C 
ATOM      3  C   UNL     1      41.337  29.440  -6.512  1.00  0.00     0.041 C 
BRANCH   2   4
ATOM      4  O   UNL     1      43.642  30.125  -6.632  1.00  0.00    -0.391 OA
ATOM      5  H   UNL     1      43.548  30.988  -6.149  1.00  0.00     0.211 HD
ENDBRANCH   2   4
ENDBRANCH   1   2
BRANCH   1   6
ATOM      6  C   UNL     1      44.270  28.805  -3.977  1.00  0.00     0.181 C 
BRANCH   6   7
ATOM      7  C   UNL     1      44.647  27.401  -4.520  1.00  0.00     0.209 C 
BRANCH   7   8
ATOM      8  C   UNL     1      46.138  27.183  -4.495  1.00  0.00     0.258 C 
ATOM      9  O   UNL     1      46.775  27.345  -3.467  1.00  0.00    -0.300 OA
ENDBRANCH   7   8
BRANCH   7  10
ATOM     10  O   UNL     1      43.997  26.380  -3.804  1.00  0.00    -0.383 OA
ATOM     11  H   UNL     1      44.077  25.542  -4.332  1.00  0.00     0.211 HD
ENDBRANCH   7  10
ENDBRANCH   6   7
BRANCH   6  12
ATOM     12  O   UNL     1      45.262  29.749  -4.303  1.00  0.00    -0.387 OA
ATOM     13  H   UNL     1      45.178  29.954  -5.272  1.00  0.00     0.211 HD
ENDBRANCH   6  12
ENDBRANCH   1   6
BRANCH   1  14
ATOM     14  O   UNL     1      41.879  28.467  -3.898  1.00  0.00    -0.388 OA
ATOM     15  H   UNL     1      41.357  29.043  -3.280  1.00  0.00     0.211 HD
ENDBRANCH   1  14
TORSDOF 8
ENDMDL
