MODEL 1
REMARK VINA RESULT:     6.208      0.000      0.000
REMARK INTER + INTRA:           7.528
REMARK INTER:                   8.749
REMARK INTRA:                  -1.221
REMARK UNBOUND:                -1.221
REMARK SMILES C=C(CC[C@H](C(=O)[O-])[C@H]1[C@H](O)C[C@@]2(C)C3=C(CC[C@@]12C)[C@]1(C)CC[C@@H](O)C(C)(C)[C@@H]1CC3)C(C)C
REMARK SMILES IDX 4 1 5 2 6 3 7 4 8 5 9 6 10 7 19 8 12 9 13 10 18 11 20 12
REMARK SMILES IDX 14 13 15 14 17 15 16 16 32 17 21 18 31 19 30 20 23 21 22 22
REMARK SMILES IDX 27 23 24 24 25 25 28 26 29 27 11 28 26 30 3 32 2 33 1 34
REMARK SMILES IDX 33 35 34 36 35 37
REMARK H PARENT 11 29 26 31
REMARK Flexibility Score: inf
ROOT
ATOM      1  C   UNL     1      98.618 111.796 118.189  1.00  0.00     0.014 C 
ENDROOT
BRANCH   1   2
ATOM      2  C   UNL     1      98.884 111.323 116.734  1.00  0.00     0.042 C 
BRANCH   2   3
ATOM      3  C   UNL     1      99.492 109.932 116.743  1.00  0.00     0.045 C 
ATOM      4  O   UNL     1      99.208 109.106 115.837  1.00  0.00    -0.550 OA
ATOM      5  O   UNL     1     100.305 109.520 117.793  1.00  0.00    -0.550 OA
ENDBRANCH   2   3
BRANCH   2   6
ATOM      6  C   UNL     1      99.727 112.400 115.942  1.00  0.00     0.033 C 
ATOM      7  C   UNL     1     100.930 111.799 115.201  1.00  0.00     0.119 C 
ATOM      8  C   UNL     1      99.003 113.317 114.871  1.00  0.00    -0.017 C 
ATOM      9  C   UNL     1     100.463 111.632 113.768  1.00  0.00     0.043 C 
ATOM     10  C   UNL     1      99.516 112.813 113.435  1.00  0.00    -0.003 C 
ATOM     11  C   UNL     1      97.452 113.279 114.968  1.00  0.00     0.012 C 
ATOM     12  C   UNL     1      99.423 114.793 115.185  1.00  0.00     0.013 C 
ATOM     13  C   UNL     1     100.332 113.878 112.648  1.00  0.00     0.017 C 
ATOM     14  C   UNL     1      98.388 112.342 112.470  1.00  0.00    -0.064 C 
ATOM     15  C   UNL     1      96.817 113.796 113.686  1.00  0.00     0.032 C 
ATOM     16  C   UNL     1      97.114 112.826 112.555  1.00  0.00    -0.064 C 
ATOM     17  C   UNL     1      98.771 111.514 111.267  1.00  0.00     0.032 C 
ATOM     18  C   UNL     1      95.933 112.289 111.681  1.00  0.00    -0.008 C 
ATOM     19  C   UNL     1      97.658 110.558 110.892  1.00  0.00     0.009 C 
ATOM     20  C   UNL     1      96.407 111.365 110.470  1.00  0.00     0.007 C 
ATOM     21  C   UNL     1      95.018 111.474 112.643  1.00  0.00     0.014 C 
ATOM     22  C   UNL     1      95.181 113.531 111.116  1.00  0.00     0.016 C 
ATOM     23  C   UNL     1      95.278 110.449 109.810  1.00  0.00    -0.006 C 
ATOM     24  C   UNL     1      93.900 110.690 111.959  1.00  0.00     0.033 C 
ATOM     25  C   UNL     1      94.451 109.722 110.908  1.00  0.00     0.120 C 
ATOM     26  C   UNL     1      94.349 111.285 108.875  1.00  0.00     0.014 C 
ATOM     27  C   UNL     1      95.902 109.359 108.887  1.00  0.00     0.014 C 
BRANCH   7  28
ATOM     28  O   UNL     1     102.023 112.681 115.234  1.00  0.00    -0.393 OA
ATOM     29  H   UNL     1     102.415 112.617 116.144  1.00  0.00     0.210 HD
ENDBRANCH   7  28
BRANCH  25  30
ATOM     30  O   UNL     1      93.390 109.007 110.324  1.00  0.00    -0.393 OA
ATOM     31  H   UNL     1      92.923 109.632 109.712  1.00  0.00     0.210 HD
ENDBRANCH  25  30
ENDBRANCH   2   6
ENDBRANCH   1   2
BRANCH   1  32
ATOM     32  C   UNL     1      99.352 113.105 118.533  1.00  0.00     0.031 C 
BRANCH  32  33
ATOM     33  C   UNL     1      99.849 113.089 119.965  1.00  0.00    -0.075 C 
ATOM     34  C   UNL     1     100.634 112.077 120.373  1.00  0.00     0.008 C 
BRANCH  33  35
ATOM     35  C   UNL     1      99.526 114.230 120.922  1.00  0.00     0.008 C 
ATOM     36  C   UNL     1      98.557 113.772 122.017  1.00  0.00     0.012 C 
ATOM     37  C   UNL     1     100.802 114.826 121.529  1.00  0.00     0.012 C 
ENDBRANCH  33  35
ENDBRANCH  32  33
ENDBRANCH   1  32
TORSDOF 8
ENDMDL
MODEL 2
REMARK VINA RESULT:     7.453      2.318      8.834
REMARK INTER + INTRA:           9.282
REMARK INTER:                   9.035
REMARK INTRA:                   0.247
REMARK UNBOUND:                -1.221
REMARK SMILES C=C(CC[C@H](C(=O)[O-])[C@H]1[C@H](O)C[C@@]2(C)C3=C(CC[C@@]12C)[C@]1(C)CC[C@@H](O)C(C)(C)[C@@H]1CC3)C(C)C
REMARK SMILES IDX 4 1 5 2 6 3 7 4 8 5 9 6 10 7 19 8 12 9 13 10 18 11 20 12
REMARK SMILES IDX 14 13 15 14 17 15 16 16 32 17 21 18 31 19 30 20 23 21 22 22
REMARK SMILES IDX 27 23 24 24 25 25 28 26 29 27 11 28 26 30 3 32 2 33 1 34
REMARK SMILES IDX 33 35 34 36 35 37
REMARK H PARENT 11 29 26 31
REMARK Flexibility Score: inf
ROOT
ATOM      1  C   UNL     1      96.194 111.491 113.528  1.00  0.00     0.014 C 
ENDROOT
BRANCH   1   2
ATOM      2  C   UNL     1      97.222 112.484 114.136  1.00  0.00     0.042 C 
BRANCH   2   3
ATOM      3  C   UNL     1      96.869 113.906 113.738  1.00  0.00     0.045 C 
ATOM      4  O   UNL     1      97.563 114.874 114.143  1.00  0.00    -0.550 OA
ATOM      5  O   UNL     1      95.728 114.169 112.987  1.00  0.00    -0.550 OA
ENDBRANCH   2   3
BRANCH   2   6
ATOM      6  C   UNL     1      98.698 112.051 113.776  1.00  0.00     0.033 C 
ATOM      7  C   UNL     1      99.533 113.193 113.178  1.00  0.00     0.119 C 
ATOM      8  C   UNL     1      99.617 111.418 114.902  1.00  0.00    -0.017 C 
ATOM      9  C   UNL     1     100.353 113.726 114.337  1.00  0.00     0.043 C 
ATOM     10  C   UNL     1     100.724 112.529 115.249  1.00  0.00    -0.003 C 
ATOM     11  C   UNL     1      98.832 110.978 116.170  1.00  0.00     0.012 C 
ATOM     12  C   UNL     1     100.233 110.111 114.297  1.00  0.00     0.013 C 
ATOM     13  C   UNL     1     102.179 112.097 114.910  1.00  0.00     0.017 C 
ATOM     14  C   UNL     1     100.749 112.977 116.740  1.00  0.00    -0.064 C 
ATOM     15  C   UNL     1      99.772 110.802 117.352  1.00  0.00     0.032 C 
ATOM     16  C   UNL     1     100.334 112.155 117.750  1.00  0.00    -0.064 C 
ATOM     17  C   UNL     1     101.470 114.255 117.094  1.00  0.00     0.032 C 
ATOM     18  C   UNL     1     100.236 112.615 119.242  1.00  0.00    -0.008 C 
ATOM     19  C   UNL     1     100.827 114.925 118.291  1.00  0.00     0.009 C 
ATOM     20  C   UNL     1     100.961 114.007 119.528  1.00  0.00     0.007 C 
ATOM     21  C   UNL     1      98.715 112.733 119.559  1.00  0.00     0.014 C 
ATOM     22  C   UNL     1     100.901 111.502 120.107  1.00  0.00     0.016 C 
ATOM     23  C   UNL     1     100.549 114.741 120.886  1.00  0.00    -0.006 C 
ATOM     24  C   UNL     1      98.387 113.361 120.912  1.00  0.00     0.033 C 
ATOM     25  C   UNL     1      99.002 114.757 121.052  1.00  0.00     0.120 C 
ATOM     26  C   UNL     1     101.234 114.072 122.118  1.00  0.00     0.014 C 
ATOM     27  C   UNL     1     101.042 116.218 120.903  1.00  0.00     0.014 C 
BRANCH   7  28
ATOM     28  O   UNL     1     100.397 112.705 112.183  1.00  0.00    -0.393 OA
ATOM     29  H   UNL     1     101.187 112.327 112.651  1.00  0.00     0.210 HD
ENDBRANCH   7  28
BRANCH  25  30
ATOM     30  O   UNL     1      98.653 115.303 122.300  1.00  0.00    -0.393 OA
ATOM     31  H   UNL     1      98.018 114.670 122.724  1.00  0.00     0.210 HD
ENDBRANCH  25  30
ENDBRANCH   2   6
ENDBRANCH   1   2
BRANCH   1  32
ATOM     32  C   UNL     1      96.167 111.531 111.989  1.00  0.00     0.031 C 
BRANCH  32  33
ATOM     33  C   UNL     1      94.810 111.109 111.459  1.00  0.00    -0.075 C 
ATOM     34  C   UNL     1      94.263 109.964 111.902  1.00  0.00     0.008 C 
BRANCH  33  35
ATOM     35  C   UNL     1      94.037 111.992 110.488  1.00  0.00     0.008 C 
ATOM     36  C   UNL     1      94.969 112.982 109.782  1.00  0.00     0.012 C 
ATOM     37  C   UNL     1      93.256 111.151 109.471  1.00  0.00     0.012 C 
ENDBRANCH  33  35
ENDBRANCH  32  33
ENDBRANCH   1  32
TORSDOF 8
ENDMDL
MODEL 3
REMARK VINA RESULT:     7.475      1.192      2.016
REMARK INTER + INTRA:           9.312
REMARK INTER:                   9.353
REMARK INTRA:                  -0.040
REMARK UNBOUND:                -1.221
REMARK SMILES C=C(CC[C@H](C(=O)[O-])[C@H]1[C@H](O)C[C@@]2(C)C3=C(CC[C@@]12C)[C@]1(C)CC[C@@H](O)C(C)(C)[C@@H]1CC3)C(C)C
REMARK SMILES IDX 4 1 5 2 6 3 7 4 8 5 9 6 10 7 19 8 12 9 13 10 18 11 20 12
REMARK SMILES IDX 14 13 15 14 17 15 16 16 32 17 21 18 31 19 30 20 23 21 22 22
REMARK SMILES IDX 27 23 24 24 25 25 28 26 29 27 11 28 26 30 3 32 2 33 1 34
REMARK SMILES IDX 33 35 34 36 35 37
REMARK H PARENT 11 29 26 31
REMARK Flexibility Score: inf
ROOT
ATOM      1  C   UNL     1      99.391 110.985 118.284  1.00  0.00     0.014 C 
ENDROOT
BRANCH   1   2
ATOM      2  C   UNL     1      98.940 111.110 116.803  1.00  0.00     0.042 C 
BRANCH   2   3
ATOM      3  C   UNL     1      98.966 109.747 116.136  1.00  0.00     0.045 C 
ATOM      4  O   UNL     1      99.322 108.727 116.781  1.00  0.00    -0.550 OA
ATOM      5  O   UNL     1      98.675 109.614 114.782  1.00  0.00    -0.550 OA
ENDBRANCH   2   3
BRANCH   2   6
ATOM      6  C   UNL     1      99.779 112.221 116.055  1.00  0.00     0.033 C 
ATOM      7  C   UNL     1     100.990 111.655 115.298  1.00  0.00     0.119 C 
ATOM      8  C   UNL     1      99.053 113.170 115.014  1.00  0.00    -0.017 C 
ATOM      9  C   UNL     1     100.531 111.537 113.857  1.00  0.00     0.043 C 
ATOM     10  C   UNL     1      99.577 112.723 113.563  1.00  0.00    -0.003 C 
ATOM     11  C   UNL     1      97.502 113.118 115.102  1.00  0.00     0.012 C 
ATOM     12  C   UNL     1      99.461 114.637 115.384  1.00  0.00     0.013 C 
ATOM     13  C   UNL     1     100.389 113.821 112.819  1.00  0.00     0.017 C 
ATOM     14  C   UNL     1      98.457 112.279 112.576  1.00  0.00    -0.064 C 
ATOM     15  C   UNL     1      96.870 113.677 113.836  1.00  0.00     0.032 C 
ATOM     16  C   UNL     1      97.179 112.752 112.673  1.00  0.00    -0.064 C 
ATOM     17  C   UNL     1      98.851 111.498 111.346  1.00  0.00     0.032 C 
ATOM     18  C   UNL     1      96.006 112.238 111.774  1.00  0.00    -0.008 C 
ATOM     19  C   UNL     1      97.747 110.549 110.931  1.00  0.00     0.009 C 
ATOM     20  C   UNL     1      96.492 111.362 110.532  1.00  0.00     0.007 C 
ATOM     21  C   UNL     1      95.092 111.383 112.701  1.00  0.00     0.014 C 
ATOM     22  C   UNL     1      95.248 113.495 111.250  1.00  0.00     0.016 C 
ATOM     23  C   UNL     1      95.373 110.463 109.833  1.00  0.00    -0.006 C 
ATOM     24  C   UNL     1      93.983 110.616 111.984  1.00  0.00     0.033 C 
ATOM     25  C   UNL     1      94.546 109.690 110.900  1.00  0.00     0.120 C 
ATOM     26  C   UNL     1      94.443 111.326 108.925  1.00  0.00     0.014 C 
ATOM     27  C   UNL     1      96.008 109.412 108.875  1.00  0.00     0.014 C 
BRANCH   7  28
ATOM     28  O   UNL     1     102.076 112.543 115.369  1.00  0.00    -0.393 OA
ATOM     29  H   UNL     1     102.888 111.991 115.518  1.00  0.00     0.210 HD
ENDBRANCH   7  28
BRANCH  25  30
ATOM     30  O   UNL     1      93.493 108.990 110.286  1.00  0.00    -0.393 OA
ATOM     31  H   UNL     1      93.778 108.042 110.219  1.00  0.00     0.210 HD
ENDBRANCH  25  30
ENDBRANCH   2   6
ENDBRANCH   1   2
BRANCH   1  32
ATOM     32  C   UNL     1     100.911 111.158 118.459  1.00  0.00     0.031 C 
BRANCH  32  33
ATOM     33  C   UNL     1     101.345 110.765 119.858  1.00  0.00    -0.075 C 
ATOM     34  C   UNL     1     100.993 111.546 120.895  1.00  0.00     0.008 C 
BRANCH  33  35
ATOM     35  C   UNL     1     102.111 109.473 120.109  1.00  0.00     0.008 C 
ATOM     36  C   UNL     1     102.830 109.515 121.462  1.00  0.00     0.012 C 
ATOM     37  C   UNL     1     101.191 108.251 120.012  1.00  0.00     0.012 C 
ENDBRANCH  33  35
ENDBRANCH  32  33
ENDBRANCH   1  32
TORSDOF 8
ENDMDL
MODEL 4
REMARK VINA RESULT:     8.705      4.096      8.332
REMARK INTER + INTRA:          11.047
REMARK INTER:                   9.000
REMARK INTRA:                   2.047
REMARK UNBOUND:                -1.221
REMARK SMILES C=C(CC[C@H](C(=O)[O-])[C@H]1[C@H](O)C[C@@]2(C)C3=C(CC[C@@]12C)[C@]1(C)CC[C@@H](O)C(C)(C)[C@@H]1CC3)C(C)C
REMARK SMILES IDX 4 1 5 2 6 3 7 4 8 5 9 6 10 7 19 8 12 9 13 10 18 11 20 12
REMARK SMILES IDX 14 13 15 14 17 15 16 16 32 17 21 18 31 19 30 20 23 21 22 22
REMARK SMILES IDX 27 23 24 24 25 25 28 26 29 27 11 28 26 30 3 32 2 33 1 34
REMARK SMILES IDX 33 35 34 36 35 37
REMARK H PARENT 11 29 26 31
REMARK Flexibility Score: inf
ROOT
ATOM      1  C   UNL     1      99.681 118.486 121.627  1.00  0.00     0.014 C 
ENDROOT
BRANCH   1   2
ATOM      2  C   UNL     1      98.761 117.309 122.049  1.00  0.00     0.042 C 
BRANCH   2   3
ATOM      3  C   UNL     1      97.600 117.828 122.879  1.00  0.00     0.045 C 
ATOM      4  O   UNL     1      96.805 118.679 122.402  1.00  0.00    -0.550 OA
ATOM      5  O   UNL     1      97.444 117.435 124.203  1.00  0.00    -0.550 OA
ENDBRANCH   2   3
BRANCH   2   6
ATOM      6  C   UNL     1      99.600 116.164 122.742  1.00  0.00     0.033 C 
ATOM      7  C   UNL     1      98.731 115.009 123.262  1.00  0.00     0.119 C 
ATOM      8  C   UNL     1     100.771 115.464 121.935  1.00  0.00    -0.017 C 
ATOM      9  C   UNL     1      98.823 113.938 122.193  1.00  0.00     0.043 C 
ATOM     10  C   UNL     1     100.253 113.981 121.596  1.00  0.00    -0.003 C 
ATOM     11  C   UNL     1     101.184 116.232 120.648  1.00  0.00     0.012 C 
ATOM     12  C   UNL     1     102.028 115.472 122.869  1.00  0.00     0.013 C 
ATOM     13  C   UNL     1     101.089 112.853 122.265  1.00  0.00     0.017 C 
ATOM     14  C   UNL     1     100.212 113.639 120.078  1.00  0.00    -0.064 C 
ATOM     15  C   UNL     1     101.964 115.328 119.706  1.00  0.00     0.032 C 
ATOM     16  C   UNL     1     101.043 114.243 119.177  1.00  0.00    -0.064 C 
ATOM     17  C   UNL     1      99.405 112.443 119.633  1.00  0.00     0.032 C 
ATOM     18  C   UNL     1     100.947 114.008 117.634  1.00  0.00    -0.008 C 
ATOM     19  C   UNL     1      98.853 112.651 118.239  1.00  0.00     0.009 C 
ATOM     20  C   UNL     1     100.023 112.771 117.234  1.00  0.00     0.007 C 
ATOM     21  C   UNL     1     100.365 115.322 117.031  1.00  0.00     0.014 C 
ATOM     22  C   UNL     1     102.396 113.754 117.120  1.00  0.00     0.016 C 
ATOM     23  C   UNL     1      99.535 112.728 115.713  1.00  0.00    -0.006 C 
ATOM     24  C   UNL     1     100.001 115.245 115.549  1.00  0.00     0.033 C 
ATOM     25  C   UNL     1      99.000 114.120 115.271  1.00  0.00     0.120 C 
ATOM     26  C   UNL     1     100.678 112.245 114.768  1.00  0.00     0.014 C 
ATOM     27  C   UNL     1      98.386 111.695 115.517  1.00  0.00     0.014 C 
BRANCH   7  28
ATOM     28  O   UNL     1      99.248 114.507 124.469  1.00  0.00    -0.393 OA
ATOM     29  H   UNL     1      98.989 113.549 124.514  1.00  0.00     0.210 HD
ENDBRANCH   7  28
BRANCH  25  30
ATOM     30  O   UNL     1      98.677 114.104 113.903  1.00  0.00    -0.393 OA
ATOM     31  H   UNL     1      99.421 113.641 113.436  1.00  0.00     0.210 HD
ENDBRANCH  25  30
ENDBRANCH   2   6
ENDBRANCH   1   2
BRANCH   1  32
ATOM     32  C   UNL     1      99.419 119.767 122.439  1.00  0.00     0.031 C 
BRANCH  32  33
ATOM     33  C   UNL     1      99.861 119.598 123.880  1.00  0.00    -0.075 C 
ATOM     34  C   UNL     1      99.107 120.125 124.861  1.00  0.00     0.008 C 
BRANCH  33  35
ATOM     35  C   UNL     1     101.103 118.789 124.231  1.00  0.00     0.008 C 
ATOM     36  C   UNL     1     102.041 118.672 123.025  1.00  0.00     0.012 C 
ATOM     37  C   UNL     1     101.832 119.385 125.441  1.00  0.00     0.012 C 
ENDBRANCH  33  35
ENDBRANCH  32  33
ENDBRANCH   1  32
TORSDOF 8
ENDMDL
