MODEL 1
REMARK VINA RESULT:    -3.356      0.000      0.000
REMARK INTER + INTRA:          -4.596
REMARK INTER:                  -4.336
REMARK INTRA:                  -0.260
REMARK UNBOUND:                -0.260
REMARK SMILES CCCCCCC(=O)[O-]
REMARK SMILES IDX 5 1 6 2 7 3 8 4 9 5 4 6 3 7 2 8 1 9
REMARK H PARENT
REMARK Flexibility Score: inf
ROOT
ATOM      1  C   UNL     1     121.069  72.867   2.732  1.00  0.00     0.006 C 
ENDROOT
BRANCH   1   2
ATOM      2  C   UNL     1     120.098  72.791   3.917  1.00  0.00     0.053 C 
BRANCH   2   3
ATOM      3  C   UNL     1     120.381  71.606   4.790  1.00  0.00     0.041 C 
ATOM      4  O   UNL     1     120.732  70.511   4.278  1.00  0.00    -0.550 OA
ATOM      5  O   UNL     1     120.221  71.703   6.167  1.00  0.00    -0.550 OA
ENDBRANCH   2   3
ENDBRANCH   1   2
BRANCH   1   6
ATOM      6  C   UNL     1     120.333  73.002   1.387  1.00  0.00     0.000 C 
BRANCH   6   7
ATOM      7  C   UNL     1     119.909  71.645   0.796  1.00  0.00    -0.000 C 
BRANCH   7   8
ATOM      8  C   UNL     1     121.053  70.629   0.629  1.00  0.00    -0.003 C 
ATOM      9  C   UNL     1     120.934  69.799  -0.648  1.00  0.00     0.004 C 
ENDBRANCH   7   8
ENDBRANCH   6   7
ENDBRANCH   1   6
TORSDOF 5
ENDMDL
MODEL 2
REMARK VINA RESULT:    -3.312      3.698      5.379
REMARK INTER + INTRA:          -4.541
REMARK INTER:                  -4.417
REMARK INTRA:                  -0.124
REMARK UNBOUND:                -0.260
REMARK SMILES CCCCCCC(=O)[O-]
REMARK SMILES IDX 5 1 6 2 7 3 8 4 9 5 4 6 3 7 2 8 1 9
REMARK H PARENT
REMARK Flexibility Score: inf
ROOT
ATOM      1  C   UNL     1     121.294  69.139  -0.191  1.00  0.00     0.006 C 
ENDROOT
BRANCH   1   2
ATOM      2  C   UNL     1     120.156  68.178   0.174  1.00  0.00     0.053 C 
BRANCH   2   3
ATOM      3  C   UNL     1     120.341  66.832  -0.457  1.00  0.00     0.041 C 
ATOM      4  O   UNL     1     120.222  66.695  -1.703  1.00  0.00    -0.550 OA
ATOM      5  O   UNL     1     120.609  65.722   0.335  1.00  0.00    -0.550 OA
ENDBRANCH   2   3
ENDBRANCH   1   2
BRANCH   1   6
ATOM      6  C   UNL     1     120.929  70.607   0.091  1.00  0.00     0.000 C 
BRANCH   6   7
ATOM      7  C   UNL     1     120.318  70.815   1.488  1.00  0.00    -0.000 C 
BRANCH   7   8
ATOM      8  C   UNL     1     121.024  71.877   2.349  1.00  0.00    -0.003 C 
ATOM      9  C   UNL     1     120.874  73.293   1.795  1.00  0.00     0.004 C 
ENDBRANCH   7   8
ENDBRANCH   6   7
ENDBRANCH   1   6
TORSDOF 5
ENDMDL
MODEL 3
REMARK VINA RESULT:    -3.226      1.669      2.640
REMARK INTER + INTRA:          -4.430
REMARK INTER:                  -4.339
REMARK INTRA:                  -0.091
REMARK UNBOUND:                -0.260
REMARK SMILES CCCCCCC(=O)[O-]
REMARK SMILES IDX 5 1 6 2 7 3 8 4 9 5 4 6 3 7 2 8 1 9
REMARK H PARENT
REMARK Flexibility Score: inf
ROOT
ATOM      1  C   UNL     1     120.285  70.876   1.237  1.00  0.00     0.006 C 
ENDROOT
BRANCH   1   2
ATOM      2  C   UNL     1     121.000  72.004   1.989  1.00  0.00     0.053 C 
BRANCH   2   3
ATOM      3  C   UNL     1     120.742  71.939   3.463  1.00  0.00     0.041 C 
ATOM      4  O   UNL     1     120.232  72.923   4.061  1.00  0.00    -0.550 OA
ATOM      5  O   UNL     1     121.098  70.806   4.184  1.00  0.00    -0.550 OA
ENDBRANCH   2   3
ENDBRANCH   1   2
BRANCH   1   6
ATOM      6  C   UNL     1     121.134  70.317   0.082  1.00  0.00     0.000 C 
BRANCH   6   7
ATOM      7  C   UNL     1     120.387  69.264  -0.758  1.00  0.00    -0.000 C 
BRANCH   7   8
ATOM      8  C   UNL     1     120.638  67.806  -0.335  1.00  0.00    -0.003 C 
ATOM      9  C   UNL     1     120.155  66.791  -1.371  1.00  0.00     0.004 C 
ENDBRANCH   7   8
ENDBRANCH   6   7
ENDBRANCH   1   6
TORSDOF 5
ENDMDL
MODEL 4
REMARK VINA RESULT:    -3.211      2.747      4.859
REMARK INTER + INTRA:          -4.409
REMARK INTER:                  -4.271
REMARK INTRA:                  -0.139
REMARK UNBOUND:                -0.260
REMARK SMILES CCCCCCC(=O)[O-]
REMARK SMILES IDX 5 1 6 2 7 3 8 4 9 5 4 6 3 7 2 8 1 9
REMARK H PARENT
REMARK Flexibility Score: inf
ROOT
ATOM      1  C   UNL     1     120.183  70.393  -0.045  1.00  0.00     0.006 C 
ENDROOT
BRANCH   1   2
ATOM      2  C   UNL     1     120.946  69.280  -0.773  1.00  0.00     0.053 C 
BRANCH   2   3
ATOM      3  C   UNL     1     120.532  67.921  -0.299  1.00  0.00     0.041 C 
ATOM      4  O   UNL     1     120.413  66.973  -1.119  1.00  0.00    -0.550 OA
ATOM      5  O   UNL     1     120.241  67.710   1.043  1.00  0.00    -0.550 OA
ENDBRANCH   2   3
ENDBRANCH   1   2
BRANCH   1   6
ATOM      6  C   UNL     1     121.058  71.115   0.994  1.00  0.00     0.000 C 
BRANCH   6   7
ATOM      7  C   UNL     1     120.624  72.572   1.236  1.00  0.00    -0.000 C 
BRANCH   7   8
ATOM      8  C   UNL     1     120.807  73.068   2.681  1.00  0.00    -0.003 C 
ATOM      9  C   UNL     1     120.938  71.930   3.693  1.00  0.00     0.004 C 
ENDBRANCH   7   8
ENDBRANCH   6   7
ENDBRANCH   1   6
TORSDOF 5
ENDMDL
MODEL 5
REMARK VINA RESULT:    -3.138      2.378      3.903
REMARK INTER + INTRA:          -4.316
REMARK INTER:                  -4.159
REMARK INTRA:                  -0.157
REMARK UNBOUND:                -0.260
REMARK SMILES CCCCCCC(=O)[O-]
REMARK SMILES IDX 5 1 6 2 7 3 8 4 9 5 4 6 3 7 2 8 1 9
REMARK H PARENT
REMARK Flexibility Score: inf
ROOT
ATOM      1  C   UNL     1     120.796  70.019  -0.046  1.00  0.00     0.006 C 
ENDROOT
BRANCH   1   2
ATOM      2  C   UNL     1     120.010  71.187   0.562  1.00  0.00     0.053 C 
BRANCH   2   3
ATOM      3  C   UNL     1     120.835  71.956   1.550  1.00  0.00     0.041 C 
ATOM      4  O   UNL     1     121.397  71.360   2.505  1.00  0.00    -0.550 OA
ATOM      5  O   UNL     1     120.951  73.336   1.435  1.00  0.00    -0.550 OA
ENDBRANCH   2   3
ENDBRANCH   1   2
BRANCH   1   6
ATOM      6  C   UNL     1     120.236  69.593  -1.414  1.00  0.00     0.000 C 
BRANCH   6   7
ATOM      7  C   UNL     1     120.041  68.070  -1.534  1.00  0.00    -0.000 C 
BRANCH   7   8
ATOM      8  C   UNL     1     120.810  67.238  -0.492  1.00  0.00    -0.003 C 
ATOM      9  C   UNL     1     120.159  65.885  -0.209  1.00  0.00     0.004 C 
ENDBRANCH   7   8
ENDBRANCH   6   7
ENDBRANCH   1   6
TORSDOF 5
ENDMDL
MODEL 6
REMARK VINA RESULT:    -3.120      2.882      4.063
REMARK INTER + INTRA:          -4.292
REMARK INTER:                  -4.204
REMARK INTRA:                  -0.088
REMARK UNBOUND:                -0.260
REMARK SMILES CCCCCCC(=O)[O-]
REMARK SMILES IDX 5 1 6 2 7 3 8 4 9 5 4 6 3 7 2 8 1 9
REMARK H PARENT
REMARK Flexibility Score: inf
ROOT
ATOM      1  C   UNL     1     120.135  71.755   6.443  1.00  0.00     0.006 C 
ENDROOT
BRANCH   1   2
ATOM      2  C   UNL     1     121.033  71.494   7.659  1.00  0.00     0.053 C 
BRANCH   2   3
ATOM      3  C   UNL     1     120.717  72.422   8.792  1.00  0.00     0.041 C 
ATOM      4  O   UNL     1     120.825  73.667   8.640  1.00  0.00    -0.550 OA
ATOM      5  O   UNL     1     120.339  71.910  10.027  1.00  0.00    -0.550 OA
ENDBRANCH   2   3
ENDBRANCH   1   2
BRANCH   1   6
ATOM      6  C   UNL     1     120.674  71.084   5.168  1.00  0.00     0.000 C 
BRANCH   6   7
ATOM      7  C   UNL     1     120.182  71.765   3.878  1.00  0.00    -0.000 C 
BRANCH   7   8
ATOM      8  C   UNL     1     121.300  72.296   2.963  1.00  0.00    -0.003 C 
ATOM      9  C   UNL     1     120.810  73.343   1.964  1.00  0.00     0.004 C 
ENDBRANCH   7   8
ENDBRANCH   6   7
ENDBRANCH   1   6
TORSDOF 5
ENDMDL
MODEL 7
REMARK VINA RESULT:    -3.063      2.863      4.702
REMARK INTER + INTRA:          -4.219
REMARK INTER:                  -4.011
REMARK INTRA:                  -0.208
REMARK UNBOUND:                -0.260
REMARK SMILES CCCCCCC(=O)[O-]
REMARK SMILES IDX 5 1 6 2 7 3 8 4 9 5 4 6 3 7 2 8 1 9
REMARK H PARENT
REMARK Flexibility Score: inf
ROOT
ATOM      1  C   UNL     1     121.009  71.316   0.931  1.00  0.00     0.006 C 
ENDROOT
BRANCH   1   2
ATOM      2  C   UNL     1     119.919  70.537   0.185  1.00  0.00     0.053 C 
BRANCH   2   3
ATOM      3  C   UNL     1     120.478  69.339  -0.520  1.00  0.00     0.041 C 
ATOM      4  O   UNL     1     121.138  68.478   0.118  1.00  0.00    -0.550 OA
ATOM      5  O   UNL     1     120.300  69.192  -1.891  1.00  0.00    -0.550 OA
ENDBRANCH   2   3
ENDBRANCH   1   2
BRANCH   1   6
ATOM      6  C   UNL     1     120.547  72.731   1.322  1.00  0.00     0.000 C 
BRANCH   6   7
ATOM      7  C   UNL     1     120.447  72.929   2.845  1.00  0.00    -0.000 C 
BRANCH   7   8
ATOM      8  C   UNL     1     121.176  71.864   3.683  1.00  0.00    -0.003 C 
ATOM      9  C   UNL     1     120.268  71.181   4.705  1.00  0.00     0.004 C 
ENDBRANCH   7   8
ENDBRANCH   6   7
ENDBRANCH   1   6
TORSDOF 5
ENDMDL
MODEL 8
REMARK VINA RESULT:    -2.739      2.617      5.419
REMARK INTER + INTRA:          -3.799
REMARK INTER:                  -3.712
REMARK INTRA:                  -0.088
REMARK UNBOUND:                -0.260
REMARK SMILES CCCCCCC(=O)[O-]
REMARK SMILES IDX 5 1 6 2 7 3 8 4 9 5 4 6 3 7 2 8 1 9
REMARK H PARENT
REMARK Flexibility Score: inf
ROOT
ATOM      1  C   UNL     1     120.172  72.305   4.135  1.00  0.00     0.006 C 
ENDROOT
BRANCH   1   2
ATOM      2  C   UNL     1     121.391  72.052   3.239  1.00  0.00     0.053 C 
BRANCH   2   3
ATOM      3  C   UNL     1     121.009  71.969   1.793  1.00  0.00     0.041 C 
ATOM      4  O   UNL     1     120.594  72.992   1.187  1.00  0.00    -0.550 OA
ATOM      5  O   UNL     1     121.075  70.753   1.123  1.00  0.00    -0.550 OA
ENDBRANCH   2   3
ENDBRANCH   1   2
BRANCH   1   6
ATOM      6  C   UNL     1     120.120  71.339   5.331  1.00  0.00     0.000 C 
BRANCH   6   7
ATOM      7  C   UNL     1     119.974  72.064   6.682  1.00  0.00    -0.000 C 
BRANCH   7   8
ATOM      8  C   UNL     1     121.036  71.692   7.731  1.00  0.00    -0.003 C 
ATOM      9  C   UNL     1     120.656  72.124   9.147  1.00  0.00     0.004 C 
ENDBRANCH   7   8
ENDBRANCH   6   7
ENDBRANCH   1   6
TORSDOF 5
ENDMDL
MODEL 9
REMARK VINA RESULT:    -2.646      3.175      6.168
REMARK INTER + INTRA:          -3.679
REMARK INTER:                  -3.529
REMARK INTRA:                  -0.150
REMARK UNBOUND:                -0.260
REMARK SMILES CCCCCCC(=O)[O-]
REMARK SMILES IDX 5 1 6 2 7 3 8 4 9 5 4 6 3 7 2 8 1 9
REMARK H PARENT
REMARK Flexibility Score: inf
ROOT
ATOM      1  C   UNL     1     120.060  71.793   6.468  1.00  0.00     0.006 C 
ENDROOT
BRANCH   1   2
ATOM      2  C   UNL     1     119.887  72.074   4.971  1.00  0.00     0.053 C 
BRANCH   2   3
ATOM      3  C   UNL     1     120.820  71.247   4.139  1.00  0.00     0.041 C 
ATOM      4  O   UNL     1     121.896  70.817   4.633  1.00  0.00    -0.550 OA
ATOM      5  O   UNL     1     120.519  70.983   2.809  1.00  0.00    -0.550 OA
ENDBRANCH   2   3
ENDBRANCH   1   2
BRANCH   1   6
ATOM      6  C   UNL     1     119.972  73.075   7.314  1.00  0.00     0.000 C 
BRANCH   6   7
ATOM      7  C   UNL     1     120.334  72.845   8.792  1.00  0.00    -0.000 C 
BRANCH   7   8
ATOM      8  C   UNL     1     120.200  71.388   9.269  1.00  0.00    -0.003 C 
ATOM      9  C   UNL     1     120.023  71.267  10.782  1.00  0.00     0.004 C 
ENDBRANCH   7   8
ENDBRANCH   6   7
ENDBRANCH   1   6
TORSDOF 5
ENDMDL
