MODEL 1
REMARK VINA RESULT:    17.293      0.000      0.000
REMARK INTER + INTRA:          20.062
REMARK INTER:                  20.326
REMARK INTRA:                  -0.263
REMARK UNBOUND:                -0.263
REMARK SMILES O=c1cc(-c2ccc(O)c(O)c2)oc2cc(O)cc(O)c12
REMARK SMILES IDX 4 1 3 2 2 3 1 4 21 5 19 6 18 7 16 8 15 9 14 10 13 11 5 12
REMARK SMILES IDX 6 13 7 14 8 15 12 16 10 17 9 18 11 20 20 22 17 24
REMARK H PARENT 9 19 11 21 20 23 17 25
REMARK Flexibility Score: inf
ROOT
ATOM      1  C   UNL     1      18.375  11.512 -12.672  1.00  0.00     0.138 A 
ATOM      2  C   UNL     1      18.730  10.226 -13.110  1.00  0.00     0.100 A 
ATOM      3  C   UNL     1      19.718  10.081 -14.086  1.00  0.00     0.197 A 
ATOM      4  O   UNL     1      20.031   8.923 -14.472  1.00  0.00    -0.289 OA
ATOM      5  C   UNL     1      20.346  11.226 -14.615  1.00  0.00     0.107 A 
ATOM      6  C   UNL     1      21.354  11.168 -15.607  1.00  0.00     0.134 A 
ATOM      7  C   UNL     1      21.934  12.355 -16.078  1.00  0.00     0.093 A 
ATOM      8  C   UNL     1      21.527  13.595 -15.578  1.00  0.00     0.123 A 
ATOM      9  C   UNL     1      20.532  13.658 -14.598  1.00  0.00     0.094 A 
ATOM     10  C   UNL     1      19.939  12.487 -14.116  1.00  0.00     0.146 A 
ATOM     11  O   UNL     1      18.994  12.573 -13.186  1.00  0.00    -0.456 OA
ENDROOT
BRANCH   1  12
ATOM     12  C   UNL     1      17.333  11.727 -11.636  1.00  0.00     0.021 A 
ATOM     13  C   UNL     1      16.153  12.441 -11.911  1.00  0.00     0.016 A 
ATOM     14  C   UNL     1      15.193  12.637 -10.913  1.00  0.00     0.051 A 
ATOM     15  C   UNL     1      15.398  12.131  -9.626  1.00  0.00     0.157 A 
ATOM     16  C   UNL     1      17.538  11.233 -10.335  1.00  0.00     0.062 A 
ATOM     17  C   UNL     1      16.577  11.427  -9.333  1.00  0.00     0.158 A 
BRANCH  15  18
ATOM     18  O   UNL     1      14.421  12.342  -8.653  1.00  0.00    -0.504 OA
ATOM     19  H   UNL     1      13.988  11.576  -8.150  1.00  0.00     0.293 HD
ENDBRANCH  15  18
BRANCH  17  20
ATOM     20  O   UNL     1      16.788  10.925  -8.051  1.00  0.00    -0.504 OA
ATOM     21  H   UNL     1      16.187  10.212  -7.654  1.00  0.00     0.293 HD
ENDBRANCH  17  20
ENDBRANCH   1  12
BRANCH   6  22
ATOM     22  O   UNL     1      21.781   9.945 -16.125  1.00  0.00    -0.507 OA
ATOM     23  H   UNL     1      21.207   9.112 -16.063  1.00  0.00     0.293 HD
ENDBRANCH   6  22
BRANCH   8  24
ATOM     24  O   UNL     1      22.120  14.759 -16.063  1.00  0.00    -0.508 OA
ATOM     25  H   UNL     1      23.116  14.919 -15.980  1.00  0.00     0.293 HD
ENDBRANCH   8  24
TORSDOF 5
ENDMDL
MODEL 2
REMARK VINA RESULT:    18.483      1.147      2.678
REMARK INTER + INTRA:          21.461
REMARK INTER:                  21.734
REMARK INTRA:                  -0.274
REMARK UNBOUND:                -0.263
REMARK SMILES O=c1cc(-c2ccc(O)c(O)c2)oc2cc(O)cc(O)c12
REMARK SMILES IDX 4 1 3 2 2 3 1 4 21 5 19 6 18 7 16 8 15 9 14 10 13 11 5 12
REMARK SMILES IDX 6 13 7 14 8 15 12 16 10 17 9 18 11 20 20 22 17 24
REMARK H PARENT 9 19 11 21 20 23 17 25
REMARK Flexibility Score: inf
ROOT
ATOM      1  C   UNL     1      18.444  11.946 -12.662  1.00  0.00     0.138 A 
ATOM      2  C   UNL     1      19.110  13.102 -13.102  1.00  0.00     0.100 A 
ATOM      3  C   UNL     1      20.095  12.995 -14.084  1.00  0.00     0.197 A 
ATOM      4  O   UNL     1      20.686  14.038 -14.473  1.00  0.00    -0.289 OA
ATOM      5  C   UNL     1      20.406  11.731 -14.623  1.00  0.00     0.107 A 
ATOM      6  C   UNL     1      21.391  11.534 -15.620  1.00  0.00     0.134 A 
ATOM      7  C   UNL     1      21.638  10.243 -16.108  1.00  0.00     0.093 A 
ATOM      8  C   UNL     1      20.920   9.148 -15.621  1.00  0.00     0.123 A 
ATOM      9  C   UNL     1      19.945   9.336 -14.637  1.00  0.00     0.094 A 
ATOM     10  C   UNL     1      19.685  10.615 -14.135  1.00  0.00     0.146 A 
ATOM     11  O   UNL     1      18.755  10.768 -13.198  1.00  0.00    -0.456 OA
ENDROOT
BRANCH   1  12
ATOM     12  C   UNL     1      17.386  12.000 -11.621  1.00  0.00     0.021 A 
ATOM     13  C   UNL     1      16.178  12.690 -11.830  1.00  0.00     0.016 A 
ATOM     14  C   UNL     1      15.203  12.733 -10.828  1.00  0.00     0.051 A 
ATOM     15  C   UNL     1      15.420  12.096  -9.603  1.00  0.00     0.157 A 
ATOM     16  C   UNL     1      17.603  11.373 -10.381  1.00  0.00     0.062 A 
ATOM     17  C   UNL     1      16.626  11.413  -9.376  1.00  0.00     0.158 A 
BRANCH  15  18
ATOM     18  O   UNL     1      14.428  12.155  -8.624  1.00  0.00    -0.504 OA
ATOM     19  H   UNL     1      13.466  11.903  -8.817  1.00  0.00     0.293 HD
ENDBRANCH  15  18
BRANCH  17  20
ATOM     20  O   UNL     1      16.849  10.780  -8.155  1.00  0.00    -0.504 OA
ATOM     21  H   UNL     1      16.120  10.251  -7.689  1.00  0.00     0.293 HD
ENDBRANCH  17  20
ENDBRANCH   1  12
BRANCH   6  22
ATOM     22  O   UNL     1      22.124  12.609 -16.125  1.00  0.00    -0.507 OA
ATOM     23  H   UNL     1      21.715  13.530 -16.230  1.00  0.00     0.293 HD
ENDBRANCH   6  22
BRANCH   8  24
ATOM     24  O   UNL     1      21.183   7.875 -16.125  1.00  0.00    -0.508 OA
ATOM     25  H   UNL     1      21.369   7.091 -15.511  1.00  0.00     0.293 HD
ENDBRANCH   8  24
TORSDOF 5
ENDMDL
