MODEL 1
REMARK VINA RESULT:    -4.305      0.000      0.000
REMARK INTER + INTRA:          -6.864
REMARK INTER:                  -5.940
REMARK INTRA:                  -0.924
REMARK UNBOUND:                -0.924
REMARK SMILES CCCCc1cccc(O)c1CCCC
REMARK SMILES IDX 5 1 11 2 9 3 8 4 7 5 6 6 4 7 3 8 2 9 1 10 12 11 13 12 14 13
REMARK SMILES IDX 15 14 10 15
REMARK H PARENT 10 16
REMARK Flexibility Score: inf
ROOT
ATOM      1  C   UNL     1      27.475  28.856  73.837  1.00  0.00    -0.041 A 
ATOM      2  C   UNL     1      26.804  30.004  73.315  1.00  0.00    -0.003 A 
ATOM      3  C   UNL     1      25.438  30.210  73.656  1.00  0.00     0.119 A 
ATOM      4  C   UNL     1      24.782  29.310  74.501  1.00  0.00     0.046 A 
ATOM      5  C   UNL     1      25.447  28.202  75.012  1.00  0.00     0.004 A 
ATOM      6  C   UNL     1      26.778  27.974  74.681  1.00  0.00     0.004 A 
ENDROOT
BRANCH   1   7
ATOM      7  C   UNL     1      28.907  28.498  73.484  1.00  0.00     0.036 C 
BRANCH   7   8
ATOM      8  C   UNL     1      29.714  28.049  74.713  1.00  0.00     0.004 C 
BRANCH   8   9
ATOM      9  C   UNL     1      30.976  28.895  74.925  1.00  0.00    -0.003 C 
ATOM     10  C   UNL     1      31.789  28.384  76.110  1.00  0.00     0.004 C 
ENDBRANCH   8   9
ENDBRANCH   7   8
ENDBRANCH   1   7
BRANCH   2  11
ATOM     11  C   UNL     1      27.526  31.023  72.443  1.00  0.00     0.040 C 
BRANCH  11  12
ATOM     12  C   UNL     1      28.077  32.205  73.259  1.00  0.00     0.005 C 
BRANCH  12  13
ATOM     13  C   UNL     1      29.374  32.772  72.667  1.00  0.00    -0.003 C 
ATOM     14  C   UNL     1      30.489  31.730  72.686  1.00  0.00     0.004 C 
ENDBRANCH  12  13
ENDBRANCH  11  12
ENDBRANCH   2  11
BRANCH   3  15
ATOM     15  O   UNL     1      24.692  31.290  73.175  1.00  0.00    -0.508 OA
ATOM     16  H   UNL     1      23.940  31.734  73.686  1.00  0.00     0.293 HD
ENDBRANCH   3  15
TORSDOF 7
ENDMDL
MODEL 2
REMARK VINA RESULT:    -4.220      1.462      4.202
REMARK INTER + INTRA:          -6.748
REMARK INTER:                  -6.056
REMARK INTRA:                  -0.692
REMARK UNBOUND:                -0.924
REMARK SMILES CCCCc1cccc(O)c1CCCC
REMARK SMILES IDX 5 1 11 2 9 3 8 4 7 5 6 6 4 7 3 8 2 9 1 10 12 11 13 12 14 13
REMARK SMILES IDX 15 14 10 15
REMARK H PARENT 10 16
REMARK Flexibility Score: inf
ROOT
ATOM      1  C   UNL     1      30.077  29.027  74.306  1.00  0.00    -0.041 A 
ATOM      2  C   UNL     1      28.810  28.991  73.646  1.00  0.00    -0.003 A 
ATOM      3  C   UNL     1      28.511  30.002  72.689  1.00  0.00     0.119 A 
ATOM      4  C   UNL     1      29.451  30.992  72.396  1.00  0.00     0.046 A 
ATOM      5  C   UNL     1      30.685  31.011  73.035  1.00  0.00     0.004 A 
ATOM      6  C   UNL     1      30.994  30.043  73.983  1.00  0.00     0.004 A 
ENDROOT
BRANCH   1   7
ATOM      7  C   UNL     1      30.476  28.046  75.392  1.00  0.00     0.036 C 
BRANCH   7   8
ATOM      8  C   UNL     1      31.489  28.651  76.378  1.00  0.00     0.004 C 
BRANCH   8   9
ATOM      9  C   UNL     1      31.202  28.249  77.831  1.00  0.00    -0.003 C 
ATOM     10  C   UNL     1      31.911  29.178  78.810  1.00  0.00     0.004 C 
ENDBRANCH   8   9
ENDBRANCH   7   8
ENDBRANCH   1   7
BRANCH   2  11
ATOM     11  C   UNL     1      27.802  27.882  73.914  1.00  0.00     0.040 C 
BRANCH  11  12
ATOM     12  C   UNL     1      26.766  28.278  74.981  1.00  0.00     0.005 C 
BRANCH  12  13
ATOM     13  C   UNL     1      25.335  28.301  74.429  1.00  0.00    -0.003 C 
ATOM     14  C   UNL     1      24.728  29.698  74.533  1.00  0.00     0.004 C 
ENDBRANCH  12  13
ENDBRANCH  11  12
ENDBRANCH   2  11
BRANCH   3  15
ATOM     15  O   UNL     1      27.290  30.064  72.011  1.00  0.00    -0.508 OA
ATOM     16  H   UNL     1      26.966  30.870  71.494  1.00  0.00     0.293 HD
ENDBRANCH   3  15
TORSDOF 7
ENDMDL
MODEL 3
REMARK VINA RESULT:    -4.049      1.943      5.128
REMARK INTER + INTRA:          -6.512
REMARK INTER:                  -5.770
REMARK INTRA:                  -0.741
REMARK UNBOUND:                -0.924
REMARK SMILES CCCCc1cccc(O)c1CCCC
REMARK SMILES IDX 5 1 11 2 9 3 8 4 7 5 6 6 4 7 3 8 2 9 1 10 12 11 13 12 14 13
REMARK SMILES IDX 15 14 10 15
REMARK H PARENT 10 16
REMARK Flexibility Score: inf
ROOT
ATOM      1  C   UNL     1      27.454  30.133  73.437  1.00  0.00    -0.041 A 
ATOM      2  C   UNL     1      28.830  29.834  73.192  1.00  0.00    -0.003 A 
ATOM      3  C   UNL     1      29.663  30.852  72.647  1.00  0.00     0.119 A 
ATOM      4  C   UNL     1      29.139  32.119  72.379  1.00  0.00     0.046 A 
ATOM      5  C   UNL     1      27.802  32.403  72.631  1.00  0.00     0.004 A 
ATOM      6  C   UNL     1      26.967  31.420  73.151  1.00  0.00     0.004 A 
ENDROOT
BRANCH   1   7
ATOM      7  C   UNL     1      26.460  29.108  73.949  1.00  0.00     0.036 C 
BRANCH   7   8
ATOM      8  C   UNL     1      25.159  29.102  73.129  1.00  0.00     0.004 C 
BRANCH   8   9
ATOM      9  C   UNL     1      23.924  29.397  73.990  1.00  0.00    -0.003 C 
ATOM     10  C   UNL     1      23.276  30.718  73.588  1.00  0.00     0.004 C 
ENDBRANCH   8   9
ENDBRANCH   7   8
ENDBRANCH   1   7
BRANCH   2  11
ATOM     11  C   UNL     1      29.426  28.476  73.537  1.00  0.00     0.040 C 
BRANCH  11  12
ATOM     12  C   UNL     1      29.851  28.382  75.013  1.00  0.00     0.005 C 
BRANCH  12  13
ATOM     13  C   UNL     1      31.348  28.653  75.211  1.00  0.00    -0.003 C 
ATOM     14  C   UNL     1      31.752  28.472  76.672  1.00  0.00     0.004 C 
ENDBRANCH  12  13
ENDBRANCH  11  12
ENDBRANCH   2  11
BRANCH   3  15
ATOM     15  O   UNL     1      31.014  30.647  72.351  1.00  0.00    -0.508 OA
ATOM     16  H   UNL     1      31.712  31.378  72.342  1.00  0.00     0.293 HD
ENDBRANCH   3  15
TORSDOF 7
ENDMDL
MODEL 4
REMARK VINA RESULT:    -3.917     15.023     16.341
REMARK INTER + INTRA:          -6.329
REMARK INTER:                  -5.066
REMARK INTRA:                  -1.263
REMARK UNBOUND:                -0.924
REMARK SMILES CCCCc1cccc(O)c1CCCC
REMARK SMILES IDX 5 1 11 2 9 3 8 4 7 5 6 6 4 7 3 8 2 9 1 10 12 11 13 12 14 13
REMARK SMILES IDX 15 14 10 15
REMARK H PARENT 10 16
REMARK Flexibility Score: inf
ROOT
ATOM      1  C   UNL     1      21.814  33.757  88.261  1.00  0.00    -0.041 A 
ATOM      2  C   UNL     1      23.114  34.076  88.763  1.00  0.00    -0.003 A 
ATOM      3  C   UNL     1      23.821  33.086  89.503  1.00  0.00     0.119 A 
ATOM      4  C   UNL     1      23.252  31.827  89.712  1.00  0.00     0.046 A 
ATOM      5  C   UNL     1      21.992  31.524  89.210  1.00  0.00     0.004 A 
ATOM      6  C   UNL     1      21.278  32.479  88.495  1.00  0.00     0.004 A 
ENDROOT
BRANCH   1   7
ATOM      7  C   UNL     1      20.943  34.755  87.521  1.00  0.00     0.036 C 
BRANCH   7   8
ATOM      8  C   UNL     1      20.891  34.473  86.011  1.00  0.00     0.004 C 
BRANCH   8   9
ATOM      9  C   UNL     1      21.757  35.450  85.204  1.00  0.00    -0.003 C 
ATOM     10  C   UNL     1      23.174  34.913  85.028  1.00  0.00     0.004 C 
ENDBRANCH   8   9
ENDBRANCH   7   8
ENDBRANCH   1   7
BRANCH   2  11
ATOM     11  C   UNL     1      23.767  35.423  88.489  1.00  0.00     0.040 C 
BRANCH  11  12
ATOM     12  C   UNL     1      23.390  36.480  89.542  1.00  0.00     0.005 C 
BRANCH  12  13
ATOM     13  C   UNL     1      22.757  37.730  88.918  1.00  0.00    -0.003 C 
ATOM     14  C   UNL     1      23.280  37.964  87.503  1.00  0.00     0.004 C 
ENDBRANCH  12  13
ENDBRANCH  11  12
ENDBRANCH   2  11
BRANCH   3  15
ATOM     15  O   UNL     1      25.085  33.312  90.053  1.00  0.00    -0.508 OA
ATOM     16  H   UNL     1      25.616  34.164  89.929  1.00  0.00     0.293 HD
ENDBRANCH   3  15
TORSDOF 7
ENDMDL
MODEL 5
REMARK VINA RESULT:    -3.888     15.140     16.343
REMARK INTER + INTRA:          -6.289
REMARK INTER:                  -5.066
REMARK INTRA:                  -1.223
REMARK UNBOUND:                -0.924
REMARK SMILES CCCCc1cccc(O)c1CCCC
REMARK SMILES IDX 5 1 11 2 9 3 8 4 7 5 6 6 4 7 3 8 2 9 1 10 12 11 13 12 14 13
REMARK SMILES IDX 15 14 10 15
REMARK H PARENT 10 16
REMARK Flexibility Score: inf
ROOT
ATOM      1  C   UNL     1      23.364  35.071  87.512  1.00  0.00    -0.041 A 
ATOM      2  C   UNL     1      23.416  36.017  88.582  1.00  0.00    -0.003 A 
ATOM      3  C   UNL     1      22.939  35.624  89.864  1.00  0.00     0.119 A 
ATOM      4  C   UNL     1      22.450  34.331  90.065  1.00  0.00     0.046 A 
ATOM      5  C   UNL     1      22.414  33.415  89.021  1.00  0.00     0.004 A 
ATOM      6  C   UNL     1      22.862  33.781  87.756  1.00  0.00     0.004 A 
ENDROOT
BRANCH   1   7
ATOM      7  C   UNL     1      23.777  35.401  86.090  1.00  0.00     0.036 C 
BRANCH   7   8
ATOM      8  C   UNL     1      22.867  34.729  85.050  1.00  0.00     0.004 C 
BRANCH   8   9
ATOM      9  C   UNL     1      21.594  35.541  84.776  1.00  0.00    -0.003 C 
ATOM     10  C   UNL     1      20.344  34.746  85.141  1.00  0.00     0.004 C 
ENDBRANCH   8   9
ENDBRANCH   7   8
ENDBRANCH   1   7
BRANCH   2  11
ATOM     11  C   UNL     1      24.003  37.409  88.388  1.00  0.00     0.040 C 
BRANCH  11  12
ATOM     12  C   UNL     1      22.924  38.506  88.400  1.00  0.00     0.005 C 
BRANCH  12  13
ATOM     13  C   UNL     1      21.879  38.313  87.294  1.00  0.00    -0.003 C 
ATOM     14  C   UNL     1      22.337  38.956  85.987  1.00  0.00     0.004 C 
ENDBRANCH  12  13
ENDBRANCH  11  12
ENDBRANCH   2  11
BRANCH   3  15
ATOM     15  O   UNL     1      22.928  36.486  90.964  1.00  0.00    -0.508 OA
ATOM     16  H   UNL     1      22.488  37.397  90.968  1.00  0.00     0.293 HD
ENDBRANCH   3  15
TORSDOF 7
ENDMDL
MODEL 6
REMARK VINA RESULT:    -3.884     14.796     16.432
REMARK INTER + INTRA:          -6.284
REMARK INTER:                  -5.030
REMARK INTRA:                  -1.254
REMARK UNBOUND:                -0.924
REMARK SMILES CCCCc1cccc(O)c1CCCC
REMARK SMILES IDX 5 1 11 2 9 3 8 4 7 5 6 6 4 7 3 8 2 9 1 10 12 11 13 12 14 13
REMARK SMILES IDX 15 14 10 15
REMARK H PARENT 10 16
REMARK Flexibility Score: inf
ROOT
ATOM      1  C   UNL     1      23.439  35.416  87.368  1.00  0.00    -0.041 A 
ATOM      2  C   UNL     1      23.110  34.610  88.501  1.00  0.00    -0.003 A 
ATOM      3  C   UNL     1      23.180  35.195  89.797  1.00  0.00     0.119 A 
ATOM      4  C   UNL     1      23.546  36.535  89.944  1.00  0.00     0.046 A 
ATOM      5  C   UNL     1      23.854  37.313  88.835  1.00  0.00     0.004 A 
ATOM      6  C   UNL     1      23.806  36.759  87.560  1.00  0.00     0.004 A 
ENDROOT
BRANCH   1   7
ATOM      7  C   UNL     1      23.469  34.881  85.949  1.00  0.00     0.036 C 
BRANCH   7   8
ATOM      8  C   UNL     1      22.417  35.555  85.052  1.00  0.00     0.004 C 
BRANCH   8   9
ATOM      9  C   UNL     1      21.686  34.550  84.152  1.00  0.00    -0.003 C 
ATOM     10  C   UNL     1      20.235  34.964  83.928  1.00  0.00     0.004 C 
ENDBRANCH   8   9
ENDBRANCH   7   8
ENDBRANCH   1   7
BRANCH   2  11
ATOM     11  C   UNL     1      22.651  33.166  88.348  1.00  0.00     0.040 C 
BRANCH  11  12
ATOM     12  C   UNL     1      21.140  33.003  88.592  1.00  0.00     0.005 C 
BRANCH  12  13
ATOM     13  C   UNL     1      20.300  33.471  87.397  1.00  0.00    -0.003 C 
ATOM     14  C   UNL     1      19.625  34.809  87.688  1.00  0.00     0.004 C 
ENDBRANCH  12  13
ENDBRANCH  11  12
ENDBRANCH   2  11
BRANCH   3  15
ATOM     15  O   UNL     1      22.899  34.480  90.966  1.00  0.00    -0.508 OA
ATOM     16  H   UNL     1      22.765  33.478  91.001  1.00  0.00     0.293 HD
ENDBRANCH   3  15
TORSDOF 7
ENDMDL
MODEL 7
REMARK VINA RESULT:    -3.856     14.464     16.073
REMARK INTER + INTRA:          -6.245
REMARK INTER:                  -4.896
REMARK INTRA:                  -1.349
REMARK UNBOUND:                -0.924
REMARK SMILES CCCCc1cccc(O)c1CCCC
REMARK SMILES IDX 5 1 11 2 9 3 8 4 7 5 6 6 4 7 3 8 2 9 1 10 12 11 13 12 14 13
REMARK SMILES IDX 15 14 10 15
REMARK H PARENT 10 16
REMARK Flexibility Score: inf
ROOT
ATOM      1  C   UNL     1      22.941  37.623  86.504  1.00  0.00    -0.041 A 
ATOM      2  C   UNL     1      23.337  36.280  86.793  1.00  0.00    -0.003 A 
ATOM      3  C   UNL     1      23.687  35.946  88.132  1.00  0.00     0.119 A 
ATOM      4  C   UNL     1      23.623  36.914  89.137  1.00  0.00     0.046 A 
ATOM      5  C   UNL     1      23.225  38.214  88.847  1.00  0.00     0.004 A 
ATOM      6  C   UNL     1      22.892  38.567  87.544  1.00  0.00     0.004 A 
ENDROOT
BRANCH   1   7
ATOM      7  C   UNL     1      22.615  38.110  85.105  1.00  0.00     0.036 C 
BRANCH   7   8
ATOM      8  C   UNL     1      21.300  38.904  85.057  1.00  0.00     0.004 C 
BRANCH   8   9
ATOM      9  C   UNL     1      20.100  38.025  84.681  1.00  0.00    -0.003 C 
ATOM     10  C   UNL     1      19.347  37.558  85.924  1.00  0.00     0.004 C 
ENDBRANCH   8   9
ENDBRANCH   7   8
ENDBRANCH   1   7
BRANCH   2  11
ATOM     11  C   UNL     1      23.352  35.203  85.717  1.00  0.00     0.040 C 
BRANCH  11  12
ATOM     12  C   UNL     1      21.955  34.612  85.461  1.00  0.00     0.005 C 
BRANCH  12  13
ATOM     13  C   UNL     1      21.579  34.618  83.974  1.00  0.00    -0.003 C 
ATOM     14  C   UNL     1      20.070  34.478  83.787  1.00  0.00     0.004 C 
ENDBRANCH  12  13
ENDBRANCH  11  12
ENDBRANCH   2  11
BRANCH   3  15
ATOM     15  O   UNL     1      24.109  34.667  88.506  1.00  0.00    -0.508 OA
ATOM     16  H   UNL     1      23.655  34.101  89.210  1.00  0.00     0.293 HD
ENDBRANCH   3  15
TORSDOF 7
ENDMDL
MODEL 8
REMARK VINA RESULT:    -3.813     14.809     16.401
REMARK INTER + INTRA:          -6.186
REMARK INTER:                  -5.153
REMARK INTRA:                  -1.033
REMARK UNBOUND:                -0.924
REMARK SMILES CCCCc1cccc(O)c1CCCC
REMARK SMILES IDX 5 1 11 2 9 3 8 4 7 5 6 6 4 7 3 8 2 9 1 10 12 11 13 12 14 13
REMARK SMILES IDX 15 14 10 15
REMARK H PARENT 10 16
REMARK Flexibility Score: inf
ROOT
ATOM      1  C   UNL     1      23.303  35.942  86.765  1.00  0.00    -0.041 A 
ATOM      2  C   UNL     1      23.339  35.577  88.146  1.00  0.00    -0.003 A 
ATOM      3  C   UNL     1      23.195  36.601  89.125  1.00  0.00     0.119 A 
ATOM      4  C   UNL     1      23.004  37.927  88.731  1.00  0.00     0.046 A 
ATOM      5  C   UNL     1      22.959  38.269  87.385  1.00  0.00     0.004 A 
ATOM      6  C   UNL     1      23.111  37.289  86.411  1.00  0.00     0.004 A 
ENDROOT
BRANCH   1   7
ATOM      7  C   UNL     1      23.516  34.949  85.638  1.00  0.00     0.036 C 
BRANCH   7   8
ATOM      8  C   UNL     1      22.315  34.889  84.680  1.00  0.00     0.004 C 
BRANCH   8   9
ATOM      9  C   UNL     1      21.003  34.568  85.409  1.00  0.00    -0.003 C 
ATOM     10  C   UNL     1      19.951  35.642  85.147  1.00  0.00     0.004 C 
ENDBRANCH   8   9
ENDBRANCH   7   8
ENDBRANCH   1   7
BRANCH   2  11
ATOM     11  C   UNL     1      23.487  34.127  88.585  1.00  0.00     0.040 C 
BRANCH  11  12
ATOM     12  C   UNL     1      22.130  33.412  88.706  1.00  0.00     0.005 C 
BRANCH  12  13
ATOM     13  C   UNL     1      22.279  31.926  89.061  1.00  0.00    -0.003 C 
ATOM     14  C   UNL     1      23.707  31.606  89.497  1.00  0.00     0.004 C 
ENDBRANCH  12  13
ENDBRANCH  11  12
ENDBRANCH   2  11
BRANCH   3  15
ATOM     15  O   UNL     1      23.242  36.345  90.499  1.00  0.00    -0.508 OA
ATOM     16  H   UNL     1      23.837  36.839  91.150  1.00  0.00     0.293 HD
ENDBRANCH   3  15
TORSDOF 7
ENDMDL
