MODEL 1
REMARK VINA RESULT:    -3.074      0.000      0.000
REMARK INTER + INTRA:          -5.412
REMARK INTER:                  -4.422
REMARK INTRA:                  -0.991
REMARK UNBOUND:                -0.991
REMARK SMILES O=C(CO)[C@H](O)[C@H](O)[C@H](O)CO
REMARK SMILES IDX 7 1 9 2 11 3 12 4 10 6 5 8 2 9 1 10 3 11 4 12 6 14 8 16
REMARK H PARENT 12 5 10 7 4 13 6 15 8 17
REMARK Flexibility Score: inf
ROOT
ATOM      1  C   UNL     1       7.757  18.198  25.129  1.00  0.00     0.181 C 
ENDROOT
BRANCH   1   2
ATOM      2  C   UNL     1       6.929  19.464  24.757  1.00  0.00     0.171 C 
BRANCH   2   3
ATOM      3  C   UNL     1       6.998  19.786  23.252  1.00  0.00     0.190 C 
BRANCH   3   4
ATOM      4  O   UNL     1       6.889  18.623  22.474  1.00  0.00    -0.394 OA
ATOM      5  H   UNL     1       7.773  18.477  22.048  1.00  0.00     0.210 HD
ENDBRANCH   3   4
ENDBRANCH   2   3
BRANCH   2   6
ATOM      6  O   UNL     1       5.589  19.344  25.167  1.00  0.00    -0.388 OA
ATOM      7  H   UNL     1       5.533  19.640  26.112  1.00  0.00     0.211 HD
ENDBRANCH   2   6
ENDBRANCH   1   2
BRANCH   1   8
ATOM      8  C   UNL     1       8.235  18.186  26.610  1.00  0.00     0.214 C 
BRANCH   8   9
ATOM      9  C   UNL     1       7.767  16.962  27.379  1.00  0.00     0.189 C 
ATOM     10  O   UNL     1       8.596  16.161  27.784  1.00  0.00    -0.294 OA
BRANCH   9  11
ATOM     11  C   UNL     1       6.315  16.731  27.711  1.00  0.00     0.234 C 
BRANCH  11  12
ATOM     12  O   UNL     1       5.662  17.952  27.921  1.00  0.00    -0.388 OA
ATOM     13  H   UNL     1       5.397  18.290  27.025  1.00  0.00     0.211 HD
ENDBRANCH  11  12
ENDBRANCH   9  11
ENDBRANCH   8   9
BRANCH   8  14
ATOM     14  O   UNL     1       7.865  19.375  27.266  1.00  0.00    -0.382 OA
ATOM     15  H   UNL     1       6.883  19.359  27.408  1.00  0.00     0.211 HD
ENDBRANCH   8  14
ENDBRANCH   1   8
BRANCH   1  16
ATOM     16  O   UNL     1       8.841  18.025  24.248  1.00  0.00    -0.387 OA
ATOM     17  H   UNL     1       8.800  18.750  23.571  1.00  0.00     0.211 HD
ENDBRANCH   1  16
TORSDOF 10
ENDMDL
MODEL 2
REMARK VINA RESULT:    -2.960      8.609     10.403
REMARK INTER + INTRA:          -5.249
REMARK INTER:                  -4.341
REMARK INTRA:                  -0.908
REMARK UNBOUND:                -0.991
REMARK SMILES O=C(CO)[C@H](O)[C@H](O)[C@H](O)CO
REMARK SMILES IDX 7 1 9 2 11 3 12 4 10 6 5 8 2 9 1 10 3 11 4 12 6 14 8 16
REMARK H PARENT 12 5 10 7 4 13 6 15 8 17
REMARK Flexibility Score: inf
ROOT
ATOM      1  C   UNL     1      15.901  16.081  25.388  1.00  0.00     0.181 C 
ENDROOT
BRANCH   1   2
ATOM      2  C   UNL     1      16.260  15.775  26.872  1.00  0.00     0.171 C 
BRANCH   2   3
ATOM      3  C   UNL     1      15.274  14.784  27.521  1.00  0.00     0.190 C 
BRANCH   3   4
ATOM      4  O   UNL     1      14.858  15.230  28.785  1.00  0.00    -0.394 OA
ATOM      5  H   UNL     1      15.673  15.527  29.269  1.00  0.00     0.210 HD
ENDBRANCH   3   4
ENDBRANCH   2   3
BRANCH   2   6
ATOM      6  O   UNL     1      17.578  15.301  26.997  1.00  0.00    -0.388 OA
ATOM      7  H   UNL     1      18.047  15.476  26.141  1.00  0.00     0.211 HD
ENDBRANCH   2   6
ENDBRANCH   1   2
BRANCH   1   8
ATOM      8  C   UNL     1      15.727  14.803  24.517  1.00  0.00     0.214 C 
BRANCH   8   9
ATOM      9  C   UNL     1      16.932  14.509  23.641  1.00  0.00     0.189 C 
ATOM     10  O   UNL     1      18.035  14.416  24.159  1.00  0.00    -0.294 OA
BRANCH   9  11
ATOM     11  C   UNL     1      16.806  14.271  22.158  1.00  0.00     0.234 C 
BRANCH  11  12
ATOM     12  O   UNL     1      16.353  15.430  21.515  1.00  0.00    -0.388 OA
ATOM     13  H   UNL     1      17.113  16.069  21.514  1.00  0.00     0.211 HD
ENDBRANCH  11  12
ENDBRANCH   9  11
ENDBRANCH   8   9
BRANCH   8  14
ATOM     14  O   UNL     1      14.546  14.873  23.756  1.00  0.00    -0.382 OA
ATOM     15  H   UNL     1      14.037  15.675  24.042  1.00  0.00     0.211 HD
ENDBRANCH   8  14
ENDBRANCH   1   8
BRANCH   1  16
ATOM     16  O   UNL     1      16.837  16.961  24.812  1.00  0.00    -0.387 OA
ATOM     17  H   UNL     1      16.679  17.864  25.192  1.00  0.00     0.211 HD
ENDBRANCH   1  16
TORSDOF 10
ENDMDL
MODEL 3
REMARK VINA RESULT:    -2.888      1.603      4.761
REMARK INTER + INTRA:          -5.145
REMARK INTER:                  -4.047
REMARK INTRA:                  -1.098
REMARK UNBOUND:                -0.991
REMARK SMILES O=C(CO)[C@H](O)[C@H](O)[C@H](O)CO
REMARK SMILES IDX 7 1 9 2 11 3 12 4 10 6 5 8 2 9 1 10 3 11 4 12 6 14 8 16
REMARK H PARENT 12 5 10 7 4 13 6 15 8 17
REMARK Flexibility Score: inf
ROOT
ATOM      1  C   UNL     1       6.555  18.361  24.806  1.00  0.00     0.181 C 
ENDROOT
BRANCH   1   2
ATOM      2  C   UNL     1       8.087  18.351  25.087  1.00  0.00     0.171 C 
BRANCH   2   3
ATOM      3  C   UNL     1       8.408  18.104  26.574  1.00  0.00     0.190 C 
BRANCH   3   4
ATOM      4  O   UNL     1       8.298  19.286  27.324  1.00  0.00    -0.394 OA
ATOM      5  H   UNL     1       7.444  19.230  27.828  1.00  0.00     0.210 HD
ENDBRANCH   3   4
ENDBRANCH   2   3
BRANCH   2   6
ATOM      6  O   UNL     1       8.754  17.409  24.284  1.00  0.00    -0.388 OA
ATOM      7  H   UNL     1       9.584  17.832  23.945  1.00  0.00     0.211 HD
ENDBRANCH   2   6
ENDBRANCH   1   2
BRANCH   1   8
ATOM      8  C   UNL     1       6.176  19.072  23.475  1.00  0.00     0.214 C 
BRANCH   8   9
ATOM      9  C   UNL     1       5.562  18.135  22.450  1.00  0.00     0.189 C 
ATOM     10  O   UNL     1       4.405  17.769  22.596  1.00  0.00    -0.294 OA
BRANCH   9  11
ATOM     11  C   UNL     1       6.314  17.684  21.225  1.00  0.00     0.234 C 
BRANCH  11  12
ATOM     12  O   UNL     1       7.554  17.142  21.586  1.00  0.00    -0.388 OA
ATOM     13  H   UNL     1       7.563  16.206  21.252  1.00  0.00     0.211 HD
ENDBRANCH  11  12
ENDBRANCH   9  11
ENDBRANCH   8   9
BRANCH   8  14
ATOM     14  O   UNL     1       7.282  19.760  22.942  1.00  0.00    -0.382 OA
ATOM     15  H   UNL     1       7.158  19.835  21.960  1.00  0.00     0.211 HD
ENDBRANCH   8  14
ENDBRANCH   1   8
BRANCH   1  16
ATOM     16  O   UNL     1       5.845  18.910  25.891  1.00  0.00    -0.387 OA
ATOM     17  H   UNL     1       6.429  19.584  26.326  1.00  0.00     0.211 HD
ENDBRANCH   1  16
TORSDOF 10
ENDMDL
MODEL 4
REMARK VINA RESULT:    -2.873      1.336      1.922
REMARK INTER + INTRA:          -5.123
REMARK INTER:                  -3.875
REMARK INTRA:                  -1.248
REMARK UNBOUND:                -0.991
REMARK SMILES O=C(CO)[C@H](O)[C@H](O)[C@H](O)CO
REMARK SMILES IDX 7 1 9 2 11 3 12 4 10 6 5 8 2 9 1 10 3 11 4 12 6 14 8 16
REMARK H PARENT 12 5 10 7 4 13 6 15 8 17
REMARK Flexibility Score: inf
ROOT
ATOM      1  C   UNL     1       6.185  18.875  25.504  1.00  0.00     0.181 C 
ENDROOT
BRANCH   1   2
ATOM      2  C   UNL     1       5.863  19.863  24.345  1.00  0.00     0.171 C 
BRANCH   2   3
ATOM      3  C   UNL     1       6.955  19.867  23.258  1.00  0.00     0.190 C 
BRANCH   3   4
ATOM      4  O   UNL     1       7.066  18.611  22.640  1.00  0.00    -0.394 OA
ATOM      5  H   UNL     1       6.158  18.209  22.638  1.00  0.00     0.210 HD
ENDBRANCH   3   4
ENDBRANCH   2   3
BRANCH   2   6
ATOM      6  O   UNL     1       4.607  19.596  23.771  1.00  0.00    -0.388 OA
ATOM      7  H   UNL     1       4.687  19.726  22.791  1.00  0.00     0.211 HD
ENDBRANCH   2   6
ENDBRANCH   1   2
BRANCH   1   8
ATOM      8  C   UNL     1       7.653  18.975  26.012  1.00  0.00     0.214 C 
BRANCH   8   9
ATOM      9  C   UNL     1       8.424  17.674  25.872  1.00  0.00     0.189 C 
ATOM     10  O   UNL     1       8.887  17.371  24.782  1.00  0.00    -0.294 OA
BRANCH   9  11
ATOM     11  C   UNL     1       8.689  16.768  27.047  1.00  0.00     0.234 C 
BRANCH  11  12
ATOM     12  O   UNL     1       7.489  16.448  27.695  1.00  0.00    -0.388 OA
ATOM     13  H   UNL     1       7.282  15.506  27.459  1.00  0.00     0.211 HD
ENDBRANCH  11  12
ENDBRANCH   9  11
ENDBRANCH   8   9
BRANCH   8  14
ATOM     14  O   UNL     1       7.693  19.453  27.335  1.00  0.00    -0.382 OA
ATOM     15  H   UNL     1       8.244  20.278  27.351  1.00  0.00     0.211 HD
ENDBRANCH   8  14
ENDBRANCH   1   8
BRANCH   1  16
ATOM     16  O   UNL     1       5.866  17.552  25.144  1.00  0.00    -0.387 OA
ATOM     17  H   UNL     1       6.463  17.288  24.397  1.00  0.00     0.211 HD
ENDBRANCH   1  16
TORSDOF 10
ENDMDL
MODEL 5
REMARK VINA RESULT:    -2.871      8.878     10.020
REMARK INTER + INTRA:          -5.120
REMARK INTER:                  -4.023
REMARK INTRA:                  -1.098
REMARK UNBOUND:                -0.991
REMARK SMILES O=C(CO)[C@H](O)[C@H](O)[C@H](O)CO
REMARK SMILES IDX 7 1 9 2 11 3 12 4 10 6 5 8 2 9 1 10 3 11 4 12 6 14 8 16
REMARK H PARENT 12 5 10 7 4 13 6 15 8 17
REMARK Flexibility Score: inf
ROOT
ATOM      1  C   UNL     1      16.515  15.358  26.805  1.00  0.00     0.181 C 
ENDROOT
BRANCH   1   2
ATOM      2  C   UNL     1      15.470  15.311  27.958  1.00  0.00     0.171 C 
BRANCH   2   3
ATOM      3  C   UNL     1      15.164  13.871  28.413  1.00  0.00     0.190 C 
BRANCH   3   4
ATOM      4  O   UNL     1      14.392  13.186  27.461  1.00  0.00    -0.394 OA
ATOM      5  H   UNL     1      14.340  12.240  27.758  1.00  0.00     0.210 HD
ENDBRANCH   3   4
ENDBRANCH   2   3
BRANCH   2   6
ATOM      6  O   UNL     1      15.875  16.091  29.056  1.00  0.00    -0.388 OA
ATOM      7  H   UNL     1      16.856  15.982  29.160  1.00  0.00     0.211 HD
ENDBRANCH   2   6
ENDBRANCH   1   2
BRANCH   1   8
ATOM      8  C   UNL     1      15.924  15.858  25.455  1.00  0.00     0.214 C 
BRANCH   8   9
ATOM      9  C   UNL     1      15.601  14.731  24.489  1.00  0.00     0.189 C 
ATOM     10  O   UNL     1      14.663  13.988  24.735  1.00  0.00    -0.294 OA
BRANCH   9  11
ATOM     11  C   UNL     1      16.365  14.533  23.205  1.00  0.00     0.234 C 
BRANCH  11  12
ATOM     12  O   UNL     1      16.174  15.626  22.351  1.00  0.00    -0.388 OA
ATOM     13  H   UNL     1      15.280  15.509  21.935  1.00  0.00     0.211 HD
ENDBRANCH  11  12
ENDBRANCH   9  11
ENDBRANCH   8   9
BRANCH   8  14
ATOM     14  O   UNL     1      16.770  16.814  24.862  1.00  0.00    -0.382 OA
ATOM     15  H   UNL     1      16.223  17.604  24.617  1.00  0.00     0.211 HD
ENDBRANCH   8  14
ENDBRANCH   1   8
BRANCH   1  16
ATOM     16  O   UNL     1      17.149  14.111  26.646  1.00  0.00    -0.387 OA
ATOM     17  H   UNL     1      18.008  14.142  27.142  1.00  0.00     0.211 HD
ENDBRANCH   1  16
TORSDOF 10
ENDMDL
MODEL 6
REMARK VINA RESULT:    -2.860      7.544      9.436
REMARK INTER + INTRA:          -5.105
REMARK INTER:                  -4.165
REMARK INTRA:                  -0.939
REMARK UNBOUND:                -0.991
REMARK SMILES O=C(CO)[C@H](O)[C@H](O)[C@H](O)CO
REMARK SMILES IDX 7 1 9 2 11 3 12 4 10 6 5 8 2 9 1 10 3 11 4 12 6 14 8 16
REMARK H PARENT 12 5 10 7 4 13 6 15 8 17
REMARK Flexibility Score: inf
ROOT
ATOM      1  C   UNL     1      13.056  13.973  30.970  1.00  0.00     0.181 C 
ENDROOT
BRANCH   1   2
ATOM      2  C   UNL     1      11.555  14.323  30.752  1.00  0.00     0.171 C 
BRANCH   2   3
ATOM      3  C   UNL     1      10.679  13.925  31.956  1.00  0.00     0.190 C 
BRANCH   3   4
ATOM      4  O   UNL     1      11.155  14.498  33.146  1.00  0.00    -0.394 OA
ATOM      5  H   UNL     1      12.143  14.547  33.067  1.00  0.00     0.210 HD
ENDBRANCH   3   4
ENDBRANCH   2   3
BRANCH   2   6
ATOM      6  O   UNL     1      11.380  15.687  30.455  1.00  0.00    -0.388 OA
ATOM      7  H   UNL     1      10.609  16.017  30.984  1.00  0.00     0.211 HD
ENDBRANCH   2   6
ENDBRANCH   1   2
BRANCH   1   8
ATOM      8  C   UNL     1      13.869  13.885  29.646  1.00  0.00     0.214 C 
BRANCH   8   9
ATOM      9  C   UNL     1      15.326  14.279  29.811  1.00  0.00     0.189 C 
ATOM     10  O   UNL     1      15.868  14.111  30.894  1.00  0.00    -0.294 OA
BRANCH   9  11
ATOM     11  C   UNL     1      16.146  14.817  28.667  1.00  0.00     0.234 C 
BRANCH  11  12
ATOM     12  O   UNL     1      15.667  16.072  28.272  1.00  0.00    -0.388 OA
ATOM     13  H   UNL     1      15.831  16.690  29.032  1.00  0.00     0.211 HD
ENDBRANCH  11  12
ENDBRANCH   9  11
ENDBRANCH   8   9
BRANCH   8  14
ATOM     14  O   UNL     1      13.250  14.633  28.627  1.00  0.00    -0.382 OA
ATOM     15  H   UNL     1      13.086  14.032  27.855  1.00  0.00     0.211 HD
ENDBRANCH   8  14
ENDBRANCH   1   8
BRANCH   1  16
ATOM     16  O   UNL     1      13.196  12.794  31.726  1.00  0.00    -0.387 OA
ATOM     17  H   UNL     1      13.356  12.045  31.094  1.00  0.00     0.211 HD
ENDBRANCH   1  16
TORSDOF 10
ENDMDL
MODEL 7
REMARK VINA RESULT:    -2.824      1.694      4.192
REMARK INTER + INTRA:          -5.052
REMARK INTER:                  -3.817
REMARK INTRA:                  -1.235
REMARK UNBOUND:                -0.991
REMARK SMILES O=C(CO)[C@H](O)[C@H](O)[C@H](O)CO
REMARK SMILES IDX 7 1 9 2 11 3 12 4 10 6 5 8 2 9 1 10 3 11 4 12 6 14 8 16
REMARK H PARENT 12 5 10 7 4 13 6 15 8 17
REMARK Flexibility Score: inf
ROOT
ATOM      1  C   UNL     1       8.160  18.410  24.946  1.00  0.00     0.181 C 
ENDROOT
BRANCH   1   2
ATOM      2  C   UNL     1       7.784  18.308  26.454  1.00  0.00     0.171 C 
BRANCH   2   3
ATOM      3  C   UNL     1       8.231  16.972  27.079  1.00  0.00     0.190 C 
BRANCH   3   4
ATOM      4  O   UNL     1       7.447  15.904  26.618  1.00  0.00    -0.394 OA
ATOM      5  H   UNL     1       6.739  16.293  26.041  1.00  0.00     0.210 HD
ENDBRANCH   3   4
ENDBRANCH   2   3
BRANCH   2   6
ATOM      6  O   UNL     1       8.304  19.387  27.190  1.00  0.00    -0.388 OA
ATOM      7  H   UNL     1       8.268  19.145  28.151  1.00  0.00     0.211 HD
ENDBRANCH   2   6
ENDBRANCH   1   2
BRANCH   1   8
ATOM      8  C   UNL     1       6.934  18.655  24.019  1.00  0.00     0.214 C 
BRANCH   8   9
ATOM      9  C   UNL     1       6.347  17.373  23.454  1.00  0.00     0.189 C 
ATOM     10  O   UNL     1       5.765  16.604  24.204  1.00  0.00    -0.294 OA
BRANCH   9  11
ATOM     11  C   UNL     1       6.407  17.043  21.984  1.00  0.00     0.234 C 
BRANCH  11  12
ATOM     12  O   UNL     1       7.738  16.975  21.554  1.00  0.00    -0.388 OA
ATOM     13  H   UNL     1       7.912  17.805  21.038  1.00  0.00     0.211 HD
ENDBRANCH  11  12
ENDBRANCH   9  11
ENDBRANCH   8   9
BRANCH   8  14
ATOM     14  O   UNL     1       7.254  19.565  22.995  1.00  0.00    -0.382 OA
ATOM     15  H   UNL     1       7.526  19.049  22.192  1.00  0.00     0.211 HD
ENDBRANCH   8  14
ENDBRANCH   1   8
BRANCH   1  16
ATOM     16  O   UNL     1       8.890  17.281  24.529  1.00  0.00    -0.387 OA
ATOM     17  H   UNL     1       8.302  16.740  23.940  1.00  0.00     0.211 HD
ENDBRANCH   1  16
TORSDOF 10
ENDMDL
MODEL 8
REMARK VINA RESULT:    -2.688      1.514      2.908
REMARK INTER + INTRA:          -4.857
REMARK INTER:                  -3.712
REMARK INTRA:                  -1.145
REMARK UNBOUND:                -0.991
REMARK SMILES O=C(CO)[C@H](O)[C@H](O)[C@H](O)CO
REMARK SMILES IDX 7 1 9 2 11 3 12 4 10 6 5 8 2 9 1 10 3 11 4 12 6 14 8 16
REMARK H PARENT 12 5 10 7 4 13 6 15 8 17
REMARK Flexibility Score: inf
ROOT
ATOM      1  C   UNL     1       8.359  17.990  25.720  1.00  0.00     0.181 C 
ENDROOT
BRANCH   1   2
ATOM      2  C   UNL     1       7.188  18.740  25.019  1.00  0.00     0.171 C 
BRANCH   2   3
ATOM      3  C   UNL     1       6.679  19.936  25.846  1.00  0.00     0.190 C 
BRANCH   3   4
ATOM      4  O   UNL     1       6.176  19.520  27.089  1.00  0.00    -0.394 OA
ATOM      5  H   UNL     1       6.958  19.390  27.688  1.00  0.00     0.210 HD
ENDBRANCH   3   4
ENDBRANCH   2   3
BRANCH   2   6
ATOM      6  O   UNL     1       7.546  19.162  23.725  1.00  0.00    -0.388 OA
ATOM      7  H   UNL     1       8.520  19.011  23.615  1.00  0.00     0.211 HD
ENDBRANCH   2   6
ENDBRANCH   1   2
BRANCH   1   8
ATOM      8  C   UNL     1       8.062  16.484  25.978  1.00  0.00     0.214 C 
BRANCH   8   9
ATOM      9  C   UNL     1       7.735  16.179  27.429  1.00  0.00     0.189 C 
ATOM     10  O   UNL     1       6.770  16.720  27.948  1.00  0.00    -0.294 OA
BRANCH   9  11
ATOM     11  C   UNL     1       8.529  15.185  28.238  1.00  0.00     0.234 C 
BRANCH  11  12
ATOM     12  O   UNL     1       9.881  15.549  28.266  1.00  0.00    -0.388 OA
ATOM     13  H   UNL     1      10.010  16.100  29.082  1.00  0.00     0.211 HD
ENDBRANCH  11  12
ENDBRANCH   9  11
ENDBRANCH   8   9
BRANCH   8  14
ATOM     14  O   UNL     1       9.118  15.678  25.511  1.00  0.00    -0.382 OA
ATOM     15  H   UNL     1       9.522  15.214  26.289  1.00  0.00     0.211 HD
ENDBRANCH   8  14
ENDBRANCH   1   8
BRANCH   1  16
ATOM     16  O   UNL     1       8.735  18.640  26.911  1.00  0.00    -0.387 OA
ATOM     17  H   UNL     1       8.445  18.073  27.671  1.00  0.00     0.211 HD
ENDBRANCH   1  16
TORSDOF 10
ENDMDL
MODEL 9
REMARK VINA RESULT:    -2.671      1.657      3.955
REMARK INTER + INTRA:          -4.833
REMARK INTER:                  -3.668
REMARK INTRA:                  -1.165
REMARK UNBOUND:                -0.991
REMARK SMILES O=C(CO)[C@H](O)[C@H](O)[C@H](O)CO
REMARK SMILES IDX 7 1 9 2 11 3 12 4 10 6 5 8 2 9 1 10 3 11 4 12 6 14 8 16
REMARK H PARENT 12 5 10 7 4 13 6 15 8 17
REMARK Flexibility Score: inf
ROOT
ATOM      1  C   UNL     1       7.292  17.855  24.488  1.00  0.00     0.181 C 
ENDROOT
BRANCH   1   2
ATOM      2  C   UNL     1       8.516  17.685  25.435  1.00  0.00     0.171 C 
BRANCH   2   3
ATOM      3  C   UNL     1       8.353  18.472  26.750  1.00  0.00     0.190 C 
BRANCH   3   4
ATOM      4  O   UNL     1       7.267  17.994  27.500  1.00  0.00    -0.394 OA
ATOM      5  H   UNL     1       6.500  17.908  26.875  1.00  0.00     0.210 HD
ENDBRANCH   3   4
ENDBRANCH   2   3
BRANCH   2   6
ATOM      6  O   UNL     1       8.775  16.330  25.709  1.00  0.00    -0.388 OA
ATOM      7  H   UNL     1       7.951  15.935  26.095  1.00  0.00     0.211 HD
ENDBRANCH   2   6
ENDBRANCH   1   2
BRANCH   1   8
ATOM      8  C   UNL     1       6.879  19.339  24.271  1.00  0.00     0.214 C 
BRANCH   8   9
ATOM      9  C   UNL     1       5.404  19.594  24.533  1.00  0.00     0.189 C 
ATOM     10  O   UNL     1       4.590  19.316  23.665  1.00  0.00    -0.294 OA
BRANCH   9  11
ATOM     11  C   UNL     1       4.904  20.125  25.852  1.00  0.00     0.234 C 
BRANCH  11  12
ATOM     12  O   UNL     1       4.773  19.083  26.779  1.00  0.00    -0.388 OA
ATOM     13  H   UNL     1       5.619  19.058  27.299  1.00  0.00     0.211 HD
ENDBRANCH  11  12
ENDBRANCH   9  11
ENDBRANCH   8   9
BRANCH   8  14
ATOM     14  O   UNL     1       7.254  19.782  22.989  1.00  0.00    -0.382 OA
ATOM     15  H   UNL     1       7.363  18.987  22.405  1.00  0.00     0.211 HD
ENDBRANCH   8  14
ENDBRANCH   1   8
BRANCH   1  16
ATOM     16  O   UNL     1       6.199  17.087  24.932  1.00  0.00    -0.387 OA
ATOM     17  H   UNL     1       6.190  16.241  24.413  1.00  0.00     0.211 HD
ENDBRANCH   1  16
TORSDOF 10
ENDMDL
