MODEL 1
REMARK VINA RESULT:    -4.456      0.000      0.000
REMARK INTER + INTRA:          -6.339
REMARK INTER:                  -5.758
REMARK INTRA:                  -0.581
REMARK UNBOUND:                -0.581
REMARK SMILES C=CC(=O)CCCCC
REMARK SMILES IDX 6 1 7 2 8 3 9 4 5 5 3 6 4 7 2 8 1 9
REMARK H PARENT
REMARK Flexibility Score: inf
ROOT
ATOM      1  C   UNL     1     -29.743  23.918  12.805  1.00  0.00     0.008 C 
ENDROOT
BRANCH   1   2
ATOM      2  C   UNL     1     -29.154  25.328  12.626  1.00  0.00     0.000 C 
BRANCH   2   3
ATOM      3  C   UNL     1     -27.923  25.340  11.706  1.00  0.00    -0.003 C 
ATOM      4  C   UNL     1     -27.607  23.961  11.127  1.00  0.00     0.004 C 
ENDBRANCH   2   3
ENDBRANCH   1   2
BRANCH   1   5
ATOM      5  C   UNL     1     -29.686  23.447  14.266  1.00  0.00     0.080 C 
BRANCH   5   6
ATOM      6  C   UNL     1     -28.577  22.460  14.494  1.00  0.00     0.155 C 
ATOM      7  O   UNL     1     -28.732  21.262  14.130  1.00  0.00    -0.295 OA
BRANCH   6   8
ATOM      8  C   UNL     1     -27.311  22.900  15.109  1.00  0.00     0.039 C 
ATOM      9  C   UNL     1     -26.158  22.913  14.442  1.00  0.00     0.012 C 
ENDBRANCH   6   8
ENDBRANCH   5   6
ENDBRANCH   1   5
TORSDOF 5
ENDMDL
MODEL 2
REMARK VINA RESULT:    -4.432     15.284     16.361
REMARK INTER + INTRA:          -6.308
REMARK INTER:                  -5.763
REMARK INTRA:                  -0.544
REMARK UNBOUND:                -0.581
REMARK SMILES C=CC(=O)CCCCC
REMARK SMILES IDX 6 1 7 2 8 3 9 4 5 5 3 6 4 7 2 8 1 9
REMARK H PARENT
REMARK Flexibility Score: inf
ROOT
ATOM      1  C   UNL     1     -16.906  35.522  12.842  1.00  0.00     0.008 C 
ENDROOT
BRANCH   1   2
ATOM      2  C   UNL     1     -17.699  34.222  12.620  1.00  0.00     0.000 C 
BRANCH   2   3
ATOM      3  C   UNL     1     -18.594  34.284  11.373  1.00  0.00    -0.003 C 
ATOM      4  C   UNL     1     -19.217  35.664  11.162  1.00  0.00     0.004 C 
ENDBRANCH   2   3
ENDBRANCH   1   2
BRANCH   1   5
ATOM      5  C   UNL     1     -16.942  35.981  14.307  1.00  0.00     0.080 C 
BRANCH   5   6
ATOM      6  C   UNL     1     -17.970  37.053  14.533  1.00  0.00     0.155 C 
ATOM      7  O   UNL     1     -17.785  38.200  14.043  1.00  0.00    -0.295 OA
BRANCH   6   8
ATOM      8  C   UNL     1     -19.196  36.750  15.296  1.00  0.00     0.039 C 
ATOM      9  C   UNL     1     -20.332  36.379  14.706  1.00  0.00     0.012 C 
ENDBRANCH   6   8
ENDBRANCH   5   6
ENDBRANCH   1   5
TORSDOF 5
ENDMDL
MODEL 3
REMARK VINA RESULT:    -4.346      1.437      3.375
REMARK INTER + INTRA:          -6.197
REMARK INTER:                  -5.624
REMARK INTRA:                  -0.573
REMARK UNBOUND:                -0.581
REMARK SMILES C=CC(=O)CCCCC
REMARK SMILES IDX 6 1 7 2 8 3 9 4 5 5 3 6 4 7 2 8 1 9
REMARK H PARENT
REMARK Flexibility Score: inf
ROOT
ATOM      1  C   UNL     1     -28.599  21.944  14.321  1.00  0.00     0.008 C 
ENDROOT
BRANCH   1   2
ATOM      2  C   UNL     1     -27.886  22.440  15.591  1.00  0.00     0.000 C 
BRANCH   2   3
ATOM      3  C   UNL     1     -26.575  23.178  15.280  1.00  0.00    -0.003 C 
ATOM      4  C   UNL     1     -25.982  22.784  13.927  1.00  0.00     0.004 C 
ENDBRANCH   2   3
ENDBRANCH   1   2
BRANCH   1   5
ATOM      5  C   UNL     1     -29.967  22.614  14.125  1.00  0.00     0.080 C 
BRANCH   5   6
ATOM      6  C   UNL     1     -29.970  23.548  12.949  1.00  0.00     0.155 C 
ATOM      7  O   UNL     1     -30.572  23.210  11.893  1.00  0.00    -0.295 OA
BRANCH   6   8
ATOM      8  C   UNL     1     -29.300  24.859  13.045  1.00  0.00     0.039 C 
ATOM      9  C   UNL     1     -28.289  25.205  12.250  1.00  0.00     0.012 C 
ENDBRANCH   6   8
ENDBRANCH   5   6
ENDBRANCH   1   5
TORSDOF 5
ENDMDL
MODEL 4
REMARK VINA RESULT:    -4.341     15.697     16.924
REMARK INTER + INTRA:          -6.191
REMARK INTER:                  -5.680
REMARK INTRA:                  -0.511
REMARK UNBOUND:                -0.581
REMARK SMILES C=CC(=O)CCCCC
REMARK SMILES IDX 6 1 7 2 8 3 9 4 5 5 3 6 4 7 2 8 1 9
REMARK H PARENT
REMARK Flexibility Score: inf
ROOT
ATOM      1  C   UNL     1     -17.486  38.046  13.998  1.00  0.00     0.008 C 
ENDROOT
BRANCH   1   2
ATOM      2  C   UNL     1     -18.531  38.145  15.123  1.00  0.00     0.000 C 
BRANCH   2   3
ATOM      3  C   UNL     1     -19.135  36.780  15.488  1.00  0.00    -0.003 C 
ATOM      4  C   UNL     1     -20.397  36.461  14.687  1.00  0.00     0.004 C 
ENDBRANCH   2   3
ENDBRANCH   1   2
BRANCH   1   5
ATOM      5  C   UNL     1     -16.596  36.802  14.140  1.00  0.00     0.080 C 
BRANCH   5   6
ATOM      6  C   UNL     1     -16.670  35.919  12.927  1.00  0.00     0.155 C 
ATOM      7  O   UNL     1     -16.158  36.314  11.844  1.00  0.00    -0.295 OA
BRANCH   6   8
ATOM      8  C   UNL     1     -17.309  34.593  13.016  1.00  0.00     0.039 C 
ATOM      9  C   UNL     1     -18.404  34.279  12.325  1.00  0.00     0.012 C 
ENDBRANCH   6   8
ENDBRANCH   5   6
ENDBRANCH   1   5
TORSDOF 5
ENDMDL
MODEL 5
REMARK VINA RESULT:    -4.320      2.030      4.250
REMARK INTER + INTRA:          -6.164
REMARK INTER:                  -5.669
REMARK INTRA:                  -0.495
REMARK UNBOUND:                -0.581
REMARK SMILES C=CC(=O)CCCCC
REMARK SMILES IDX 6 1 7 2 8 3 9 4 5 5 3 6 4 7 2 8 1 9
REMARK H PARENT
REMARK Flexibility Score: inf
ROOT
ATOM      1  C   UNL     1     -26.459  23.239  14.008  1.00  0.00     0.008 C 
ENDROOT
BRANCH   1   2
ATOM      2  C   UNL     1     -27.097  22.875  15.360  1.00  0.00     0.000 C 
BRANCH   2   3
ATOM      3  C   UNL     1     -27.847  21.535  15.316  1.00  0.00    -0.003 C 
ATOM      4  C   UNL     1     -28.632  21.255  16.598  1.00  0.00     0.004 C 
ENDBRANCH   2   3
ENDBRANCH   1   2
BRANCH   1   5
ATOM      5  C   UNL     1     -27.484  23.245  12.865  1.00  0.00     0.080 C 
BRANCH   5   6
ATOM      6  C   UNL     1     -28.354  24.470  12.900  1.00  0.00     0.155 C 
ATOM      7  O   UNL     1     -27.886  25.571  12.502  1.00  0.00    -0.295 OA
BRANCH   6   8
ATOM      8  C   UNL     1     -29.749  24.371  13.368  1.00  0.00     0.039 C 
ATOM      9  C   UNL     1     -30.448  23.238  13.300  1.00  0.00     0.012 C 
ENDBRANCH   6   8
ENDBRANCH   5   6
ENDBRANCH   1   5
TORSDOF 5
ENDMDL
MODEL 6
REMARK VINA RESULT:    -4.262     15.136     16.370
REMARK INTER + INTRA:          -6.088
REMARK INTER:                  -5.780
REMARK INTRA:                  -0.308
REMARK UNBOUND:                -0.581
REMARK SMILES C=CC(=O)CCCCC
REMARK SMILES IDX 6 1 7 2 8 3 9 4 5 5 3 6 4 7 2 8 1 9
REMARK H PARENT
REMARK Flexibility Score: inf
ROOT
ATOM      1  C   UNL     1     -19.753  36.357  13.998  1.00  0.00     0.008 C 
ENDROOT
BRANCH   1   2
ATOM      2  C   UNL     1     -19.447  36.730  15.459  1.00  0.00     0.000 C 
BRANCH   2   3
ATOM      3  C   UNL     1     -18.515  37.946  15.573  1.00  0.00    -0.003 C 
ATOM      4  C   UNL     1     -18.052  38.201  17.008  1.00  0.00     0.004 C 
ENDBRANCH   2   3
ENDBRANCH   1   2
BRANCH   1   5
ATOM      5  C   UNL     1     -18.516  36.478  13.097  1.00  0.00     0.080 C 
BRANCH   5   6
ATOM      6  C   UNL     1     -17.670  35.237  13.137  1.00  0.00     0.155 C 
ATOM      7  O   UNL     1     -16.623  35.225  13.839  1.00  0.00    -0.295 OA
BRANCH   6   8
ATOM      8  C   UNL     1     -18.083  34.038  12.384  1.00  0.00     0.039 C 
ATOM      9  C   UNL     1     -18.534  34.099  11.131  1.00  0.00     0.012 C 
ENDBRANCH   6   8
ENDBRANCH   5   6
ENDBRANCH   1   5
TORSDOF 5
ENDMDL
MODEL 7
REMARK VINA RESULT:    -4.255      1.255      3.410
REMARK INTER + INTRA:          -6.079
REMARK INTER:                  -5.523
REMARK INTRA:                  -0.556
REMARK UNBOUND:                -0.581
REMARK SMILES C=CC(=O)CCCCC
REMARK SMILES IDX 6 1 7 2 8 3 9 4 5 5 3 6 4 7 2 8 1 9
REMARK H PARENT
REMARK Flexibility Score: inf
ROOT
ATOM      1  C   UNL     1     -29.743  22.349  14.423  1.00  0.00     0.008 C 
ENDROOT
BRANCH   1   2
ATOM      2  C   UNL     1     -28.333  21.783  14.664  1.00  0.00     0.000 C 
BRANCH   2   3
ATOM      3  C   UNL     1     -27.362  22.836  15.219  1.00  0.00    -0.003 C 
ATOM      4  C   UNL     1     -26.063  22.921  14.418  1.00  0.00     0.004 C 
ENDBRANCH   2   3
ENDBRANCH   1   2
BRANCH   1   5
ATOM      5  C   UNL     1     -29.720  23.607  13.542  1.00  0.00     0.080 C 
BRANCH   5   6
ATOM      6  C   UNL     1     -29.330  23.293  12.126  1.00  0.00     0.155 C 
ATOM      7  O   UNL     1     -29.960  22.401  11.495  1.00  0.00    -0.295 OA
BRANCH   6   8
ATOM      8  C   UNL     1     -28.239  24.044  11.477  1.00  0.00     0.039 C 
ATOM      9  C   UNL     1     -27.991  25.325  11.750  1.00  0.00     0.012 C 
ENDBRANCH   6   8
ENDBRANCH   5   6
ENDBRANCH   1   5
TORSDOF 5
ENDMDL
MODEL 8
REMARK VINA RESULT:    -4.221      2.061      3.351
REMARK INTER + INTRA:          -6.035
REMARK INTER:                  -5.523
REMARK INTRA:                  -0.513
REMARK UNBOUND:                -0.581
REMARK SMILES C=CC(=O)CCCCC
REMARK SMILES IDX 6 1 7 2 8 3 9 4 5 5 3 6 4 7 2 8 1 9
REMARK H PARENT
REMARK Flexibility Score: inf
ROOT
ATOM      1  C   UNL     1     -28.239  23.925  11.482  1.00  0.00     0.008 C 
ENDROOT
BRANCH   1   2
ATOM      2  C   UNL     1     -27.999  24.029  12.999  1.00  0.00     0.000 C 
BRANCH   2   3
ATOM      3  C   UNL     1     -26.765  23.237  13.456  1.00  0.00    -0.003 C 
ATOM      4  C   UNL     1     -26.695  23.078  14.975  1.00  0.00     0.004 C 
ENDBRANCH   2   3
ENDBRANCH   1   2
BRANCH   1   5
ATOM      5  C   UNL     1     -28.625  22.502  11.053  1.00  0.00     0.080 C 
BRANCH   5   6
ATOM      6  C   UNL     1     -29.818  21.993  11.811  1.00  0.00     0.155 C 
ATOM      7  O   UNL     1     -30.910  22.620  11.738  1.00  0.00    -0.295 OA
BRANCH   6   8
ATOM      8  C   UNL     1     -29.714  20.754  12.605  1.00  0.00     0.039 C 
ATOM      9  C   UNL     1     -29.821  20.746  13.934  1.00  0.00     0.012 C 
ENDBRANCH   6   8
ENDBRANCH   5   6
ENDBRANCH   1   5
TORSDOF 5
ENDMDL
MODEL 9
REMARK VINA RESULT:    -4.196      2.095      2.851
REMARK INTER + INTRA:          -6.003
REMARK INTER:                  -5.700
REMARK INTRA:                  -0.304
REMARK UNBOUND:                -0.581
REMARK SMILES C=CC(=O)CCCCC
REMARK SMILES IDX 6 1 7 2 8 3 9 4 5 5 3 6 4 7 2 8 1 9
REMARK H PARENT
REMARK Flexibility Score: inf
ROOT
ATOM      1  C   UNL     1     -29.746  23.602  13.890  1.00  0.00     0.008 C 
ENDROOT
BRANCH   1   2
ATOM      2  C   UNL     1     -28.353  23.953  13.339  1.00  0.00     0.000 C 
BRANCH   2   3
ATOM      3  C   UNL     1     -28.328  25.311  12.621  1.00  0.00    -0.003 C 
ATOM      4  C   UNL     1     -27.992  25.187  11.135  1.00  0.00     0.004 C 
ENDBRANCH   2   3
ENDBRANCH   1   2
BRANCH   1   5
ATOM      5  C   UNL     1     -30.615  22.876  12.851  1.00  0.00     0.080 C 
BRANCH   5   6
ATOM      6  C   UNL     1     -29.863  21.771  12.167  1.00  0.00     0.155 C 
ATOM      7  O   UNL     1     -29.419  21.955  11.001  1.00  0.00    -0.295 OA
BRANCH   6   8
ATOM      8  C   UNL     1     -29.623  20.496  12.870  1.00  0.00     0.039 C 
ATOM      9  C   UNL     1     -30.531  19.939  13.670  1.00  0.00     0.012 C 
ENDBRANCH   6   8
ENDBRANCH   5   6
ENDBRANCH   1   5
TORSDOF 5
ENDMDL
