MODEL 1
REMARK VINA RESULT:    -5.893      0.000      0.000
REMARK INTER + INTRA:          -7.224
REMARK INTER:                  -6.926
REMARK INTRA:                  -0.298
REMARK UNBOUND:                -0.298
REMARK SMILES O=c1c(O)c(-c2ccc(O)cc2)oc2cc(O)cc(O)c12
REMARK SMILES IDX 5 1 3 2 2 3 1 4 21 5 19 6 18 7 16 8 15 9 14 10 13 11 6 12
REMARK SMILES IDX 7 13 8 14 9 15 12 16 11 17 10 18 4 20 20 22 17 24
REMARK H PARENT 10 19 4 21 20 23 17 25
REMARK Flexibility Score: inf
ROOT
ATOM      1  C   UNL     1      -7.918  -1.090  -5.917  1.00  0.00     0.180 A 
ATOM      2  C   UNL     1      -7.128  -1.389  -7.040  1.00  0.00     0.208 A 
ATOM      3  C   UNL     1      -7.082  -2.712  -7.507  1.00  0.00     0.238 A 
ATOM      4  O   UNL     1      -6.314  -2.986  -8.466  1.00  0.00    -0.285 OA
ATOM      5  C   UNL     1      -7.870  -3.709  -6.882  1.00  0.00     0.111 A 
ATOM      6  C   UNL     1      -7.935  -5.073  -7.299  1.00  0.00     0.134 A 
ATOM      7  C   UNL     1      -8.666  -5.994  -6.538  1.00  0.00     0.093 A 
ATOM      8  C   UNL     1      -9.386  -5.588  -5.412  1.00  0.00     0.123 A 
ATOM      9  C   UNL     1      -9.373  -4.249  -5.029  1.00  0.00     0.094 A 
ATOM     10  C   UNL     1      -8.622  -3.314  -5.745  1.00  0.00     0.146 A 
ATOM     11  O   UNL     1      -8.621  -2.052  -5.331  1.00  0.00    -0.452 OA
ENDROOT
BRANCH   1  12
ATOM     12  C   UNL     1      -8.007   0.278  -5.356  1.00  0.00     0.021 A 
ATOM     13  C   UNL     1      -7.087   0.739  -4.397  1.00  0.00     0.016 A 
ATOM     14  C   UNL     1      -7.206   2.026  -3.865  1.00  0.00     0.047 A 
ATOM     15  C   UNL     1      -8.253   2.863  -4.272  1.00  0.00     0.115 A 
ATOM     16  C   UNL     1      -9.066   1.116  -5.744  1.00  0.00     0.016 A 
ATOM     17  C   UNL     1      -9.183   2.403  -5.211  1.00  0.00     0.047 A 
BRANCH  15  18
ATOM     18  O   UNL     1      -8.381   4.147  -3.750  1.00  0.00    -0.508 OA
ATOM     19  H   UNL     1      -9.145   4.393  -3.130  1.00  0.00     0.293 HD
ENDBRANCH  15  18
ENDBRANCH   1  12
BRANCH   2  20
ATOM     20  O   UNL     1      -6.419  -0.376  -7.690  1.00  0.00    -0.502 OA
ATOM     21  H   UNL     1      -5.593  -0.562  -8.247  1.00  0.00     0.293 HD
ENDBRANCH   2  20
BRANCH   6  22
ATOM     22  O   UNL     1      -7.326  -5.568  -8.457  1.00  0.00    -0.507 OA
ATOM     23  H   UNL     1      -7.753  -6.213  -9.104  1.00  0.00     0.293 HD
ENDBRANCH   6  22
BRANCH   8  24
ATOM     24  O   UNL     1     -10.125  -6.508  -4.671  1.00  0.00    -0.508 OA
ATOM     25  H   UNL     1     -10.575  -7.302  -5.110  1.00  0.00     0.293 HD
ENDBRANCH   8  24
TORSDOF 5
ENDMDL
MODEL 2
REMARK VINA RESULT:    -5.862      1.702      3.555
REMARK INTER + INTRA:          -7.189
REMARK INTER:                  -6.905
REMARK INTRA:                  -0.284
REMARK UNBOUND:                -0.298
REMARK SMILES O=c1c(O)c(-c2ccc(O)cc2)oc2cc(O)cc(O)c12
REMARK SMILES IDX 5 1 3 2 2 3 1 4 21 5 19 6 18 7 16 8 15 9 14 10 13 11 6 12
REMARK SMILES IDX 7 13 8 14 9 15 12 16 11 17 10 18 4 20 20 22 17 24
REMARK H PARENT 10 19 4 21 20 23 17 25
REMARK Flexibility Score: inf
ROOT
ATOM      1  C   UNL     1      -8.346   0.097  -5.223  1.00  0.00     0.180 A 
ATOM      2  C   UNL     1      -8.820  -1.063  -4.587  1.00  0.00     0.208 A 
ATOM      3  C   UNL     1      -8.608  -2.310  -5.197  1.00  0.00     0.238 A 
ATOM      4  O   UNL     1      -9.101  -3.336  -4.660  1.00  0.00    -0.285 OA
ATOM      5  C   UNL     1      -7.877  -2.388  -6.407  1.00  0.00     0.111 A 
ATOM      6  C   UNL     1      -7.564  -3.602  -7.091  1.00  0.00     0.134 A 
ATOM      7  C   UNL     1      -6.926  -3.548  -8.337  1.00  0.00     0.093 A 
ATOM      8  C   UNL     1      -6.533  -2.329  -8.893  1.00  0.00     0.123 A 
ATOM      9  C   UNL     1      -6.784  -1.142  -8.208  1.00  0.00     0.094 A 
ATOM     10  C   UNL     1      -7.453  -1.161  -6.982  1.00  0.00     0.146 A 
ATOM     11  O   UNL     1      -7.691  -0.004  -6.374  1.00  0.00    -0.452 OA
ENDROOT
BRANCH   1  12
ATOM     12  C   UNL     1      -8.543   1.448  -4.649  1.00  0.00     0.021 A 
ATOM     13  C   UNL     1      -9.748   2.152  -4.828  1.00  0.00     0.016 A 
ATOM     14  C   UNL     1      -9.901   3.436  -4.296  1.00  0.00     0.047 A 
ATOM     15  C   UNL     1      -8.849   4.038  -3.594  1.00  0.00     0.115 A 
ATOM     16  C   UNL     1      -7.486   2.067  -3.961  1.00  0.00     0.016 A 
ATOM     17  C   UNL     1      -7.642   3.350  -3.431  1.00  0.00     0.047 A 
BRANCH  15  18
ATOM     18  O   UNL     1      -8.990   5.316  -3.060  1.00  0.00    -0.508 OA
ATOM     19  H   UNL     1      -8.196   5.938  -2.959  1.00  0.00     0.293 HD
ENDBRANCH  15  18
ENDBRANCH   1  12
BRANCH   2  20
ATOM     20  O   UNL     1      -9.473  -0.973  -3.354  1.00  0.00    -0.502 OA
ATOM     21  H   UNL     1      -9.460  -0.129  -2.793  1.00  0.00     0.293 HD
ENDBRANCH   2  20
BRANCH   6  22
ATOM     22  O   UNL     1      -7.832  -4.877  -6.585  1.00  0.00    -0.507 OA
ATOM     23  H   UNL     1      -8.269  -5.066  -5.696  1.00  0.00     0.293 HD
ENDBRANCH   6  22
BRANCH   8  24
ATOM     24  O   UNL     1      -5.883  -2.286 -10.125  1.00  0.00    -0.508 OA
ATOM     25  H   UNL     1      -6.386  -2.092 -10.983  1.00  0.00     0.293 HD
ENDBRANCH   8  24
TORSDOF 5
ENDMDL
MODEL 3
REMARK VINA RESULT:    -5.770      1.818      6.628
REMARK INTER + INTRA:          -7.080
REMARK INTER:                  -6.867
REMARK INTRA:                  -0.213
REMARK UNBOUND:                -0.298
REMARK SMILES O=c1c(O)c(-c2ccc(O)cc2)oc2cc(O)cc(O)c12
REMARK SMILES IDX 5 1 3 2 2 3 1 4 21 5 19 6 18 7 16 8 15 9 14 10 13 11 6 12
REMARK SMILES IDX 7 13 8 14 9 15 12 16 11 17 10 18 4 20 20 22 17 24
REMARK H PARENT 10 19 4 21 20 23 17 25
REMARK Flexibility Score: inf
ROOT
ATOM      1  C   UNL     1      -8.379  -2.069  -6.100  1.00  0.00     0.180 A 
ATOM      2  C   UNL     1      -8.905  -1.038  -6.896  1.00  0.00     0.208 A 
ATOM      3  C   UNL     1      -8.985   0.260  -6.364  1.00  0.00     0.238 A 
ATOM      4  O   UNL     1      -9.526   1.162  -7.055  1.00  0.00    -0.285 OA
ATOM      5  C   UNL     1      -8.486   0.521  -5.065  1.00  0.00     0.111 A 
ATOM      6  C   UNL     1      -8.474   1.807  -4.442  1.00  0.00     0.134 A 
ATOM      7  C   UNL     1      -8.053   1.926  -3.112  1.00  0.00     0.093 A 
ATOM      8  C   UNL     1      -7.584   0.818  -2.403  1.00  0.00     0.123 A 
ATOM      9  C   UNL     1      -7.539  -0.430  -3.019  1.00  0.00     0.094 A 
ATOM     10  C   UNL     1      -7.988  -0.588  -4.333  1.00  0.00     0.146 A 
ATOM     11  O   UNL     1      -7.948  -1.800  -4.873  1.00  0.00    -0.452 OA
ENDROOT
BRANCH   1  12
ATOM     12  C   UNL     1      -8.276  -3.465  -6.585  1.00  0.00     0.021 A 
ATOM     13  C   UNL     1      -9.116  -4.478  -6.088  1.00  0.00     0.016 A 
ATOM     14  C   UNL     1      -8.984  -5.793  -6.544  1.00  0.00     0.047 A 
ATOM     15  C   UNL     1      -8.001  -6.115  -7.489  1.00  0.00     0.115 A 
ATOM     16  C   UNL     1      -7.280  -3.801  -7.517  1.00  0.00     0.016 A 
ATOM     17  C   UNL     1      -7.150  -5.116  -7.972  1.00  0.00     0.047 A 
BRANCH  15  18
ATOM     18  O   UNL     1      -7.861  -7.421  -7.951  1.00  0.00    -0.508 OA
ATOM     19  H   UNL     1      -8.603  -8.103  -7.845  1.00  0.00     0.293 HD
ENDBRANCH  15  18
ENDBRANCH   1  12
BRANCH   2  20
ATOM     20  O   UNL     1      -9.322  -1.301  -8.204  1.00  0.00    -0.502 OA
ATOM     21  H   UNL     1      -8.676  -1.333  -8.984  1.00  0.00     0.293 HD
ENDBRANCH   2  20
BRANCH   6  22
ATOM     22  O   UNL     1      -8.839   2.993  -5.088  1.00  0.00    -0.507 OA
ATOM     23  H   UNL     1      -8.576   3.243  -6.028  1.00  0.00     0.293 HD
ENDBRANCH   6  22
BRANCH   8  24
ATOM     24  O   UNL     1      -7.150   0.949  -1.085  1.00  0.00    -0.508 OA
ATOM     25  H   UNL     1      -7.341   1.785  -0.545  1.00  0.00     0.293 HD
ENDBRANCH   8  24
TORSDOF 5
ENDMDL
MODEL 4
REMARK VINA RESULT:    -5.598     14.132     17.051
REMARK INTER + INTRA:          -6.878
REMARK INTER:                  -6.755
REMARK INTRA:                  -0.123
REMARK UNBOUND:                -0.298
REMARK SMILES O=c1c(O)c(-c2ccc(O)cc2)oc2cc(O)cc(O)c12
REMARK SMILES IDX 5 1 3 2 2 3 1 4 21 5 19 6 18 7 16 8 15 9 14 10 13 11 6 12
REMARK SMILES IDX 7 13 8 14 9 15 12 16 11 17 10 18 4 20 20 22 17 24
REMARK H PARENT 10 19 4 21 20 23 17 25
REMARK Flexibility Score: inf
ROOT
ATOM      1  C   UNL     1      -0.825   6.272   6.725  1.00  0.00     0.180 A 
ATOM      2  C   UNL     1      -0.338   7.434   6.104  1.00  0.00     0.208 A 
ATOM      3  C   UNL     1      -1.184   8.151   5.241  1.00  0.00     0.238 A 
ATOM      4  O   UNL     1      -0.717   9.148   4.631  1.00  0.00    -0.285 OA
ATOM      5  C   UNL     1      -2.522   7.729   5.055  1.00  0.00     0.111 A 
ATOM      6  C   UNL     1      -3.481   8.403   4.239  1.00  0.00     0.134 A 
ATOM      7  C   UNL     1      -4.745   7.833   4.044  1.00  0.00     0.093 A 
ATOM      8  C   UNL     1      -5.108   6.647   4.687  1.00  0.00     0.123 A 
ATOM      9  C   UNL     1      -4.199   6.011   5.528  1.00  0.00     0.094 A 
ATOM     10  C   UNL     1      -2.917   6.534   5.712  1.00  0.00     0.146 A 
ATOM     11  O   UNL     1      -2.075   5.882   6.506  1.00  0.00    -0.452 OA
ENDROOT
BRANCH   1  12
ATOM     12  C   UNL     1       0.010   5.455   7.635  1.00  0.00     0.021 A 
ATOM     13  C   UNL     1       0.501   5.977   8.846  1.00  0.00     0.016 A 
ATOM     14  C   UNL     1       1.307   5.194   9.678  1.00  0.00     0.047 A 
ATOM     15  C   UNL     1       1.645   3.887   9.304  1.00  0.00     0.115 A 
ATOM     16  C   UNL     1       0.371   4.151   7.258  1.00  0.00     0.016 A 
ATOM     17  C   UNL     1       1.177   3.370   8.092  1.00  0.00     0.047 A 
BRANCH  15  18
ATOM     18  O   UNL     1       2.447   3.098  10.125  1.00  0.00    -0.508 OA
ATOM     19  H   UNL     1       3.440   2.991   9.951  1.00  0.00     0.293 HD
ENDBRANCH  15  18
ENDBRANCH   1  12
BRANCH   2  20
ATOM     20  O   UNL     1       0.962   7.878   6.361  1.00  0.00    -0.502 OA
ATOM     21  H   UNL     1       1.729   7.240   6.538  1.00  0.00     0.293 HD
ENDBRANCH   2  20
BRANCH   6  22
ATOM     22  O   UNL     1      -3.254   9.638   3.622  1.00  0.00    -0.507 OA
ATOM     23  H   UNL     1      -2.501  10.268   3.850  1.00  0.00     0.293 HD
ENDBRANCH   6  22
BRANCH   8  24
ATOM     24  O   UNL     1      -6.374   6.097   4.501  1.00  0.00    -0.508 OA
ATOM     25  H   UNL     1      -7.171   6.672   4.254  1.00  0.00     0.293 HD
ENDBRANCH   8  24
TORSDOF 5
ENDMDL
MODEL 5
REMARK VINA RESULT:    -5.583      1.908      2.388
REMARK INTER + INTRA:          -6.861
REMARK INTER:                  -6.572
REMARK INTRA:                  -0.289
REMARK UNBOUND:                -0.298
REMARK SMILES O=c1c(O)c(-c2ccc(O)cc2)oc2cc(O)cc(O)c12
REMARK SMILES IDX 5 1 3 2 2 3 1 4 21 5 19 6 18 7 16 8 15 9 14 10 13 11 6 12
REMARK SMILES IDX 7 13 8 14 9 15 12 16 11 17 10 18 4 20 20 22 17 24
REMARK H PARENT 10 19 4 21 20 23 17 25
REMARK Flexibility Score: inf
ROOT
ATOM      1  C   UNL     1      -7.904  -2.266  -6.160  1.00  0.00     0.180 A 
ATOM      2  C   UNL     1      -6.874  -1.922  -7.052  1.00  0.00     0.208 A 
ATOM      3  C   UNL     1      -6.379  -2.901  -7.929  1.00  0.00     0.238 A 
ATOM      4  O   UNL     1      -5.406  -2.607  -8.672  1.00  0.00    -0.285 OA
ATOM      5  C   UNL     1      -6.957  -4.194  -7.943  1.00  0.00     0.111 A 
ATOM      6  C   UNL     1      -6.564  -5.250  -8.820  1.00  0.00     0.134 A 
ATOM      7  C   UNL     1      -7.135  -6.520  -8.671  1.00  0.00     0.093 A 
ATOM      8  C   UNL     1      -8.129  -6.756  -7.718  1.00  0.00     0.123 A 
ATOM      9  C   UNL     1      -8.558  -5.718  -6.894  1.00  0.00     0.094 A 
ATOM     10  C   UNL     1      -7.981  -4.450  -6.994  1.00  0.00     0.146 A 
ATOM     11  O   UNL     1      -8.405  -3.496  -6.173  1.00  0.00    -0.452 OA
ENDROOT
BRANCH   1  12
ATOM     12  C   UNL     1      -8.469  -1.294  -5.195  1.00  0.00     0.021 A 
ATOM     13  C   UNL     1      -9.554  -0.466  -5.538  1.00  0.00     0.016 A 
ATOM     14  C   UNL     1     -10.054   0.460  -4.618  1.00  0.00     0.047 A 
ATOM     15  C   UNL     1      -9.469   0.581  -3.351  1.00  0.00     0.115 A 
ATOM     16  C   UNL     1      -7.875  -1.152  -3.930  1.00  0.00     0.016 A 
ATOM     17  C   UNL     1      -8.378  -0.225  -3.012  1.00  0.00     0.047 A 
BRANCH  15  18
ATOM     18  O   UNL     1      -9.960   1.500  -2.427  1.00  0.00    -0.508 OA
ATOM     19  H   UNL     1     -10.915   1.454  -2.092  1.00  0.00     0.293 HD
ENDBRANCH  15  18
ENDBRANCH   1  12
BRANCH   2  20
ATOM     20  O   UNL     1      -6.370  -0.620  -7.076  1.00  0.00    -0.502 OA
ATOM     21  H   UNL     1      -5.377  -0.421  -7.083  1.00  0.00     0.293 HD
ENDBRANCH   2  20
BRANCH   6  22
ATOM     22  O   UNL     1      -5.645  -5.100  -9.864  1.00  0.00    -0.507 OA
ATOM     23  H   UNL     1      -4.815  -5.658  -9.986  1.00  0.00     0.293 HD
ENDBRANCH   6  22
BRANCH   8  24
ATOM     24  O   UNL     1      -8.703  -8.019  -7.588  1.00  0.00    -0.508 OA
ATOM     25  H   UNL     1      -9.566  -8.158  -7.076  1.00  0.00     0.293 HD
ENDBRANCH   8  24
TORSDOF 5
ENDMDL
MODEL 6
REMARK VINA RESULT:    -5.562      1.239      2.937
REMARK INTER + INTRA:          -6.836
REMARK INTER:                  -6.557
REMARK INTRA:                  -0.278
REMARK UNBOUND:                -0.298
REMARK SMILES O=c1c(O)c(-c2ccc(O)cc2)oc2cc(O)cc(O)c12
REMARK SMILES IDX 5 1 3 2 2 3 1 4 21 5 19 6 18 7 16 8 15 9 14 10 13 11 6 12
REMARK SMILES IDX 7 13 8 14 9 15 12 16 11 17 10 18 4 20 20 22 17 24
REMARK H PARENT 10 19 4 21 20 23 17 25
REMARK Flexibility Score: inf
ROOT
ATOM      1  C   UNL     1      -8.200  -1.246  -5.483  1.00  0.00     0.180 A 
ATOM      2  C   UNL     1      -8.899  -2.232  -4.766  1.00  0.00     0.208 A 
ATOM      3  C   UNL     1      -8.923  -3.546  -5.262  1.00  0.00     0.238 A 
ATOM      4  O   UNL     1      -9.612  -4.406  -4.655  1.00  0.00    -0.285 OA
ATOM      5  C   UNL     1      -8.202  -3.870  -6.437  1.00  0.00     0.111 A 
ATOM      6  C   UNL     1      -8.119  -5.177  -7.005  1.00  0.00     0.134 A 
ATOM      7  C   UNL     1      -7.465  -5.358  -8.230  1.00  0.00     0.093 A 
ATOM      8  C   UNL     1      -6.835  -4.291  -8.875  1.00  0.00     0.123 A 
ATOM      9  C   UNL     1      -6.862  -3.023  -8.301  1.00  0.00     0.094 A 
ATOM     10  C   UNL     1      -7.540  -2.803  -7.099  1.00  0.00     0.146 A 
ATOM     11  O   UNL     1      -7.560  -1.573  -6.600  1.00  0.00    -0.452 OA
ENDROOT
BRANCH   1  12
ATOM     12  C   UNL     1      -8.140   0.164  -5.033  1.00  0.00     0.021 A 
ATOM     13  C   UNL     1      -7.204   0.587  -4.072  1.00  0.00     0.016 A 
ATOM     14  C   UNL     1      -7.183   1.919  -3.645  1.00  0.00     0.047 A 
ATOM     15  C   UNL     1      -8.105   2.838  -4.160  1.00  0.00     0.115 A 
ATOM     16  C   UNL     1      -9.075   1.088  -5.529  1.00  0.00     0.016 A 
ATOM     17  C   UNL     1      -9.051   2.418  -5.101  1.00  0.00     0.047 A 
BRANCH  15  18
ATOM     18  O   UNL     1      -8.093   4.167  -3.743  1.00  0.00    -0.508 OA
ATOM     19  H   UNL     1      -7.895   4.923  -4.389  1.00  0.00     0.293 HD
ENDBRANCH  15  18
ENDBRANCH   1  12
BRANCH   2  20
ATOM     20  O   UNL     1      -9.540  -1.909  -3.568  1.00  0.00    -0.502 OA
ATOM     21  H   UNL     1      -9.217  -1.163  -2.962  1.00  0.00     0.293 HD
ENDBRANCH   2  20
BRANCH   6  22
ATOM     22  O   UNL     1      -8.637  -6.328  -6.401  1.00  0.00    -0.507 OA
ATOM     23  H   UNL     1      -8.236  -7.250  -6.476  1.00  0.00     0.293 HD
ENDBRANCH   6  22
BRANCH   8  24
ATOM     24  O   UNL     1      -6.171  -4.484 -10.084  1.00  0.00    -0.508 OA
ATOM     25  H   UNL     1      -6.603  -4.983 -10.853  1.00  0.00     0.293 HD
ENDBRANCH   8  24
TORSDOF 5
ENDMDL
MODEL 7
REMARK VINA RESULT:    -5.384      2.381      6.625
REMARK INTER + INTRA:          -6.627
REMARK INTER:                  -6.390
REMARK INTRA:                  -0.237
REMARK UNBOUND:                -0.298
REMARK SMILES O=c1c(O)c(-c2ccc(O)cc2)oc2cc(O)cc(O)c12
REMARK SMILES IDX 5 1 3 2 2 3 1 4 21 5 19 6 18 7 16 8 15 9 14 10 13 11 6 12
REMARK SMILES IDX 7 13 8 14 9 15 12 16 11 17 10 18 4 20 20 22 17 24
REMARK H PARENT 10 19 4 21 20 23 17 25
REMARK Flexibility Score: inf
ROOT
ATOM      1  C   UNL     1      -7.234  -1.759  -7.174  1.00  0.00     0.180 A 
ATOM      2  C   UNL     1      -8.263  -1.198  -7.949  1.00  0.00     0.208 A 
ATOM      3  C   UNL     1      -8.952  -0.077  -7.458  1.00  0.00     0.238 A 
ATOM      4  O   UNL     1      -9.922   0.374  -8.122  1.00  0.00    -0.285 OA
ATOM      5  C   UNL     1      -8.567   0.502  -6.224  1.00  0.00     0.111 A 
ATOM      6  C   UNL     1      -9.166   1.666  -5.651  1.00  0.00     0.134 A 
ATOM      7  C   UNL     1      -8.774   2.086  -4.374  1.00  0.00     0.093 A 
ATOM      8  C   UNL     1      -7.761   1.424  -3.677  1.00  0.00     0.123 A 
ATOM      9  C   UNL     1      -7.132   0.321  -4.251  1.00  0.00     0.094 A 
ATOM     10  C   UNL     1      -7.528  -0.145  -5.507  1.00  0.00     0.146 A 
ATOM     11  O   UNL     1      -6.917  -1.213  -6.006  1.00  0.00    -0.452 OA
ENDROOT
BRANCH   1  12
ATOM     12  C   UNL     1      -6.472  -2.949  -7.618  1.00  0.00     0.021 A 
ATOM     13  C   UNL     1      -7.038  -4.236  -7.588  1.00  0.00     0.016 A 
ATOM     14  C   UNL     1      -6.290  -5.347  -7.989  1.00  0.00     0.047 A 
ATOM     15  C   UNL     1      -4.964  -5.187  -8.412  1.00  0.00     0.115 A 
ATOM     16  C   UNL     1      -5.135  -2.800  -8.023  1.00  0.00     0.016 A 
ATOM     17  C   UNL     1      -4.389  -3.912  -8.425  1.00  0.00     0.047 A 
BRANCH  15  18
ATOM     18  O   UNL     1      -4.209  -6.286  -8.815  1.00  0.00    -0.508 OA
ATOM     19  H   UNL     1      -4.064  -7.082  -8.203  1.00  0.00     0.293 HD
ENDBRANCH  15  18
ENDBRANCH   1  12
BRANCH   2  20
ATOM     20  O   UNL     1      -8.577  -1.738  -9.199  1.00  0.00    -0.502 OA
ATOM     21  H   UNL     1      -9.062  -2.621  -9.304  1.00  0.00     0.293 HD
ENDBRANCH   2  20
BRANCH   6  22
ATOM     22  O   UNL     1     -10.124   2.453  -6.298  1.00  0.00    -0.507 OA
ATOM     23  H   UNL     1     -10.849   2.978  -5.834  1.00  0.00     0.293 HD
ENDBRANCH   6  22
BRANCH   8  24
ATOM     24  O   UNL     1      -7.365   1.860  -2.414  1.00  0.00    -0.508 OA
ATOM     25  H   UNL     1      -6.387   1.912  -2.154  1.00  0.00     0.293 HD
ENDBRANCH   8  24
TORSDOF 5
ENDMDL
MODEL 8
REMARK VINA RESULT:    -5.292     14.837     17.050
REMARK INTER + INTRA:          -6.519
REMARK INTER:                  -6.226
REMARK INTRA:                  -0.293
REMARK UNBOUND:                -0.298
REMARK SMILES O=c1c(O)c(-c2ccc(O)cc2)oc2cc(O)cc(O)c12
REMARK SMILES IDX 5 1 3 2 2 3 1 4 21 5 19 6 18 7 16 8 15 9 14 10 13 11 6 12
REMARK SMILES IDX 7 13 8 14 9 15 12 16 11 17 10 18 4 20 20 22 17 24
REMARK H PARENT 10 19 4 21 20 23 17 25
REMARK Flexibility Score: inf
ROOT
ATOM      1  C   UNL     1      -1.746   5.996   6.919  1.00  0.00     0.180 A 
ATOM      2  C   UNL     1      -3.103   5.736   7.178  1.00  0.00     0.208 A 
ATOM      3  C   UNL     1      -4.079   6.357   6.382  1.00  0.00     0.238 A 
ATOM      4  O   UNL     1      -5.292   6.179   6.668  1.00  0.00    -0.285 OA
ATOM      5  C   UNL     1      -3.687   7.185   5.302  1.00  0.00     0.111 A 
ATOM      6  C   UNL     1      -4.591   7.830   4.403  1.00  0.00     0.134 A 
ATOM      7  C   UNL     1      -4.091   8.711   3.436  1.00  0.00     0.093 A 
ATOM      8  C   UNL     1      -2.718   8.922   3.295  1.00  0.00     0.123 A 
ATOM      9  C   UNL     1      -1.825   8.256   4.131  1.00  0.00     0.094 A 
ATOM     10  C   UNL     1      -2.295   7.400   5.130  1.00  0.00     0.146 A 
ATOM     11  O   UNL     1      -1.409   6.802   5.919  1.00  0.00    -0.452 OA
ENDROOT
BRANCH   1  12
ATOM     12  C   UNL     1      -0.660   5.390   7.722  1.00  0.00     0.021 A 
ATOM     13  C   UNL     1      -0.231   5.970   8.930  1.00  0.00     0.016 A 
ATOM     14  C   UNL     1       0.813   5.392   9.659  1.00  0.00     0.047 A 
ATOM     15  C   UNL     1       1.452   4.240   9.183  1.00  0.00     0.115 A 
ATOM     16  C   UNL     1      -0.000   4.246   7.242  1.00  0.00     0.016 A 
ATOM     17  C   UNL     1       1.043   3.671   7.973  1.00  0.00     0.047 A 
BRANCH  15  18
ATOM     18  O   UNL     1       2.492   3.656   9.901  1.00  0.00    -0.508 OA
ATOM     19  H   UNL     1       3.185   3.071   9.448  1.00  0.00     0.293 HD
ENDBRANCH  15  18
ENDBRANCH   1  12
BRANCH   2  20
ATOM     20  O   UNL     1      -3.468   4.855   8.199  1.00  0.00    -0.502 OA
ATOM     21  H   UNL     1      -2.785   4.337   8.740  1.00  0.00     0.293 HD
ENDBRANCH   2  20
BRANCH   6  22
ATOM     22  O   UNL     1      -5.974   7.621   4.399  1.00  0.00    -0.507 OA
ATOM     23  H   UNL     1      -6.425   6.739   4.213  1.00  0.00     0.293 HD
ENDBRANCH   6  22
BRANCH   8  24
ATOM     24  O   UNL     1      -2.229   9.788   2.319  1.00  0.00    -0.508 OA
ATOM     25  H   UNL     1      -1.329   9.636   1.878  1.00  0.00     0.293 HD
ENDBRANCH   8  24
TORSDOF 5
ENDMDL
MODEL 9
REMARK VINA RESULT:    -5.227     14.644     16.580
REMARK INTER + INTRA:          -6.443
REMARK INTER:                  -6.154
REMARK INTRA:                  -0.289
REMARK UNBOUND:                -0.298
REMARK SMILES O=c1c(O)c(-c2ccc(O)cc2)oc2cc(O)cc(O)c12
REMARK SMILES IDX 5 1 3 2 2 3 1 4 21 5 19 6 18 7 16 8 15 9 14 10 13 11 6 12
REMARK SMILES IDX 7 13 8 14 9 15 12 16 11 17 10 18 4 20 20 22 17 24
REMARK H PARENT 10 19 4 21 20 23 17 25
REMARK Flexibility Score: inf
ROOT
ATOM      1  C   UNL     1      -3.979   6.526   6.949  1.00  0.00     0.180 A 
ATOM      2  C   UNL     1      -3.751   5.976   5.676  1.00  0.00     0.208 A 
ATOM      3  C   UNL     1      -2.462   5.521   5.352  1.00  0.00     0.238 A 
ATOM      4  O   UNL     1      -2.247   5.100   4.185  1.00  0.00    -0.285 OA
ATOM      5  C   UNL     1      -1.432   5.569   6.322  1.00  0.00     0.111 A 
ATOM      6  C   UNL     1      -0.100   5.094   6.119  1.00  0.00     0.134 A 
ATOM      7  C   UNL     1       0.863   5.291   7.116  1.00  0.00     0.093 A 
ATOM      8  C   UNL     1       0.528   5.887   8.333  1.00  0.00     0.123 A 
ATOM      9  C   UNL     1      -0.781   6.303   8.564  1.00  0.00     0.094 A 
ATOM     10  C   UNL     1      -1.755   6.156   7.574  1.00  0.00     0.146 A 
ATOM     11  O   UNL     1      -2.985   6.587   7.828  1.00  0.00    -0.452 OA
ENDROOT
BRANCH   1  12
ATOM     12  C   UNL     1      -5.306   7.040   7.359  1.00  0.00     0.021 A 
ATOM     13  C   UNL     1      -6.270   6.197   7.942  1.00  0.00     0.016 A 
ATOM     14  C   UNL     1      -7.524   6.701   8.300  1.00  0.00     0.047 A 
ATOM     15  C   UNL     1      -7.836   8.047   8.067  1.00  0.00     0.115 A 
ATOM     16  C   UNL     1      -5.634   8.383   7.111  1.00  0.00     0.016 A 
ATOM     17  C   UNL     1      -6.888   8.884   7.470  1.00  0.00     0.047 A 
BRANCH  15  18
ATOM     18  O   UNL     1      -9.082   8.559   8.420  1.00  0.00    -0.508 OA
ATOM     19  H   UNL     1      -9.329   8.729   9.388  1.00  0.00     0.293 HD
ENDBRANCH  15  18
ENDBRANCH   1  12
BRANCH   2  20
ATOM     20  O   UNL     1      -4.799   5.867   4.758  1.00  0.00    -0.502 OA
ATOM     21  H   UNL     1      -5.421   6.638   4.550  1.00  0.00     0.293 HD
ENDBRANCH   2  20
BRANCH   6  22
ATOM     22  O   UNL     1       0.319   4.407   4.975  1.00  0.00    -0.507 OA
ATOM     23  H   UNL     1       0.618   3.444   4.957  1.00  0.00     0.293 HD
ENDBRANCH   6  22
BRANCH   8  24
ATOM     24  O   UNL     1       1.490   6.063   9.327  1.00  0.00    -0.508 OA
ATOM     25  H   UNL     1       2.459   5.807   9.178  1.00  0.00     0.293 HD
ENDBRANCH   8  24
TORSDOF 5
ENDMDL
