MODEL 1
REMARK VINA RESULT:    -3.403      0.000      0.000
REMARK INTER + INTRA:          -4.080
REMARK INTER:                  -4.000
REMARK INTRA:                  -0.080
REMARK UNBOUND:                -0.080
REMARK SMILES CCCCC(=O)[O-]
REMARK SMILES IDX 4 1 5 2 6 3 7 4 3 5 2 6 1 7
REMARK H PARENT
REMARK Flexibility Score: inf
ROOT
ATOM      1  C   UNL     1      76.048  83.120  75.905  1.00  0.00     0.053 C 
ENDROOT
BRANCH   1   2
ATOM      2  C   UNL     1      76.854  83.905  74.918  1.00  0.00     0.041 C 
ATOM      3  O   UNL     1      77.705  83.326  74.193  1.00  0.00    -0.550 OA
ATOM      4  O   UNL     1      76.699  85.282  74.834  1.00  0.00    -0.550 OA
ENDBRANCH   1   2
BRANCH   1   5
ATOM      5  C   UNL     1      74.560  83.461  75.773  1.00  0.00     0.006 C 
BRANCH   5   6
ATOM      6  C   UNL     1      73.977  82.883  74.479  1.00  0.00    -0.003 C 
ATOM      7  C   UNL     1      72.452  82.837  74.535  1.00  0.00     0.004 C 
ENDBRANCH   5   6
ENDBRANCH   1   5
TORSDOF 3
ENDMDL
MODEL 2
REMARK VINA RESULT:    -3.375      0.546      1.424
REMARK INTER + INTRA:          -4.047
REMARK INTER:                  -4.024
REMARK INTRA:                  -0.023
REMARK UNBOUND:                -0.080
REMARK SMILES CCCCC(=O)[O-]
REMARK SMILES IDX 4 1 5 2 6 3 7 4 3 5 2 6 1 7
REMARK H PARENT
REMARK Flexibility Score: inf
ROOT
ATOM      1  C   UNL     1      75.625  83.215  75.603  1.00  0.00     0.053 C 
ENDROOT
BRANCH   1   2
ATOM      2  C   UNL     1      76.686  84.004  74.903  1.00  0.00     0.041 C 
ATOM      3  O   UNL     1      76.620  85.261  74.867  1.00  0.00    -0.550 OA
ATOM      4  O   UNL     1      77.722  83.349  74.250  1.00  0.00    -0.550 OA
ENDBRANCH   1   2
BRANCH   1   5
ATOM      5  C   UNL     1      74.472  82.899  74.645  1.00  0.00     0.006 C 
BRANCH   5   6
ATOM      6  C   UNL     1      73.119  83.025  75.354  1.00  0.00    -0.003 C 
ATOM      7  C   UNL     1      71.964  82.826  74.376  1.00  0.00     0.004 C 
ENDBRANCH   5   6
ENDBRANCH   1   5
TORSDOF 3
ENDMDL
MODEL 3
REMARK VINA RESULT:    -3.362      2.323      4.367
REMARK INTER + INTRA:          -4.031
REMARK INTER:                  -3.996
REMARK INTRA:                  -0.035
REMARK UNBOUND:                -0.080
REMARK SMILES CCCCC(=O)[O-]
REMARK SMILES IDX 4 1 5 2 6 3 7 4 3 5 2 6 1 7
REMARK H PARENT
REMARK Flexibility Score: inf
ROOT
ATOM      1  C   UNL     1      77.121  82.747  75.088  1.00  0.00     0.053 C 
ENDROOT
BRANCH   1   2
ATOM      2  C   UNL     1      76.241  83.952  74.983  1.00  0.00     0.041 C 
ATOM      3  O   UNL     1      74.989  83.823  74.978  1.00  0.00    -0.550 OA
ATOM      4  O   UNL     1      76.804  85.213  74.841  1.00  0.00    -0.550 OA
ENDBRANCH   1   2
BRANCH   1   5
ATOM      5  C   UNL     1      78.564  83.102  74.714  1.00  0.00     0.006 C 
BRANCH   5   6
ATOM      6  C   UNL     1      79.553  82.525  75.732  1.00  0.00    -0.003 C 
ATOM      7  C   UNL     1      80.904  83.232  75.649  1.00  0.00     0.004 C 
ENDBRANCH   5   6
ENDBRANCH   1   5
TORSDOF 3
ENDMDL
MODEL 4
REMARK VINA RESULT:    -3.293      1.618      2.977
REMARK INTER + INTRA:          -3.950
REMARK INTER:                  -3.915
REMARK INTRA:                  -0.035
REMARK UNBOUND:                -0.080
REMARK SMILES CCCCC(=O)[O-]
REMARK SMILES IDX 4 1 5 2 6 3 7 4 3 5 2 6 1 7
REMARK H PARENT
REMARK Flexibility Score: inf
ROOT
ATOM      1  C   UNL     1      75.666  83.282  75.791  1.00  0.00     0.053 C 
ENDROOT
BRANCH   1   2
ATOM      2  C   UNL     1      76.695  83.991  74.968  1.00  0.00     0.041 C 
ATOM      3  O   UNL     1      76.659  85.244  74.852  1.00  0.00    -0.550 OA
ATOM      4  O   UNL     1      77.664  83.264  74.290  1.00  0.00    -0.550 OA
ENDBRANCH   1   2
BRANCH   1   5
ATOM      5  C   UNL     1      76.275  82.045  76.461  1.00  0.00     0.006 C 
BRANCH   5   6
ATOM      6  C   UNL     1      76.432  82.260  77.970  1.00  0.00    -0.003 C 
ATOM      7  C   UNL     1      75.291  81.600  78.742  1.00  0.00     0.004 C 
ENDBRANCH   5   6
ENDBRANCH   1   5
TORSDOF 3
ENDMDL
MODEL 5
REMARK VINA RESULT:    -3.284      2.052      3.061
REMARK INTER + INTRA:          -3.939
REMARK INTER:                  -3.902
REMARK INTRA:                  -0.038
REMARK UNBOUND:                -0.080
REMARK SMILES CCCCC(=O)[O-]
REMARK SMILES IDX 4 1 5 2 6 3 7 4 3 5 2 6 1 7
REMARK H PARENT
REMARK Flexibility Score: inf
ROOT
ATOM      1  C   UNL     1      76.787  82.735  75.700  1.00  0.00     0.053 C 
ENDROOT
BRANCH   1   2
ATOM      2  C   UNL     1      76.096  83.920  75.102  1.00  0.00     0.041 C 
ATOM      3  O   UNL     1      74.880  83.848  74.782  1.00  0.00    -0.550 OA
ATOM      4  O   UNL     1      76.807  85.086  74.854  1.00  0.00    -0.550 OA
ENDBRANCH   1   2
BRANCH   1   5
ATOM      5  C   UNL     1      75.835  81.968  76.623  1.00  0.00     0.006 C 
BRANCH   5   6
ATOM      6  C   UNL     1      76.209  82.180  78.095  1.00  0.00    -0.003 C 
ATOM      7  C   UNL     1      75.568  81.117  78.984  1.00  0.00     0.004 C 
ENDBRANCH   5   6
ENDBRANCH   1   5
TORSDOF 3
ENDMDL
MODEL 6
REMARK VINA RESULT:    -3.133      2.236      3.859
REMARK INTER + INTRA:          -3.762
REMARK INTER:                  -3.727
REMARK INTRA:                  -0.035
REMARK UNBOUND:                -0.080
REMARK SMILES CCCCC(=O)[O-]
REMARK SMILES IDX 4 1 5 2 6 3 7 4 3 5 2 6 1 7
REMARK H PARENT
REMARK Flexibility Score: inf
ROOT
ATOM      1  C   UNL     1      77.203  82.888  75.148  1.00  0.00     0.053 C 
ENDROOT
BRANCH   1   2
ATOM      2  C   UNL     1      76.306  84.080  75.039  1.00  0.00     0.041 C 
ATOM      3  O   UNL     1      76.793  85.223  74.837  1.00  0.00    -0.550 OA
ATOM      4  O   UNL     1      74.935  83.936  75.208  1.00  0.00    -0.550 OA
ENDBRANCH   1   2
BRANCH   1   5
ATOM      5  C   UNL     1      78.555  83.172  74.484  1.00  0.00     0.006 C 
BRANCH   5   6
ATOM      6  C   UNL     1      79.067  81.938  73.733  1.00  0.00    -0.003 C 
ATOM      7  C   UNL     1      78.861  82.085  72.227  1.00  0.00     0.004 C 
ENDBRANCH   5   6
ENDBRANCH   1   5
TORSDOF 3
ENDMDL
MODEL 7
REMARK VINA RESULT:    -3.030     12.767     13.430
REMARK INTER + INTRA:          -3.641
REMARK INTER:                  -3.613
REMARK INTRA:                  -0.029
REMARK UNBOUND:                -0.080
REMARK SMILES CCCCC(=O)[O-]
REMARK SMILES IDX 4 1 5 2 6 3 7 4 3 5 2 6 1 7
REMARK H PARENT
REMARK Flexibility Score: inf
ROOT
ATOM      1  C   UNL     1      72.936  95.282  71.232  1.00  0.00     0.053 C 
ENDROOT
BRANCH   1   2
ATOM      2  C   UNL     1      71.698  95.653  71.986  1.00  0.00     0.041 C 
ATOM      3  O   UNL     1      71.090  96.722  71.718  1.00  0.00    -0.550 OA
ATOM      4  O   UNL     1      71.244  94.842  73.017  1.00  0.00    -0.550 OA
ENDBRANCH   1   2
BRANCH   1   5
ATOM      5  C   UNL     1      72.971  95.993  69.875  1.00  0.00     0.006 C 
BRANCH   5   6
ATOM      6  C   UNL     1      74.327  95.799  69.188  1.00  0.00    -0.003 C 
ATOM      7  C   UNL     1      74.670  94.317  69.055  1.00  0.00     0.004 C 
ENDBRANCH   5   6
ENDBRANCH   1   5
TORSDOF 3
ENDMDL
MODEL 8
REMARK VINA RESULT:    -2.967      1.733      2.139
REMARK INTER + INTRA:          -3.567
REMARK INTER:                  -3.545
REMARK INTRA:                  -0.021
REMARK UNBOUND:                -0.080
REMARK SMILES CCCCC(=O)[O-]
REMARK SMILES IDX 4 1 5 2 6 3 7 4 3 5 2 6 1 7
REMARK H PARENT
REMARK Flexibility Score: inf
ROOT
ATOM      1  C   UNL     1      74.201  83.212  74.912  1.00  0.00     0.053 C 
ENDROOT
BRANCH   1   2
ATOM      2  C   UNL     1      75.477  83.737  75.490  1.00  0.00     0.041 C 
ATOM      3  O   UNL     1      75.902  83.296  76.590  1.00  0.00    -0.550 OA
ATOM      4  O   UNL     1      76.172  84.747  74.838  1.00  0.00    -0.550 OA
ENDBRANCH   1   2
BRANCH   1   5
ATOM      5  C   UNL     1      73.358  82.537  75.998  1.00  0.00     0.006 C 
BRANCH   5   6
ATOM      6  C   UNL     1      71.876  82.510  75.605  1.00  0.00    -0.003 C 
ATOM      7  C   UNL     1      70.981  82.435  76.839  1.00  0.00     0.004 C 
ENDBRANCH   5   6
ENDBRANCH   1   5
TORSDOF 3
ENDMDL
MODEL 9
REMARK VINA RESULT:    -2.877      2.257      3.047
REMARK INTER + INTRA:          -3.462
REMARK INTER:                  -3.435
REMARK INTRA:                  -0.026
REMARK UNBOUND:                -0.080
REMARK SMILES CCCCC(=O)[O-]
REMARK SMILES IDX 4 1 5 2 6 3 7 4 3 5 2 6 1 7
REMARK H PARENT
REMARK Flexibility Score: inf
ROOT
ATOM      1  C   UNL     1      75.823  83.017  76.496  1.00  0.00     0.053 C 
ENDROOT
BRANCH   1   2
ATOM      2  C   UNL     1      75.551  83.804  75.252  1.00  0.00     0.041 C 
ATOM      3  O   UNL     1      76.332  84.727  74.904  1.00  0.00    -0.550 OA
ATOM      4  O   UNL     1      74.409  83.548  74.505  1.00  0.00    -0.550 OA
ENDBRANCH   1   2
BRANCH   1   5
ATOM      5  C   UNL     1      74.624  82.127  76.840  1.00  0.00     0.006 C 
BRANCH   5   6
ATOM      6  C   UNL     1      75.072  80.872  77.598  1.00  0.00    -0.003 C 
ATOM      7  C   UNL     1      75.538  81.219  79.010  1.00  0.00     0.004 C 
ENDBRANCH   5   6
ENDBRANCH   1   5
TORSDOF 3
ENDMDL
