MODEL 1
REMARK VINA RESULT:    -5.199      0.000      0.000
REMARK INTER + INTRA:          -5.893
REMARK INTER:                  -5.807
REMARK INTRA:                  -0.086
REMARK UNBOUND:                -0.086
REMARK SMILES CCc1ccc(O)cc1O
REMARK SMILES IDX 3 1 9 2 8 3 6 4 5 5 4 6 2 7 1 8 10 9 7 11
REMARK H PARENT 10 10 7 12
REMARK Flexibility Score: inf
ROOT
ATOM      1  C   UNL     1      22.449  29.249 -20.065  1.00  0.00    -0.006 A 
ATOM      2  C   UNL     1      23.384  28.214 -19.858  1.00  0.00     0.122 A 
ATOM      3  C   UNL     1      24.409  28.378 -18.914  1.00  0.00     0.092 A 
ATOM      4  C   UNL     1      24.504  29.557 -18.169  1.00  0.00     0.119 A 
ATOM      5  C   UNL     1      23.568  30.579 -18.364  1.00  0.00     0.047 A 
ATOM      6  C   UNL     1      22.545  30.425 -19.302  1.00  0.00     0.011 A 
ENDROOT
BRANCH   1   7
ATOM      7  C   UNL     1      21.320  29.087 -21.051  1.00  0.00     0.036 C 
ATOM      8  C   UNL     1      21.064  30.392 -21.798  1.00  0.00     0.009 C 
ENDBRANCH   1   7
BRANCH   2   9
ATOM      9  O   UNL     1      23.291  27.028 -20.586  1.00  0.00    -0.508 OA
ATOM     10  H   UNL     1      23.631  26.149 -20.214  1.00  0.00     0.293 HD
ENDBRANCH   2   9
BRANCH   4  11
ATOM     11  O   UNL     1      25.529  29.700 -17.237  1.00  0.00    -0.508 OA
ATOM     12  H   UNL     1      26.221  30.435 -17.319  1.00  0.00     0.293 HD
ENDBRANCH   4  11
TORSDOF 3
ENDMDL
MODEL 2
REMARK VINA RESULT:    -5.027      2.379      2.960
REMARK INTER + INTRA:          -5.702
REMARK INTER:                  -5.594
REMARK INTRA:                  -0.108
REMARK UNBOUND:                -0.086
REMARK SMILES CCc1ccc(O)cc1O
REMARK SMILES IDX 3 1 9 2 8 3 6 4 5 5 4 6 2 7 1 8 10 9 7 11
REMARK H PARENT 10 10 7 12
REMARK Flexibility Score: inf
ROOT
ATOM      1  C   UNL     1      21.954  29.026 -17.531  1.00  0.00    -0.006 A 
ATOM      2  C   UNL     1      22.307  28.690 -18.854  1.00  0.00     0.122 A 
ATOM      3  C   UNL     1      23.575  29.033 -19.347  1.00  0.00     0.092 A 
ATOM      4  C   UNL     1      24.496  29.695 -18.531  1.00  0.00     0.119 A 
ATOM      5  C   UNL     1      24.152  30.016 -17.212  1.00  0.00     0.047 A 
ATOM      6  C   UNL     1      22.891  29.680 -16.714  1.00  0.00     0.011 A 
ENDROOT
BRANCH   1   7
ATOM      7  C   UNL     1      20.609  28.643 -16.966  1.00  0.00     0.036 C 
ATOM      8  C   UNL     1      20.721  27.388 -16.107  1.00  0.00     0.009 C 
ENDBRANCH   1   7
BRANCH   2   9
ATOM      9  O   UNL     1      21.400  28.017 -19.673  1.00  0.00    -0.508 OA
ATOM     10  H   UNL     1      21.489  28.026 -20.682  1.00  0.00     0.293 HD
ENDBRANCH   2   9
BRANCH   4  11
ATOM     11  O   UNL     1      25.750  30.027 -19.038  1.00  0.00    -0.508 OA
ATOM     12  H   UNL     1      26.539  29.396 -18.955  1.00  0.00     0.293 HD
ENDBRANCH   4  11
TORSDOF 3
ENDMDL
MODEL 3
REMARK VINA RESULT:    -4.914      1.897      3.898
REMARK INTER + INTRA:          -5.574
REMARK INTER:                  -5.486
REMARK INTRA:                  -0.088
REMARK UNBOUND:                -0.086
REMARK SMILES CCc1ccc(O)cc1O
REMARK SMILES IDX 3 1 9 2 8 3 6 4 5 5 4 6 2 7 1 8 10 9 7 11
REMARK H PARENT 10 10 7 12
REMARK Flexibility Score: inf
ROOT
ATOM      1  C   UNL     1      22.248  29.197 -19.783  1.00  0.00    -0.006 A 
ATOM      2  C   UNL     1      22.517  28.186 -20.727  1.00  0.00     0.122 A 
ATOM      3  C   UNL     1      22.183  28.381 -22.075  1.00  0.00     0.092 A 
ATOM      4  C   UNL     1      21.594  29.578 -22.493  1.00  0.00     0.119 A 
ATOM      5  C   UNL     1      21.339  30.589 -21.559  1.00  0.00     0.047 A 
ATOM      6  C   UNL     1      21.668  30.403 -20.214  1.00  0.00     0.011 A 
ENDROOT
BRANCH   1   7
ATOM      7  C   UNL     1      22.624  29.026 -18.333  1.00  0.00     0.036 C 
ATOM      8  C   UNL     1      23.077  30.353 -17.732  1.00  0.00     0.009 C 
ENDBRANCH   1   7
BRANCH   2   9
ATOM      9  O   UNL     1      23.117  26.992 -20.324  1.00  0.00    -0.508 OA
ATOM     10  H   UNL     1      23.686  26.444 -20.958  1.00  0.00     0.293 HD
ENDBRANCH   2   9
BRANCH   4  11
ATOM     11  O   UNL     1      21.270  29.753 -23.836  1.00  0.00    -0.508 OA
ATOM     12  H   UNL     1      20.715  30.541 -24.148  1.00  0.00     0.293 HD
ENDBRANCH   4  11
TORSDOF 3
ENDMDL
MODEL 4
REMARK VINA RESULT:    -4.845      2.579      3.669
REMARK INTER + INTRA:          -5.498
REMARK INTER:                  -5.415
REMARK INTRA:                  -0.084
REMARK UNBOUND:                -0.086
REMARK SMILES CCc1ccc(O)cc1O
REMARK SMILES IDX 3 1 9 2 8 3 6 4 5 5 4 6 2 7 1 8 10 9 7 11
REMARK H PARENT 10 10 7 12
REMARK Flexibility Score: inf
ROOT
ATOM      1  C   UNL     1      22.004  29.158 -17.133  1.00  0.00    -0.006 A 
ATOM      2  C   UNL     1      23.173  29.402 -16.384  1.00  0.00     0.122 A 
ATOM      3  C   UNL     1      24.371  29.717 -17.042  1.00  0.00     0.092 A 
ATOM      4  C   UNL     1      24.411  29.801 -18.437  1.00  0.00     0.119 A 
ATOM      5  C   UNL     1      23.248  29.573 -19.181  1.00  0.00     0.047 A 
ATOM      6  C   UNL     1      22.051  29.258 -18.534  1.00  0.00     0.011 A 
ENDROOT
BRANCH   1   7
ATOM      7  C   UNL     1      20.696  28.847 -16.450  1.00  0.00     0.036 C 
ATOM      8  C   UNL     1      20.570  27.352 -16.178  1.00  0.00     0.009 C 
ENDBRANCH   1   7
BRANCH   2   9
ATOM      9  O   UNL     1      23.141  29.335 -14.991  1.00  0.00    -0.508 OA
ATOM     10  H   UNL     1      22.642  30.021 -14.438  1.00  0.00     0.293 HD
ENDBRANCH   2   9
BRANCH   4  11
ATOM     11  O   UNL     1      25.610  30.116 -19.073  1.00  0.00    -0.508 OA
ATOM     12  H   UNL     1      25.774  29.876 -20.043  1.00  0.00     0.293 HD
ENDBRANCH   4  11
TORSDOF 3
ENDMDL
MODEL 5
REMARK VINA RESULT:    -4.822      1.619      2.228
REMARK INTER + INTRA:          -5.472
REMARK INTER:                  -5.365
REMARK INTRA:                  -0.107
REMARK UNBOUND:                -0.086
REMARK SMILES CCc1ccc(O)cc1O
REMARK SMILES IDX 3 1 9 2 8 3 6 4 5 5 4 6 2 7 1 8 10 9 7 11
REMARK H PARENT 10 10 7 12
REMARK Flexibility Score: inf
ROOT
ATOM      1  C   UNL     1      22.392  28.666 -20.185  1.00  0.00    -0.006 A 
ATOM      2  C   UNL     1      22.265  29.925 -19.563  1.00  0.00     0.122 A 
ATOM      3  C   UNL     1      23.222  30.340 -18.626  1.00  0.00     0.092 A 
ATOM      4  C   UNL     1      24.308  29.519 -18.310  1.00  0.00     0.119 A 
ATOM      5  C   UNL     1      24.444  28.275 -18.938  1.00  0.00     0.047 A 
ATOM      6  C   UNL     1      23.495  27.853 -19.872  1.00  0.00     0.011 A 
ENDROOT
BRANCH   1   7
ATOM      7  C   UNL     1      21.396  28.207 -21.219  1.00  0.00     0.036 C 
ATOM      8  C   UNL     1      21.960  28.375 -22.626  1.00  0.00     0.009 C 
ENDBRANCH   1   7
BRANCH   2   9
ATOM      9  O   UNL     1      21.193  30.758 -19.880  1.00  0.00    -0.508 OA
ATOM     10  H   UNL     1      20.304  30.385 -20.190  1.00  0.00     0.293 HD
ENDBRANCH   2   9
BRANCH   4  11
ATOM     11  O   UNL     1      25.248  29.949 -17.377  1.00  0.00    -0.508 OA
ATOM     12  H   UNL     1      25.975  29.333 -17.034  1.00  0.00     0.293 HD
ENDBRANCH   4  11
TORSDOF 3
ENDMDL
MODEL 6
REMARK VINA RESULT:    -4.801      7.348      8.786
REMARK INTER + INTRA:          -5.449
REMARK INTER:                  -5.347
REMARK INTRA:                  -0.102
REMARK UNBOUND:                -0.086
REMARK SMILES CCc1ccc(O)cc1O
REMARK SMILES IDX 3 1 9 2 8 3 6 4 5 5 4 6 2 7 1 8 10 9 7 11
REMARK H PARENT 10 10 7 12
REMARK Flexibility Score: inf
ROOT
ATOM      1  C   UNL     1      24.222  23.311 -25.653  1.00  0.00    -0.006 A 
ATOM      2  C   UNL     1      24.389  23.435 -24.259  1.00  0.00     0.122 A 
ATOM      3  C   UNL     1      23.266  23.433 -23.418  1.00  0.00     0.092 A 
ATOM      4  C   UNL     1      21.982  23.298 -23.952  1.00  0.00     0.119 A 
ATOM      5  C   UNL     1      21.815  23.160 -25.335  1.00  0.00     0.047 A 
ATOM      6  C   UNL     1      22.927  23.162 -26.180  1.00  0.00     0.011 A 
ENDROOT
BRANCH   1   7
ATOM      7  C   UNL     1      25.413  23.280 -26.578  1.00  0.00     0.036 C 
ATOM      8  C   UNL     1      25.576  21.898 -27.202  1.00  0.00     0.009 C 
ENDBRANCH   1   7
BRANCH   2   9
ATOM      9  O   UNL     1      25.667  23.557 -23.714  1.00  0.00    -0.508 OA
ATOM     10  H   UNL     1      25.847  23.364 -22.736  1.00  0.00     0.293 HD
ENDBRANCH   2   9
BRANCH   4  11
ATOM     11  O   UNL     1      20.879  23.298 -23.101  1.00  0.00    -0.508 OA
ATOM     12  H   UNL     1      20.668  22.505 -22.507  1.00  0.00     0.293 HD
ENDBRANCH   4  11
TORSDOF 3
ENDMDL
MODEL 7
REMARK VINA RESULT:    -4.795      3.034      4.510
REMARK INTER + INTRA:          -5.442
REMARK INTER:                  -5.354
REMARK INTRA:                  -0.087
REMARK UNBOUND:                -0.086
REMARK SMILES CCc1ccc(O)cc1O
REMARK SMILES IDX 3 1 9 2 8 3 6 4 5 5 4 6 2 7 1 8 10 9 7 11
REMARK H PARENT 10 10 7 12
REMARK Flexibility Score: inf
ROOT
ATOM      1  C   UNL     1      21.976  29.000 -16.379  1.00  0.00    -0.006 A 
ATOM      2  C   UNL     1      22.972  29.959 -16.654  1.00  0.00     0.122 A 
ATOM      3  C   UNL     1      23.169  30.404 -17.969  1.00  0.00     0.092 A 
ATOM      4  C   UNL     1      22.376  29.912 -19.010  1.00  0.00     0.119 A 
ATOM      5  C   UNL     1      21.377  28.970 -18.736  1.00  0.00     0.047 A 
ATOM      6  C   UNL     1      21.175  28.520 -17.429  1.00  0.00     0.011 A 
ENDROOT
BRANCH   1   7
ATOM      7  C   UNL     1      21.722  28.526 -14.970  1.00  0.00     0.036 C 
ATOM      8  C   UNL     1      20.245  28.207 -14.765  1.00  0.00     0.009 C 
ENDBRANCH   1   7
BRANCH   2   9
ATOM      9  O   UNL     1      23.759  30.468 -15.621  1.00  0.00    -0.508 OA
ATOM     10  H   UNL     1      24.769  30.512 -15.695  1.00  0.00     0.293 HD
ENDBRANCH   2   9
BRANCH   4  11
ATOM     11  O   UNL     1      22.587  30.366 -20.309  1.00  0.00    -0.508 OA
ATOM     12  H   UNL     1      22.110  29.949 -21.100  1.00  0.00     0.293 HD
ENDBRANCH   4  11
TORSDOF 3
ENDMDL
MODEL 8
REMARK VINA RESULT:    -4.769     11.660     12.344
REMARK INTER + INTRA:          -5.413
REMARK INTER:                  -5.306
REMARK INTRA:                  -0.107
REMARK UNBOUND:                -0.086
REMARK SMILES CCc1ccc(O)cc1O
REMARK SMILES IDX 3 1 9 2 8 3 6 4 5 5 4 6 2 7 1 8 10 9 7 11
REMARK H PARENT 10 10 7 12
REMARK Flexibility Score: inf
ROOT
ATOM      1  C   UNL     1      28.915  39.164 -23.946  1.00  0.00    -0.006 A 
ATOM      2  C   UNL     1      30.286  39.274 -24.253  1.00  0.00     0.122 A 
ATOM      3  C   UNL     1      31.247  38.897 -23.303  1.00  0.00     0.092 A 
ATOM      4  C   UNL     1      30.854  38.402 -22.056  1.00  0.00     0.119 A 
ATOM      5  C   UNL     1      29.492  38.279 -21.756  1.00  0.00     0.047 A 
ATOM      6  C   UNL     1      28.529  38.653 -22.695  1.00  0.00     0.011 A 
ENDROOT
BRANCH   1   7
ATOM      7  C   UNL     1      27.861  39.533 -24.960  1.00  0.00     0.036 C 
ATOM      8  C   UNL     1      27.300  38.285 -25.635  1.00  0.00     0.009 C 
ENDBRANCH   1   7
BRANCH   2   9
ATOM      9  O   UNL     1      30.690  39.753 -25.500  1.00  0.00    -0.508 OA
ATOM     10  H   UNL     1      31.642  40.055 -25.669  1.00  0.00     0.293 HD
ENDBRANCH   2   9
BRANCH   4  11
ATOM     11  O   UNL     1      31.822  38.033 -21.126  1.00  0.00    -0.508 OA
ATOM     12  H   UNL     1      32.453  37.260 -21.297  1.00  0.00     0.293 HD
ENDBRANCH   4  11
TORSDOF 3
ENDMDL
MODEL 9
REMARK VINA RESULT:    -4.698      3.173      3.895
REMARK INTER + INTRA:          -5.334
REMARK INTER:                  -5.248
REMARK INTRA:                  -0.085
REMARK UNBOUND:                -0.086
REMARK SMILES CCc1ccc(O)cc1O
REMARK SMILES IDX 3 1 9 2 8 3 6 4 5 5 4 6 2 7 1 8 10 9 7 11
REMARK H PARENT 10 10 7 12
REMARK Flexibility Score: inf
ROOT
ATOM      1  C   UNL     1      22.305  29.475 -17.746  1.00  0.00    -0.006 A 
ATOM      2  C   UNL     1      23.068  29.503 -16.561  1.00  0.00     0.122 A 
ATOM      3  C   UNL     1      22.533  28.981 -15.374  1.00  0.00     0.092 A 
ATOM      4  C   UNL     1      21.252  28.422 -15.360  1.00  0.00     0.119 A 
ATOM      5  C   UNL     1      20.499  28.380 -16.540  1.00  0.00     0.047 A 
ATOM      6  C   UNL     1      21.024  28.899 -17.726  1.00  0.00     0.011 A 
ENDROOT
BRANCH   1   7
ATOM      7  C   UNL     1      22.867  30.002 -19.042  1.00  0.00     0.036 C 
ATOM      8  C   UNL     1      21.838  29.891 -20.162  1.00  0.00     0.009 C 
ENDBRANCH   1   7
BRANCH   2   9
ATOM      9  O   UNL     1      24.353  30.046 -16.566  1.00  0.00    -0.508 OA
ATOM     10  H   UNL     1      24.819  30.315 -15.707  1.00  0.00     0.293 HD
ENDBRANCH   2   9
BRANCH   4  11
ATOM     11  O   UNL     1      20.739  27.908 -14.172  1.00  0.00    -0.508 OA
ATOM     12  H   UNL     1      20.008  28.387 -13.659  1.00  0.00     0.293 HD
ENDBRANCH   4  11
TORSDOF 3
ENDMDL
