MODEL 1
REMARK VINA RESULT:    -4.105      0.000      0.000
REMARK INTER + INTRA:          -9.560
REMARK INTER:                  -7.224
REMARK INTRA:                  -2.336
REMARK UNBOUND:                -2.336
REMARK SMILES CCCCCCC=CCCCCCCCC(=O)[O-]
REMARK SMILES IDX 10 1 11 2 12 3 13 4 14 5 15 6 16 7 17 8 18 9 9 10 8 11 7 12
REMARK SMILES IDX 6 13 5 14 4 15 3 16 2 17 1 18
REMARK H PARENT
REMARK Flexibility Score: inf
ROOT
ATOM      1  C   UNL     1       4.230  19.491   2.620  1.00  0.00     0.004 C 
ENDROOT
BRANCH   1   2
ATOM      2  C   UNL     1       2.911  19.895   1.942  1.00  0.00     0.000 C 
BRANCH   2   3
ATOM      3  C   UNL     1       2.562  18.991   0.747  1.00  0.00     0.000 C 
BRANCH   3   4
ATOM      4  C   UNL     1       2.122  17.579   1.174  1.00  0.00     0.000 C 
BRANCH   4   5
ATOM      5  C   UNL     1       2.898  16.427   0.503  1.00  0.00     0.006 C 
BRANCH   5   6
ATOM      6  C   UNL     1       4.405  16.682   0.344  1.00  0.00     0.053 C 
BRANCH   6   7
ATOM      7  C   UNL     1       5.129  15.472  -0.163  1.00  0.00     0.041 C 
ATOM      8  O   UNL     1       4.486  14.510  -0.658  1.00  0.00    -0.550 OA
ATOM      9  O   UNL     1       6.515  15.419  -0.109  1.00  0.00    -0.550 OA
ENDBRANCH   6   7
ENDBRANCH   5   6
ENDBRANCH   4   5
ENDBRANCH   3   4
ENDBRANCH   2   3
ENDBRANCH   1   2
BRANCH   1  10
ATOM     10  C   UNL     1       4.092  19.358   4.144  1.00  0.00     0.027 C 
BRANCH  10  11
ATOM     11  C   UNL     1       4.674  18.056   4.623  1.00  0.00    -0.031 C 
ATOM     12  C   UNL     1       5.076  17.111   3.762  1.00  0.00    -0.031 C 
BRANCH  12  13
ATOM     13  C   UNL     1       5.613  15.796   4.261  1.00  0.00     0.027 C 
BRANCH  13  14
ATOM     14  C   UNL     1       5.243  14.623   3.340  1.00  0.00     0.004 C 
BRANCH  14  15
ATOM     15  C   UNL     1       3.742  14.267   3.327  1.00  0.00     0.000 C 
BRANCH  15  16
ATOM     16  C   UNL     1       3.189  13.849   4.706  1.00  0.00    -0.000 C 
BRANCH  16  17
ATOM     17  C   UNL     1       2.220  14.892   5.283  1.00  0.00    -0.003 C 
ATOM     18  C   UNL     1       1.436  15.589   4.174  1.00  0.00     0.004 C 
ENDBRANCH  16  17
ENDBRANCH  15  16
ENDBRANCH  14  15
ENDBRANCH  13  14
ENDBRANCH  12  13
ENDBRANCH  10  11
ENDBRANCH   1  10
TORSDOF 13
ENDMDL
MODEL 2
REMARK VINA RESULT:    -4.036      1.358      3.879
REMARK INTER + INTRA:          -9.439
REMARK INTER:                  -7.153
REMARK INTRA:                  -2.286
REMARK UNBOUND:                -2.336
REMARK SMILES CCCCCCC=CCCCCCCCC(=O)[O-]
REMARK SMILES IDX 10 1 11 2 12 3 13 4 14 5 15 6 16 7 17 8 18 9 9 10 8 11 7 12
REMARK SMILES IDX 6 13 5 14 4 15 3 16 2 17 1 18
REMARK H PARENT
REMARK Flexibility Score: inf
ROOT
ATOM      1  C   UNL     1       1.112  14.889   5.669  1.00  0.00     0.004 C 
ENDROOT
BRANCH   1   2
ATOM      2  C   UNL     1       1.795  16.231   5.363  1.00  0.00     0.000 C 
BRANCH   2   3
ATOM      3  C   UNL     1       1.098  17.003   4.230  1.00  0.00     0.000 C 
BRANCH   3   4
ATOM      4  C   UNL     1       0.871  16.145   2.973  1.00  0.00     0.000 C 
BRANCH   4   5
ATOM      5  C   UNL     1       1.844  16.426   1.810  1.00  0.00     0.006 C 
BRANCH   5   6
ATOM      6  C   UNL     1       1.884  15.329   0.734  1.00  0.00     0.053 C 
BRANCH   6   7
ATOM      7  C   UNL     1       3.270  15.107   0.210  1.00  0.00     0.041 C 
ATOM      8  O   UNL     1       3.630  13.959  -0.164  1.00  0.00    -0.550 OA
ATOM      9  O   UNL     1       4.156  16.172   0.114  1.00  0.00    -0.550 OA
ENDBRANCH   6   7
ENDBRANCH   5   6
ENDBRANCH   4   5
ENDBRANCH   3   4
ENDBRANCH   2   3
ENDBRANCH   1   2
BRANCH   1  10
ATOM     10  C   UNL     1       2.019  13.684   5.370  1.00  0.00     0.027 C 
BRANCH  10  11
ATOM     11  C   UNL     1       3.357  14.135   4.854  1.00  0.00    -0.031 C 
ATOM     12  C   UNL     1       3.767  13.833   3.615  1.00  0.00    -0.031 C 
BRANCH  12  13
ATOM     13  C   UNL     1       5.129  14.253   3.132  1.00  0.00     0.027 C 
BRANCH  13  14
ATOM     14  C   UNL     1       5.670  15.476   3.891  1.00  0.00     0.004 C 
BRANCH  14  15
ATOM     15  C   UNL     1       5.123  16.830   3.396  1.00  0.00     0.000 C 
BRANCH  15  16
ATOM     16  C   UNL     1       5.513  18.026   4.291  1.00  0.00    -0.000 C 
BRANCH  16  17
ATOM     17  C   UNL     1       4.746  19.303   3.920  1.00  0.00    -0.003 C 
ATOM     18  C   UNL     1       4.316  19.282   2.456  1.00  0.00     0.004 C 
ENDBRANCH  16  17
ENDBRANCH  15  16
ENDBRANCH  14  15
ENDBRANCH  13  14
ENDBRANCH  12  13
ENDBRANCH  10  11
ENDBRANCH   1  10
TORSDOF 13
ENDMDL
MODEL 3
REMARK VINA RESULT:    -4.018      9.976     12.100
REMARK INTER + INTRA:          -9.407
REMARK INTER:                  -7.382
REMARK INTRA:                  -2.024
REMARK UNBOUND:                -2.336
REMARK SMILES CCCCCCC=CCCCCCCCC(=O)[O-]
REMARK SMILES IDX 10 1 11 2 12 3 13 4 14 5 15 6 16 7 17 8 18 9 9 10 8 11 7 12
REMARK SMILES IDX 6 13 5 14 4 15 3 16 2 17 1 18
REMARK H PARENT
REMARK Flexibility Score: inf
ROOT
ATOM      1  C   UNL     1      12.655  14.396  -4.759  1.00  0.00     0.004 C 
ENDROOT
BRANCH   1   2
ATOM      2  C   UNL     1      13.903  14.541  -5.643  1.00  0.00     0.000 C 
BRANCH   2   3
ATOM      3  C   UNL     1      15.012  13.543  -5.265  1.00  0.00     0.000 C 
BRANCH   3   4
ATOM      4  C   UNL     1      14.535  12.467  -4.273  1.00  0.00     0.000 C 
BRANCH   4   5
ATOM      5  C   UNL     1      15.319  12.416  -2.945  1.00  0.00     0.006 C 
BRANCH   5   6
ATOM      6  C   UNL     1      16.338  13.551  -2.763  1.00  0.00     0.053 C 
BRANCH   6   7
ATOM      7  C   UNL     1      15.880  14.560  -1.755  1.00  0.00     0.041 C 
ATOM      8  O   UNL     1      16.644  14.914  -0.819  1.00  0.00    -0.550 OA
ATOM      9  O   UNL     1      14.616  15.126  -1.862  1.00  0.00    -0.550 OA
ENDBRANCH   6   7
ENDBRANCH   5   6
ENDBRANCH   4   5
ENDBRANCH   3   4
ENDBRANCH   2   3
ENDBRANCH   1   2
BRANCH   1  10
ATOM     10  C   UNL     1      11.354  14.692  -5.523  1.00  0.00     0.027 C 
BRANCH  10  11
ATOM     11  C   UNL     1      10.427  13.509  -5.481  1.00  0.00    -0.031 C 
ATOM     12  C   UNL     1      10.652  12.472  -4.663  1.00  0.00    -0.031 C 
BRANCH  12  13
ATOM     13  C   UNL     1       9.738  11.277  -4.669  1.00  0.00     0.027 C 
BRANCH  13  14
ATOM     14  C   UNL     1      10.164  10.206  -3.652  1.00  0.00     0.004 C 
BRANCH  14  15
ATOM     15  C   UNL     1      11.441  10.548  -2.859  1.00  0.00     0.000 C 
BRANCH  15  16
ATOM     16  C   UNL     1      11.178  10.925  -1.385  1.00  0.00    -0.000 C 
BRANCH  16  17
ATOM     17  C   UNL     1      12.261  11.858  -0.823  1.00  0.00    -0.003 C 
ATOM     18  C   UNL     1      11.882  13.323  -1.018  1.00  0.00     0.004 C 
ENDBRANCH  16  17
ENDBRANCH  15  16
ENDBRANCH  14  15
ENDBRANCH  13  14
ENDBRANCH  12  13
ENDBRANCH  10  11
ENDBRANCH   1  10
TORSDOF 13
ENDMDL
MODEL 4
REMARK VINA RESULT:    -3.917      2.612      4.285
REMARK INTER + INTRA:          -9.229
REMARK INTER:                  -7.138
REMARK INTRA:                  -2.091
REMARK UNBOUND:                -2.336
REMARK SMILES CCCCCCC=CCCCCCCCC(=O)[O-]
REMARK SMILES IDX 10 1 11 2 12 3 13 4 14 5 15 6 16 7 17 8 18 9 9 10 8 11 7 12
REMARK SMILES IDX 6 13 5 14 4 15 3 16 2 17 1 18
REMARK H PARENT
REMARK Flexibility Score: inf
ROOT
ATOM      1  C   UNL     1       3.703  19.782   2.642  1.00  0.00     0.004 C 
ENDROOT
BRANCH   1   2
ATOM      2  C   UNL     1       4.851  19.341   3.561  1.00  0.00     0.000 C 
BRANCH   2   3
ATOM      3  C   UNL     1       4.389  19.103   5.009  1.00  0.00     0.000 C 
BRANCH   3   4
ATOM      4  C   UNL     1       5.101  17.912   5.676  1.00  0.00     0.000 C 
BRANCH   4   5
ATOM      5  C   UNL     1       6.211  17.261   4.826  1.00  0.00     0.006 C 
BRANCH   5   6
ATOM      6  C   UNL     1       6.717  15.913   5.364  1.00  0.00     0.053 C 
BRANCH   6   7
ATOM      7  C   UNL     1       8.067  16.033   6.001  1.00  0.00     0.041 C 
ATOM      8  O   UNL     1       9.067  15.471   5.481  1.00  0.00    -0.550 OA
ATOM      9  O   UNL     1       8.225  16.786   7.158  1.00  0.00    -0.550 OA
ENDBRANCH   6   7
ENDBRANCH   5   6
ENDBRANCH   4   5
ENDBRANCH   3   4
ENDBRANCH   2   3
ENDBRANCH   1   2
BRANCH   1  10
ATOM     10  C   UNL     1       3.682  19.011   1.312  1.00  0.00     0.027 C 
BRANCH  10  11
ATOM     11  C   UNL     1       3.964  17.551   1.535  1.00  0.00    -0.031 C 
ATOM     12  C   UNL     1       4.507  16.789   0.576  1.00  0.00    -0.031 C 
BRANCH  12  13
ATOM     13  C   UNL     1       4.739  15.319   0.802  1.00  0.00     0.027 C 
BRANCH  13  14
ATOM     14  C   UNL     1       5.022  14.988   2.276  1.00  0.00     0.004 C 
BRANCH  14  15
ATOM     15  C   UNL     1       4.301  13.730   2.799  1.00  0.00     0.000 C 
BRANCH  15  16
ATOM     16  C   UNL     1       3.453  13.976   4.065  1.00  0.00    -0.000 C 
BRANCH  16  17
ATOM     17  C   UNL     1       2.981  15.434   4.173  1.00  0.00    -0.003 C 
ATOM     18  C   UNL     1       1.458  15.524   4.140  1.00  0.00     0.004 C 
ENDBRANCH  16  17
ENDBRANCH  15  16
ENDBRANCH  14  15
ENDBRANCH  13  14
ENDBRANCH  12  13
ENDBRANCH  10  11
ENDBRANCH   1  10
TORSDOF 13
ENDMDL
MODEL 5
REMARK VINA RESULT:    -3.892      2.586      4.449
REMARK INTER + INTRA:          -9.185
REMARK INTER:                  -6.830
REMARK INTRA:                  -2.355
REMARK UNBOUND:                -2.336
REMARK SMILES CCCCCCC=CCCCCCCCC(=O)[O-]
REMARK SMILES IDX 10 1 11 2 12 3 13 4 14 5 15 6 16 7 17 8 18 9 9 10 8 11 7 12
REMARK SMILES IDX 6 13 5 14 4 15 3 16 2 17 1 18
REMARK H PARENT
REMARK Flexibility Score: inf
ROOT
ATOM      1  C   UNL     1       3.175  18.560   0.815  1.00  0.00     0.004 C 
ENDROOT
BRANCH   1   2
ATOM      2  C   UNL     1       4.317  18.511   1.842  1.00  0.00     0.000 C 
BRANCH   2   3
ATOM      3  C   UNL     1       4.331  19.739   2.768  1.00  0.00     0.000 C 
BRANCH   3   4
ATOM      4  C   UNL     1       4.894  19.427   4.166  1.00  0.00     0.000 C 
BRANCH   4   5
ATOM      5  C   UNL     1       4.923  17.930   4.535  1.00  0.00     0.006 C 
BRANCH   5   6
ATOM      6  C   UNL     1       6.321  17.383   4.867  1.00  0.00     0.053 C 
BRANCH   6   7
ATOM      7  C   UNL     1       6.288  16.415   6.010  1.00  0.00     0.041 C 
ATOM      8  O   UNL     1       7.299  15.712   6.274  1.00  0.00    -0.550 OA
ATOM      9  O   UNL     1       5.148  16.305   6.795  1.00  0.00    -0.550 OA
ENDBRANCH   6   7
ENDBRANCH   5   6
ENDBRANCH   4   5
ENDBRANCH   3   4
ENDBRANCH   2   3
ENDBRANCH   1   2
BRANCH   1  10
ATOM     10  C   UNL     1       1.963  17.716   1.240  1.00  0.00     0.027 C 
BRANCH  10  11
ATOM     11  C   UNL     1       2.250  16.970   2.514  1.00  0.00    -0.031 C 
ATOM     12  C   UNL     1       2.025  15.653   2.619  1.00  0.00    -0.031 C 
BRANCH  12  13
ATOM     13  C   UNL     1       2.275  14.932   3.917  1.00  0.00     0.027 C 
BRANCH  13  14
ATOM     14  C   UNL     1       3.732  14.466   4.059  1.00  0.00     0.004 C 
BRANCH  14  15
ATOM     15  C   UNL     1       4.391  14.013   2.740  1.00  0.00     0.000 C 
BRANCH  15  16
ATOM     16  C   UNL     1       5.726  14.724   2.433  1.00  0.00    -0.000 C 
BRANCH  16  17
ATOM     17  C   UNL     1       5.692  15.467   1.089  1.00  0.00    -0.003 C 
ATOM     18  C   UNL     1       4.565  14.948   0.201  1.00  0.00     0.004 C 
ENDBRANCH  16  17
ENDBRANCH  15  16
ENDBRANCH  14  15
ENDBRANCH  13  14
ENDBRANCH  12  13
ENDBRANCH  10  11
ENDBRANCH   1  10
TORSDOF 13
ENDMDL
MODEL 6
REMARK VINA RESULT:    -3.848      9.072     11.721
REMARK INTER + INTRA:          -9.108
REMARK INTER:                  -6.760
REMARK INTRA:                  -2.349
REMARK UNBOUND:                -2.336
REMARK SMILES CCCCCCC=CCCCCCCCC(=O)[O-]
REMARK SMILES IDX 10 1 11 2 12 3 13 4 14 5 15 6 16 7 17 8 18 9 9 10 8 11 7 12
REMARK SMILES IDX 6 13 5 14 4 15 3 16 2 17 1 18
REMARK H PARENT
REMARK Flexibility Score: inf
ROOT
ATOM      1  C   UNL     1      11.700  14.169  -6.048  1.00  0.00     0.004 C 
ENDROOT
BRANCH   1   2
ATOM      2  C   UNL     1      12.473  12.864  -5.805  1.00  0.00     0.000 C 
BRANCH   2   3
ATOM      3  C   UNL     1      13.919  13.113  -5.341  1.00  0.00     0.000 C 
BRANCH   3   4
ATOM      4  C   UNL     1      14.082  14.439  -4.577  1.00  0.00     0.000 C 
BRANCH   4   5
ATOM      5  C   UNL     1      14.027  14.314  -3.041  1.00  0.00     0.006 C 
BRANCH   5   6
ATOM      6  C   UNL     1      14.714  13.059  -2.479  1.00  0.00     0.053 C 
BRANCH   6   7
ATOM      7  C   UNL     1      16.192  13.247  -2.329  1.00  0.00     0.041 C 
ATOM      8  O   UNL     1      16.652  14.330  -1.881  1.00  0.00    -0.550 OA
ATOM      9  O   UNL     1      17.061  12.216  -2.663  1.00  0.00    -0.550 OA
ENDBRANCH   6   7
ENDBRANCH   5   6
ENDBRANCH   4   5
ENDBRANCH   3   4
ENDBRANCH   2   3
ENDBRANCH   1   2
BRANCH   1  10
ATOM     10  C   UNL     1      10.368  14.216  -5.281  1.00  0.00     0.027 C 
BRANCH  10  11
ATOM     11  C   UNL     1      10.540  13.705  -3.877  1.00  0.00    -0.031 C 
ATOM     12  C   UNL     1       9.501  13.607  -3.037  1.00  0.00    -0.031 C 
BRANCH  12  13
ATOM     13  C   UNL     1       9.699  13.137  -1.621  1.00  0.00     0.027 C 
BRANCH  13  14
ATOM     14  C   UNL     1      11.159  12.752  -1.329  1.00  0.00     0.004 C 
BRANCH  14  15
ATOM     15  C   UNL     1      11.415  11.234  -1.239  1.00  0.00     0.000 C 
BRANCH  15  16
ATOM     16  C   UNL     1      11.973  10.617  -2.540  1.00  0.00    -0.000 C 
BRANCH  16  17
ATOM     17  C   UNL     1      11.095   9.470  -3.062  1.00  0.00    -0.003 C 
ATOM     18  C   UNL     1       9.842  10.004  -3.749  1.00  0.00     0.004 C 
ENDBRANCH  16  17
ENDBRANCH  15  16
ENDBRANCH  14  15
ENDBRANCH  13  14
ENDBRANCH  12  13
ENDBRANCH  10  11
ENDBRANCH   1  10
TORSDOF 13
ENDMDL
MODEL 7
REMARK VINA RESULT:    -3.820      9.503     11.730
REMARK INTER + INTRA:          -9.059
REMARK INTER:                  -7.167
REMARK INTRA:                  -1.892
REMARK UNBOUND:                -2.336
REMARK SMILES CCCCCCC=CCCCCCCCC(=O)[O-]
REMARK SMILES IDX 10 1 11 2 12 3 13 4 14 5 15 6 16 7 17 8 18 9 9 10 8 11 7 12
REMARK SMILES IDX 6 13 5 14 4 15 3 16 2 17 1 18
REMARK H PARENT
REMARK Flexibility Score: inf
ROOT
ATOM      1  C   UNL     1      15.689  14.743  -1.724  1.00  0.00     0.004 C 
ENDROOT
BRANCH   1   2
ATOM      2  C   UNL     1      14.883  14.301  -0.493  1.00  0.00     0.000 C 
BRANCH   2   3
ATOM      3  C   UNL     1      13.403  14.711  -0.579  1.00  0.00     0.000 C 
BRANCH   3   4
ATOM      4  C   UNL     1      12.522  13.634  -1.238  1.00  0.00     0.000 C 
BRANCH   4   5
ATOM      5  C   UNL     1      11.573  12.893  -0.274  1.00  0.00     0.006 C 
BRANCH   5   6
ATOM      6  C   UNL     1      12.152  11.601   0.322  1.00  0.00     0.053 C 
BRANCH   6   7
ATOM      7  C   UNL     1      12.500  11.756   1.771  1.00  0.00     0.041 C 
ATOM      8  O   UNL     1      11.619  11.593   2.656  1.00  0.00    -0.550 OA
ATOM      9  O   UNL     1      13.803  12.060   2.144  1.00  0.00    -0.550 OA
ENDBRANCH   6   7
ENDBRANCH   5   6
ENDBRANCH   4   5
ENDBRANCH   3   4
ENDBRANCH   2   3
ENDBRANCH   1   2
BRANCH   1  10
ATOM     10  C   UNL     1      16.059  13.566  -2.641  1.00  0.00     0.027 C 
BRANCH  10  11
ATOM     11  C   UNL     1      15.165  13.527  -3.850  1.00  0.00    -0.031 C 
ATOM     12  C   UNL     1      14.317  14.527  -4.125  1.00  0.00    -0.031 C 
BRANCH  12  13
ATOM     13  C   UNL     1      13.397  14.449  -5.314  1.00  0.00     0.027 C 
BRANCH  13  14
ATOM     14  C   UNL     1      12.009  13.899  -4.949  1.00  0.00     0.004 C 
BRANCH  14  15
ATOM     15  C   UNL     1      11.773  12.432  -5.360  1.00  0.00     0.000 C 
BRANCH  15  16
ATOM     16  C   UNL     1      11.902  11.428  -4.195  1.00  0.00    -0.000 C 
BRANCH  16  17
ATOM     17  C   UNL     1      10.571  11.222  -3.456  1.00  0.00    -0.003 C 
ATOM     18  C   UNL     1       9.412  11.079  -4.438  1.00  0.00     0.004 C 
ENDBRANCH  16  17
ENDBRANCH  15  16
ENDBRANCH  14  15
ENDBRANCH  13  14
ENDBRANCH  12  13
ENDBRANCH  10  11
ENDBRANCH   1  10
TORSDOF 13
ENDMDL
MODEL 8
REMARK VINA RESULT:    -3.803      1.263      4.361
REMARK INTER + INTRA:          -9.029
REMARK INTER:                  -7.049
REMARK INTRA:                  -1.979
REMARK UNBOUND:                -2.336
REMARK SMILES CCCCCCC=CCCCCCCCC(=O)[O-]
REMARK SMILES IDX 10 1 11 2 12 3 13 4 14 5 15 6 16 7 17 8 18 9 9 10 8 11 7 12
REMARK SMILES IDX 6 13 5 14 4 15 3 16 2 17 1 18
REMARK H PARENT
REMARK Flexibility Score: inf
ROOT
ATOM      1  C   UNL     1       4.570  15.428   5.958  1.00  0.00     0.004 C 
ENDROOT
BRANCH   1   2
ATOM      2  C   UNL     1       3.432  14.619   5.318  1.00  0.00     0.000 C 
BRANCH   2   3
ATOM      3  C   UNL     1       3.432  14.715   3.782  1.00  0.00     0.000 C 
BRANCH   3   4
ATOM      4  C   UNL     1       4.657  14.039   3.141  1.00  0.00     0.000 C 
BRANCH   4   5
ATOM      5  C   UNL     1       5.637  15.003   2.439  1.00  0.00     0.006 C 
BRANCH   5   6
ATOM      6  C   UNL     1       4.961  16.092   1.591  1.00  0.00     0.053 C 
BRANCH   6   7
ATOM      7  C   UNL     1       4.416  15.546   0.307  1.00  0.00     0.041 C 
ATOM      8  O   UNL     1       3.188  15.289   0.197  1.00  0.00    -0.550 OA
ATOM      9  O   UNL     1       5.261  15.343  -0.776  1.00  0.00    -0.550 OA
ENDBRANCH   6   7
ENDBRANCH   5   6
ENDBRANCH   4   5
ENDBRANCH   3   4
ENDBRANCH   2   3
ENDBRANCH   1   2
BRANCH   1  10
ATOM     10  C   UNL     1       4.066  16.689   6.677  1.00  0.00     0.027 C 
BRANCH  10  11
ATOM     11  C   UNL     1       4.167  17.893   5.782  1.00  0.00    -0.031 C 
ATOM     12  C   UNL     1       5.082  17.964   4.806  1.00  0.00    -0.031 C 
BRANCH  12  13
ATOM     13  C   UNL     1       5.199  19.197   3.950  1.00  0.00     0.027 C 
BRANCH  13  14
ATOM     14  C   UNL     1       4.116  20.239   4.271  1.00  0.00     0.004 C 
BRANCH  14  15
ATOM     15  C   UNL     1       2.988  20.334   3.224  1.00  0.00     0.000 C 
BRANCH  15  16
ATOM     16  C   UNL     1       3.364  19.748   1.846  1.00  0.00    -0.000 C 
BRANCH  16  17
ATOM     17  C   UNL     1       2.332  18.725   1.349  1.00  0.00    -0.003 C 
ATOM     18  C   UNL     1       2.184  18.785  -0.169  1.00  0.00     0.004 C 
ENDBRANCH  16  17
ENDBRANCH  15  16
ENDBRANCH  14  15
ENDBRANCH  13  14
ENDBRANCH  12  13
ENDBRANCH  10  11
ENDBRANCH   1  10
TORSDOF 13
ENDMDL
MODEL 9
REMARK VINA RESULT:    -3.760      9.302     11.012
REMARK INTER + INTRA:          -8.954
REMARK INTER:                  -6.794
REMARK INTRA:                  -2.160
REMARK UNBOUND:                -2.336
REMARK SMILES CCCCCCC=CCCCCCCCC(=O)[O-]
REMARK SMILES IDX 10 1 11 2 12 3 13 4 14 5 15 6 16 7 17 8 18 9 9 10 8 11 7 12
REMARK SMILES IDX 6 13 5 14 4 15 3 16 2 17 1 18
REMARK H PARENT
REMARK Flexibility Score: inf
ROOT
ATOM      1  C   UNL     1      12.657  15.044  -5.806  1.00  0.00     0.004 C 
ENDROOT
BRANCH   1   2
ATOM      2  C   UNL     1      11.189  14.684  -6.079  1.00  0.00     0.000 C 
BRANCH   2   3
ATOM      3  C   UNL     1      10.732  13.439  -5.299  1.00  0.00     0.000 C 
BRANCH   3   4
ATOM      4  C   UNL     1      10.129  13.781  -3.925  1.00  0.00     0.000 C 
BRANCH   4   5
ATOM      5  C   UNL     1      10.615  12.890  -2.763  1.00  0.00     0.006 C 
BRANCH   5   6
ATOM      6  C   UNL     1      11.425  11.659  -3.200  1.00  0.00     0.053 C 
BRANCH   6   7
ATOM      7  C   UNL     1      10.670  10.384  -2.985  1.00  0.00     0.041 C 
ATOM      8  O   UNL     1      10.885   9.684  -1.961  1.00  0.00    -0.550 OA
ATOM      9  O   UNL     1       9.711   9.981  -3.905  1.00  0.00    -0.550 OA
ENDBRANCH   6   7
ENDBRANCH   5   6
ENDBRANCH   4   5
ENDBRANCH   3   4
ENDBRANCH   2   3
ENDBRANCH   1   2
BRANCH   1  10
ATOM     10  C   UNL     1      13.580  13.816  -5.833  1.00  0.00     0.027 C 
BRANCH  10  11
ATOM     11  C   UNL     1      14.221  13.597  -4.490  1.00  0.00    -0.031 C 
ATOM     12  C   UNL     1      13.961  14.404  -3.451  1.00  0.00    -0.031 C 
BRANCH  12  13
ATOM     13  C   UNL     1      14.647  14.196  -2.128  1.00  0.00     0.027 C 
BRANCH  13  14
ATOM     14  C   UNL     1      13.663  14.207  -0.947  1.00  0.00     0.004 C 
BRANCH  14  15
ATOM     15  C   UNL     1      14.031  13.247   0.202  1.00  0.00     0.000 C 
BRANCH  15  16
ATOM     16  C   UNL     1      13.387  11.850   0.080  1.00  0.00    -0.000 C 
BRANCH  16  17
ATOM     17  C   UNL     1      11.953  11.821   0.628  1.00  0.00    -0.003 C 
ATOM     18  C   UNL     1      11.946  11.787   2.154  1.00  0.00     0.004 C 
ENDBRANCH  16  17
ENDBRANCH  15  16
ENDBRANCH  14  15
ENDBRANCH  13  14
ENDBRANCH  12  13
ENDBRANCH  10  11
ENDBRANCH   1  10
TORSDOF 13
ENDMDL
