MODEL 1
REMARK VINA RESULT:    -4.648      0.000      0.000
REMARK INTER + INTRA:         -14.992
REMARK INTER:                 -10.625
REMARK INTRA:                  -4.366
REMARK UNBOUND:                -4.366
REMARK SMILES CCCCCCCCCCCCCCCCCCCCCCCC(=O)[O-]
REMARK SMILES IDX 13 1 14 2 15 3 16 4 17 5 18 6 19 7 20 8 21 9 22 10 23 11
REMARK SMILES IDX 24 12 25 13 26 14 12 15 11 16 10 17 9 18 8 19 7 20 6 21 5 22
REMARK SMILES IDX 4 23 3 24 2 25 1 26
REMARK H PARENT
REMARK Flexibility Score: inf
ROOT
ATOM      1  C   UNL     1      -1.904  11.603  -4.267  1.00  0.00     0.000 C 
ENDROOT
BRANCH   1   2
ATOM      2  C   UNL     1      -0.416  11.817  -4.602  1.00  0.00     0.000 C 
BRANCH   2   3
ATOM      3  C   UNL     1      -0.034  13.264  -4.961  1.00  0.00     0.000 C 
BRANCH   3   4
ATOM      4  C   UNL     1      -1.139  14.002  -5.735  1.00  0.00     0.000 C 
BRANCH   4   5
ATOM      5  C   UNL     1      -1.258  13.522  -7.190  1.00  0.00     0.000 C 
BRANCH   5   6
ATOM      6  C   UNL     1      -2.698  13.130  -7.564  1.00  0.00     0.000 C 
BRANCH   6   7
ATOM      7  C   UNL     1      -2.760  12.237  -8.814  1.00  0.00     0.000 C 
BRANCH   7   8
ATOM      8  C   UNL     1      -1.409  11.578  -9.138  1.00  0.00     0.000 C 
BRANCH   8   9
ATOM      9  C   UNL     1      -1.219  10.236  -8.397  1.00  0.00     0.000 C 
BRANCH   9  10
ATOM     10  C   UNL     1       0.209  10.028  -7.857  1.00  0.00     0.006 C 
BRANCH  10  11
ATOM     11  C   UNL     1       1.237  11.029  -8.404  1.00  0.00     0.053 C 
BRANCH  11  12
ATOM     12  C   UNL     1       2.615  10.442  -8.455  1.00  0.00     0.041 C 
ATOM     13  O   UNL     1       2.952   9.700  -9.415  1.00  0.00    -0.550 OA
ATOM     14  O   UNL     1       3.515  10.684  -7.427  1.00  0.00    -0.550 OA
ENDBRANCH  11  12
ENDBRANCH  10  11
ENDBRANCH   9  10
ENDBRANCH   8   9
ENDBRANCH   7   8
ENDBRANCH   6   7
ENDBRANCH   5   6
ENDBRANCH   4   5
ENDBRANCH   3   4
ENDBRANCH   2   3
ENDBRANCH   1   2
BRANCH   1  15
ATOM     15  C   UNL     1      -2.496  10.342  -4.921  1.00  0.00     0.000 C 
BRANCH  15  16
ATOM     16  C   UNL     1      -3.923  10.576  -5.461  1.00  0.00     0.000 C 
BRANCH  16  17
ATOM     17  C   UNL     1      -4.314   9.631  -6.609  1.00  0.00     0.000 C 
BRANCH  17  18
ATOM     18  C   UNL     1      -5.743   9.865  -7.116  1.00  0.00    -0.000 C 
BRANCH  18  19
ATOM     19  C   UNL     1      -5.996  11.352  -7.397  1.00  0.00    -0.000 C 
BRANCH  19  20
ATOM     20  C   UNL     1      -6.962  11.581  -8.573  1.00  0.00    -0.000 C 
BRANCH  20  21
ATOM     21  C   UNL     1      -6.286  11.892  -9.924  1.00  0.00    -0.000 C 
BRANCH  21  22
ATOM     22  C   UNL     1      -6.081  10.679 -10.849  1.00  0.00    -0.000 C 
BRANCH  22  23
ATOM     23  C   UNL     1      -4.597  10.373 -11.112  1.00  0.00    -0.000 C 
BRANCH  23  24
ATOM     24  C   UNL     1      -4.134   9.075 -10.430  1.00  0.00    -0.000 C 
BRANCH  24  25
ATOM     25  C   UNL     1      -4.829   7.830 -11.001  1.00  0.00    -0.003 C 
ATOM     26  C   UNL     1      -5.378   6.947  -9.883  1.00  0.00     0.004 C 
ENDBRANCH  24  25
ENDBRANCH  23  24
ENDBRANCH  22  23
ENDBRANCH  21  22
ENDBRANCH  20  21
ENDBRANCH  19  20
ENDBRANCH  18  19
ENDBRANCH  17  18
ENDBRANCH  16  17
ENDBRANCH  15  16
ENDBRANCH   1  15
TORSDOF 22
ENDMDL
MODEL 2
REMARK VINA RESULT:    -4.533      1.029      2.432
REMARK INTER + INTRA:         -14.730
REMARK INTER:                 -10.895
REMARK INTRA:                  -3.835
REMARK UNBOUND:                -4.366
REMARK SMILES CCCCCCCCCCCCCCCCCCCCCCCC(=O)[O-]
REMARK SMILES IDX 13 1 14 2 15 3 16 4 17 5 18 6 19 7 20 8 21 9 22 10 23 11
REMARK SMILES IDX 24 12 25 13 26 14 12 15 11 16 10 17 9 18 8 19 7 20 6 21 5 22
REMARK SMILES IDX 4 23 3 24 2 25 1 26
REMARK H PARENT
REMARK Flexibility Score: inf
ROOT
ATOM      1  C   UNL     1      -2.256  10.270  -6.628  1.00  0.00     0.000 C 
ENDROOT
BRANCH   1   2
ATOM      2  C   UNL     1      -2.340  10.389  -8.161  1.00  0.00     0.000 C 
BRANCH   2   3
ATOM      3  C   UNL     1      -2.246  11.826  -8.705  1.00  0.00     0.000 C 
BRANCH   3   4
ATOM      4  C   UNL     1      -2.578  12.891  -7.647  1.00  0.00     0.000 C 
BRANCH   4   5
ATOM      5  C   UNL     1      -1.363  13.759  -7.285  1.00  0.00     0.000 C 
BRANCH   5   6
ATOM      6  C   UNL     1      -1.042  13.723  -5.781  1.00  0.00     0.000 C 
BRANCH   6   7
ATOM      7  C   UNL     1       0.454  13.503  -5.502  1.00  0.00     0.000 C 
BRANCH   7   8
ATOM      8  C   UNL     1       0.835  12.013  -5.457  1.00  0.00     0.000 C 
BRANCH   8   9
ATOM      9  C   UNL     1       1.873  11.641  -6.538  1.00  0.00     0.000 C 
BRANCH   9  10
ATOM     10  C   UNL     1       1.255  11.401  -7.928  1.00  0.00     0.006 C 
BRANCH  10  11
ATOM     11  C   UNL     1       1.469   9.982  -8.472  1.00  0.00     0.053 C 
BRANCH  11  12
ATOM     12  C   UNL     1       2.766   9.857  -9.213  1.00  0.00     0.041 C 
ATOM     13  O   UNL     1       3.756  10.560  -8.879  1.00  0.00    -0.550 OA
ATOM     14  O   UNL     1       2.873   8.992 -10.293  1.00  0.00    -0.550 OA
ENDBRANCH  11  12
ENDBRANCH  10  11
ENDBRANCH   9  10
ENDBRANCH   8   9
ENDBRANCH   7   8
ENDBRANCH   6   7
ENDBRANCH   5   6
ENDBRANCH   4   5
ENDBRANCH   3   4
ENDBRANCH   2   3
ENDBRANCH   1   2
BRANCH   1  15
ATOM     15  C   UNL     1      -3.631  10.095  -5.959  1.00  0.00     0.000 C 
BRANCH  15  16
ATOM     16  C   UNL     1      -4.648   9.393  -6.884  1.00  0.00     0.000 C 
BRANCH  16  17
ATOM     17  C   UNL     1      -5.954  10.182  -7.082  1.00  0.00     0.000 C 
BRANCH  17  18
ATOM     18  C   UNL     1      -5.889  11.600  -6.500  1.00  0.00    -0.000 C 
BRANCH  18  19
ATOM     19  C   UNL     1      -6.326  12.645  -7.536  1.00  0.00    -0.000 C 
BRANCH  19  20
ATOM     20  C   UNL     1      -6.743  12.017  -8.877  1.00  0.00    -0.000 C 
BRANCH  20  21
ATOM     21  C   UNL     1      -5.706  12.147 -10.012  1.00  0.00    -0.000 C 
BRANCH  21  22
ATOM     22  C   UNL     1      -5.712  11.001 -11.039  1.00  0.00    -0.000 C 
BRANCH  22  23
ATOM     23  C   UNL     1      -4.413  10.177 -11.022  1.00  0.00    -0.000 C 
BRANCH  23  24
ATOM     24  C   UNL     1      -4.668   8.673 -11.212  1.00  0.00    -0.000 C 
BRANCH  24  25
ATOM     25  C   UNL     1      -5.856   8.167 -10.381  1.00  0.00    -0.003 C 
ATOM     26  C   UNL     1      -5.727   6.674 -10.090  1.00  0.00     0.004 C 
ENDBRANCH  24  25
ENDBRANCH  23  24
ENDBRANCH  22  23
ENDBRANCH  21  22
ENDBRANCH  20  21
ENDBRANCH  19  20
ENDBRANCH  18  19
ENDBRANCH  17  18
ENDBRANCH  16  17
ENDBRANCH  15  16
ENDBRANCH   1  15
TORSDOF 22
ENDMDL
MODEL 3
REMARK VINA RESULT:    -4.432      2.806      5.915
REMARK INTER + INTRA:         -14.497
REMARK INTER:                  -9.803
REMARK INTRA:                  -4.694
REMARK UNBOUND:                -4.366
REMARK SMILES CCCCCCCCCCCCCCCCCCCCCCCC(=O)[O-]
REMARK SMILES IDX 13 1 14 2 15 3 16 4 17 5 18 6 19 7 20 8 21 9 22 10 23 11
REMARK SMILES IDX 24 12 25 13 26 14 12 15 11 16 10 17 9 18 8 19 7 20 6 21 5 22
REMARK SMILES IDX 4 23 3 24 2 25 1 26
REMARK H PARENT
REMARK Flexibility Score: inf
ROOT
ATOM      1  C   UNL     1      -3.038   9.609  -5.433  1.00  0.00     0.000 C 
ENDROOT
BRANCH   1   2
ATOM      2  C   UNL     1      -4.484   9.662  -5.961  1.00  0.00     0.000 C 
BRANCH   2   3
ATOM      3  C   UNL     1      -5.458  10.490  -5.101  1.00  0.00     0.000 C 
BRANCH   3   4
ATOM      4  C   UNL     1      -5.904  11.792  -5.788  1.00  0.00     0.000 C 
BRANCH   4   5
ATOM      5  C   UNL     1      -5.835  11.702  -7.320  1.00  0.00     0.000 C 
BRANCH   5   6
ATOM      6  C   UNL     1      -5.240  12.970  -7.957  1.00  0.00     0.000 C 
BRANCH   6   7
ATOM      7  C   UNL     1      -5.265  12.926  -9.493  1.00  0.00     0.000 C 
BRANCH   7   8
ATOM      8  C   UNL     1      -6.125  11.773 -10.038  1.00  0.00     0.000 C 
BRANCH   8   9
ATOM      9  C   UNL     1      -5.436  11.029 -11.204  1.00  0.00     0.000 C 
BRANCH   9  10
ATOM     10  C   UNL     1      -4.224  10.186 -10.767  1.00  0.00     0.006 C 
BRANCH  10  11
ATOM     11  C   UNL     1      -4.567   9.065  -9.775  1.00  0.00     0.053 C 
BRANCH  11  12
ATOM     12  C   UNL     1      -5.542   8.085 -10.355  1.00  0.00     0.041 C 
ATOM     13  O   UNL     1      -6.680   7.942  -9.835  1.00  0.00    -0.550 OA
ATOM     14  O   UNL     1      -5.182   7.305 -11.445  1.00  0.00    -0.550 OA
ENDBRANCH  11  12
ENDBRANCH  10  11
ENDBRANCH   9  10
ENDBRANCH   8   9
ENDBRANCH   7   8
ENDBRANCH   6   7
ENDBRANCH   5   6
ENDBRANCH   4   5
ENDBRANCH   3   4
ENDBRANCH   2   3
ENDBRANCH   1   2
BRANCH   1  15
ATOM     15  C   UNL     1      -2.787  10.575  -4.262  1.00  0.00     0.000 C 
BRANCH  15  16
ATOM     16  C   UNL     1      -1.332  11.090  -4.228  1.00  0.00     0.000 C 
BRANCH  16  17
ATOM     17  C   UNL     1      -1.188  12.568  -4.631  1.00  0.00     0.000 C 
BRANCH  17  18
ATOM     18  C   UNL     1      -2.184  12.991  -5.718  1.00  0.00    -0.000 C 
BRANCH  18  19
ATOM     19  C   UNL     1      -1.492  13.808  -6.817  1.00  0.00    -0.000 C 
BRANCH  19  20
ATOM     20  C   UNL     1      -1.382  13.043  -8.148  1.00  0.00    -0.000 C 
BRANCH  20  21
ATOM     21  C   UNL     1      -2.010  11.634  -8.147  1.00  0.00    -0.000 C 
BRANCH  21  22
ATOM     22  C   UNL     1      -1.137  10.528  -8.765  1.00  0.00    -0.000 C 
BRANCH  22  23
ATOM     23  C   UNL     1      -0.234   9.834  -7.732  1.00  0.00    -0.000 C 
BRANCH  23  24
ATOM     24  C   UNL     1       1.257   9.930  -8.095  1.00  0.00    -0.000 C 
BRANCH  24  25
ATOM     25  C   UNL     1       1.813  11.352  -7.928  1.00  0.00    -0.003 C 
ATOM     26  C   UNL     1       1.845  11.761  -6.458  1.00  0.00     0.004 C 
ENDBRANCH  24  25
ENDBRANCH  23  24
ENDBRANCH  22  23
ENDBRANCH  21  22
ENDBRANCH  20  21
ENDBRANCH  19  20
ENDBRANCH  18  19
ENDBRANCH  17  18
ENDBRANCH  16  17
ENDBRANCH  15  16
ENDBRANCH   1  15
TORSDOF 22
ENDMDL
MODEL 4
REMARK VINA RESULT:    -4.385      2.896      6.877
REMARK INTER + INTRA:         -14.392
REMARK INTER:                 -10.354
REMARK INTRA:                  -4.038
REMARK UNBOUND:                -4.366
REMARK SMILES CCCCCCCCCCCCCCCCCCCCCCCC(=O)[O-]
REMARK SMILES IDX 13 1 14 2 15 3 16 4 17 5 18 6 19 7 20 8 21 9 22 10 23 11
REMARK SMILES IDX 24 12 25 13 26 14 12 15 11 16 10 17 9 18 8 19 7 20 6 21 5 22
REMARK SMILES IDX 4 23 3 24 2 25 1 26
REMARK H PARENT
REMARK Flexibility Score: inf
ROOT
ATOM      1  C   UNL     1      -2.573  11.363  -5.263  1.00  0.00     0.000 C 
ENDROOT
BRANCH   1   2
ATOM      2  C   UNL     1      -3.922  10.623  -5.314  1.00  0.00     0.000 C 
BRANCH   2   3
ATOM      3  C   UNL     1      -4.161   9.797  -6.591  1.00  0.00     0.000 C 
BRANCH   3   4
ATOM      4  C   UNL     1      -5.559  10.016  -7.194  1.00  0.00     0.000 C 
BRANCH   4   5
ATOM      5  C   UNL     1      -6.009  11.483  -7.119  1.00  0.00     0.000 C 
BRANCH   5   6
ATOM      6  C   UNL     1      -5.551  12.301  -8.340  1.00  0.00     0.000 C 
BRANCH   6   7
ATOM      7  C   UNL     1      -6.577  12.276  -9.484  1.00  0.00     0.000 C 
BRANCH   7   8
ATOM      8  C   UNL     1      -6.159  11.345 -10.635  1.00  0.00     0.000 C 
BRANCH   8   9
ATOM      9  C   UNL     1      -4.651  11.014 -10.602  1.00  0.00     0.000 C 
BRANCH   9  10
ATOM     10  C   UNL     1      -4.290   9.712 -11.341  1.00  0.00     0.006 C 
BRANCH  10  11
ATOM     11  C   UNL     1      -4.287   8.465 -10.445  1.00  0.00     0.053 C 
BRANCH  11  12
ATOM     12  C   UNL     1      -5.439   7.556 -10.749  1.00  0.00     0.041 C 
ATOM     13  O   UNL     1      -6.586   7.817 -10.300  1.00  0.00    -0.550 OA
ATOM     14  O   UNL     1      -5.241   6.404 -11.497  1.00  0.00    -0.550 OA
ENDBRANCH  11  12
ENDBRANCH  10  11
ENDBRANCH   9  10
ENDBRANCH   8   9
ENDBRANCH   7   8
ENDBRANCH   6   7
ENDBRANCH   5   6
ENDBRANCH   4   5
ENDBRANCH   3   4
ENDBRANCH   2   3
ENDBRANCH   1   2
BRANCH   1  15
ATOM     15  C   UNL     1      -2.543  12.626  -6.142  1.00  0.00     0.000 C 
BRANCH  15  16
ATOM     16  C   UNL     1      -1.417  12.580  -7.196  1.00  0.00     0.000 C 
BRANCH  16  17
ATOM     17  C   UNL     1      -1.880  12.086  -8.577  1.00  0.00     0.000 C 
BRANCH  17  18
ATOM     18  C   UNL     1      -1.465  10.638  -8.865  1.00  0.00    -0.000 C 
BRANCH  18  19
ATOM     19  C   UNL     1      -0.435  10.142  -7.840  1.00  0.00    -0.000 C 
BRANCH  19  20
ATOM     20  C   UNL     1       0.922   9.797  -8.479  1.00  0.00    -0.000 C 
BRANCH  20  21
ATOM     21  C   UNL     1       2.141  10.493  -7.840  1.00  0.00    -0.000 C 
BRANCH  21  22
ATOM     22  C   UNL     1       1.858  11.873  -7.220  1.00  0.00    -0.000 C 
BRANCH  22  23
ATOM     23  C   UNL     1       2.334  11.982  -5.762  1.00  0.00    -0.000 C 
BRANCH  23  24
ATOM     24  C   UNL     1       1.173  11.918  -4.757  1.00  0.00    -0.000 C 
BRANCH  24  25
ATOM     25  C   UNL     1       1.013  13.220  -3.958  1.00  0.00    -0.003 C 
ATOM     26  C   UNL     1       0.973  14.432  -4.885  1.00  0.00     0.004 C 
ENDBRANCH  24  25
ENDBRANCH  23  24
ENDBRANCH  22  23
ENDBRANCH  21  22
ENDBRANCH  20  21
ENDBRANCH  19  20
ENDBRANCH  18  19
ENDBRANCH  17  18
ENDBRANCH  16  17
ENDBRANCH  15  16
ENDBRANCH   1  15
TORSDOF 22
ENDMDL
MODEL 5
REMARK VINA RESULT:    -4.350      1.552      3.856
REMARK INTER + INTRA:         -14.312
REMARK INTER:                 -10.731
REMARK INTRA:                  -3.580
REMARK UNBOUND:                -4.366
REMARK SMILES CCCCCCCCCCCCCCCCCCCCCCCC(=O)[O-]
REMARK SMILES IDX 13 1 14 2 15 3 16 4 17 5 18 6 19 7 20 8 21 9 22 10 23 11
REMARK SMILES IDX 24 12 25 13 26 14 12 15 11 16 10 17 9 18 8 19 7 20 6 21 5 22
REMARK SMILES IDX 4 23 3 24 2 25 1 26
REMARK H PARENT
REMARK Flexibility Score: inf
ROOT
ATOM      1  C   UNL     1      -2.056  10.042  -8.800  1.00  0.00     0.000 C 
ENDROOT
BRANCH   1   2
ATOM      2  C   UNL     1      -1.542  11.022  -7.729  1.00  0.00     0.000 C 
BRANCH   2   3
ATOM      3  C   UNL     1      -1.285  12.455  -8.231  1.00  0.00     0.000 C 
BRANCH   3   4
ATOM      4  C   UNL     1      -1.747  13.532  -7.235  1.00  0.00     0.000 C 
BRANCH   4   5
ATOM      5  C   UNL     1      -1.338  13.210  -5.790  1.00  0.00     0.000 C 
BRANCH   5   6
ATOM      6  C   UNL     1      -0.509  14.337  -5.149  1.00  0.00     0.000 C 
BRANCH   6   7
ATOM      7  C   UNL     1       0.802  13.826  -4.530  1.00  0.00     0.000 C 
BRANCH   7   8
ATOM      8  C   UNL     1       1.049  12.334  -4.814  1.00  0.00     0.000 C 
BRANCH   8   9
ATOM      9  C   UNL     1       2.270  12.107  -5.731  1.00  0.00     0.000 C 
BRANCH   9  10
ATOM     10  C   UNL     1       1.938  11.327  -7.017  1.00  0.00     0.006 C 
BRANCH  10  11
ATOM     11  C   UNL     1       3.157  10.679  -7.688  1.00  0.00     0.053 C 
BRANCH  11  12
ATOM     12  C   UNL     1       2.777   9.918  -8.923  1.00  0.00     0.041 C 
ATOM     13  O   UNL     1       1.578   9.584  -9.116  1.00  0.00    -0.550 OA
ATOM     14  O   UNL     1       3.749   9.547  -9.841  1.00  0.00    -0.550 OA
ENDBRANCH  11  12
ENDBRANCH  10  11
ENDBRANCH   9  10
ENDBRANCH   8   9
ENDBRANCH   7   8
ENDBRANCH   6   7
ENDBRANCH   5   6
ENDBRANCH   4   5
ENDBRANCH   3   4
ENDBRANCH   2   3
ENDBRANCH   1   2
BRANCH   1  15
ATOM     15  C   UNL     1      -2.736  10.747  -9.987  1.00  0.00     0.000 C 
BRANCH  15  16
ATOM     16  C   UNL     1      -3.944   9.952 -10.527  1.00  0.00     0.000 C 
BRANCH  16  17
ATOM     17  C   UNL     1      -5.086  10.839 -11.052  1.00  0.00     0.000 C 
BRANCH  17  18
ATOM     18  C   UNL     1      -5.939  11.441  -9.929  1.00  0.00    -0.000 C 
BRANCH  18  19
ATOM     19  C   UNL     1      -5.459  12.852  -9.561  1.00  0.00    -0.000 C 
BRANCH  19  20
ATOM     20  C   UNL     1      -5.146  13.003  -8.062  1.00  0.00    -0.000 C 
BRANCH  20  21
ATOM     21  C   UNL     1      -6.122  12.278  -7.113  1.00  0.00    -0.000 C 
BRANCH  21  22
ATOM     22  C   UNL     1      -5.494  11.732  -5.819  1.00  0.00    -0.000 C 
BRANCH  22  23
ATOM     23  C   UNL     1      -4.582  10.518  -6.064  1.00  0.00    -0.000 C 
BRANCH  23  24
ATOM     24  C   UNL     1      -5.255   9.442  -6.932  1.00  0.00    -0.000 C 
BRANCH  24  25
ATOM     25  C   UNL     1      -5.489   8.131  -6.167  1.00  0.00    -0.003 C 
ATOM     26  C   UNL     1      -4.564   8.027  -4.958  1.00  0.00     0.004 C 
ENDBRANCH  24  25
ENDBRANCH  23  24
ENDBRANCH  22  23
ENDBRANCH  21  22
ENDBRANCH  20  21
ENDBRANCH  19  20
ENDBRANCH  18  19
ENDBRANCH  17  18
ENDBRANCH  16  17
ENDBRANCH  15  16
ENDBRANCH   1  15
TORSDOF 22
ENDMDL
MODEL 6
REMARK VINA RESULT:    -4.339      2.705      6.637
REMARK INTER + INTRA:         -14.286
REMARK INTER:                 -10.635
REMARK INTRA:                  -3.651
REMARK UNBOUND:                -4.366
REMARK SMILES CCCCCCCCCCCCCCCCCCCCCCCC(=O)[O-]
REMARK SMILES IDX 13 1 14 2 15 3 16 4 17 5 18 6 19 7 20 8 21 9 22 10 23 11
REMARK SMILES IDX 24 12 25 13 26 14 12 15 11 16 10 17 9 18 8 19 7 20 6 21 5 22
REMARK SMILES IDX 4 23 3 24 2 25 1 26
REMARK H PARENT
REMARK Flexibility Score: inf
ROOT
ATOM      1  C   UNL     1      -3.532  12.233  -9.586  1.00  0.00     0.000 C 
ENDROOT
BRANCH   1   2
ATOM      2  C   UNL     1      -4.670  13.004  -8.893  1.00  0.00     0.000 C 
BRANCH   2   3
ATOM      3  C   UNL     1      -6.082  12.691  -9.422  1.00  0.00     0.000 C 
BRANCH   3   4
ATOM      4  C   UNL     1      -7.122  12.536  -8.300  1.00  0.00     0.000 C 
BRANCH   4   5
ATOM      5  C   UNL     1      -6.554  12.895  -6.918  1.00  0.00     0.000 C 
BRANCH   5   6
ATOM      6  C   UNL     1      -6.442  11.670  -5.993  1.00  0.00     0.000 C 
BRANCH   6   7
ATOM      7  C   UNL     1      -7.004  10.392  -6.637  1.00  0.00     0.000 C 
BRANCH   7   8
ATOM      8  C   UNL     1      -6.267   9.123  -6.176  1.00  0.00     0.000 C 
BRANCH   8   9
ATOM      9  C   UNL     1      -5.771   8.269  -7.364  1.00  0.00     0.000 C 
BRANCH   9  10
ATOM     10  C   UNL     1      -6.051   8.905  -8.738  1.00  0.00     0.006 C 
BRANCH  10  11
ATOM     11  C   UNL     1      -6.368   7.889  -9.845  1.00  0.00     0.053 C 
BRANCH  11  12
ATOM     12  C   UNL     1      -5.353   7.928 -10.947  1.00  0.00     0.041 C 
ATOM     13  O   UNL     1      -5.216   6.941 -11.716  1.00  0.00    -0.550 OA
ATOM     14  O   UNL     1      -4.535   9.039 -11.103  1.00  0.00    -0.550 OA
ENDBRANCH  11  12
ENDBRANCH  10  11
ENDBRANCH   9  10
ENDBRANCH   8   9
ENDBRANCH   7   8
ENDBRANCH   6   7
ENDBRANCH   5   6
ENDBRANCH   4   5
ENDBRANCH   3   4
ENDBRANCH   2   3
ENDBRANCH   1   2
BRANCH   1  15
ATOM     15  C   UNL     1      -2.456  11.733  -8.604  1.00  0.00     0.000 C 
BRANCH  15  16
ATOM     16  C   UNL     1      -2.777  10.329  -8.047  1.00  0.00     0.000 C 
BRANCH  16  17
ATOM     17  C   UNL     1      -2.735  10.247  -6.512  1.00  0.00     0.000 C 
BRANCH  17  18
ATOM     18  C   UNL     1      -2.454  11.601  -5.848  1.00  0.00    -0.000 C 
BRANCH  18  19
ATOM     19  C   UNL     1      -1.191  11.540  -4.977  1.00  0.00    -0.000 C 
BRANCH  19  20
ATOM     20  C   UNL     1      -0.416  12.870  -4.957  1.00  0.00    -0.000 C 
BRANCH  20  21
ATOM     21  C   UNL     1       0.393  13.175  -6.234  1.00  0.00    -0.000 C 
BRANCH  21  22
ATOM     22  C   UNL     1       1.258  12.013  -6.755  1.00  0.00    -0.000 C 
BRANCH  22  23
ATOM     23  C   UNL     1       0.856  11.557  -8.167  1.00  0.00    -0.000 C 
BRANCH  23  24
ATOM     24  C   UNL     1       1.302  10.117  -8.470  1.00  0.00    -0.000 C 
BRANCH  24  25
ATOM     25  C   UNL     1       2.825   9.940  -8.378  1.00  0.00    -0.003 C 
ATOM     26  C   UNL     1       3.427   9.646  -9.750  1.00  0.00     0.004 C 
ENDBRANCH  24  25
ENDBRANCH  23  24
ENDBRANCH  22  23
ENDBRANCH  21  22
ENDBRANCH  20  21
ENDBRANCH  19  20
ENDBRANCH  18  19
ENDBRANCH  17  18
ENDBRANCH  16  17
ENDBRANCH  15  16
ENDBRANCH   1  15
TORSDOF 22
ENDMDL
MODEL 7
REMARK VINA RESULT:    -4.335      2.198      5.130
REMARK INTER + INTRA:         -14.277
REMARK INTER:                 -11.050
REMARK INTRA:                  -3.227
REMARK UNBOUND:                -4.366
REMARK SMILES CCCCCCCCCCCCCCCCCCCCCCCC(=O)[O-]
REMARK SMILES IDX 13 1 14 2 15 3 16 4 17 5 18 6 19 7 20 8 21 9 22 10 23 11
REMARK SMILES IDX 24 12 25 13 26 14 12 15 11 16 10 17 9 18 8 19 7 20 6 21 5 22
REMARK SMILES IDX 4 23 3 24 2 25 1 26
REMARK H PARENT
REMARK Flexibility Score: inf
ROOT
ATOM      1  C   UNL     1      -3.681   8.850 -10.689  1.00  0.00     0.000 C 
ENDROOT
BRANCH   1   2
ATOM      2  C   UNL     1      -3.774  10.359 -10.980  1.00  0.00     0.000 C 
BRANCH   2   3
ATOM      3  C   UNL     1      -5.147  10.992 -10.688  1.00  0.00     0.000 C 
BRANCH   3   4
ATOM      4  C   UNL     1      -5.063  12.189  -9.725  1.00  0.00     0.000 C 
BRANCH   4   5
ATOM      5  C   UNL     1      -3.683  12.313  -9.061  1.00  0.00     0.000 C 
BRANCH   5   6
ATOM      6  C   UNL     1      -3.780  12.540  -7.542  1.00  0.00     0.000 C 
BRANCH   6   7
ATOM      7  C   UNL     1      -3.450  11.274  -6.735  1.00  0.00     0.000 C 
BRANCH   7   8
ATOM      8  C   UNL     1      -2.575  10.282  -7.520  1.00  0.00     0.000 C 
BRANCH   8   9
ATOM      9  C   UNL     1      -1.098  10.321  -7.070  1.00  0.00     0.000 C 
BRANCH   9  10
ATOM     10  C   UNL     1      -0.099  10.087  -8.218  1.00  0.00     0.006 C 
BRANCH  10  11
ATOM     11  C   UNL     1       1.066  11.088  -8.248  1.00  0.00     0.053 C 
BRANCH  11  12
ATOM     12  C   UNL     1       2.387  10.402  -8.416  1.00  0.00     0.041 C 
ATOM     13  O   UNL     1       3.331  10.641  -7.618  1.00  0.00    -0.550 OA
ATOM     14  O   UNL     1       2.589   9.528  -9.475  1.00  0.00    -0.550 OA
ENDBRANCH  11  12
ENDBRANCH  10  11
ENDBRANCH   9  10
ENDBRANCH   8   9
ENDBRANCH   7   8
ENDBRANCH   6   7
ENDBRANCH   5   6
ENDBRANCH   4   5
ENDBRANCH   3   4
ENDBRANCH   2   3
ENDBRANCH   1   2
BRANCH   1  15
ATOM     15  C   UNL     1      -4.837   8.043 -11.307  1.00  0.00     0.000 C 
BRANCH  15  16
ATOM     16  C   UNL     1      -5.599   7.210 -10.255  1.00  0.00     0.000 C 
BRANCH  16  17
ATOM     17  C   UNL     1      -6.925   7.844  -9.804  1.00  0.00     0.000 C 
BRANCH  17  18
ATOM     18  C   UNL     1      -6.756   8.808  -8.622  1.00  0.00    -0.000 C 
BRANCH  18  19
ATOM     19  C   UNL     1      -5.637   8.341  -7.681  1.00  0.00    -0.000 C 
BRANCH  19  20
ATOM     20  C   UNL     1      -5.944   8.628  -6.201  1.00  0.00    -0.000 C 
BRANCH  20  21
ATOM     21  C   UNL     1      -5.291   7.657  -5.196  1.00  0.00    -0.000 C 
BRANCH  21  22
ATOM     22  C   UNL     1      -4.124   8.243  -4.382  1.00  0.00    -0.000 C 
BRANCH  22  23
ATOM     23  C   UNL     1      -2.959   7.253  -4.211  1.00  0.00    -0.000 C 
BRANCH  23  24
ATOM     24  C   UNL     1      -3.364   5.806  -4.536  1.00  0.00    -0.000 C 
BRANCH  24  25
ATOM     25  C   UNL     1      -2.157   4.920  -4.880  1.00  0.00    -0.003 C 
ATOM     26  C   UNL     1      -0.862   5.525  -4.345  1.00  0.00     0.004 C 
ENDBRANCH  24  25
ENDBRANCH  23  24
ENDBRANCH  22  23
ENDBRANCH  21  22
ENDBRANCH  20  21
ENDBRANCH  19  20
ENDBRANCH  18  19
ENDBRANCH  17  18
ENDBRANCH  16  17
ENDBRANCH  15  16
ENDBRANCH   1  15
TORSDOF 22
ENDMDL
MODEL 8
REMARK VINA RESULT:    -4.315      2.229      4.934
REMARK INTER + INTRA:         -14.230
REMARK INTER:                 -10.161
REMARK INTRA:                  -4.070
REMARK UNBOUND:                -4.366
REMARK SMILES CCCCCCCCCCCCCCCCCCCCCCCC(=O)[O-]
REMARK SMILES IDX 13 1 14 2 15 3 16 4 17 5 18 6 19 7 20 8 21 9 22 10 23 11
REMARK SMILES IDX 24 12 25 13 26 14 12 15 11 16 10 17 9 18 8 19 7 20 6 21 5 22
REMARK SMILES IDX 4 23 3 24 2 25 1 26
REMARK H PARENT
REMARK Flexibility Score: inf
ROOT
ATOM      1  C   UNL     1      -5.042  12.736  -7.853  1.00  0.00     0.000 C 
ENDROOT
BRANCH   1   2
ATOM      2  C   UNL     1      -3.708  12.010  -7.593  1.00  0.00     0.000 C 
BRANCH   2   3
ATOM      3  C   UNL     1      -2.544  12.448  -8.500  1.00  0.00     0.000 C 
BRANCH   3   4
ATOM      4  C   UNL     1      -1.890  11.273  -9.246  1.00  0.00     0.000 C 
BRANCH   4   5
ATOM      5  C   UNL     1      -1.269  10.243  -8.290  1.00  0.00     0.000 C 
BRANCH   5   6
ATOM      6  C   UNL     1       0.218   9.985  -8.591  1.00  0.00     0.000 C 
BRANCH   6   7
ATOM      7  C   UNL     1       1.142  10.479  -7.466  1.00  0.00     0.000 C 
BRANCH   7   8
ATOM      8  C   UNL     1       1.026  11.994  -7.227  1.00  0.00     0.000 C 
BRANCH   8   9
ATOM      9  C   UNL     1       0.854  12.340  -5.732  1.00  0.00     0.000 C 
BRANCH   9  10
ATOM     10  C   UNL     1      -0.529  11.963  -5.167  1.00  0.00     0.006 C 
BRANCH  10  11
ATOM     11  C   UNL     1      -1.274  13.131  -4.506  1.00  0.00     0.053 C 
BRANCH  11  12
ATOM     12  C   UNL     1      -0.928  14.445  -5.138  1.00  0.00     0.041 C 
ATOM     13  O   UNL     1      -0.217  15.278  -4.517  1.00  0.00    -0.550 OA
ATOM     14  O   UNL     1      -1.418  14.764  -6.397  1.00  0.00    -0.550 OA
ENDBRANCH  11  12
ENDBRANCH  10  11
ENDBRANCH   9  10
ENDBRANCH   8   9
ENDBRANCH   7   8
ENDBRANCH   6   7
ENDBRANCH   5   6
ENDBRANCH   4   5
ENDBRANCH   3   4
ENDBRANCH   2   3
ENDBRANCH   1   2
BRANCH   1  15
ATOM     15  C   UNL     1      -5.385  12.849  -9.350  1.00  0.00     0.000 C 
BRANCH  15  16
ATOM     16  C   UNL     1      -6.616  12.002  -9.734  1.00  0.00     0.000 C 
BRANCH  16  17
ATOM     17  C   UNL     1      -6.393  11.108 -10.966  1.00  0.00     0.000 C 
BRANCH  17  18
ATOM     18  C   UNL     1      -4.917  10.752 -11.187  1.00  0.00    -0.000 C 
BRANCH  18  19
ATOM     19  C   UNL     1      -4.611   9.329 -10.697  1.00  0.00    -0.000 C 
BRANCH  19  20
ATOM     20  C   UNL     1      -5.872   8.455 -10.581  1.00  0.00    -0.000 C 
BRANCH  20  21
ATOM     21  C   UNL     1      -6.282   8.087  -9.140  1.00  0.00    -0.000 C 
BRANCH  21  22
ATOM     22  C   UNL     1      -5.353   8.624  -8.037  1.00  0.00    -0.000 C 
BRANCH  22  23
ATOM     23  C   UNL     1      -6.122   9.211  -6.841  1.00  0.00    -0.000 C 
BRANCH  23  24
ATOM     24  C   UNL     1      -5.541   8.764  -5.490  1.00  0.00    -0.000 C 
BRANCH  24  25
ATOM     25  C   UNL     1      -4.548   9.782  -4.910  1.00  0.00    -0.003 C 
ATOM     26  C   UNL     1      -3.107   9.322  -5.114  1.00  0.00     0.004 C 
ENDBRANCH  24  25
ENDBRANCH  23  24
ENDBRANCH  22  23
ENDBRANCH  21  22
ENDBRANCH  20  21
ENDBRANCH  19  20
ENDBRANCH  18  19
ENDBRANCH  17  18
ENDBRANCH  16  17
ENDBRANCH  15  16
ENDBRANCH   1  15
TORSDOF 22
ENDMDL
MODEL 9
REMARK VINA RESULT:    -4.259      1.093      2.852
REMARK INTER + INTRA:         -14.103
REMARK INTER:                 -11.055
REMARK INTRA:                  -3.048
REMARK UNBOUND:                -4.366
REMARK SMILES CCCCCCCCCCCCCCCCCCCCCCCC(=O)[O-]
REMARK SMILES IDX 13 1 14 2 15 3 16 4 17 5 18 6 19 7 20 8 21 9 22 10 23 11
REMARK SMILES IDX 24 12 25 13 26 14 12 15 11 16 10 17 9 18 8 19 7 20 6 21 5 22
REMARK SMILES IDX 4 23 3 24 2 25 1 26
REMARK H PARENT
REMARK Flexibility Score: inf
ROOT
ATOM      1  C   UNL     1      -3.980  10.120  -6.667  1.00  0.00     0.000 C 
ENDROOT
BRANCH   1   2
ATOM      2  C   UNL     1      -3.670  10.665  -5.260  1.00  0.00     0.000 C 
BRANCH   2   3
ATOM      3  C   UNL     1      -2.221  10.452  -4.788  1.00  0.00     0.000 C 
BRANCH   3   4
ATOM      4  C   UNL     1      -1.617  11.702  -4.125  1.00  0.00     0.000 C 
BRANCH   4   5
ATOM      5  C   UNL     1      -2.218  13.006  -4.673  1.00  0.00     0.000 C 
BRANCH   5   6
ATOM      6  C   UNL     1      -1.147  13.950  -5.249  1.00  0.00     0.000 C 
BRANCH   6   7
ATOM      7  C   UNL     1      -0.414  13.343  -6.456  1.00  0.00     0.000 C 
BRANCH   7   8
ATOM      8  C   UNL     1      -1.378  12.884  -7.564  1.00  0.00     0.000 C 
BRANCH   8   9
ATOM      9  C   UNL     1      -0.837  11.665  -8.343  1.00  0.00     0.000 C 
BRANCH   9  10
ATOM     10  C   UNL     1       0.693  11.510  -8.258  1.00  0.00     0.006 C 
BRANCH  10  11
ATOM     11  C   UNL     1       1.205  10.122  -8.670  1.00  0.00     0.053 C 
BRANCH  11  12
ATOM     12  C   UNL     1       2.702  10.058  -8.677  1.00  0.00     0.041 C 
ATOM     13  O   UNL     1       3.363  10.583  -7.742  1.00  0.00    -0.550 OA
ATOM     14  O   UNL     1       3.370   9.452  -9.732  1.00  0.00    -0.550 OA
ENDBRANCH  11  12
ENDBRANCH  10  11
ENDBRANCH   9  10
ENDBRANCH   8   9
ENDBRANCH   7   8
ENDBRANCH   6   7
ENDBRANCH   5   6
ENDBRANCH   4   5
ENDBRANCH   3   4
ENDBRANCH   2   3
ENDBRANCH   1   2
BRANCH   1  15
ATOM     15  C   UNL     1      -5.454  10.300  -7.074  1.00  0.00     0.000 C 
BRANCH  15  16
ATOM     16  C   UNL     1      -5.879  11.784  -7.094  1.00  0.00     0.000 C 
BRANCH  16  17
ATOM     17  C   UNL     1      -6.243  12.305  -8.495  1.00  0.00     0.000 C 
BRANCH  17  18
ATOM     18  C   UNL     1      -5.033  12.855  -9.261  1.00  0.00    -0.000 C 
BRANCH  18  19
ATOM     19  C   UNL     1      -4.326  11.746 -10.053  1.00  0.00    -0.000 C 
BRANCH  19  20
ATOM     20  C   UNL     1      -5.259  11.044 -11.057  1.00  0.00    -0.000 C 
BRANCH  20  21
ATOM     21  C   UNL     1      -5.507   9.546 -10.781  1.00  0.00    -0.000 C 
BRANCH  21  22
ATOM     22  C   UNL     1      -4.244   8.715 -10.495  1.00  0.00    -0.000 C 
BRANCH  22  23
ATOM     23  C   UNL     1      -4.466   7.206 -10.693  1.00  0.00    -0.000 C 
BRANCH  23  24
ATOM     24  C   UNL     1      -5.771   6.713 -10.046  1.00  0.00    -0.000 C 
BRANCH  24  25
ATOM     25  C   UNL     1      -6.587   5.809 -10.982  1.00  0.00    -0.003 C 
ATOM     26  C   UNL     1      -5.780   5.433 -12.223  1.00  0.00     0.004 C 
ENDBRANCH  24  25
ENDBRANCH  23  24
ENDBRANCH  22  23
ENDBRANCH  21  22
ENDBRANCH  20  21
ENDBRANCH  19  20
ENDBRANCH  18  19
ENDBRANCH  17  18
ENDBRANCH  16  17
ENDBRANCH  15  16
ENDBRANCH   1  15
TORSDOF 22
ENDMDL
