MODEL 1
REMARK VINA RESULT:    -3.371      0.000      0.000
REMARK INTER + INTRA:          -4.536
REMARK INTER:                  -4.750
REMARK INTRA:                   0.214
REMARK UNBOUND:                 0.214
REMARK SMILES CC1=CCC(=C(C)C)C(=O)CC(C)=CCC1
REMARK SMILES IDX 12 1 14 2 13 3 15 4 16 5 2 6 1 7 3 8 11 10 9 11 10 12 5 13
REMARK SMILES IDX 6 14 7 15 8 16 4 17
REMARK H PARENT
REMARK Flexibility Score: 60.00
ROOT
ATOM      1  C   UNL     1     -12.768   8.138 -15.120  1.00  0.00    -0.070 C 
ATOM      2  C   UNL     1     -12.250   8.253 -13.877  1.00  0.00    -0.027 C 
ATOM      3  C   UNL     1     -13.652   6.951 -15.410  1.00  0.00     0.039 C 
ENDROOT
BRANCH   2   4
ATOM      4  C   UNL     1     -11.426   9.415 -13.368  1.00  0.00     0.032 C 
BRANCH   4   5
ATOM      5  C   UNL     1     -12.244  10.640 -12.909  1.00  0.00     0.034 C 
BRANCH   5   6
ATOM      6  C   UNL     1     -11.787  11.937 -13.552  1.00  0.00    -0.077 C 
ATOM      7  C   UNL     1     -10.442  12.485 -13.147  1.00  0.00     0.039 C 
ATOM      8  C   UNL     1     -12.478  12.597 -14.514  1.00  0.00    -0.023 CG0
ATOM      9  G   UNL     1     -13.847  12.246 -15.061  1.00  0.00     0.000 G0
ENDBRANCH   5   6
ENDBRANCH   4   5
ENDBRANCH   2   4
BRANCH   1  10
ATOM     10  C   UNL     1     -12.580   9.185 -16.199  1.00  0.00     0.111 C 
BRANCH  10  11
ATOM     11  C   UNL     1     -13.814  10.032 -16.373  1.00  0.00     0.163 C 
ATOM     12  O   UNL     1     -14.929   9.448 -16.450  1.00  0.00    -0.294 OA
BRANCH  11  13
ATOM     13  C   UNL     1     -13.766  11.524 -16.395  1.00  0.00    -0.002 C 
ATOM     14  C   UNL     1     -13.738  12.206 -17.579  1.00  0.00    -0.069 C 
ATOM     15  C   UNL     1     -13.848  13.714 -17.638  1.00  0.00     0.039 C 
ATOM     16  C   UNL     1     -13.595  11.479 -18.898  1.00  0.00     0.039 C 
BRANCH  13  17
ATOM     17  C   UNL     1     -13.846  12.241 -15.057  1.00  0.00     0.066 CG0
ATOM     18  G   UNL     1     -12.478  12.601 -14.512  1.00  0.00     0.000 G0
ENDBRANCH  13  17
ENDBRANCH  11  13
ENDBRANCH  10  11
ENDBRANCH   1  10
TORSDOF 0
ENDMDL
MODEL 2
REMARK VINA RESULT:    -3.360      7.446      8.974
REMARK INTER + INTRA:          -4.520
REMARK INTER:                  -4.663
REMARK INTRA:                   0.143
REMARK UNBOUND:                 0.214
REMARK SMILES CC1=CCC(=C(C)C)C(=O)CC(C)=CCC1
REMARK SMILES IDX 12 1 14 2 13 3 15 4 16 5 2 6 1 7 3 8 11 10 9 11 10 12 5 13
REMARK SMILES IDX 6 14 7 15 8 16 4 17
REMARK H PARENT
REMARK Flexibility Score: 60.00
ROOT
ATOM      1  C   UNL     1      -6.252   9.507 -10.579  1.00  0.00    -0.070 C 
ATOM      2  C   UNL     1      -7.535   9.806 -10.278  1.00  0.00    -0.027 C 
ATOM      3  C   UNL     1      -5.975   8.188 -11.257  1.00  0.00     0.039 C 
ENDROOT
BRANCH   2   4
ATOM      4  C   UNL     1      -8.021  11.112  -9.688  1.00  0.00     0.032 C 
BRANCH   4   5
ATOM      5  C   UNL     1      -8.359  12.205 -10.723  1.00  0.00     0.034 C 
BRANCH   5   6
ATOM      6  C   UNL     1      -7.793  13.567 -10.358  1.00  0.00    -0.077 C 
ATOM      7  C   UNL     1      -8.463  14.329  -9.243  1.00  0.00     0.039 C 
ATOM      8  C   UNL     1      -6.687  14.109 -10.922  1.00  0.00    -0.023 CG0
ATOM      9  G   UNL     1      -5.867  13.539 -12.062  1.00  0.00     0.000 G0
ENDBRANCH   5   6
ENDBRANCH   4   5
ENDBRANCH   2   4
BRANCH   1  10
ATOM     10  C   UNL     1      -5.099  10.463 -10.353  1.00  0.00     0.111 C 
BRANCH  10  11
ATOM     11  C   UNL     1      -4.789  11.263 -11.592  1.00  0.00     0.163 C 
ATOM     12  O   UNL     1      -4.688  10.645 -12.687  1.00  0.00    -0.294 OA
BRANCH  11  13
ATOM     13  C   UNL     1      -4.661  12.750 -11.576  1.00  0.00    -0.002 C 
ATOM     14  C   UNL     1      -3.486  13.348 -11.216  1.00  0.00    -0.069 C 
ATOM     15  C   UNL     1      -3.275  14.841 -11.341  1.00  0.00     0.039 C 
ATOM     16  C   UNL     1      -2.329  12.537 -10.673  1.00  0.00     0.039 C 
BRANCH  13  17
ATOM     17  C   UNL     1      -5.855  13.555 -12.064  1.00  0.00     0.066 CG0
ATOM     18  G   UNL     1      -6.667  14.133 -10.923  1.00  0.00     0.000 G0
ENDBRANCH  13  17
ENDBRANCH  11  13
ENDBRANCH  10  11
ENDBRANCH   1  10
TORSDOF 0
ENDMDL
MODEL 3
REMARK VINA RESULT:    -3.332      2.004      3.871
REMARK INTER + INTRA:          -4.482
REMARK INTER:                  -5.208
REMARK INTRA:                   0.726
REMARK UNBOUND:                 0.214
REMARK SMILES CC1=CCC(=C(C)C)C(=O)CC(C)=CCC1
REMARK SMILES IDX 12 1 14 2 13 3 15 4 16 5 2 6 1 7 3 8 11 10 9 11 10 12 5 13
REMARK SMILES IDX 6 14 7 15 8 16 4 17
REMARK H PARENT
REMARK Flexibility Score: 60.00
ROOT
ATOM      1  C   UNL     1     -13.275  11.299 -19.026  1.00  0.00    -0.070 C 
ATOM      2  C   UNL     1     -13.678  10.204 -18.345  1.00  0.00    -0.027 C 
ATOM      3  C   UNL     1     -12.392  11.096 -20.232  1.00  0.00     0.039 C 
ENDROOT
BRANCH   2   4
ATOM      4  C   UNL     1     -14.637  10.196 -17.175  1.00  0.00     0.032 C 
BRANCH   4   5
ATOM      5  C   UNL     1     -14.140   9.426 -15.934  1.00  0.00     0.034 C 
BRANCH   5   6
ATOM      6  C   UNL     1     -13.174  10.230 -15.081  1.00  0.00    -0.077 C 
ATOM      7  C   UNL     1     -12.011   9.499 -14.460  1.00  0.00     0.039 C 
ATOM      8  C   UNL     1     -13.250  11.571 -14.899  1.00  0.00    -0.023 CG0
ATOM      9  G   UNL     1     -14.332  12.503 -15.407  1.00  0.00     0.000 G0
ENDBRANCH   5   6
ENDBRANCH   4   5
ENDBRANCH   2   4
BRANCH   1  10
ATOM     10  C   UNL     1     -13.740  12.703 -18.695  1.00  0.00     0.111 C 
BRANCH  10  11
ATOM     11  C   UNL     1     -13.023  13.257 -17.492  1.00  0.00     0.163 C 
ATOM     12  O   UNL     1     -11.778  13.439 -17.575  1.00  0.00    -0.294 OA
BRANCH  11  13
ATOM     13  C   UNL     1     -13.738  13.650 -16.242  1.00  0.00    -0.002 C 
ATOM     14  C   UNL     1     -13.933  14.967 -15.931  1.00  0.00    -0.069 C 
ATOM     15  C   UNL     1     -14.788  15.395 -14.758  1.00  0.00     0.039 C 
ATOM     16  C   UNL     1     -13.300  16.067 -16.753  1.00  0.00     0.039 C 
BRANCH  13  17
ATOM     17  C   UNL     1     -14.316  12.529 -15.391  1.00  0.00     0.066 CG0
ATOM     18  G   UNL     1     -13.249  11.574 -14.894  1.00  0.00     0.000 G0
ENDBRANCH  13  17
ENDBRANCH  11  13
ENDBRANCH  10  11
ENDBRANCH   1  10
TORSDOF 0
ENDMDL
MODEL 4
REMARK VINA RESULT:    -3.328      8.688     10.623
REMARK INTER + INTRA:          -4.476
REMARK INTER:                  -4.679
REMARK INTRA:                   0.203
REMARK UNBOUND:                 0.214
REMARK SMILES CC1=CCC(=C(C)C)C(=O)CC(C)=CCC1
REMARK SMILES IDX 12 1 14 2 13 3 15 4 16 5 2 6 1 7 3 8 11 10 9 11 10 12 5 13
REMARK SMILES IDX 6 14 7 15 8 16 4 17
REMARK H PARENT
REMARK Flexibility Score: 60.00
ROOT
ATOM      1  C   UNL     1      -2.257   8.249 -12.298  1.00  0.00    -0.070 C 
ATOM      2  C   UNL     1      -3.449   7.617 -12.367  1.00  0.00    -0.027 C 
ATOM      3  C   UNL     1      -1.109   7.680 -13.095  1.00  0.00     0.039 C 
ENDROOT
BRANCH   2   4
ATOM      4  C   UNL     1      -4.734   8.086 -11.721  1.00  0.00     0.032 C 
BRANCH   4   5
ATOM      5  C   UNL     1      -5.424   9.269 -12.432  1.00  0.00     0.034 C 
BRANCH   5   6
ATOM      6  C   UNL     1      -5.799  10.397 -11.486  1.00  0.00    -0.077 C 
ATOM      7  C   UNL     1      -6.788  10.092 -10.390  1.00  0.00     0.039 C 
ATOM      8  C   UNL     1      -5.252  11.636 -11.521  1.00  0.00    -0.023 CG0
ATOM      9  G   UNL     1      -4.260  12.170 -12.535  1.00  0.00     0.000 G0
ENDBRANCH   5   6
ENDBRANCH   4   5
ENDBRANCH   2   4
BRANCH   1  10
ATOM     10  C   UNL     1      -2.043   9.543 -11.540  1.00  0.00     0.111 C 
BRANCH  10  11
ATOM     11  C   UNL     1      -2.105  10.739 -12.452  1.00  0.00     0.163 C 
ATOM     12  O   UNL     1      -1.586  10.641 -13.597  1.00  0.00    -0.294 OA
BRANCH  11  13
ATOM     13  C   UNL     1      -2.808  12.001 -12.074  1.00  0.00    -0.002 C 
ATOM     14  C   UNL     1      -2.145  13.003 -11.421  1.00  0.00    -0.069 C 
ATOM     15  C   UNL     1      -2.782  14.351 -11.165  1.00  0.00     0.039 C 
ATOM     16  C   UNL     1      -0.730  12.810 -10.922  1.00  0.00     0.039 C 
BRANCH  13  17
ATOM     17  C   UNL     1      -4.251  12.155 -12.528  1.00  0.00     0.066 CG0
ATOM     18  G   UNL     1      -5.236  11.620 -11.508  1.00  0.00     0.000 G0
ENDBRANCH  13  17
ENDBRANCH  11  13
ENDBRANCH  10  11
ENDBRANCH   1  10
TORSDOF 0
ENDMDL
MODEL 5
REMARK VINA RESULT:    -3.305      4.961      6.793
REMARK INTER + INTRA:          -4.444
REMARK INTER:                  -4.675
REMARK INTRA:                   0.231
REMARK UNBOUND:                 0.214
REMARK SMILES CC1=CCC(=C(C)C)C(=O)CC(C)=CCC1
REMARK SMILES IDX 12 1 14 2 13 3 15 4 16 5 2 6 1 7 3 8 11 10 9 11 10 12 5 13
REMARK SMILES IDX 6 14 7 15 8 16 4 17
REMARK H PARENT
REMARK Flexibility Score: 60.00
ROOT
ATOM      1  C   UNL     1     -12.133  10.206 -21.703  1.00  0.00    -0.070 C 
ATOM      2  C   UNL     1     -12.892  10.184 -20.585  1.00  0.00    -0.027 C 
ATOM      3  C   UNL     1     -12.504   9.270 -22.826  1.00  0.00     0.039 C 
ENDROOT
BRANCH   2   4
ATOM      4  C   UNL     1     -12.739  11.109 -19.398  1.00  0.00     0.032 C 
BRANCH   4   5
ATOM      5  C   UNL     1     -13.697  12.318 -19.389  1.00  0.00     0.034 C 
BRANCH   5   6
ATOM      6  C   UNL     1     -12.978  13.647 -19.238  1.00  0.00    -0.077 C 
ATOM      7  C   UNL     1     -12.679  14.127 -17.841  1.00  0.00     0.039 C 
ATOM      8  C   UNL     1     -12.529  14.395 -20.276  1.00  0.00    -0.023 CG0
ATOM      9  G   UNL     1     -12.729  14.122 -21.753  1.00  0.00     0.000 G0
ENDBRANCH   5   6
ENDBRANCH   4   5
ENDBRANCH   2   4
BRANCH   1  10
ATOM     10  C   UNL     1     -10.994  11.182 -21.918  1.00  0.00     0.111 C 
BRANCH  10  11
ATOM     11  C   UNL     1     -11.374  12.276 -22.881  1.00  0.00     0.163 C 
ATOM     12  O   UNL     1     -11.673  11.950 -24.062  1.00  0.00    -0.294 OA
BRANCH  11  13
ATOM     13  C   UNL     1     -11.465  13.708 -22.472  1.00  0.00    -0.002 C 
ATOM     14  C   UNL     1     -10.482  14.597 -22.807  1.00  0.00    -0.069 C 
ATOM     15  C   UNL     1     -10.620  16.081 -22.546  1.00  0.00     0.039 C 
ATOM     16  C   UNL     1      -9.199  14.134 -23.461  1.00  0.00     0.039 C 
BRANCH  13  17
ATOM     17  C   UNL     1     -12.734  14.147 -21.758  1.00  0.00     0.066 CG0
ATOM     18  G   UNL     1     -12.513  14.374 -20.276  1.00  0.00     0.000 G0
ENDBRANCH  13  17
ENDBRANCH  11  13
ENDBRANCH  10  11
ENDBRANCH   1  10
TORSDOF 0
ENDMDL
MODEL 6
REMARK VINA RESULT:    -3.296     11.769     13.244
REMARK INTER + INTRA:          -4.431
REMARK INTER:                  -5.060
REMARK INTRA:                   0.630
REMARK UNBOUND:                 0.214
REMARK SMILES CC1=CCC(=C(C)C)C(=O)CC(C)=CCC1
REMARK SMILES IDX 12 1 14 2 13 3 15 4 16 5 2 6 1 7 3 8 11 10 9 11 10 12 5 13
REMARK SMILES IDX 6 14 7 15 8 16 4 17
REMARK H PARENT
REMARK Flexibility Score: 60.00
ROOT
ATOM      1  C   UNL     1      -2.117  11.375 -23.201  1.00  0.00    -0.070 C 
ATOM      2  C   UNL     1      -2.848  10.566 -24.000  1.00  0.00    -0.027 C 
ATOM      3  C   UNL     1      -1.448  10.760 -21.997  1.00  0.00     0.039 C 
ENDROOT
BRANCH   2   4
ATOM      4  C   UNL     1      -3.510  10.974 -25.298  1.00  0.00     0.032 C 
BRANCH   4   5
ATOM      5  C   UNL     1      -5.013  10.637 -25.393  1.00  0.00     0.034 C 
BRANCH   5   6
ATOM      6  C   UNL     1      -5.881  11.537 -24.532  1.00  0.00    -0.077 C 
ATOM      7  C   UNL     1      -6.954  10.885 -23.696  1.00  0.00     0.039 C 
ATOM      8  C   UNL     1      -5.711  12.876 -24.413  1.00  0.00    -0.023 CG0
ATOM      9  G   UNL     1      -4.718  13.742 -25.163  1.00  0.00     0.000 G0
ENDBRANCH   5   6
ENDBRANCH   4   5
ENDBRANCH   2   4
BRANCH   1  10
ATOM     10  C   UNL     1      -1.862  12.837 -23.505  1.00  0.00     0.111 C 
BRANCH  10  11
ATOM     11  C   UNL     1      -3.064  13.688 -23.188  1.00  0.00     0.163 C 
ATOM     12  O   UNL     1      -3.445  13.755 -21.988  1.00  0.00    -0.294 OA
BRANCH  11  13
ATOM     13  C   UNL     1      -3.772  14.494 -24.226  1.00  0.00    -0.002 C 
ATOM     14  C   UNL     1      -3.507  15.826 -24.381  1.00  0.00    -0.069 C 
ATOM     15  C   UNL     1      -4.088  16.632 -25.522  1.00  0.00     0.039 C 
ATOM     16  C   UNL     1      -2.609  16.563 -23.411  1.00  0.00     0.039 C 
BRANCH  13  17
ATOM     17  C   UNL     1      -4.720  13.751 -25.155  1.00  0.00     0.066 CG0
ATOM     18  G   UNL     1      -5.707  12.884 -24.398  1.00  0.00     0.000 G0
ENDBRANCH  13  17
ENDBRANCH  11  13
ENDBRANCH  10  11
ENDBRANCH   1  10
TORSDOF 0
ENDMDL
MODEL 7
REMARK VINA RESULT:    -3.212      2.891      5.236
REMARK INTER + INTRA:          -4.313
REMARK INTER:                  -4.608
REMARK INTRA:                   0.295
REMARK UNBOUND:                 0.214
REMARK SMILES CC1=CCC(=C(C)C)C(=O)CC(C)=CCC1
REMARK SMILES IDX 12 1 14 2 13 3 15 4 16 5 2 6 1 7 3 8 11 10 9 11 10 12 5 13
REMARK SMILES IDX 6 14 7 15 8 16 4 17
REMARK H PARENT
REMARK Flexibility Score: 60.00
ROOT
ATOM      1  C   UNL     1     -14.479  15.054 -14.917  1.00  0.00    -0.070 C 
ATOM      2  C   UNL     1     -13.834  16.050 -15.564  1.00  0.00    -0.027 C 
ATOM      3  C   UNL     1     -14.925  15.306 -13.499  1.00  0.00     0.039 C 
ENDROOT
BRANCH   2   4
ATOM      4  C   UNL     1     -13.397  16.023 -17.012  1.00  0.00     0.032 C 
BRANCH   4   5
ATOM      5  C   UNL     1     -11.941  15.565 -17.242  1.00  0.00     0.034 C 
BRANCH   5   6
ATOM      6  C   UNL     1     -11.810  14.528 -18.344  1.00  0.00    -0.077 C 
ATOM      7  C   UNL     1     -11.745  15.021 -19.767  1.00  0.00     0.039 C 
ATOM      8  C   UNL     1     -11.679  13.197 -18.127  1.00  0.00    -0.023 CG0
ATOM      9  G   UNL     1     -11.734  12.477 -16.794  1.00  0.00     0.000 G0
ENDBRANCH   5   6
ENDBRANCH   4   5
ENDBRANCH   2   4
BRANCH   1  10
ATOM     10  C   UNL     1     -14.856  13.742 -15.574  1.00  0.00     0.111 C 
BRANCH  10  11
ATOM     11  C   UNL     1     -13.824  12.675 -15.318  1.00  0.00     0.163 C 
ATOM     12  O   UNL     1     -13.599  12.341 -14.123  1.00  0.00    -0.294 OA
BRANCH  11  13
ATOM     13  C   UNL     1     -13.112  11.967 -16.422  1.00  0.00    -0.002 C 
ATOM     14  C   UNL     1     -13.726  10.969 -17.126  1.00  0.00    -0.069 C 
ATOM     15  C   UNL     1     -13.092  10.341 -18.348  1.00  0.00     0.039 C 
ATOM     16  C   UNL     1     -15.082  10.441 -16.712  1.00  0.00     0.039 C 
BRANCH  13  17
ATOM     17  C   UNL     1     -11.722  12.467 -16.786  1.00  0.00     0.066 CG0
ATOM     18  G   UNL     1     -11.702  13.199 -18.113  1.00  0.00     0.000 G0
ENDBRANCH  13  17
ENDBRANCH  11  13
ENDBRANCH  10  11
ENDBRANCH   1  10
TORSDOF 0
ENDMDL
MODEL 8
REMARK VINA RESULT:    -3.124     11.996     12.866
REMARK INTER + INTRA:          -4.188
REMARK INTER:                  -4.346
REMARK INTRA:                   0.158
REMARK UNBOUND:                 0.214
REMARK SMILES CC1=CCC(=C(C)C)C(=O)CC(C)=CCC1
REMARK SMILES IDX 12 1 14 2 13 3 15 4 16 5 2 6 1 7 3 8 11 10 9 11 10 12 5 13
REMARK SMILES IDX 6 14 7 15 8 16 4 17
REMARK H PARENT
REMARK Flexibility Score: 60.00
ROOT
ATOM      1  C   UNL     1      -3.583  11.290 -24.577  1.00  0.00    -0.070 C 
ATOM      2  C   UNL     1      -3.103  10.456 -23.628  1.00  0.00    -0.027 C 
ATOM      3  C   UNL     1      -4.737  10.809 -25.421  1.00  0.00     0.039 C 
ENDROOT
BRANCH   2   4
ATOM      4  C   UNL     1      -2.021  10.791 -22.625  1.00  0.00     0.032 C 
BRANCH   4   5
ATOM      5  C   UNL     1      -2.526  11.434 -21.316  1.00  0.00     0.034 C 
BRANCH   5   6
ATOM      6  C   UNL     1      -1.803  12.723 -20.968  1.00  0.00    -0.077 C 
ATOM      7  C   UNL     1      -0.408  12.614 -20.405  1.00  0.00     0.039 C 
ATOM      8  C   UNL     1      -2.302  13.963 -21.193  1.00  0.00    -0.023 CG0
ATOM      9  G   UNL     1      -3.675  14.313 -21.728  1.00  0.00     0.000 G0
ENDBRANCH   5   6
ENDBRANCH   4   5
ENDBRANCH   2   4
BRANCH   1  10
ATOM     10  C   UNL     1      -3.083  12.707 -24.770  1.00  0.00     0.111 C 
BRANCH  10  11
ATOM     11  C   UNL     1      -4.049  13.718 -24.210  1.00  0.00     0.163 C 
ATOM     12  O   UNL     1      -5.254  13.654 -24.578  1.00  0.00    -0.294 OA
BRANCH  11  13
ATOM     13  C   UNL     1      -3.644  14.742 -23.202  1.00  0.00    -0.002 C 
ATOM     14  C   UNL     1      -3.336  16.018 -23.584  1.00  0.00    -0.069 C 
ATOM     15  C   UNL     1      -3.077  17.116 -22.576  1.00  0.00     0.039 C 
ATOM     16  C   UNL     1      -3.240  16.396 -25.046  1.00  0.00     0.039 C 
BRANCH  13  17
ATOM     17  C   UNL     1      -3.684  14.329 -21.739  1.00  0.00     0.066 CG0
ATOM     18  G   UNL     1      -2.315  13.956 -21.208  1.00  0.00     0.000 G0
ENDBRANCH  13  17
ENDBRANCH  11  13
ENDBRANCH  10  11
ENDBRANCH   1  10
TORSDOF 0
ENDMDL
MODEL 9
REMARK VINA RESULT:    -3.088      4.583      7.108
REMARK INTER + INTRA:          -4.138
REMARK INTER:                  -4.765
REMARK INTRA:                   0.627
REMARK UNBOUND:                 0.214
REMARK SMILES CC1=CCC(=C(C)C)C(=O)CC(C)=CCC1
REMARK SMILES IDX 12 1 14 2 13 3 15 4 16 5 2 6 1 7 3 8 11 10 9 11 10 12 5 13
REMARK SMILES IDX 6 14 7 15 8 16 4 17
REMARK H PARENT
REMARK Flexibility Score: 60.00
ROOT
ATOM      1  C   UNL     1     -11.969   8.732 -22.650  1.00  0.00    -0.070 C 
ATOM      2  C   UNL     1     -11.436   9.393 -23.701  1.00  0.00    -0.027 C 
ATOM      3  C   UNL     1     -11.328   7.431 -22.235  1.00  0.00     0.039 C 
ENDROOT
BRANCH   2   4
ATOM      4  C   UNL     1     -11.875  10.751 -24.204  1.00  0.00     0.032 C 
BRANCH   4   5
ATOM      5  C   UNL     1     -10.852  11.885 -23.989  1.00  0.00     0.034 C 
BRANCH   5   6
ATOM      6  C   UNL     1     -10.120  11.784 -22.662  1.00  0.00    -0.077 C 
ATOM      7  C   UNL     1      -8.644  11.480 -22.697  1.00  0.00     0.039 C 
ATOM      8  C   UNL     1     -10.692  12.016 -21.455  1.00  0.00    -0.023 CG0
ATOM      9  G   UNL     1     -12.151  12.316 -21.177  1.00  0.00     0.000 G0
ENDBRANCH   5   6
ENDBRANCH   4   5
ENDBRANCH   2   4
BRANCH   1  10
ATOM     10  C   UNL     1     -13.112   9.276 -21.818  1.00  0.00     0.111 C 
BRANCH  10  11
ATOM     11  C   UNL     1     -12.624   9.866 -20.521  1.00  0.00     0.163 C 
ATOM     12  O   UNL     1     -12.028   9.105 -19.709  1.00  0.00    -0.294 OA
BRANCH  11  13
ATOM     13  C   UNL     1     -12.766  11.316 -20.195  1.00  0.00    -0.002 C 
ATOM     14  C   UNL     1     -13.356  11.717 -19.029  1.00  0.00    -0.069 C 
ATOM     15  C   UNL     1     -13.374  13.167 -18.597  1.00  0.00     0.039 C 
ATOM     16  C   UNL     1     -14.024  10.721 -18.106  1.00  0.00     0.039 C 
BRANCH  13  17
ATOM     17  C   UNL     1     -12.145  12.309 -21.164  1.00  0.00     0.066 CG0
ATOM     18  G   UNL     1     -10.687  12.006 -21.445  1.00  0.00     0.000 G0
ENDBRANCH  13  17
ENDBRANCH  11  13
ENDBRANCH  10  11
ENDBRANCH   1  10
TORSDOF 0
ENDMDL
