MODEL 1
REMARK VINA RESULT:    -4.284      0.000      0.000
REMARK INTER + INTRA:          -6.111
REMARK INTER:                  -5.912
REMARK INTRA:                  -0.199
REMARK UNBOUND:                -0.199
REMARK SMILES CCCCCCCCO
REMARK SMILES IDX 5 1 4 2 3 3 2 4 1 5 6 6 7 7 8 8 9 9
REMARK H PARENT 9 10
REMARK Flexibility Score: inf
ROOT
ATOM      1  C   UNL     1      -4.177 -22.010 -11.341  1.00  0.00     0.000 C 
ENDROOT
BRANCH   1   2
ATOM      2  C   UNL     1      -5.349 -21.169 -11.873  1.00  0.00    -0.000 C 
BRANCH   2   3
ATOM      3  C   UNL     1      -4.882 -19.907 -12.620  1.00  0.00    -0.000 C 
BRANCH   3   4
ATOM      4  C   UNL     1      -6.023 -19.223 -13.388  1.00  0.00    -0.003 C 
ATOM      5  C   UNL     1      -6.126 -19.698 -14.838  1.00  0.00     0.004 C 
ENDBRANCH   3   4
ENDBRANCH   2   3
ENDBRANCH   1   2
BRANCH   1   6
ATOM      6  C   UNL     1      -2.816 -21.526 -11.869  1.00  0.00     0.002 C 
BRANCH   6   7
ATOM      7  C   UNL     1      -1.777 -22.657 -11.945  1.00  0.00     0.028 C 
BRANCH   7   8
ATOM      8  C   UNL     1      -0.352 -22.177 -11.641  1.00  0.00     0.156 C 
BRANCH   8   9
ATOM      9  O   UNL     1       0.464 -22.348 -12.768  1.00  0.00    -0.396 OA
ATOM     10  H   UNL     1       1.102 -23.077 -12.550  1.00  0.00     0.210 HD
ENDBRANCH   8   9
ENDBRANCH   7   8
ENDBRANCH   6   7
ENDBRANCH   1   6
TORSDOF 7
ENDMDL
MODEL 2
REMARK VINA RESULT:    -4.260      1.610      1.871
REMARK INTER + INTRA:          -6.078
REMARK INTER:                  -5.844
REMARK INTRA:                  -0.234
REMARK UNBOUND:                -0.199
REMARK SMILES CCCCCCCCO
REMARK SMILES IDX 5 1 4 2 3 3 2 4 1 5 6 6 7 7 8 8 9 9
REMARK H PARENT 9 10
REMARK Flexibility Score: inf
ROOT
ATOM      1  C   UNL     1      -3.438 -22.313 -10.728  1.00  0.00     0.000 C 
ENDROOT
BRANCH   1   2
ATOM      2  C   UNL     1      -4.686 -21.477 -11.058  1.00  0.00    -0.000 C 
BRANCH   2   3
ATOM      3  C   UNL     1      -4.474 -20.544 -12.263  1.00  0.00    -0.000 C 
BRANCH   3   4
ATOM      4  C   UNL     1      -5.614 -19.527 -12.426  1.00  0.00    -0.003 C 
ATOM      5  C   UNL     1      -5.887 -19.178 -13.890  1.00  0.00     0.004 C 
ENDBRANCH   3   4
ENDBRANCH   2   3
ENDBRANCH   1   2
BRANCH   1   6
ATOM      6  C   UNL     1      -2.234 -21.951 -11.615  1.00  0.00     0.002 C 
BRANCH   6   7
ATOM      7  C   UNL     1      -1.588 -23.186 -12.264  1.00  0.00     0.028 C 
BRANCH   7   8
ATOM      8  C   UNL     1      -2.471 -24.437 -12.173  1.00  0.00     0.156 C 
BRANCH   8   9
ATOM      9  O   UNL     1      -1.780 -25.552 -12.667  1.00  0.00    -0.396 OA
ATOM     10  H   UNL     1      -2.415 -26.045 -13.251  1.00  0.00     0.210 HD
ENDBRANCH   8   9
ENDBRANCH   7   8
ENDBRANCH   6   7
ENDBRANCH   1   6
TORSDOF 7
ENDMDL
MODEL 3
REMARK VINA RESULT:    -4.249      3.268      4.238
REMARK INTER + INTRA:          -6.063
REMARK INTER:                  -5.830
REMARK INTRA:                  -0.233
REMARK UNBOUND:                -0.199
REMARK SMILES CCCCCCCCO
REMARK SMILES IDX 5 1 4 2 3 3 2 4 1 5 6 6 7 7 8 8 9 9
REMARK H PARENT 9 10
REMARK Flexibility Score: inf
ROOT
ATOM      1  C   UNL     1      -5.857 -19.477 -12.803  1.00  0.00     0.000 C 
ENDROOT
BRANCH   1   2
ATOM      2  C   UNL     1      -5.966 -19.576 -14.334  1.00  0.00    -0.000 C 
BRANCH   2   3
ATOM      3  C   UNL     1      -7.114 -18.724 -14.904  1.00  0.00    -0.000 C 
BRANCH   3   4
ATOM      4  C   UNL     1      -7.062 -17.268 -14.417  1.00  0.00    -0.003 C 
ATOM      5  C   UNL     1      -8.289 -16.878 -13.592  1.00  0.00     0.004 C 
ENDBRANCH   3   4
ENDBRANCH   2   3
ENDBRANCH   1   2
BRANCH   1   6
ATOM      6  C   UNL     1      -4.608 -20.187 -12.254  1.00  0.00     0.002 C 
BRANCH   6   7
ATOM      7  C   UNL     1      -4.911 -21.610 -11.756  1.00  0.00     0.028 C 
BRANCH   7   8
ATOM      8  C   UNL     1      -6.327 -21.751 -11.184  1.00  0.00     0.156 C 
BRANCH   8   9
ATOM      9  O   UNL     1      -7.053 -22.696 -11.923  1.00  0.00    -0.396 OA
ATOM     10  H   UNL     1      -7.615 -22.185 -12.564  1.00  0.00     0.210 HD
ENDBRANCH   8   9
ENDBRANCH   7   8
ENDBRANCH   6   7
ENDBRANCH   1   6
TORSDOF 7
ENDMDL
MODEL 4
REMARK VINA RESULT:    -4.226      3.511      6.029
REMARK INTER + INTRA:          -6.031
REMARK INTER:                  -5.867
REMARK INTRA:                  -0.164
REMARK UNBOUND:                -0.199
REMARK SMILES CCCCCCCCO
REMARK SMILES IDX 5 1 4 2 3 3 2 4 1 5 6 6 7 7 8 8 9 9
REMARK H PARENT 9 10
REMARK Flexibility Score: inf
ROOT
ATOM      1  C   UNL     1      -6.004 -19.187 -13.143  1.00  0.00     0.000 C 
ENDROOT
BRANCH   1   2
ATOM      2  C   UNL     1      -4.777 -19.908 -12.560  1.00  0.00    -0.000 C 
BRANCH   2   3
ATOM      3  C   UNL     1      -5.147 -21.207 -11.823  1.00  0.00    -0.000 C 
BRANCH   3   4
ATOM      4  C   UNL     1      -4.012 -21.714 -10.921  1.00  0.00    -0.003 C 
ATOM      5  C   UNL     1      -2.681 -21.842 -11.664  1.00  0.00     0.004 C 
ENDBRANCH   3   4
ENDBRANCH   2   3
ENDBRANCH   1   2
BRANCH   1   6
ATOM      6  C   UNL     1      -6.151 -19.405 -14.659  1.00  0.00     0.002 C 
BRANCH   6   7
ATOM      7  C   UNL     1      -6.936 -18.275 -15.344  1.00  0.00     0.028 C 
BRANCH   7   8
ATOM      8  C   UNL     1      -7.660 -17.363 -14.344  1.00  0.00     0.156 C 
BRANCH   8   9
ATOM      9  O   UNL     1      -7.150 -16.060 -14.425  1.00  0.00    -0.396 OA
ATOM     10  H   UNL     1      -6.209 -16.102 -14.109  1.00  0.00     0.210 HD
ENDBRANCH   8   9
ENDBRANCH   7   8
ENDBRANCH   6   7
ENDBRANCH   1   6
TORSDOF 7
ENDMDL
MODEL 5
REMARK VINA RESULT:    -4.124      3.132      5.477
REMARK INTER + INTRA:          -5.890
REMARK INTER:                  -5.685
REMARK INTRA:                  -0.206
REMARK UNBOUND:                -0.199
REMARK SMILES CCCCCCCCO
REMARK SMILES IDX 5 1 4 2 3 3 2 4 1 5 6 6 7 7 8 8 9 9
REMARK H PARENT 9 10
REMARK Flexibility Score: inf
ROOT
ATOM      1  C   UNL     1      -4.884 -19.969 -12.390  1.00  0.00     0.000 C 
ENDROOT
BRANCH   1   2
ATOM      2  C   UNL     1      -5.444 -20.837 -11.251  1.00  0.00    -0.000 C 
BRANCH   2   3
ATOM      3  C   UNL     1      -4.390 -21.786 -10.653  1.00  0.00    -0.000 C 
BRANCH   3   4
ATOM      4  C   UNL     1      -3.155 -21.933 -11.553  1.00  0.00    -0.003 C 
ATOM      5  C   UNL     1      -2.621 -23.365 -11.593  1.00  0.00     0.004 C 
ENDBRANCH   3   4
ENDBRANCH   2   3
ENDBRANCH   1   2
BRANCH   1   6
ATOM      6  C   UNL     1      -5.973 -19.137 -13.088  1.00  0.00     0.002 C 
BRANCH   6   7
ATOM      7  C   UNL     1      -6.242 -19.607 -14.527  1.00  0.00     0.028 C 
BRANCH   7   8
ATOM      8  C   UNL     1      -6.766 -18.484 -15.431  1.00  0.00     0.156 C 
BRANCH   8   9
ATOM      9  O   UNL     1      -6.472 -17.235 -14.867  1.00  0.00    -0.396 OA
ATOM     10  H   UNL     1      -5.568 -16.981 -15.192  1.00  0.00     0.210 HD
ENDBRANCH   8   9
ENDBRANCH   7   8
ENDBRANCH   6   7
ENDBRANCH   1   6
TORSDOF 7
ENDMDL
MODEL 6
REMARK VINA RESULT:    -4.054      3.031      5.327
REMARK INTER + INTRA:          -5.793
REMARK INTER:                  -5.586
REMARK INTRA:                  -0.207
REMARK UNBOUND:                -0.199
REMARK SMILES CCCCCCCCO
REMARK SMILES IDX 5 1 4 2 3 3 2 4 1 5 6 6 7 7 8 8 9 9
REMARK H PARENT 9 10
REMARK Flexibility Score: inf
ROOT
ATOM      1  C   UNL     1      -4.850 -20.939 -11.337  1.00  0.00     0.000 C 
ENDROOT
BRANCH   1   2
ATOM      2  C   UNL     1      -3.914 -22.159 -11.321  1.00  0.00    -0.000 C 
BRANCH   2   3
ATOM      3  C   UNL     1      -2.443 -21.782 -11.569  1.00  0.00    -0.000 C 
BRANCH   3   4
ATOM      4  C   UNL     1      -1.627 -22.947 -12.149  1.00  0.00    -0.003 C 
ATOM      5  C   UNL     1      -2.394 -24.269 -12.134  1.00  0.00     0.004 C 
ENDBRANCH   3   4
ENDBRANCH   2   3
ENDBRANCH   1   2
BRANCH   1   6
ATOM      6  C   UNL     1      -4.634 -20.046 -12.570  1.00  0.00     0.002 C 
BRANCH   6   7
ATOM      7  C   UNL     1      -5.924 -19.342 -13.022  1.00  0.00     0.028 C 
BRANCH   7   8
ATOM      8  C   UNL     1      -6.171 -19.464 -14.531  1.00  0.00     0.156 C 
BRANCH   8   9
ATOM      9  O   UNL     1      -7.480 -19.068 -14.838  1.00  0.00    -0.396 OA
ATOM     10  H   UNL     1      -7.586 -19.171 -15.821  1.00  0.00     0.210 HD
ENDBRANCH   8   9
ENDBRANCH   7   8
ENDBRANCH   6   7
ENDBRANCH   1   6
TORSDOF 7
ENDMDL
MODEL 7
REMARK VINA RESULT:    -3.834      6.424      9.449
REMARK INTER + INTRA:          -5.490
REMARK INTER:                  -5.369
REMARK INTRA:                  -0.120
REMARK UNBOUND:                -0.199
REMARK SMILES CCCCCCCCO
REMARK SMILES IDX 5 1 4 2 3 3 2 4 1 5 6 6 7 7 8 8 9 9
REMARK H PARENT 9 10
REMARK Flexibility Score: inf
ROOT
ATOM      1  C   UNL     1      -9.612 -17.997 -17.370  1.00  0.00     0.000 C 
ENDROOT
BRANCH   1   2
ATOM      2  C   UNL     1      -8.254 -17.664 -16.728  1.00  0.00    -0.000 C 
BRANCH   2   3
ATOM      3  C   UNL     1      -8.192 -18.049 -15.239  1.00  0.00    -0.000 C 
BRANCH   3   4
ATOM      4  C   UNL     1      -6.750 -18.216 -14.736  1.00  0.00    -0.003 C 
ATOM      5  C   UNL     1      -6.220 -19.638 -14.927  1.00  0.00     0.004 C 
ENDBRANCH   3   4
ENDBRANCH   2   3
ENDBRANCH   1   2
BRANCH   1   6
ATOM      6  C   UNL     1      -9.870 -17.190 -18.653  1.00  0.00     0.002 C 
BRANCH   6   7
ATOM      7  C   UNL     1      -9.345 -17.900 -19.912  1.00  0.00     0.028 C 
BRANCH   7   8
ATOM      8  C   UNL     1      -9.367 -17.001 -21.154  1.00  0.00     0.156 C 
BRANCH   8   9
ATOM      9  O   UNL     1      -8.871 -15.729 -20.837  1.00  0.00    -0.396 OA
ATOM     10  H   UNL     1      -8.271 -15.462 -21.584  1.00  0.00     0.210 HD
ENDBRANCH   8   9
ENDBRANCH   7   8
ENDBRANCH   6   7
ENDBRANCH   1   6
TORSDOF 7
ENDMDL
MODEL 8
REMARK VINA RESULT:    -3.777      1.497      2.084
REMARK INTER + INTRA:          -5.412
REMARK INTER:                  -5.293
REMARK INTRA:                  -0.119
REMARK UNBOUND:                -0.199
REMARK SMILES CCCCCCCCO
REMARK SMILES IDX 5 1 4 2 3 3 2 4 1 5 6 6 7 7 8 8 9 9
REMARK H PARENT 9 10
REMARK Flexibility Score: inf
ROOT
ATOM      1  C   UNL     1      -4.449 -20.308 -12.291  1.00  0.00     0.000 C 
ENDROOT
BRANCH   1   2
ATOM      2  C   UNL     1      -5.726 -19.486 -12.536  1.00  0.00    -0.000 C 
BRANCH   2   3
ATOM      3  C   UNL     1      -6.029 -19.292 -14.032  1.00  0.00    -0.000 C 
BRANCH   3   4
ATOM      4  C   UNL     1      -6.834 -18.012 -14.307  1.00  0.00    -0.003 C 
ATOM      5  C   UNL     1      -7.223 -17.865 -15.778  1.00  0.00     0.004 C 
ENDBRANCH   3   4
ENDBRANCH   2   3
ENDBRANCH   1   2
BRANCH   1   6
ATOM      6  C   UNL     1      -4.730 -21.628 -11.554  1.00  0.00     0.002 C 
BRANCH   6   7
ATOM      7  C   UNL     1      -3.483 -22.185 -10.848  1.00  0.00     0.028 C 
BRANCH   7   8
ATOM      8  C   UNL     1      -2.190 -21.929 -11.632  1.00  0.00     0.156 C 
BRANCH   8   9
ATOM      9  O   UNL     1      -1.301 -21.169 -10.860  1.00  0.00    -0.396 OA
ATOM     10  H   UNL     1      -1.625 -20.230 -10.893  1.00  0.00     0.210 HD
ENDBRANCH   8   9
ENDBRANCH   7   8
ENDBRANCH   6   7
ENDBRANCH   1   6
TORSDOF 7
ENDMDL
MODEL 9
REMARK VINA RESULT:    -3.727      5.011      7.508
REMARK INTER + INTRA:          -5.342
REMARK INTER:                  -5.152
REMARK INTRA:                  -0.191
REMARK UNBOUND:                -0.199
REMARK SMILES CCCCCCCCO
REMARK SMILES IDX 5 1 4 2 3 3 2 4 1 5 6 6 7 7 8 8 9 9
REMARK H PARENT 9 10
REMARK Flexibility Score: inf
ROOT
ATOM      1  C   UNL     1      -9.292 -18.002 -15.791  1.00  0.00     0.000 C 
ENDROOT
BRANCH   1   2
ATOM      2  C   UNL     1     -10.125 -17.998 -17.085  1.00  0.00    -0.000 C 
BRANCH   2   3
ATOM      3  C   UNL     1      -9.284 -17.674 -18.332  1.00  0.00    -0.000 C 
BRANCH   3   4
ATOM      4  C   UNL     1     -10.024 -17.995 -19.639  1.00  0.00    -0.003 C 
ATOM      5  C   UNL     1      -9.105 -17.961 -20.861  1.00  0.00     0.004 C 
ENDBRANCH   3   4
ENDBRANCH   2   3
ENDBRANCH   1   2
BRANCH   1   6
ATOM      6  C   UNL     1      -7.813 -17.660 -16.042  1.00  0.00     0.002 C 
BRANCH   6   7
ATOM      7  C   UNL     1      -6.908 -18.061 -14.865  1.00  0.00     0.028 C 
BRANCH   7   8
ATOM      8  C   UNL     1      -6.392 -19.501 -14.976  1.00  0.00     0.156 C 
BRANCH   8   9
ATOM      9  O   UNL     1      -6.584 -20.176 -13.763  1.00  0.00    -0.396 OA
ATOM     10  H   UNL     1      -7.182 -20.946 -13.957  1.00  0.00     0.210 HD
ENDBRANCH   8   9
ENDBRANCH   7   8
ENDBRANCH   6   7
ENDBRANCH   1   6
TORSDOF 7
ENDMDL
