MODEL 1
REMARK VINA RESULT:    -7.201      0.000      0.000
REMARK INTER + INTRA:          -9.554
REMARK INTER:                  -9.095
REMARK INTRA:                  -0.459
REMARK UNBOUND:                -0.459
REMARK SMILES O=C(C=Cc1ccc(O)cc1)c1ccc(O)cc1O
REMARK SMILES IDX 4 1 3 2 5 3 6 4 7 5 8 6 11 7 10 8 9 9 2 11 1 12 12 13 18 14
REMARK SMILES IDX 13 15 17 16 14 17 15 18 19 19 16 21
REMARK H PARENT 9 10 19 20 16 22
REMARK Flexibility Score: inf
ROOT
ATOM      1  C   UNL     1     -12.747  -6.933  39.489  1.00  0.00     0.012 C 
ATOM      2  C   UNL     1     -13.789  -6.418  38.822  1.00  0.00     0.053 C 
ENDROOT
BRANCH   1   3
ATOM      3  C   UNL     1     -11.783  -7.894  38.898  1.00  0.00    -0.025 A 
ATOM      4  C   UNL     1     -11.641  -8.066  37.506  1.00  0.00     0.012 A 
ATOM      5  C   UNL     1     -10.709  -8.977  36.998  1.00  0.00     0.047 A 
ATOM      6  C   UNL     1      -9.903  -9.721  37.865  1.00  0.00     0.115 A 
ATOM      7  C   UNL     1     -10.957  -8.634  39.760  1.00  0.00     0.012 A 
ATOM      8  C   UNL     1     -10.028  -9.545  39.249  1.00  0.00     0.047 A 
BRANCH   6   9
ATOM      9  O   UNL     1      -8.982 -10.625  37.344  1.00  0.00    -0.508 OA
ATOM     10  H   UNL     1      -9.278 -11.432  36.807  1.00  0.00     0.293 HD
ENDBRANCH   6   9
ENDBRANCH   1   3
BRANCH   2  11
ATOM     11  C   UNL     1     -14.732  -5.466  39.447  1.00  0.00     0.189 C 
ATOM     12  O   UNL     1     -14.764  -4.264  39.067  1.00  0.00    -0.289 OA
BRANCH  11  13
ATOM     13  C   UNL     1     -15.626  -5.907  40.540  1.00  0.00     0.064 A 
ATOM     14  C   UNL     1     -17.010  -6.130  40.331  1.00  0.00     0.130 A 
ATOM     15  C   UNL     1     -15.096  -6.074  41.832  1.00  0.00     0.020 A 
ATOM     16  C   UNL     1     -17.828  -6.476  41.414  1.00  0.00     0.093 A 
ATOM     17  C   UNL     1     -15.921  -6.433  42.900  1.00  0.00     0.047 A 
ATOM     18  C   UNL     1     -17.290  -6.629  42.694  1.00  0.00     0.119 A 
BRANCH  14  19
ATOM     19  O   UNL     1     -17.597  -6.045  39.067  1.00  0.00    -0.507 OA
ATOM     20  H   UNL     1     -18.410  -6.583  38.795  1.00  0.00     0.293 HD
ENDBRANCH  14  19
BRANCH  18  21
ATOM     21  O   UNL     1     -18.125  -6.981  43.753  1.00  0.00    -0.508 OA
ATOM     22  H   UNL     1     -17.774  -7.058  44.700  1.00  0.00     0.293 HD
ENDBRANCH  18  21
ENDBRANCH  11  13
ENDBRANCH   2  11
TORSDOF 6
ENDMDL
MODEL 2
REMARK VINA RESULT:    -7.101      1.699      7.009
REMARK INTER + INTRA:          -9.429
REMARK INTER:                  -8.727
REMARK INTRA:                  -0.702
REMARK UNBOUND:                -0.459
REMARK SMILES O=C(C=Cc1ccc(O)cc1)c1ccc(O)cc1O
REMARK SMILES IDX 4 1 3 2 5 3 6 4 7 5 8 6 11 7 10 8 9 9 2 11 1 12 12 13 18 14
REMARK SMILES IDX 13 15 17 16 14 17 15 18 19 19 16 21
REMARK H PARENT 9 10 19 20 16 22
REMARK Flexibility Score: inf
ROOT
ATOM      1  C   UNL     1     -16.158  -6.380  41.350  1.00  0.00     0.012 C 
ATOM      2  C   UNL     1     -14.988  -5.746  41.191  1.00  0.00     0.053 C 
ENDROOT
BRANCH   1   3
ATOM      3  C   UNL     1     -16.684  -6.819  42.667  1.00  0.00    -0.025 A 
ATOM      4  C   UNL     1     -17.636  -7.850  42.797  1.00  0.00     0.012 A 
ATOM      5  C   UNL     1     -18.093  -8.235  44.061  1.00  0.00     0.047 A 
ATOM      6  C   UNL     1     -17.603  -7.607  45.211  1.00  0.00     0.115 A 
ATOM      7  C   UNL     1     -16.186  -6.205  43.828  1.00  0.00     0.012 A 
ATOM      8  C   UNL     1     -16.646  -6.592  45.091  1.00  0.00     0.047 A 
BRANCH   6   9
ATOM      9  O   UNL     1     -18.069  -8.001  46.462  1.00  0.00    -0.508 OA
ATOM     10  H   UNL     1     -17.436  -8.318  47.187  1.00  0.00     0.293 HD
ENDBRANCH   6   9
ENDBRANCH   1   3
BRANCH   2  11
ATOM     11  C   UNL     1     -14.493  -5.328  39.861  1.00  0.00     0.189 C 
ATOM     12  O   UNL     1     -14.802  -4.197  39.397  1.00  0.00    -0.289 OA
BRANCH  11  13
ATOM     13  C   UNL     1     -13.655  -6.242  39.053  1.00  0.00     0.064 A 
ATOM     14  C   UNL     1     -13.932  -6.501  37.688  1.00  0.00     0.130 A 
ATOM     15  C   UNL     1     -12.576  -6.903  39.668  1.00  0.00     0.020 A 
ATOM     16  C   UNL     1     -13.155  -7.430  36.987  1.00  0.00     0.093 A 
ATOM     17  C   UNL     1     -11.800  -7.816  38.952  1.00  0.00     0.047 A 
ATOM     18  C   UNL     1     -12.090  -8.086  37.611  1.00  0.00     0.119 A 
BRANCH  14  19
ATOM     19  O   UNL     1     -14.947  -5.838  36.993  1.00  0.00    -0.507 OA
ATOM     20  H   UNL     1     -14.956  -5.738  35.987  1.00  0.00     0.293 HD
ENDBRANCH  14  19
BRANCH  18  21
ATOM     21  O   UNL     1     -11.327  -9.001  36.889  1.00  0.00    -0.508 OA
ATOM     22  H   UNL     1     -10.318  -8.929  36.843  1.00  0.00     0.293 HD
ENDBRANCH  18  21
ENDBRANCH  11  13
ENDBRANCH   2  11
TORSDOF 6
ENDMDL
MODEL 3
REMARK VINA RESULT:    -7.027      2.120      7.752
REMARK INTER + INTRA:          -9.335
REMARK INTER:                  -8.875
REMARK INTRA:                  -0.461
REMARK UNBOUND:                -0.459
REMARK SMILES O=C(C=Cc1ccc(O)cc1)c1ccc(O)cc1O
REMARK SMILES IDX 4 1 3 2 5 3 6 4 7 5 8 6 11 7 10 8 9 9 2 11 1 12 12 13 18 14
REMARK SMILES IDX 13 15 17 16 14 17 15 18 19 19 16 21
REMARK H PARENT 9 10 19 20 16 22
REMARK Flexibility Score: inf
ROOT
ATOM      1  C   UNL     1     -11.869  -7.522  38.135  1.00  0.00     0.012 C 
ATOM      2  C   UNL     1     -11.750  -8.780  37.689  1.00  0.00     0.053 C 
ENDROOT
BRANCH   1   3
ATOM      3  C   UNL     1     -13.168  -6.885  38.470  1.00  0.00    -0.025 A 
ATOM      4  C   UNL     1     -13.456  -6.381  39.754  1.00  0.00     0.012 A 
ATOM      5  C   UNL     1     -14.691  -5.780  40.017  1.00  0.00     0.047 A 
ATOM      6  C   UNL     1     -15.649  -5.665  39.006  1.00  0.00     0.115 A 
ATOM      7  C   UNL     1     -14.131  -6.751  37.457  1.00  0.00     0.012 A 
ATOM      8  C   UNL     1     -15.366  -6.150  37.724  1.00  0.00     0.047 A 
BRANCH   6   9
ATOM      9  O   UNL     1     -16.875  -5.065  39.284  1.00  0.00    -0.508 OA
ATOM     10  H   UNL     1     -16.973  -4.379  40.023  1.00  0.00     0.293 HD
ENDBRANCH   6   9
ENDBRANCH   1   3
BRANCH   2  11
ATOM     11  C   UNL     1     -10.438  -9.379  37.359  1.00  0.00     0.189 C 
ATOM     12  O   UNL     1     -10.031  -9.393  36.166  1.00  0.00    -0.289 OA
BRANCH  11  13
ATOM     13  C   UNL     1      -9.607  -9.990  38.420  1.00  0.00     0.064 A 
ATOM     14  C   UNL     1      -8.365 -10.609  38.132  1.00  0.00     0.130 A 
ATOM     15  C   UNL     1     -10.080  -9.990  39.744  1.00  0.00     0.020 A 
ATOM     16  C   UNL     1      -7.650 -11.238  39.159  1.00  0.00     0.093 A 
ATOM     17  C   UNL     1      -9.349 -10.608  40.761  1.00  0.00     0.047 A 
ATOM     18  C   UNL     1      -8.135 -11.239  40.470  1.00  0.00     0.119 A 
BRANCH  14  19
ATOM     19  O   UNL     1      -7.801 -10.595  36.855  1.00  0.00    -0.507 OA
ATOM     20  H   UNL     1      -6.810 -10.696  36.685  1.00  0.00     0.293 HD
ENDBRANCH  14  19
BRANCH  18  21
ATOM     21  O   UNL     1      -7.401 -11.865  41.475  1.00  0.00    -0.508 OA
ATOM     22  H   UNL     1      -6.391 -11.924  41.434  1.00  0.00     0.293 HD
ENDBRANCH  18  21
ENDBRANCH  11  13
ENDBRANCH   2  11
TORSDOF 6
ENDMDL
MODEL 4
REMARK VINA RESULT:    -6.987      2.694      4.577
REMARK INTER + INTRA:          -9.285
REMARK INTER:                  -8.710
REMARK INTRA:                  -0.574
REMARK UNBOUND:                -0.459
REMARK SMILES O=C(C=Cc1ccc(O)cc1)c1ccc(O)cc1O
REMARK SMILES IDX 4 1 3 2 5 3 6 4 7 5 8 6 11 7 10 8 9 9 2 11 1 12 12 13 18 14
REMARK SMILES IDX 13 15 17 16 14 17 15 18 19 19 16 21
REMARK H PARENT 9 10 19 20 16 22
REMARK Flexibility Score: inf
ROOT
ATOM      1  C   UNL     1     -10.312  -9.882  38.957  1.00  0.00     0.012 C 
ATOM      2  C   UNL     1     -10.633  -8.582  38.915  1.00  0.00     0.053 C 
ENDROOT
BRANCH   1   3
ATOM      3  C   UNL     1      -9.443 -10.484  39.998  1.00  0.00    -0.025 A 
ATOM      4  C   UNL     1      -8.177 -11.029  39.707  1.00  0.00     0.012 A 
ATOM      5  C   UNL     1      -7.390 -11.575  40.727  1.00  0.00     0.047 A 
ATOM      6  C   UNL     1      -7.848 -11.577  42.048  1.00  0.00     0.115 A 
ATOM      7  C   UNL     1      -9.888 -10.476  41.331  1.00  0.00     0.012 A 
ATOM      8  C   UNL     1      -9.099 -11.024  42.348  1.00  0.00     0.047 A 
BRANCH   6   9
ATOM      9  O   UNL     1      -7.054 -12.125  43.051  1.00  0.00    -0.508 OA
ATOM     10  H   UNL     1      -6.137 -12.506  42.851  1.00  0.00     0.293 HD
ENDBRANCH   6   9
ENDBRANCH   1   3
BRANCH   2  11
ATOM     11  C   UNL     1     -11.499  -8.017  37.857  1.00  0.00     0.189 C 
ATOM     12  O   UNL     1     -11.197  -8.172  36.642  1.00  0.00    -0.289 OA
BRANCH  11  13
ATOM     13  C   UNL     1     -12.709  -7.243  38.213  1.00  0.00     0.064 A 
ATOM     14  C   UNL     1     -13.693  -6.908  37.250  1.00  0.00     0.130 A 
ATOM     15  C   UNL     1     -12.869  -6.795  39.537  1.00  0.00     0.020 A 
ATOM     16  C   UNL     1     -14.783  -6.112  37.621  1.00  0.00     0.093 A 
ATOM     17  C   UNL     1     -13.968  -6.014  39.896  1.00  0.00     0.047 A 
ATOM     18  C   UNL     1     -14.926  -5.665  38.938  1.00  0.00     0.119 A 
BRANCH  14  19
ATOM     19  O   UNL     1     -13.635  -7.368  35.933  1.00  0.00    -0.507 OA
ATOM     20  H   UNL     1     -14.220  -7.004  35.192  1.00  0.00     0.293 HD
ENDBRANCH  14  19
BRANCH  18  21
ATOM     21  O   UNL     1     -16.024  -4.880  39.283  1.00  0.00    -0.508 OA
ATOM     22  H   UNL     1     -16.577  -4.406  38.580  1.00  0.00     0.293 HD
ENDBRANCH  18  21
ENDBRANCH  11  13
ENDBRANCH   2  11
TORSDOF 6
ENDMDL
MODEL 5
REMARK VINA RESULT:    -6.904      2.134      7.276
REMARK INTER + INTRA:          -9.179
REMARK INTER:                  -8.526
REMARK INTRA:                  -0.653
REMARK UNBOUND:                -0.459
REMARK SMILES O=C(C=Cc1ccc(O)cc1)c1ccc(O)cc1O
REMARK SMILES IDX 4 1 3 2 5 3 6 4 7 5 8 6 11 7 10 8 9 9 2 11 1 12 12 13 18 14
REMARK SMILES IDX 13 15 17 16 14 17 15 18 19 19 16 21
REMARK H PARENT 9 10 19 20 16 22
REMARK Flexibility Score: inf
ROOT
ATOM      1  C   UNL     1     -12.170  -6.908  39.090  1.00  0.00     0.012 C 
ATOM      2  C   UNL     1     -11.782  -8.166  38.839  1.00  0.00     0.053 C 
ENDROOT
BRANCH   1   3
ATOM      3  C   UNL     1     -13.587  -6.468  39.100  1.00  0.00    -0.025 A 
ATOM      4  C   UNL     1     -14.403  -6.515  37.952  1.00  0.00     0.012 A 
ATOM      5  C   UNL     1     -15.737  -6.100  38.016  1.00  0.00     0.047 A 
ATOM      6  C   UNL     1     -16.278  -5.642  39.221  1.00  0.00     0.115 A 
ATOM      7  C   UNL     1     -14.144  -6.022  40.310  1.00  0.00     0.012 A 
ATOM      8  C   UNL     1     -15.478  -5.606  40.370  1.00  0.00     0.047 A 
BRANCH   6   9
ATOM      9  O   UNL     1     -17.607  -5.230  39.267  1.00  0.00    -0.508 OA
ATOM     10  H   UNL     1     -18.028  -4.713  38.505  1.00  0.00     0.293 HD
ENDBRANCH   6   9
ENDBRANCH   1   3
BRANCH   2  11
ATOM     11  C   UNL     1     -10.358  -8.565  38.833  1.00  0.00     0.189 C 
ATOM     12  O   UNL     1      -9.598  -8.186  37.900  1.00  0.00    -0.289 OA
BRANCH  11  13
ATOM     13  C   UNL     1      -9.820  -9.435  39.902  1.00  0.00     0.064 A 
ATOM     14  C   UNL     1      -8.860 -10.443  39.635  1.00  0.00     0.130 A 
ATOM     15  C   UNL     1     -10.302  -9.282  41.215  1.00  0.00     0.020 A 
ATOM     16  C   UNL     1      -8.437 -11.288  40.668  1.00  0.00     0.093 A 
ATOM     17  C   UNL     1      -9.860 -10.123  42.238  1.00  0.00     0.047 A 
ATOM     18  C   UNL     1      -8.930 -11.132  41.966  1.00  0.00     0.119 A 
BRANCH  14  19
ATOM     19  O   UNL     1      -8.289 -10.614  38.372  1.00  0.00    -0.507 OA
ATOM     20  H   UNL     1      -7.773  -9.888  37.894  1.00  0.00     0.293 HD
ENDBRANCH  14  19
BRANCH  18  21
ATOM     21  O   UNL     1      -8.487 -11.981  42.977  1.00  0.00    -0.508 OA
ATOM     22  H   UNL     1      -9.133 -12.409  43.630  1.00  0.00     0.293 HD
ENDBRANCH  18  21
ENDBRANCH  11  13
ENDBRANCH   2  11
TORSDOF 6
ENDMDL
MODEL 6
REMARK VINA RESULT:    -6.858      3.387      5.901
REMARK INTER + INTRA:          -9.121
REMARK INTER:                  -8.489
REMARK INTRA:                  -0.632
REMARK UNBOUND:                -0.459
REMARK SMILES O=C(C=Cc1ccc(O)cc1)c1ccc(O)cc1O
REMARK SMILES IDX 4 1 3 2 5 3 6 4 7 5 8 6 11 7 10 8 9 9 2 11 1 12 12 13 18 14
REMARK SMILES IDX 13 15 17 16 14 17 15 18 19 19 16 21
REMARK H PARENT 9 10 19 20 16 22
REMARK Flexibility Score: inf
ROOT
ATOM      1  C   UNL     1     -15.677  -6.136  42.312  1.00  0.00     0.012 C 
ATOM      2  C   UNL     1     -16.298  -7.131  42.960  1.00  0.00     0.053 C 
ENDROOT
BRANCH   1   3
ATOM      3  C   UNL     1     -15.516  -6.086  40.838  1.00  0.00    -0.025 A 
ATOM      4  C   UNL     1     -16.614  -6.083  39.954  1.00  0.00     0.012 A 
ATOM      5  C   UNL     1     -16.409  -6.024  38.572  1.00  0.00     0.047 A 
ATOM      6  C   UNL     1     -15.113  -5.957  38.052  1.00  0.00     0.115 A 
ATOM      7  C   UNL     1     -14.218  -6.002  40.306  1.00  0.00     0.012 A 
ATOM      8  C   UNL     1     -14.017  -5.944  38.923  1.00  0.00     0.047 A 
BRANCH   6   9
ATOM      9  O   UNL     1     -14.926  -5.900  36.674  1.00  0.00    -0.508 OA
ATOM     10  H   UNL     1     -15.504  -5.312  36.085  1.00  0.00     0.293 HD
ENDBRANCH   6   9
ENDBRANCH   1   3
BRANCH   2  11
ATOM     11  C   UNL     1     -16.435  -7.149  44.433  1.00  0.00     0.189 C 
ATOM     12  O   UNL     1     -16.757  -6.099  45.051  1.00  0.00    -0.289 OA
BRANCH  11  13
ATOM     13  C   UNL     1     -16.167  -8.389  45.194  1.00  0.00     0.064 A 
ATOM     14  C   UNL     1     -16.967  -8.777  46.297  1.00  0.00     0.130 A 
ATOM     15  C   UNL     1     -15.065  -9.186  44.837  1.00  0.00     0.020 A 
ATOM     16  C   UNL     1     -16.629  -9.921  47.031  1.00  0.00     0.093 A 
ATOM     17  C   UNL     1     -14.748 -10.332  45.569  1.00  0.00     0.047 A 
ATOM     18  C   UNL     1     -15.526 -10.699  46.671  1.00  0.00     0.119 A 
BRANCH  14  19
ATOM     19  O   UNL     1     -18.113  -8.072  46.673  1.00  0.00    -0.507 OA
ATOM     20  H   UNL     1     -19.014  -8.203  46.234  1.00  0.00     0.293 HD
ENDBRANCH  14  19
BRANCH  18  21
ATOM     21  O   UNL     1     -15.215 -11.837  47.413  1.00  0.00    -0.508 OA
ATOM     22  H   UNL     1     -15.794 -12.667  47.376  1.00  0.00     0.293 HD
ENDBRANCH  18  21
ENDBRANCH  11  13
ENDBRANCH   2  11
TORSDOF 6
ENDMDL
MODEL 7
REMARK VINA RESULT:    -6.699      3.089      4.647
REMARK INTER + INTRA:          -8.921
REMARK INTER:                  -8.291
REMARK INTRA:                  -0.630
REMARK UNBOUND:                -0.459
REMARK SMILES O=C(C=Cc1ccc(O)cc1)c1ccc(O)cc1O
REMARK SMILES IDX 4 1 3 2 5 3 6 4 7 5 8 6 11 7 10 8 9 9 2 11 1 12 12 13 18 14
REMARK SMILES IDX 13 15 17 16 14 17 15 18 19 19 16 21
REMARK H PARENT 9 10 19 20 16 22
REMARK Flexibility Score: inf
ROOT
ATOM      1  C   UNL     1     -13.601  -5.941  41.397  1.00  0.00     0.012 C 
ATOM      2  C   UNL     1     -14.630  -6.122  42.236  1.00  0.00     0.053 C 
ENDROOT
BRANCH   1   3
ATOM      3  C   UNL     1     -13.680  -6.170  39.933  1.00  0.00    -0.025 A 
ATOM      4  C   UNL     1     -12.791  -7.024  39.250  1.00  0.00     0.012 A 
ATOM      5  C   UNL     1     -12.915  -7.216  37.870  1.00  0.00     0.047 A 
ATOM      6  C   UNL     1     -13.928  -6.569  37.156  1.00  0.00     0.115 A 
ATOM      7  C   UNL     1     -14.705  -5.538  39.209  1.00  0.00     0.012 A 
ATOM      8  C   UNL     1     -14.824  -5.731  37.829  1.00  0.00     0.047 A 
BRANCH   6   9
ATOM      9  O   UNL     1     -14.037  -6.769  35.782  1.00  0.00    -0.508 OA
ATOM     10  H   UNL     1     -14.842  -6.441  35.262  1.00  0.00     0.293 HD
ENDBRANCH   6   9
ENDBRANCH   1   3
BRANCH   2  11
ATOM     11  C   UNL     1     -14.511  -5.889  43.692  1.00  0.00     0.189 C 
ATOM     12  O   UNL     1     -13.715  -5.014  44.130  1.00  0.00    -0.289 OA
BRANCH  11  13
ATOM     13  C   UNL     1     -15.303  -6.696  44.647  1.00  0.00     0.064 A 
ATOM     14  C   UNL     1     -15.857  -6.132  45.823  1.00  0.00     0.130 A 
ATOM     15  C   UNL     1     -15.478  -8.069  44.400  1.00  0.00     0.020 A 
ATOM     16  C   UNL     1     -16.535  -6.953  46.732  1.00  0.00     0.093 A 
ATOM     17  C   UNL     1     -16.169  -8.873  45.308  1.00  0.00     0.047 A 
ATOM     18  C   UNL     1     -16.695  -8.318  46.479  1.00  0.00     0.119 A 
BRANCH  14  19
ATOM     19  O   UNL     1     -15.778  -4.767  46.106  1.00  0.00    -0.507 OA
ATOM     20  H   UNL     1     -16.573  -4.144  46.058  1.00  0.00     0.293 HD
ENDBRANCH  14  19
BRANCH  18  21
ATOM     21  O   UNL     1     -17.381  -9.112  47.396  1.00  0.00    -0.508 OA
ATOM     22  H   UNL     1     -17.785 -10.002  47.128  1.00  0.00     0.293 HD
ENDBRANCH  18  21
ENDBRANCH  11  13
ENDBRANCH   2  11
TORSDOF 6
ENDMDL
MODEL 8
REMARK VINA RESULT:    -6.629      7.091      9.208
REMARK INTER + INTRA:          -8.832
REMARK INTER:                  -8.320
REMARK INTRA:                  -0.512
REMARK UNBOUND:                -0.459
REMARK SMILES O=C(C=Cc1ccc(O)cc1)c1ccc(O)cc1O
REMARK SMILES IDX 4 1 3 2 5 3 6 4 7 5 8 6 11 7 10 8 9 9 2 11 1 12 12 13 18 14
REMARK SMILES IDX 13 15 17 16 14 17 15 18 19 19 16 21
REMARK H PARENT 9 10 19 20 16 22
REMARK Flexibility Score: inf
ROOT
ATOM      1  C   UNL     1     -13.256  -7.903  48.834  1.00  0.00     0.012 C 
ATOM      2  C   UNL     1     -13.374  -9.059  48.167  1.00  0.00     0.053 C 
ENDROOT
BRANCH   1   3
ATOM      3  C   UNL     1     -11.992  -7.131  48.928  1.00  0.00    -0.025 A 
ATOM      4  C   UNL     1     -11.747  -6.199  49.957  1.00  0.00     0.012 A 
ATOM      5  C   UNL     1     -10.535  -5.504  50.008  1.00  0.00     0.047 A 
ATOM      6  C   UNL     1      -9.548  -5.733  49.043  1.00  0.00     0.115 A 
ATOM      7  C   UNL     1     -10.989  -7.366  47.973  1.00  0.00     0.012 A 
ATOM      8  C   UNL     1      -9.778  -6.668  48.026  1.00  0.00     0.047 A 
BRANCH   6   9
ATOM      9  O   UNL     1      -8.347  -5.032  49.107  1.00  0.00    -0.508 OA
ATOM     10  H   UNL     1      -7.799  -4.998  49.958  1.00  0.00     0.293 HD
ENDBRANCH   6   9
ENDBRANCH   1   3
BRANCH   2  11
ATOM     11  C   UNL     1     -14.650  -9.804  48.100  1.00  0.00     0.189 C 
ATOM     12  O   UNL     1     -15.074 -10.424  49.113  1.00  0.00    -0.289 OA
BRANCH  11  13
ATOM     13  C   UNL     1     -15.424  -9.852  46.840  1.00  0.00     0.064 A 
ATOM     14  C   UNL     1     -16.486  -8.950  46.580  1.00  0.00     0.130 A 
ATOM     15  C   UNL     1     -15.123 -10.843  45.889  1.00  0.00     0.020 A 
ATOM     16  C   UNL     1     -17.236  -9.082  45.405  1.00  0.00     0.093 A 
ATOM     17  C   UNL     1     -15.870 -10.955  44.715  1.00  0.00     0.047 A 
ATOM     18  C   UNL     1     -16.932 -10.078  44.473  1.00  0.00     0.119 A 
BRANCH  14  19
ATOM     19  O   UNL     1     -16.804  -7.901  47.446  1.00  0.00    -0.507 OA
ATOM     20  H   UNL     1     -16.246  -7.661  48.255  1.00  0.00     0.293 HD
ENDBRANCH  14  19
BRANCH  18  21
ATOM     21  O   UNL     1     -17.689 -10.184  43.308  1.00  0.00    -0.508 OA
ATOM     22  H   UNL     1     -18.580 -10.664  43.298  1.00  0.00     0.293 HD
ENDBRANCH  18  21
ENDBRANCH  11  13
ENDBRANCH   2  11
TORSDOF 6
ENDMDL
MODEL 9
REMARK VINA RESULT:    -5.816      1.777      2.541
REMARK INTER + INTRA:          -7.806
REMARK INTER:                  -7.148
REMARK INTRA:                  -0.658
REMARK UNBOUND:                -0.459
REMARK SMILES O=C(C=Cc1ccc(O)cc1)c1ccc(O)cc1O
REMARK SMILES IDX 4 1 3 2 5 3 6 4 7 5 8 6 11 7 10 8 9 9 2 11 1 12 12 13 18 14
REMARK SMILES IDX 13 15 17 16 14 17 15 18 19 19 16 21
REMARK H PARENT 9 10 19 20 16 22
REMARK Flexibility Score: inf
ROOT
ATOM      1  C   UNL     1     -13.144  -6.497  39.822  1.00  0.00     0.012 C 
ATOM      2  C   UNL     1     -13.022  -6.309  41.144  1.00  0.00     0.053 C 
ENDROOT
BRANCH   1   3
ATOM      3  C   UNL     1     -12.333  -7.471  39.050  1.00  0.00    -0.025 A 
ATOM      4  C   UNL     1     -12.453  -7.619  37.653  1.00  0.00     0.012 A 
ATOM      5  C   UNL     1     -11.657  -8.543  36.969  1.00  0.00     0.047 A 
ATOM      6  C   UNL     1     -10.728  -9.325  37.663  1.00  0.00     0.115 A 
ATOM      7  C   UNL     1     -11.386  -8.249  39.735  1.00  0.00     0.012 A 
ATOM      8  C   UNL     1     -10.593  -9.174  39.048  1.00  0.00     0.047 A 
BRANCH   6   9
ATOM      9  O   UNL     1      -9.945 -10.242  36.968  1.00  0.00    -0.508 OA
ATOM     10  H   UNL     1      -9.572 -10.031  36.050  1.00  0.00     0.293 HD
ENDBRANCH   6   9
ENDBRANCH   1   3
BRANCH   2  11
ATOM     11  C   UNL     1     -13.845  -5.324  41.879  1.00  0.00     0.189 C 
ATOM     12  O   UNL     1     -13.579  -4.094  41.802  1.00  0.00    -0.289 OA
BRANCH  11  13
ATOM     13  C   UNL     1     -14.967  -5.774  42.732  1.00  0.00     0.064 A 
ATOM     14  C   UNL     1     -14.934  -5.642  44.143  1.00  0.00     0.130 A 
ATOM     15  C   UNL     1     -16.081  -6.386  42.130  1.00  0.00     0.020 A 
ATOM     16  C   UNL     1     -15.988  -6.150  44.911  1.00  0.00     0.093 A 
ATOM     17  C   UNL     1     -17.131  -6.876  42.908  1.00  0.00     0.047 A 
ATOM     18  C   UNL     1     -17.085  -6.764  44.301  1.00  0.00     0.119 A 
BRANCH  14  19
ATOM     19  O   UNL     1     -13.892  -4.991  44.807  1.00  0.00    -0.507 OA
ATOM     20  H   UNL     1     -13.545  -4.081  44.537  1.00  0.00     0.293 HD
ENDBRANCH  14  19
BRANCH  18  21
ATOM     21  O   UNL     1     -18.125  -7.255  45.089  1.00  0.00    -0.508 OA
ATOM     22  H   UNL     1     -18.099  -8.190  45.476  1.00  0.00     0.293 HD
ENDBRANCH  18  21
ENDBRANCH  11  13
ENDBRANCH   2  11
TORSDOF 6
ENDMDL
