MODEL 1
REMARK VINA RESULT:    -3.805      0.000      0.000
REMARK INTER + INTRA:          -5.437
REMARK INTER:                  -4.806
REMARK INTRA:                  -0.630
REMARK UNBOUND:                -0.630
REMARK SMILES CC(C)=CCCC(C)=CCO
REMARK SMILES IDX 7 1 9 2 8 3 6 4 5 5 4 6 1 7 2 8 3 9 10 10 11 11
REMARK H PARENT 11 12
REMARK Flexibility Score: inf
ROOT
ATOM      1  C   UNL     1      -1.617  -4.230  -5.336  1.00  0.00    -0.075 C 
ATOM      2  C   UNL     1      -1.937  -3.379  -4.335  1.00  0.00    -0.000 C 
ATOM      3  C   UNL     1      -2.554  -4.473  -6.496  1.00  0.00     0.039 C 
ENDROOT
BRANCH   1   4
ATOM      4  C   UNL     1      -0.297  -4.969  -5.283  1.00  0.00     0.034 C 
BRANCH   4   5
ATOM      5  C   UNL     1       0.775  -4.231  -6.093  1.00  0.00     0.032 C 
BRANCH   5   6
ATOM      6  C   UNL     1       1.575  -3.294  -5.220  1.00  0.00    -0.028 C 
ATOM      7  C   UNL     1       0.483  -1.285  -6.224  1.00  0.00     0.039 C 
ATOM      8  C   UNL     1       1.447  -1.950  -5.273  1.00  0.00    -0.080 C 
ATOM      9  C   UNL     1       2.278  -1.075  -4.371  1.00  0.00     0.039 C 
ENDBRANCH   5   6
ENDBRANCH   4   5
ENDBRANCH   1   4
BRANCH   2  10
ATOM     10  C   UNL     1      -3.222  -2.594  -4.277  1.00  0.00     0.183 C 
BRANCH  10  11
ATOM     11  O   UNL     1      -3.077  -1.361  -4.925  1.00  0.00    -0.392 OA
ATOM     12  H   UNL     1      -2.309  -1.455  -5.548  1.00  0.00     0.210 HD
ENDBRANCH  10  11
ENDBRANCH   2  10
TORSDOF 5
ENDMDL
MODEL 2
REMARK VINA RESULT:    -3.794      3.528      4.764
REMARK INTER + INTRA:          -5.422
REMARK INTER:                  -4.908
REMARK INTRA:                  -0.514
REMARK UNBOUND:                -0.630
REMARK SMILES CC(C)=CCCC(C)=CCO
REMARK SMILES IDX 7 1 9 2 8 3 6 4 5 5 4 6 1 7 2 8 3 9 10 10 11 11
REMARK H PARENT 11 12
REMARK Flexibility Score: inf
ROOT
ATOM      1  C   UNL     1       2.749  -5.561  -6.618  1.00  0.00    -0.075 C 
ATOM      2  C   UNL     1       2.155  -6.517  -7.368  1.00  0.00    -0.000 C 
ATOM      3  C   UNL     1       3.721  -4.574  -7.221  1.00  0.00     0.039 C 
ENDROOT
BRANCH   1   4
ATOM      4  C   UNL     1       2.444  -5.490  -5.137  1.00  0.00     0.034 C 
BRANCH   4   5
ATOM      5  C   UNL     1       1.299  -4.509  -4.862  1.00  0.00     0.032 C 
BRANCH   5   6
ATOM      6  C   UNL     1       1.811  -3.229  -4.244  1.00  0.00    -0.028 C 
ATOM      7  C   UNL     1       0.913  -1.858  -6.129  1.00  0.00     0.039 C 
ATOM      8  C   UNL     1       1.638  -2.017  -4.816  1.00  0.00    -0.080 C 
ATOM      9  C   UNL     1       2.175  -0.781  -4.143  1.00  0.00     0.039 C 
ENDBRANCH   5   6
ENDBRANCH   4   5
ENDBRANCH   1   4
BRANCH   2  10
ATOM     10  C   UNL     1       2.384  -6.688  -8.848  1.00  0.00     0.183 C 
BRANCH  10  11
ATOM     11  O   UNL     1       1.182  -6.984  -9.503  1.00  0.00    -0.392 OA
ATOM     12  H   UNL     1       0.966  -6.198 -10.070  1.00  0.00     0.210 HD
ENDBRANCH  10  11
ENDBRANCH   2  10
TORSDOF 5
ENDMDL
MODEL 3
REMARK VINA RESULT:    -3.711     12.049     13.448
REMARK INTER + INTRA:          -5.318
REMARK INTER:                  -4.853
REMARK INTRA:                  -0.465
REMARK UNBOUND:                -0.630
REMARK SMILES CC(C)=CCCC(C)=CCO
REMARK SMILES IDX 7 1 9 2 8 3 6 4 5 5 4 6 1 7 2 8 3 9 10 10 11 11
REMARK H PARENT 11 12
REMARK Flexibility Score: inf
ROOT
ATOM      1  C   UNL     1      -4.428  10.890  -4.572  1.00  0.00    -0.075 C 
ATOM      2  C   UNL     1      -4.872  12.082  -5.033  1.00  0.00    -0.000 C 
ATOM      3  C   UNL     1      -5.362   9.899  -3.917  1.00  0.00     0.039 C 
ENDROOT
BRANCH   1   4
ATOM      4  C   UNL     1      -2.959  10.550  -4.700  1.00  0.00     0.034 C 
BRANCH   4   5
ATOM      5  C   UNL     1      -2.753   9.369  -5.654  1.00  0.00     0.032 C 
BRANCH   5   6
ATOM      6  C   UNL     1      -1.670   8.442  -5.154  1.00  0.00    -0.028 C 
ATOM      7  C   UNL     1      -3.348   6.793  -4.315  1.00  0.00     0.039 C 
ATOM      8  C   UNL     1      -1.934   7.266  -4.543  1.00  0.00    -0.080 C 
ATOM      9  C   UNL     1      -0.803   6.390  -4.070  1.00  0.00     0.039 C 
ENDBRANCH   5   6
ENDBRANCH   4   5
ENDBRANCH   1   4
BRANCH   2  10
ATOM     10  C   UNL     1      -6.308  12.531  -4.957  1.00  0.00     0.183 C 
BRANCH  10  11
ATOM     11  O   UNL     1      -6.951  12.341  -6.187  1.00  0.00    -0.392 OA
ATOM     12  H   UNL     1      -7.653  13.040  -6.253  1.00  0.00     0.210 HD
ENDBRANCH  10  11
ENDBRANCH   2  10
TORSDOF 5
ENDMDL
MODEL 4
REMARK VINA RESULT:    -3.699      2.393      5.048
REMARK INTER + INTRA:          -5.302
REMARK INTER:                  -4.762
REMARK INTRA:                  -0.540
REMARK UNBOUND:                -0.630
REMARK SMILES CC(C)=CCCC(C)=CCO
REMARK SMILES IDX 7 1 9 2 8 3 6 4 5 5 4 6 1 7 2 8 3 9 10 10 11 11
REMARK H PARENT 11 12
REMARK Flexibility Score: inf
ROOT
ATOM      1  C   UNL     1       1.135  -1.500  -5.130  1.00  0.00    -0.075 C 
ATOM      2  C   UNL     1       1.174  -2.639  -5.858  1.00  0.00    -0.000 C 
ATOM      3  C   UNL     1       2.267  -1.111  -4.209  1.00  0.00     0.039 C 
ENDROOT
BRANCH   1   4
ATOM      4  C   UNL     1      -0.081  -0.603  -5.228  1.00  0.00     0.034 C 
BRANCH   4   5
ATOM      5  C   UNL     1      -1.209  -1.113  -4.324  1.00  0.00     0.032 C 
BRANCH   5   6
ATOM      6  C   UNL     1      -2.280  -1.816  -5.126  1.00  0.00    -0.028 C 
ATOM      7  C   UNL     1      -1.731  -4.021  -4.091  1.00  0.00     0.039 C 
ATOM      8  C   UNL     1      -2.524  -3.141  -5.024  1.00  0.00    -0.080 C 
ATOM      9  C   UNL     1      -3.609  -3.775  -5.855  1.00  0.00     0.039 C 
ENDBRANCH   5   6
ENDBRANCH   4   5
ENDBRANCH   1   4
BRANCH   2  10
ATOM     10  C   UNL     1       2.327  -3.609  -5.839  1.00  0.00     0.183 C 
BRANCH  10  11
ATOM     11  O   UNL     1       3.220  -3.337  -6.883  1.00  0.00    -0.392 OA
ATOM     12  H   UNL     1       3.763  -2.556  -6.597  1.00  0.00     0.210 HD
ENDBRANCH  10  11
ENDBRANCH   2  10
TORSDOF 5
ENDMDL
MODEL 5
REMARK VINA RESULT:    -3.695      2.772      3.986
REMARK INTER + INTRA:          -5.298
REMARK INTER:                  -4.677
REMARK INTRA:                  -0.621
REMARK UNBOUND:                -0.630
REMARK SMILES CC(C)=CCCC(C)=CCO
REMARK SMILES IDX 7 1 9 2 8 3 6 4 5 5 4 6 1 7 2 8 3 9 10 10 11 11
REMARK H PARENT 11 12
REMARK Flexibility Score: inf
ROOT
ATOM      1  C   UNL     1       0.282  -5.062  -5.335  1.00  0.00    -0.075 C 
ATOM      2  C   UNL     1       0.358  -5.648  -6.551  1.00  0.00    -0.000 C 
ATOM      3  C   UNL     1       1.511  -4.846  -4.484  1.00  0.00     0.039 C 
ENDROOT
BRANCH   1   4
ATOM      4  C   UNL     1      -1.069  -4.629  -4.808  1.00  0.00     0.034 C 
BRANCH   4   5
ATOM      5  C   UNL     1      -1.642  -3.484  -5.651  1.00  0.00     0.032 C 
BRANCH   5   6
ATOM      6  C   UNL     1      -1.408  -2.146  -4.990  1.00  0.00    -0.028 C 
ATOM      7  C   UNL     1       0.488  -1.620  -6.527  1.00  0.00     0.039 C 
ATOM      8  C   UNL     1      -0.440  -1.291  -5.384  1.00  0.00    -0.080 C 
ATOM      9  C   UNL     1      -0.264   0.029  -4.679  1.00  0.00     0.039 C 
ENDBRANCH   5   6
ENDBRANCH   4   5
ENDBRANCH   1   4
BRANCH   2  10
ATOM     10  C   UNL     1       1.644  -6.124  -7.176  1.00  0.00     0.183 C 
BRANCH  10  11
ATOM     11  O   UNL     1       1.420  -6.581  -8.481  1.00  0.00    -0.392 OA
ATOM     12  H   UNL     1       0.749  -5.971  -8.885  1.00  0.00     0.210 HD
ENDBRANCH  10  11
ENDBRANCH   2  10
TORSDOF 5
ENDMDL
MODEL 6
REMARK VINA RESULT:    -3.687      1.612      1.887
REMARK INTER + INTRA:          -5.288
REMARK INTER:                  -4.840
REMARK INTRA:                  -0.448
REMARK UNBOUND:                -0.630
REMARK SMILES CC(C)=CCCC(C)=CCO
REMARK SMILES IDX 7 1 9 2 8 3 6 4 5 5 4 6 1 7 2 8 3 9 10 10 11 11
REMARK H PARENT 11 12
REMARK Flexibility Score: inf
ROOT
ATOM      1  C   UNL     1      -0.947  -5.527  -5.309  1.00  0.00    -0.075 C 
ATOM      2  C   UNL     1      -1.648  -4.618  -6.024  1.00  0.00    -0.000 C 
ATOM      3  C   UNL     1      -1.639  -6.588  -4.486  1.00  0.00     0.039 C 
ENDROOT
BRANCH   1   4
ATOM      4  C   UNL     1       0.565  -5.467  -5.319  1.00  0.00     0.034 C 
BRANCH   4   5
ATOM      5  C   UNL     1       1.058  -4.262  -6.128  1.00  0.00     0.032 C 
BRANCH   5   6
ATOM      6  C   UNL     1       1.756  -3.256  -5.244  1.00  0.00    -0.028 C 
ATOM      7  C   UNL     1       0.475  -1.359  -6.242  1.00  0.00     0.039 C 
ATOM      8  C   UNL     1       1.495  -1.931  -5.290  1.00  0.00    -0.080 C 
ATOM      9  C   UNL     1       2.230  -0.985  -4.377  1.00  0.00     0.039 C 
ENDBRANCH   5   6
ENDBRANCH   4   5
ENDBRANCH   1   4
BRANCH   2  10
ATOM     10  C   UNL     1      -3.153  -4.576  -6.086  1.00  0.00     0.183 C 
BRANCH  10  11
ATOM     11  O   UNL     1      -3.586  -4.284  -7.386  1.00  0.00    -0.392 OA
ATOM     12  H   UNL     1      -2.770  -4.139  -7.932  1.00  0.00     0.210 HD
ENDBRANCH  10  11
ENDBRANCH   2  10
TORSDOF 5
ENDMDL
MODEL 7
REMARK VINA RESULT:    -3.686      2.394      4.643
REMARK INTER + INTRA:          -5.286
REMARK INTER:                  -4.643
REMARK INTRA:                  -0.644
REMARK UNBOUND:                -0.630
REMARK SMILES CC(C)=CCCC(C)=CCO
REMARK SMILES IDX 7 1 9 2 8 3 6 4 5 5 4 6 1 7 2 8 3 9 10 10 11 11
REMARK H PARENT 11 12
REMARK Flexibility Score: inf
ROOT
ATOM      1  C   UNL     1       2.009  -2.950  -5.098  1.00  0.00    -0.075 C 
ATOM      2  C   UNL     1       2.453  -3.479  -6.262  1.00  0.00    -0.000 C 
ATOM      3  C   UNL     1       1.753  -3.813  -3.885  1.00  0.00     0.039 C 
ENDROOT
BRANCH   1   4
ATOM      4  C   UNL     1       1.747  -1.461  -5.017  1.00  0.00     0.034 C 
BRANCH   4   5
ATOM      5  C   UNL     1       0.552  -1.069  -5.893  1.00  0.00     0.032 C 
BRANCH   5   6
ATOM      6  C   UNL     1      -0.719  -0.984  -5.081  1.00  0.00    -0.028 C 
ATOM      7  C   UNL     1      -1.448  -3.254  -5.821  1.00  0.00     0.039 C 
ATOM      8  C   UNL     1      -1.635  -1.976  -5.043  1.00  0.00    -0.080 C 
ATOM      9  C   UNL     1      -2.880  -1.823  -4.209  1.00  0.00     0.039 C 
ENDBRANCH   5   6
ENDBRANCH   4   5
ENDBRANCH   1   4
BRANCH   2  10
ATOM     10  C   UNL     1       2.744  -4.943  -6.463  1.00  0.00     0.183 C 
BRANCH  10  11
ATOM     11  O   UNL     1       1.723  -5.552  -7.205  1.00  0.00    -0.392 OA
ATOM     12  H   UNL     1       1.739  -5.137  -8.106  1.00  0.00     0.210 HD
ENDBRANCH  10  11
ENDBRANCH   2  10
TORSDOF 5
ENDMDL
MODEL 8
REMARK VINA RESULT:    -3.648      2.656      3.411
REMARK INTER + INTRA:          -5.238
REMARK INTER:                  -4.820
REMARK INTRA:                  -0.418
REMARK UNBOUND:                -0.630
REMARK SMILES CC(C)=CCCC(C)=CCO
REMARK SMILES IDX 7 1 9 2 8 3 6 4 5 5 4 6 1 7 2 8 3 9 10 10 11 11
REMARK H PARENT 11 12
REMARK Flexibility Score: inf
ROOT
ATOM      1  C   UNL     1      -3.659  -5.615  -5.377  1.00  0.00    -0.075 C 
ATOM      2  C   UNL     1      -4.467  -4.896  -6.189  1.00  0.00    -0.000 C 
ATOM      3  C   UNL     1      -4.186  -6.774  -4.564  1.00  0.00     0.039 C 
ENDROOT
BRANCH   1   4
ATOM      4  C   UNL     1      -2.197  -5.238  -5.269  1.00  0.00     0.034 C 
BRANCH   4   5
ATOM      5  C   UNL     1      -1.814  -4.220  -6.349  1.00  0.00     0.032 C 
BRANCH   5   6
ATOM      6  C   UNL     1      -0.893  -3.157  -5.800  1.00  0.00    -0.028 C 
ATOM      7  C   UNL     1      -2.814  -1.819  -4.930  1.00  0.00     0.039 C 
ATOM      8  C   UNL     1      -1.341  -2.060  -5.151  1.00  0.00    -0.080 C 
ATOM      9  C   UNL     1      -0.364  -1.039  -4.629  1.00  0.00     0.039 C 
ENDBRANCH   5   6
ENDBRANCH   4   5
ENDBRANCH   1   4
BRANCH   2  10
ATOM     10  C   UNL     1      -5.936  -5.174  -6.374  1.00  0.00     0.183 C 
BRANCH  10  11
ATOM     11  O   UNL     1      -6.203  -5.561  -7.694  1.00  0.00    -0.392 OA
ATOM     12  H   UNL     1      -5.920  -6.509  -7.776  1.00  0.00     0.210 HD
ENDBRANCH  10  11
ENDBRANCH   2  10
TORSDOF 5
ENDMDL
MODEL 9
REMARK VINA RESULT:    -3.594      2.004      2.913
REMARK INTER + INTRA:          -5.170
REMARK INTER:                  -4.545
REMARK INTRA:                  -0.625
REMARK UNBOUND:                -0.630
REMARK SMILES CC(C)=CCCC(C)=CCO
REMARK SMILES IDX 7 1 9 2 8 3 6 4 5 5 4 6 1 7 2 8 3 9 10 10 11 11
REMARK H PARENT 11 12
REMARK Flexibility Score: inf
ROOT
ATOM      1  C   UNL     1      -1.893  -3.975  -5.071  1.00  0.00    -0.075 C 
ATOM      2  C   UNL     1      -0.745  -4.670  -4.906  1.00  0.00    -0.000 C 
ATOM      3  C   UNL     1      -2.818  -4.242  -6.235  1.00  0.00     0.039 C 
ENDROOT
BRANCH   1   4
ATOM      4  C   UNL     1      -2.249  -2.891  -4.076  1.00  0.00     0.034 C 
BRANCH   4   5
ATOM      5  C   UNL     1      -1.790  -1.517  -4.578  1.00  0.00     0.032 C 
BRANCH   5   6
ATOM      6  C   UNL     1      -0.402  -1.188  -4.083  1.00  0.00    -0.028 C 
ATOM      7  C   UNL     1       0.578  -1.501  -6.359  1.00  0.00     0.039 C 
ATOM      8  C   UNL     1       0.682  -1.178  -4.889  1.00  0.00    -0.080 C 
ATOM      9  C   UNL     1       2.039  -0.839  -4.328  1.00  0.00     0.039 C 
ENDBRANCH   5   6
ENDBRANCH   4   5
ENDBRANCH   1   4
BRANCH   2  10
ATOM     10  C   UNL     1      -0.285  -5.766  -5.832  1.00  0.00     0.183 C 
BRANCH  10  11
ATOM     11  O   UNL     1       0.463  -5.236  -6.891  1.00  0.00    -0.392 OA
ATOM     12  H   UNL     1      -0.182  -5.015  -7.613  1.00  0.00     0.210 HD
ENDBRANCH  10  11
ENDBRANCH   2  10
TORSDOF 5
ENDMDL
