MODEL 1
REMARK VINA RESULT:    -2.855      0.000      0.000
REMARK INTER + INTRA:          -3.888
REMARK INTER:                  -3.690
REMARK INTRA:                  -0.198
REMARK UNBOUND:                -0.198
REMARK SMILES CCCCCCC(=O)[O-]
REMARK SMILES IDX 5 1 6 2 7 3 8 4 9 5 4 6 3 7 2 8 1 9
REMARK H PARENT
REMARK Flexibility Score: inf
ROOT
ATOM      1  C   UNL     1       8.158 -20.879  14.837  1.00  0.00     0.006 C 
ENDROOT
BRANCH   1   2
ATOM      2  C   UNL     1       9.122 -20.603  13.680  1.00  0.00     0.053 C 
BRANCH   2   3
ATOM      3  C   UNL     1       8.418 -19.894  12.567  1.00  0.00     0.041 C 
ATOM      4  O   UNL     1       7.404 -20.411  12.027  1.00  0.00    -0.550 OA
ATOM      5  O   UNL     1       8.910 -18.686  12.090  1.00  0.00    -0.550 OA
ENDBRANCH   2   3
ENDBRANCH   1   2
BRANCH   1   6
ATOM      6  C   UNL     1       8.066 -22.384  15.127  1.00  0.00     0.000 C 
BRANCH   6   7
ATOM      7  C   UNL     1       7.666 -22.684  16.581  1.00  0.00    -0.000 C 
BRANCH   7   8
ATOM      8  C   UNL     1       7.170 -21.435  17.327  1.00  0.00    -0.003 C 
ATOM      9  C   UNL     1       5.670 -21.510  17.587  1.00  0.00     0.004 C 
ENDBRANCH   7   8
ENDBRANCH   6   7
ENDBRANCH   1   6
TORSDOF 5
ENDMDL
MODEL 2
REMARK VINA RESULT:    -2.695     19.281     19.957
REMARK INTER + INTRA:          -3.680
REMARK INTER:                  -3.298
REMARK INTRA:                  -0.382
REMARK UNBOUND:                -0.198
REMARK SMILES CCCCCCC(=O)[O-]
REMARK SMILES IDX 5 1 6 2 7 3 8 4 9 5 4 6 3 7 2 8 1 9
REMARK H PARENT
REMARK Flexibility Score: inf
ROOT
ATOM      1  C   UNL     1     -10.454 -20.934  20.888  1.00  0.00     0.006 C 
ENDROOT
BRANCH   1   2
ATOM      2  C   UNL     1     -11.057 -20.855  22.294  1.00  0.00     0.053 C 
BRANCH   2   3
ATOM      3  C   UNL     1     -10.138 -21.481  23.295  1.00  0.00     0.041 C 
ATOM      4  O   UNL     1     -10.591 -22.284  24.155  1.00  0.00    -0.550 OA
ATOM      5  O   UNL     1      -8.792 -21.141  23.313  1.00  0.00    -0.550 OA
ENDBRANCH   2   3
ENDBRANCH   1   2
BRANCH   1   6
ATOM      6  C   UNL     1     -10.414 -19.548  20.229  1.00  0.00     0.000 C 
BRANCH   6   7
ATOM      7  C   UNL     1     -10.795 -18.419  21.201  1.00  0.00    -0.000 C 
BRANCH   7   8
ATOM      8  C   UNL     1      -9.603 -17.518  21.558  1.00  0.00    -0.003 C 
ATOM      9  C   UNL     1      -9.261 -17.621  23.040  1.00  0.00     0.004 C 
ENDBRANCH   7   8
ENDBRANCH   6   7
ENDBRANCH   1   6
TORSDOF 5
ENDMDL
MODEL 3
REMARK VINA RESULT:    -2.690      2.683      4.888
REMARK INTER + INTRA:          -3.674
REMARK INTER:                  -3.498
REMARK INTRA:                  -0.176
REMARK UNBOUND:                -0.198
REMARK SMILES CCCCCCC(=O)[O-]
REMARK SMILES IDX 5 1 6 2 7 3 8 4 9 5 4 6 3 7 2 8 1 9
REMARK H PARENT
REMARK Flexibility Score: inf
ROOT
ATOM      1  C   UNL     1       8.125 -21.264  14.521  1.00  0.00     0.006 C 
ENDROOT
BRANCH   1   2
ATOM      2  C   UNL     1       8.000 -21.474  16.033  1.00  0.00     0.053 C 
BRANCH   2   3
ATOM      3  C   UNL     1       6.630 -21.962  16.385  1.00  0.00     0.041 C 
ATOM      4  O   UNL     1       5.975 -22.658  15.563  1.00  0.00    -0.550 OA
ATOM      5  O   UNL     1       6.055 -21.607  17.598  1.00  0.00    -0.550 OA
ENDBRANCH   2   3
ENDBRANCH   1   2
BRANCH   1   6
ATOM      6  C   UNL     1       8.715 -19.882  14.206  1.00  0.00     0.000 C 
BRANCH   6   7
ATOM      7  C   UNL     1       8.479 -19.456  12.748  1.00  0.00    -0.000 C 
BRANCH   7   8
ATOM      8  C   UNL     1       7.719 -20.517  11.937  1.00  0.00    -0.003 C 
ATOM      9  C   UNL     1       8.561 -21.025  10.772  1.00  0.00     0.004 C 
ENDBRANCH   7   8
ENDBRANCH   6   7
ENDBRANCH   1   6
TORSDOF 5
ENDMDL
MODEL 4
REMARK VINA RESULT:    -2.680     19.089     19.819
REMARK INTER + INTRA:          -3.662
REMARK INTER:                  -3.284
REMARK INTRA:                  -0.378
REMARK UNBOUND:                -0.198
REMARK SMILES CCCCCCC(=O)[O-]
REMARK SMILES IDX 5 1 6 2 7 3 8 4 9 5 4 6 3 7 2 8 1 9
REMARK H PARENT
REMARK Flexibility Score: inf
ROOT
ATOM      1  C   UNL     1     -11.076 -17.880  20.538  1.00  0.00     0.006 C 
ENDROOT
BRANCH   1   2
ATOM      2  C   UNL     1      -9.692 -17.833  21.192  1.00  0.00     0.053 C 
BRANCH   2   3
ATOM      3  C   UNL     1      -9.814 -17.871  22.683  1.00  0.00     0.041 C 
ATOM      4  O   UNL     1     -10.779 -18.473  23.224  1.00  0.00    -0.550 OA
ATOM      5  O   UNL     1      -8.892 -17.198  23.474  1.00  0.00    -0.550 OA
ENDBRANCH   2   3
ENDBRANCH   1   2
BRANCH   1   6
ATOM      6  C   UNL     1     -11.124 -18.946  19.433  1.00  0.00     0.000 C 
BRANCH   6   7
ATOM      7  C   UNL     1     -10.171 -20.121  19.703  1.00  0.00    -0.000 C 
BRANCH   7   8
ATOM      8  C   UNL     1     -10.913 -21.406  20.105  1.00  0.00    -0.003 C 
ATOM      9  C   UNL     1     -10.894 -21.601  21.617  1.00  0.00     0.004 C 
ENDBRANCH   7   8
ENDBRANCH   6   7
ENDBRANCH   1   6
TORSDOF 5
ENDMDL
MODEL 5
REMARK VINA RESULT:    -2.654     17.831     18.843
REMARK INTER + INTRA:          -3.628
REMARK INTER:                  -3.406
REMARK INTRA:                  -0.222
REMARK UNBOUND:                -0.198
REMARK SMILES CCCCCCC(=O)[O-]
REMARK SMILES IDX 5 1 6 2 7 3 8 4 9 5 4 6 3 7 2 8 1 9
REMARK H PARENT
REMARK Flexibility Score: inf
ROOT
ATOM      1  C   UNL     1     -10.360 -20.403  20.484  1.00  0.00     0.006 C 
ENDROOT
BRANCH   1   2
ATOM      2  C   UNL     1     -10.665 -21.474  19.433  1.00  0.00     0.053 C 
BRANCH   2   3
ATOM      3  C   UNL     1      -9.647 -21.440  18.338  1.00  0.00     0.041 C 
ATOM      4  O   UNL     1      -8.429 -21.634  18.598  1.00  0.00    -0.550 OA
ATOM      5  O   UNL     1     -10.033 -21.145  17.037  1.00  0.00    -0.550 OA
ENDBRANCH   2   3
ENDBRANCH   1   2
BRANCH   1   6
ATOM      6  C   UNL     1     -10.688 -19.001  19.950  1.00  0.00     0.000 C 
BRANCH   6   7
ATOM      7  C   UNL     1     -10.258 -17.885  20.915  1.00  0.00    -0.000 C 
BRANCH   7   8
ATOM      8  C   UNL     1     -10.131 -18.373  22.367  1.00  0.00    -0.003 C 
ATOM      9  C   UNL     1      -9.102 -17.550  23.135  1.00  0.00     0.004 C 
ENDBRANCH   7   8
ENDBRANCH   6   7
ENDBRANCH   1   6
TORSDOF 5
ENDMDL
MODEL 6
REMARK VINA RESULT:    -2.592      1.478      2.173
REMARK INTER + INTRA:          -3.547
REMARK INTER:                  -3.382
REMARK INTRA:                  -0.166
REMARK UNBOUND:                -0.198
REMARK SMILES CCCCCCC(=O)[O-]
REMARK SMILES IDX 5 1 6 2 7 3 8 4 9 5 4 6 3 7 2 8 1 9
REMARK H PARENT
REMARK Flexibility Score: inf
ROOT
ATOM      1  C   UNL     1       8.206 -19.932  13.107  1.00  0.00     0.006 C 
ENDROOT
BRANCH   1   2
ATOM      2  C   UNL     1       9.114 -20.441  11.984  1.00  0.00     0.053 C 
BRANCH   2   3
ATOM      3  C   UNL     1       8.327 -21.244  10.996  1.00  0.00     0.041 C 
ATOM      4  O   UNL     1       8.665 -21.263   9.782  1.00  0.00    -0.550 OA
ATOM      5  O   UNL     1       7.190 -21.929  11.404  1.00  0.00    -0.550 OA
ENDBRANCH   2   3
ENDBRANCH   1   2
BRANCH   1   6
ATOM      6  C   UNL     1       8.637 -20.509  14.464  1.00  0.00     0.000 C 
BRANCH   6   7
ATOM      7  C   UNL     1       7.597 -21.476  15.053  1.00  0.00    -0.000 C 
BRANCH   7   8
ATOM      8  C   UNL     1       7.828 -21.755  16.546  1.00  0.00    -0.003 C 
ATOM      9  C   UNL     1       6.580 -21.438  17.364  1.00  0.00     0.004 C 
ENDBRANCH   7   8
ENDBRANCH   6   7
ENDBRANCH   1   6
TORSDOF 5
ENDMDL
MODEL 7
REMARK VINA RESULT:    -2.550     18.710     19.632
REMARK INTER + INTRA:          -3.494
REMARK INTER:                  -3.159
REMARK INTRA:                  -0.334
REMARK UNBOUND:                -0.198
REMARK SMILES CCCCCCC(=O)[O-]
REMARK SMILES IDX 5 1 6 2 7 3 8 4 9 5 4 6 3 7 2 8 1 9
REMARK H PARENT
REMARK Flexibility Score: inf
ROOT
ATOM      1  C   UNL     1     -10.166 -20.314  22.508  1.00  0.00     0.006 C 
ENDROOT
BRANCH   1   2
ATOM      2  C   UNL     1     -10.710 -18.939  22.905  1.00  0.00     0.053 C 
BRANCH   2   3
ATOM      3  C   UNL     1      -9.780 -17.856  22.454  1.00  0.00     0.041 C 
ATOM      4  O   UNL     1      -9.729 -17.530  21.238  1.00  0.00    -0.550 OA
ATOM      5  O   UNL     1      -8.934 -17.241  23.368  1.00  0.00    -0.550 OA
ENDBRANCH   2   3
ENDBRANCH   1   2
BRANCH   1   6
ATOM      6  C   UNL     1     -11.038 -20.956  21.419  1.00  0.00     0.000 C 
BRANCH   6   7
ATOM      7  C   UNL     1     -10.207 -21.635  20.318  1.00  0.00    -0.000 C 
BRANCH   7   8
ATOM      8  C   UNL     1      -9.965 -20.718  19.108  1.00  0.00    -0.003 C 
ATOM      9  C   UNL     1     -11.125 -19.748  18.914  1.00  0.00     0.004 C 
ENDBRANCH   7   8
ENDBRANCH   6   7
ENDBRANCH   1   6
TORSDOF 5
ENDMDL
MODEL 8
REMARK VINA RESULT:    -2.537     18.301     19.322
REMARK INTER + INTRA:          -3.477
REMARK INTER:                  -3.237
REMARK INTRA:                  -0.239
REMARK UNBOUND:                -0.198
REMARK SMILES CCCCCCC(=O)[O-]
REMARK SMILES IDX 5 1 6 2 7 3 8 4 9 5 4 6 3 7 2 8 1 9
REMARK H PARENT
REMARK Flexibility Score: inf
ROOT
ATOM      1  C   UNL     1      -9.657 -19.496  22.788  1.00  0.00     0.006 C 
ENDROOT
BRANCH   1   2
ATOM      2  C   UNL     1     -10.835 -18.724  22.186  1.00  0.00     0.053 C 
BRANCH   2   3
ATOM      3  C   UNL     1     -10.595 -18.446  20.736  1.00  0.00     0.041 C 
ATOM      4  O   UNL     1     -10.908 -17.329  20.245  1.00  0.00    -0.550 OA
ATOM      5  O   UNL     1     -10.072 -19.436  19.915  1.00  0.00    -0.550 OA
ENDBRANCH   2   3
ENDBRANCH   1   2
BRANCH   1   6
ATOM      6  C   UNL     1     -10.061 -20.938  23.124  1.00  0.00     0.000 C 
BRANCH   6   7
ATOM      7  C   UNL     1      -8.849 -21.852  23.366  1.00  0.00    -0.000 C 
BRANCH   7   8
ATOM      8  C   UNL     1      -8.526 -22.741  22.155  1.00  0.00    -0.003 C 
ATOM      9  C   UNL     1      -9.746 -22.907  21.255  1.00  0.00     0.004 C 
ENDBRANCH   7   8
ENDBRANCH   6   7
ENDBRANCH   1   6
TORSDOF 5
ENDMDL
