MODEL 1
REMARK VINA RESULT:    -4.123      0.000      0.000
REMARK INTER + INTRA:          -6.988
REMARK INTER:                  -6.293
REMARK INTRA:                  -0.695
REMARK UNBOUND:                -0.695
REMARK SMILES CCCCCCCCCCC(=O)[O-]
REMARK SMILES IDX 7 1 8 2 9 3 10 4 11 5 12 6 13 7 6 8 5 9 4 10 3 11 2 12 1 13
REMARK H PARENT
REMARK Flexibility Score: inf
ROOT
ATOM      1  C   UNL     1      18.137  -8.792  13.698  1.00  0.00     0.000 C 
ENDROOT
BRANCH   1   2
ATOM      2  C   UNL     1      17.491  -9.960  12.941  1.00  0.00     0.000 C 
BRANCH   2   3
ATOM      3  C   UNL     1      16.354  -9.468  12.038  1.00  0.00     0.006 C 
BRANCH   3   4
ATOM      4  C   UNL     1      15.000  -9.991  12.526  1.00  0.00     0.053 C 
BRANCH   4   5
ATOM      5  C   UNL     1      14.028  -8.863  12.682  1.00  0.00     0.041 C 
ATOM      6  O   UNL     1      12.839  -9.095  13.027  1.00  0.00    -0.550 OA
ATOM      7  O   UNL     1      14.423  -7.562  12.400  1.00  0.00    -0.550 OA
ENDBRANCH   4   5
ENDBRANCH   3   4
ENDBRANCH   2   3
ENDBRANCH   1   2
BRANCH   1   8
ATOM      8  C   UNL     1      18.084  -7.503  12.870  1.00  0.00     0.000 C 
BRANCH   8   9
ATOM      9  C   UNL     1      17.829  -6.283  13.769  1.00  0.00    -0.000 C 
BRANCH   9  10
ATOM     10  C   UNL     1      16.731  -6.535  14.815  1.00  0.00    -0.000 C 
BRANCH  10  11
ATOM     11  C   UNL     1      17.247  -6.393  16.258  1.00  0.00    -0.000 C 
BRANCH  11  12
ATOM     12  C   UNL     1      16.191  -5.798  17.204  1.00  0.00    -0.003 C 
ATOM     13  C   UNL     1      16.781  -5.339  18.537  1.00  0.00     0.004 C 
ENDBRANCH  11  12
ENDBRANCH  10  11
ENDBRANCH   9  10
ENDBRANCH   8   9
ENDBRANCH   1   8
TORSDOF 9
ENDMDL
MODEL 2
REMARK VINA RESULT:    -4.098      1.929      2.322
REMARK INTER + INTRA:          -6.949
REMARK INTER:                  -6.673
REMARK INTRA:                  -0.276
REMARK UNBOUND:                -0.695
REMARK SMILES CCCCCCCCCCC(=O)[O-]
REMARK SMILES IDX 7 1 8 2 9 3 10 4 11 5 12 6 13 7 6 8 5 9 4 10 3 11 2 12 1 13
REMARK H PARENT
REMARK Flexibility Score: inf
ROOT
ATOM      1  C   UNL     1      17.929  -8.312  13.104  1.00  0.00     0.000 C 
ENDROOT
BRANCH   1   2
ATOM      2  C   UNL     1      17.754  -9.834  13.030  1.00  0.00     0.000 C 
BRANCH   2   3
ATOM      3  C   UNL     1      16.355 -10.202  12.522  1.00  0.00     0.006 C 
BRANCH   3   4
ATOM      4  C   UNL     1      16.284 -11.681  12.131  1.00  0.00     0.053 C 
BRANCH   4   5
ATOM      5  C   UNL     1      14.927 -12.237  12.430  1.00  0.00     0.041 C 
ATOM      6  O   UNL     1      13.947 -11.463  12.594  1.00  0.00    -0.550 OA
ATOM      7  O   UNL     1      14.754 -13.608  12.575  1.00  0.00    -0.550 OA
ENDBRANCH   4   5
ENDBRANCH   3   4
ENDBRANCH   2   3
ENDBRANCH   1   2
BRANCH   1   8
ATOM      8  C   UNL     1      17.712  -7.802  14.533  1.00  0.00     0.000 C 
BRANCH   8   9
ATOM      9  C   UNL     1      17.327  -6.314  14.534  1.00  0.00    -0.000 C 
BRANCH   9  10
ATOM     10  C   UNL     1      16.459  -5.926  15.741  1.00  0.00    -0.000 C 
BRANCH  10  11
ATOM     11  C   UNL     1      17.181  -6.142  17.083  1.00  0.00    -0.000 C 
BRANCH  11  12
ATOM     12  C   UNL     1      16.235  -6.016  18.287  1.00  0.00    -0.003 C 
ATOM     13  C   UNL     1      16.319  -4.649  18.966  1.00  0.00     0.004 C 
ENDBRANCH  11  12
ENDBRANCH  10  11
ENDBRANCH   9  10
ENDBRANCH   8   9
ENDBRANCH   1   8
TORSDOF 9
ENDMDL
MODEL 3
REMARK VINA RESULT:    -4.039      1.932      2.788
REMARK INTER + INTRA:          -6.859
REMARK INTER:                  -6.315
REMARK INTRA:                  -0.544
REMARK UNBOUND:                -0.695
REMARK SMILES CCCCCCCCCCC(=O)[O-]
REMARK SMILES IDX 7 1 8 2 9 3 10 4 11 5 12 6 13 7 6 8 5 9 4 10 3 11 2 12 1 13
REMARK H PARENT
REMARK Flexibility Score: inf
ROOT
ATOM      1  C   UNL     1      17.130 -10.204  12.818  1.00  0.00     0.000 C 
ENDROOT
BRANCH   1   2
ATOM      2  C   UNL     1      15.887  -9.561  12.191  1.00  0.00     0.000 C 
BRANCH   2   3
ATOM      3  C   UNL     1      14.622 -10.355  12.539  1.00  0.00     0.006 C 
BRANCH   3   4
ATOM      4  C   UNL     1      14.812 -11.846  12.247  1.00  0.00     0.053 C 
BRANCH   4   5
ATOM      5  C   UNL     1      13.655 -12.635  12.778  1.00  0.00     0.041 C 
ATOM      6  O   UNL     1      12.578 -12.056  13.076  1.00  0.00    -0.550 OA
ATOM      7  O   UNL     1      13.785 -14.002  12.988  1.00  0.00    -0.550 OA
ENDBRANCH   4   5
ENDBRANCH   3   4
ENDBRANCH   2   3
ENDBRANCH   1   2
BRANCH   1   8
ATOM      8  C   UNL     1      18.111  -9.135  13.314  1.00  0.00     0.000 C 
BRANCH   8   9
ATOM      9  C   UNL     1      17.939  -7.825  12.531  1.00  0.00    -0.000 C 
BRANCH   9  10
ATOM     10  C   UNL     1      18.051  -6.579  13.425  1.00  0.00    -0.000 C 
BRANCH  10  11
ATOM     11  C   UNL     1      16.910  -6.485  14.453  1.00  0.00    -0.000 C 
BRANCH  11  12
ATOM     12  C   UNL     1      17.383  -6.784  15.885  1.00  0.00    -0.003 C 
ATOM     13  C   UNL     1      16.667  -5.934  16.935  1.00  0.00     0.004 C 
ENDBRANCH  11  12
ENDBRANCH  10  11
ENDBRANCH   9  10
ENDBRANCH   8   9
ENDBRANCH   1   8
TORSDOF 9
ENDMDL
MODEL 4
REMARK VINA RESULT:    -4.013      2.148      5.480
REMARK INTER + INTRA:          -6.819
REMARK INTER:                  -6.238
REMARK INTRA:                  -0.581
REMARK UNBOUND:                -0.695
REMARK SMILES CCCCCCCCCCC(=O)[O-]
REMARK SMILES IDX 7 1 8 2 9 3 10 4 11 5 12 6 13 7 6 8 5 9 4 10 3 11 2 12 1 13
REMARK H PARENT
REMARK Flexibility Score: inf
ROOT
ATOM      1  C   UNL     1      18.100  -9.167  13.408  1.00  0.00     0.000 C 
ENDROOT
BRANCH   1   2
ATOM      2  C   UNL     1      18.032  -7.906  12.539  1.00  0.00     0.000 C 
BRANCH   2   3
ATOM      3  C   UNL     1      18.103  -6.639  13.400  1.00  0.00     0.006 C 
BRANCH   3   4
ATOM      4  C   UNL     1      17.478  -6.877  14.778  1.00  0.00     0.053 C 
BRANCH   4   5
ATOM      5  C   UNL     1      16.187  -6.128  14.904  1.00  0.00     0.041 C 
ATOM      6  O   UNL     1      15.759  -5.792  16.040  1.00  0.00    -0.550 OA
ATOM      7  O   UNL     1      15.435  -5.845  13.771  1.00  0.00    -0.550 OA
ENDBRANCH   4   5
ENDBRANCH   3   4
ENDBRANCH   2   3
ENDBRANCH   1   2
BRANCH   1   8
ATOM      8  C   UNL     1      17.389 -10.343  12.729  1.00  0.00     0.000 C 
BRANCH   8   9
ATOM      9  C   UNL     1      15.992  -9.931  12.237  1.00  0.00    -0.000 C 
BRANCH   9  10
ATOM     10  C   UNL     1      14.951 -11.050  12.401  1.00  0.00    -0.000 C 
BRANCH  10  11
ATOM     11  C   UNL     1      15.573 -12.454  12.309  1.00  0.00    -0.000 C 
BRANCH  11  12
ATOM     12  C   UNL     1      14.567 -13.566  12.651  1.00  0.00    -0.003 C 
ATOM     13  C   UNL     1      13.151 -13.036  12.876  1.00  0.00     0.004 C 
ENDBRANCH  11  12
ENDBRANCH  10  11
ENDBRANCH   9  10
ENDBRANCH   8   9
ENDBRANCH   1   8
TORSDOF 9
ENDMDL
MODEL 5
REMARK VINA RESULT:    -3.966      2.313      3.264
REMARK INTER + INTRA:          -6.748
REMARK INTER:                  -5.876
REMARK INTRA:                  -0.871
REMARK UNBOUND:                -0.695
REMARK SMILES CCCCCCCCCCC(=O)[O-]
REMARK SMILES IDX 7 1 8 2 9 3 10 4 11 5 12 6 13 7 6 8 5 9 4 10 3 11 2 12 1 13
REMARK H PARENT
REMARK Flexibility Score: inf
ROOT
ATOM      1  C   UNL     1      17.355 -10.264  13.003  1.00  0.00     0.000 C 
ENDROOT
BRANCH   1   2
ATOM      2  C   UNL     1      16.223  -9.718  12.123  1.00  0.00     0.000 C 
BRANCH   2   3
ATOM      3  C   UNL     1      14.914 -10.475  12.377  1.00  0.00     0.006 C 
BRANCH   3   4
ATOM      4  C   UNL     1      15.097 -11.979  12.153  1.00  0.00     0.053 C 
BRANCH   4   5
ATOM      5  C   UNL     1      13.956 -12.740  12.754  1.00  0.00     0.041 C 
ATOM      6  O   UNL     1      13.998 -13.997  12.818  1.00  0.00    -0.550 OA
ATOM      7  O   UNL     1      12.827 -12.064  13.198  1.00  0.00    -0.550 OA
ENDBRANCH   4   5
ENDBRANCH   3   4
ENDBRANCH   2   3
ENDBRANCH   1   2
BRANCH   1   8
ATOM      8  C   UNL     1      18.192  -9.123  13.593  1.00  0.00     0.000 C 
BRANCH   8   9
ATOM      9  C   UNL     1      18.173  -7.894  12.672  1.00  0.00    -0.000 C 
BRANCH   9  10
ATOM     10  C   UNL     1      17.994  -6.576  13.443  1.00  0.00    -0.000 C 
BRANCH  10  11
ATOM     11  C   UNL     1      16.732  -6.574  14.324  1.00  0.00    -0.000 C 
BRANCH  11  12
ATOM     12  C   UNL     1      15.556  -5.834  13.665  1.00  0.00    -0.003 C 
ATOM     13  C   UNL     1      14.353  -6.741  13.409  1.00  0.00     0.004 C 
ENDBRANCH  11  12
ENDBRANCH  10  11
ENDBRANCH   9  10
ENDBRANCH   8   9
ENDBRANCH   1   8
TORSDOF 9
ENDMDL
MODEL 6
REMARK VINA RESULT:    -3.905      3.589      5.771
REMARK INTER + INTRA:          -6.654
REMARK INTER:                  -5.780
REMARK INTRA:                  -0.874
REMARK UNBOUND:                -0.695
REMARK SMILES CCCCCCCCCCC(=O)[O-]
REMARK SMILES IDX 7 1 8 2 9 3 10 4 11 5 12 6 13 7 6 8 5 9 4 10 3 11 2 12 1 13
REMARK H PARENT
REMARK Flexibility Score: inf
ROOT
ATOM      1  C   UNL     1      15.347 -13.107  12.585  1.00  0.00     0.000 C 
ENDROOT
BRANCH   1   2
ATOM      2  C   UNL     1      16.194 -12.017  11.916  1.00  0.00     0.000 C 
BRANCH   2   3
ATOM      3  C   UNL     1      16.623 -10.952  12.933  1.00  0.00     0.006 C 
BRANCH   3   4
ATOM      4  C   UNL     1      16.982  -9.638  12.233  1.00  0.00     0.053 C 
BRANCH   4   5
ATOM      5  C   UNL     1      18.019  -8.894  13.015  1.00  0.00     0.041 C 
ATOM      6  O   UNL     1      18.443  -9.359  14.106  1.00  0.00    -0.550 OA
ATOM      7  O   UNL     1      18.481  -7.665  12.563  1.00  0.00    -0.550 OA
ENDBRANCH   4   5
ENDBRANCH   3   4
ENDBRANCH   2   3
ENDBRANCH   1   2
BRANCH   1   8
ATOM      8  C   UNL     1      13.930 -13.139  12.000  1.00  0.00     0.000 C 
BRANCH   8   9
ATOM      9  C   UNL     1      12.882 -12.833  13.081  1.00  0.00    -0.000 C 
BRANCH   9  10
ATOM     10  C   UNL     1      11.861 -11.774  12.635  1.00  0.00    -0.000 C 
BRANCH  10  11
ATOM     11  C   UNL     1      12.178 -10.376  13.193  1.00  0.00    -0.000 C 
BRANCH  11  12
ATOM     12  C   UNL     1      12.878  -9.476  12.162  1.00  0.00    -0.003 C 
ATOM     13  C   UNL     1      13.677  -8.344  12.809  1.00  0.00     0.004 C 
ENDBRANCH  11  12
ENDBRANCH  10  11
ENDBRANCH   9  10
ENDBRANCH   8   9
ENDBRANCH   1   8
TORSDOF 9
ENDMDL
MODEL 7
REMARK VINA RESULT:    -3.861      1.790      4.907
REMARK INTER + INTRA:          -6.588
REMARK INTER:                  -5.838
REMARK INTRA:                  -0.750
REMARK UNBOUND:                -0.695
REMARK SMILES CCCCCCCCCCC(=O)[O-]
REMARK SMILES IDX 7 1 8 2 9 3 10 4 11 5 12 6 13 7 6 8 5 9 4 10 3 11 2 12 1 13
REMARK H PARENT
REMARK Flexibility Score: inf
ROOT
ATOM      1  C   UNL     1      17.850  -7.647  13.542  1.00  0.00     0.000 C 
ENDROOT
BRANCH   1   2
ATOM      2  C   UNL     1      17.544  -6.948  14.872  1.00  0.00     0.000 C 
BRANCH   2   3
ATOM      3  C   UNL     1      16.216  -6.184  14.800  1.00  0.00     0.006 C 
BRANCH   3   4
ATOM      4  C   UNL     1      15.769  -5.998  13.347  1.00  0.00     0.053 C 
BRANCH   4   5
ATOM      5  C   UNL     1      14.275  -6.037  13.250  1.00  0.00     0.041 C 
ATOM      6  O   UNL     1      13.660  -7.125  13.398  1.00  0.00    -0.550 OA
ATOM      7  O   UNL     1      13.568  -4.880  12.947  1.00  0.00    -0.550 OA
ENDBRANCH   4   5
ENDBRANCH   3   4
ENDBRANCH   2   3
ENDBRANCH   1   2
BRANCH   1   8
ATOM      8  C   UNL     1      18.191  -9.126  13.762  1.00  0.00     0.000 C 
BRANCH   8   9
ATOM      9  C   UNL     1      17.485 -10.014  12.726  1.00  0.00    -0.000 C 
BRANCH   9  10
ATOM     10  C   UNL     1      16.019  -9.612  12.500  1.00  0.00    -0.000 C 
BRANCH  10  11
ATOM     11  C   UNL     1      15.087 -10.829  12.363  1.00  0.00    -0.000 C 
BRANCH  11  12
ATOM     12  C   UNL     1      15.861 -12.153  12.254  1.00  0.00    -0.003 C 
ATOM     13  C   UNL     1      14.994 -13.374  12.561  1.00  0.00     0.004 C 
ENDBRANCH  11  12
ENDBRANCH  10  11
ENDBRANCH   9  10
ENDBRANCH   8   9
ENDBRANCH   1   8
TORSDOF 9
ENDMDL
MODEL 8
REMARK VINA RESULT:    -3.842      3.039      4.426
REMARK INTER + INTRA:          -6.558
REMARK INTER:                  -5.751
REMARK INTRA:                  -0.806
REMARK UNBOUND:                -0.695
REMARK SMILES CCCCCCCCCCC(=O)[O-]
REMARK SMILES IDX 7 1 8 2 9 3 10 4 11 5 12 6 13 7 6 8 5 9 4 10 3 11 2 12 1 13
REMARK H PARENT
REMARK Flexibility Score: inf
ROOT
ATOM      1  C   UNL     1      14.065  -8.804  12.576  1.00  0.00     0.000 C 
ENDROOT
BRANCH   1   2
ATOM      2  C   UNL     1      12.759  -9.547  12.880  1.00  0.00     0.000 C 
BRANCH   2   3
ATOM      3  C   UNL     1      12.929 -11.060  12.692  1.00  0.00     0.006 C 
BRANCH   3   4
ATOM      4  C   UNL     1      14.340 -11.397  12.203  1.00  0.00     0.053 C 
BRANCH   4   5
ATOM      5  C   UNL     1      14.692 -12.809  12.551  1.00  0.00     0.041 C 
ATOM      6  O   UNL     1      15.889 -13.196  12.497  1.00  0.00    -0.550 OA
ATOM      7  O   UNL     1      13.691 -13.712  12.889  1.00  0.00    -0.550 OA
ENDBRANCH   4   5
ENDBRANCH   3   4
ENDBRANCH   2   3
ENDBRANCH   1   2
BRANCH   1   8
ATOM      8  C   UNL     1      14.032  -7.379  13.140  1.00  0.00     0.000 C 
BRANCH   8   9
ATOM      9  C   UNL     1      15.311  -6.612  12.770  1.00  0.00    -0.000 C 
BRANCH   9  10
ATOM     10  C   UNL     1      16.513  -7.540  12.531  1.00  0.00    -0.000 C 
BRANCH  10  11
ATOM     11  C   UNL     1      17.485  -7.566  13.724  1.00  0.00    -0.000 C 
BRANCH  11  12
ATOM     12  C   UNL     1      18.150  -8.940  13.911  1.00  0.00    -0.003 C 
ATOM     13  C   UNL     1      17.579 -10.007  12.977  1.00  0.00     0.004 C 
ENDBRANCH  11  12
ENDBRANCH  10  11
ENDBRANCH   9  10
ENDBRANCH   8   9
ENDBRANCH   1   8
TORSDOF 9
ENDMDL
MODEL 9
REMARK VINA RESULT:    -3.763      2.307      2.797
REMARK INTER + INTRA:          -6.438
REMARK INTER:                  -6.004
REMARK INTRA:                  -0.434
REMARK UNBOUND:                -0.695
REMARK SMILES CCCCCCCCCCC(=O)[O-]
REMARK SMILES IDX 7 1 8 2 9 3 10 4 11 5 12 6 13 7 6 8 5 9 4 10 3 11 2 12 1 13
REMARK H PARENT
REMARK Flexibility Score: inf
ROOT
ATOM      1  C   UNL     1      17.774  -8.515  13.767  1.00  0.00     0.000 C 
ENDROOT
BRANCH   1   2
ATOM      2  C   UNL     1      17.783  -9.839  12.993  1.00  0.00     0.000 C 
BRANCH   2   3
ATOM      3  C   UNL     1      16.366 -10.234  12.560  1.00  0.00     0.006 C 
BRANCH   3   4
ATOM      4  C   UNL     1      16.298 -11.719  12.192  1.00  0.00     0.053 C 
BRANCH   4   5
ATOM      5  C   UNL     1      14.953 -12.281  12.532  1.00  0.00     0.041 C 
ATOM      6  O   UNL     1      14.799 -13.526  12.650  1.00  0.00    -0.550 OA
ATOM      7  O   UNL     1      13.861 -11.435  12.672  1.00  0.00    -0.550 OA
ENDBRANCH   4   5
ENDBRANCH   3   4
ENDBRANCH   2   3
ENDBRANCH   1   2
BRANCH   1   8
ATOM      8  C   UNL     1      18.164  -7.344  12.859  1.00  0.00     0.000 C 
BRANCH   8   9
ATOM      9  C   UNL     1      17.592  -6.021  13.392  1.00  0.00    -0.000 C 
BRANCH   9  10
ATOM     10  C   UNL     1      16.553  -6.228  14.505  1.00  0.00    -0.000 C 
BRANCH  10  11
ATOM     11  C   UNL     1      15.139  -5.791  14.083  1.00  0.00    -0.000 C 
BRANCH  11  12
ATOM     12  C   UNL     1      14.259  -5.408  15.283  1.00  0.00    -0.003 C 
ATOM     13  C   UNL     1      13.231  -4.328  14.944  1.00  0.00     0.004 C 
ENDBRANCH  11  12
ENDBRANCH  10  11
ENDBRANCH   9  10
ENDBRANCH   8   9
ENDBRANCH   1   8
TORSDOF 9
ENDMDL
