MODEL 1
REMARK VINA RESULT:    -4.701      0.000      0.000
REMARK INTER + INTRA:          -5.120
REMARK INTER:                  -4.976
REMARK INTRA:                  -0.144
REMARK UNBOUND:                -0.144
REMARK SMILES CC1=CC=C(C(C)C)CC1
REMARK SMILES IDX 1 1 2 2 3 3 4 4 5 5 9 6 10 7 6 8 7 9 8 10
REMARK H PARENT
REMARK Flexibility Score: inf
ROOT
ATOM      1  C   UNL     1     145.785 150.459 165.160  1.00  0.00     0.039 C 
ATOM      2  C   UNL     1     146.357 150.200 163.797  1.00  0.00    -0.073 C 
ATOM      3  C   UNL     1     147.454 149.439 163.667  1.00  0.00    -0.001 C 
ATOM      4  C   UNL     1     148.032 149.166 162.338  1.00  0.00    -0.001 C 
ATOM      5  C   UNL     1     147.357 149.475 161.213  1.00  0.00    -0.067 C 
ATOM      6  C   UNL     1     145.944 150.007 161.324  1.00  0.00     0.035 C 
ATOM      7  C   UNL     1     145.767 150.874 162.581  1.00  0.00     0.035 C 
ENDROOT
BRANCH   5   8
ATOM      8  C   UNL     1     147.951 149.216 159.840  1.00  0.00     0.009 C 
ATOM      9  C   UNL     1     146.862 149.134 158.764  1.00  0.00     0.012 C 
ATOM     10  C   UNL     1     148.823 147.955 159.843  1.00  0.00     0.012 C 
ENDBRANCH   5   8
TORSDOF 1
ENDMDL
MODEL 2
REMARK VINA RESULT:    -4.691      5.902      6.604
REMARK INTER + INTRA:          -5.110
REMARK INTER:                  -4.965
REMARK INTRA:                  -0.145
REMARK UNBOUND:                -0.144
REMARK SMILES CC1=CC=C(C(C)C)CC1
REMARK SMILES IDX 1 1 2 2 3 3 4 4 5 5 9 6 10 7 6 8 7 9 8 10
REMARK H PARENT
REMARK Flexibility Score: inf
ROOT
ATOM      1  C   UNL     1     140.319 145.767 165.206  1.00  0.00     0.039 C 
ATOM      2  C   UNL     1     140.595 146.341 163.848  1.00  0.00    -0.073 C 
ATOM      3  C   UNL     1     141.369 147.430 163.727  1.00  0.00    -0.001 C 
ATOM      4  C   UNL     1     141.659 148.009 162.402  1.00  0.00    -0.001 C 
ATOM      5  C   UNL     1     141.353 147.341 161.273  1.00  0.00    -0.067 C 
ATOM      6  C   UNL     1     140.805 145.933 161.375  1.00  0.00     0.035 C 
ATOM      7  C   UNL     1     139.926 145.761 162.623  1.00  0.00     0.035 C 
ENDROOT
BRANCH   5   8
ATOM      8  C   UNL     1     141.630 147.936 159.904  1.00  0.00     0.009 C 
ATOM      9  C   UNL     1     141.702 146.850 158.824  1.00  0.00     0.012 C 
ATOM     10  C   UNL     1     142.905 148.788 159.919  1.00  0.00     0.012 C 
ENDBRANCH   5   8
TORSDOF 1
ENDMDL
MODEL 3
REMARK VINA RESULT:    -4.681      8.834      9.380
REMARK INTER + INTRA:          -5.099
REMARK INTER:                  -4.954
REMARK INTRA:                  -0.145
REMARK UNBOUND:                -0.144
REMARK SMILES CC1=CC=C(C(C)C)CC1
REMARK SMILES IDX 1 1 2 2 3 3 4 4 5 5 9 6 10 7 6 8 7 9 8 10
REMARK H PARENT
REMARK Flexibility Score: inf
ROOT
ATOM      1  C   UNL     1     145.008 140.226 165.193  1.00  0.00     0.039 C 
ATOM      2  C   UNL     1     144.432 140.527 163.841  1.00  0.00    -0.073 C 
ATOM      3  C   UNL     1     143.325 141.278 163.738  1.00  0.00    -0.001 C 
ATOM      4  C   UNL     1     142.744 141.591 162.420  1.00  0.00    -0.001 C 
ATOM      5  C   UNL     1     143.422 141.332 161.285  1.00  0.00    -0.067 C 
ATOM      6  C   UNL     1     144.842 140.815 161.376  1.00  0.00     0.035 C 
ATOM      7  C   UNL     1     145.031 139.906 162.601  1.00  0.00     0.035 C 
ENDROOT
BRANCH   5   8
ATOM      8  C   UNL     1     142.825 141.633 159.922  1.00  0.00     0.009 C 
ATOM      9  C   UNL     1     143.912 141.762 158.848  1.00  0.00     0.012 C 
ATOM     10  C   UNL     1     141.941 142.886 159.969  1.00  0.00     0.012 C 
ENDBRANCH   5   8
TORSDOF 1
ENDMDL
MODEL 4
REMARK VINA RESULT:    -4.657      5.952      6.641
REMARK INTER + INTRA:          -5.074
REMARK INTER:                  -4.929
REMARK INTRA:                  -0.145
REMARK UNBOUND:                -0.144
REMARK SMILES CC1=CC=C(C(C)C)CC1
REMARK SMILES IDX 1 1 2 2 3 3 4 4 5 5 9 6 10 7 6 8 7 9 8 10
REMARK H PARENT
REMARK Flexibility Score: inf
ROOT
ATOM      1  C   UNL     1     150.587 144.998 165.232  1.00  0.00     0.039 C 
ATOM      2  C   UNL     1     150.265 144.423 163.885  1.00  0.00    -0.073 C 
ATOM      3  C   UNL     1     149.484 143.336 163.791  1.00  0.00    -0.001 C 
ATOM      4  C   UNL     1     149.150 142.756 162.477  1.00  0.00    -0.001 C 
ATOM      5  C   UNL     1     149.423 143.420 161.337  1.00  0.00    -0.067 C 
ATOM      6  C   UNL     1     149.979 144.827 161.419  1.00  0.00     0.035 C 
ATOM      7  C   UNL     1     150.898 144.998 162.639  1.00  0.00     0.035 C 
ENDROOT
BRANCH   5   8
ATOM      8  C   UNL     1     149.101 142.823 159.979  1.00  0.00     0.009 C 
ATOM      9  C   UNL     1     149.033 143.904 158.893  1.00  0.00     0.012 C 
ATOM     10  C   UNL     1     147.805 142.005 160.027  1.00  0.00     0.012 C 
ENDBRANCH   5   8
TORSDOF 1
ENDMDL
MODEL 5
REMARK VINA RESULT:    -4.616      6.684      7.737
REMARK INTER + INTRA:          -5.030
REMARK INTER:                  -4.862
REMARK INTRA:                  -0.168
REMARK UNBOUND:                -0.144
REMARK SMILES CC1=CC=C(C(C)C)CC1
REMARK SMILES IDX 1 1 2 2 3 3 4 4 5 5 9 6 10 7 6 8 7 9 8 10
REMARK H PARENT
REMARK Flexibility Score: inf
ROOT
ATOM      1  C   UNL     1     150.822 144.668 164.094  1.00  0.00     0.039 C 
ATOM      2  C   UNL     1     149.535 143.917 163.923  1.00  0.00    -0.073 C 
ATOM      3  C   UNL     1     148.673 143.826 164.947  1.00  0.00    -0.001 C 
ATOM      4  C   UNL     1     147.399 143.098 164.801  1.00  0.00    -0.001 C 
ATOM      5  C   UNL     1     146.962 142.705 163.589  1.00  0.00    -0.067 C 
ATOM      6  C   UNL     1     147.739 143.115 162.356  1.00  0.00     0.035 C 
ATOM      7  C   UNL     1     149.248 143.176 162.637  1.00  0.00     0.035 C 
ENDROOT
BRANCH   5   8
ATOM      8  C   UNL     1     145.661 141.938 163.430  1.00  0.00     0.009 C 
ATOM      9  C   UNL     1     145.249 141.254 164.740  1.00  0.00     0.012 C 
ATOM     10  C   UNL     1     145.752 140.926 162.282  1.00  0.00     0.012 C 
ENDBRANCH   5   8
TORSDOF 1
ENDMDL
MODEL 6
REMARK VINA RESULT:    -4.614      7.982      8.752
REMARK INTER + INTRA:          -5.029
REMARK INTER:                  -4.861
REMARK INTRA:                  -0.168
REMARK UNBOUND:                -0.144
REMARK SMILES CC1=CC=C(C(C)C)CC1
REMARK SMILES IDX 1 1 2 2 3 3 4 4 5 5 9 6 10 7 6 8 7 9 8 10
REMARK H PARENT
REMARK Flexibility Score: inf
ROOT
ATOM      1  C   UNL     1     144.631 139.938 164.094  1.00  0.00     0.039 C 
ATOM      2  C   UNL     1     143.893 141.232 163.921  1.00  0.00    -0.073 C 
ATOM      3  C   UNL     1     143.828 142.105 164.937  1.00  0.00    -0.001 C 
ATOM      4  C   UNL     1     143.113 143.386 164.790  1.00  0.00    -0.001 C 
ATOM      5  C   UNL     1     142.704 143.815 163.580  1.00  0.00    -0.067 C 
ATOM      6  C   UNL     1     143.084 143.020 162.349  1.00  0.00     0.035 C 
ATOM      7  C   UNL     1     143.134 141.513 162.645  1.00  0.00     0.035 C 
ENDROOT
BRANCH   5   8
ATOM      8  C   UNL     1     141.949 145.123 163.420  1.00  0.00     0.009 C 
ATOM      9  C   UNL     1     141.297 145.559 164.738  1.00  0.00     0.012 C 
ATOM     10  C   UNL     1     140.913 145.030 162.293  1.00  0.00     0.012 C 
ENDBRANCH   5   8
TORSDOF 1
ENDMDL
MODEL 7
REMARK VINA RESULT:    -4.610      2.537      3.664
REMARK INTER + INTRA:          -5.024
REMARK INTER:                  -4.857
REMARK INTRA:                  -0.168
REMARK UNBOUND:                -0.144
REMARK SMILES CC1=CC=C(C(C)C)CC1
REMARK SMILES IDX 1 1 2 2 3 3 4 4 5 5 9 6 10 7 6 8 7 9 8 10
REMARK H PARENT
REMARK Flexibility Score: inf
ROOT
ATOM      1  C   UNL     1     146.112 150.937 164.124  1.00  0.00     0.039 C 
ATOM      2  C   UNL     1     146.835 149.634 163.950  1.00  0.00    -0.073 C 
ATOM      3  C   UNL     1     146.886 148.758 164.965  1.00  0.00    -0.001 C 
ATOM      4  C   UNL     1     147.587 147.469 164.816  1.00  0.00    -0.001 C 
ATOM      5  C   UNL     1     147.992 147.037 163.607  1.00  0.00    -0.067 C 
ATOM      6  C   UNL     1     147.624 147.838 162.376  1.00  0.00     0.035 C 
ATOM      7  C   UNL     1     147.593 149.345 162.675  1.00  0.00     0.035 C 
ENDROOT
BRANCH   5   8
ATOM      8  C   UNL     1     148.731 145.720 163.446  1.00  0.00     0.009 C 
ATOM      9  C   UNL     1     149.449 145.317 164.739  1.00  0.00     0.012 C 
ATOM     10  C   UNL     1     149.708 145.774 162.264  1.00  0.00     0.012 C 
ENDBRANCH   5   8
TORSDOF 1
ENDMDL
MODEL 8
REMARK VINA RESULT:    -4.608      4.440      5.603
REMARK INTER + INTRA:          -5.022
REMARK INTER:                  -4.854
REMARK INTRA:                  -0.167
REMARK UNBOUND:                -0.144
REMARK SMILES CC1=CC=C(C(C)C)CC1
REMARK SMILES IDX 1 1 2 2 3 3 4 4 5 5 9 6 10 7 6 8 7 9 8 10
REMARK H PARENT
REMARK Flexibility Score: inf
ROOT
ATOM      1  C   UNL     1     139.812 146.120 164.096  1.00  0.00     0.039 C 
ATOM      2  C   UNL     1     141.122 146.832 163.931  1.00  0.00    -0.073 C 
ATOM      3  C   UNL     1     141.978 146.901 164.961  1.00  0.00    -0.001 C 
ATOM      4  C   UNL     1     143.274 147.592 164.821  1.00  0.00    -0.001 C 
ATOM      5  C   UNL     1     143.731 147.968 163.612  1.00  0.00    -0.067 C 
ATOM      6  C   UNL     1     142.951 147.577 162.374  1.00  0.00     0.035 C 
ATOM      7  C   UNL     1     141.438 147.560 162.645  1.00  0.00     0.035 C 
ENDROOT
BRANCH   5   8
ATOM      8  C   UNL     1     145.055 148.697 163.459  1.00  0.00     0.009 C 
ATOM      9  C   UNL     1     145.463 149.398 164.761  1.00  0.00     0.012 C 
ATOM     10  C   UNL     1     145.011 149.685 162.288  1.00  0.00     0.012 C 
ENDBRANCH   5   8
TORSDOF 1
ENDMDL
MODEL 9
REMARK VINA RESULT:    -4.586      8.095      8.439
REMARK INTER + INTRA:          -4.998
REMARK INTER:                  -4.854
REMARK INTRA:                  -0.145
REMARK UNBOUND:                -0.144
REMARK SMILES CC1=CC=C(C(C)C)CC1
REMARK SMILES IDX 1 1 2 2 3 3 4 4 5 5 9 6 10 7 6 8 7 9 8 10
REMARK H PARENT
REMARK Flexibility Score: inf
ROOT
ATOM      1  C   UNL     1     141.471 145.440 163.933  1.00  0.00     0.039 C 
ATOM      2  C   UNL     1     142.435 144.295 163.833  1.00  0.00    -0.073 C 
ATOM      3  C   UNL     1     143.042 143.835 164.937  1.00  0.00    -0.001 C 
ATOM      4  C   UNL     1     143.989 142.706 164.865  1.00  0.00    -0.001 C 
ATOM      5  C   UNL     1     144.098 141.965 163.745  1.00  0.00    -0.067 C 
ATOM      6  C   UNL     1     143.156 142.231 162.590  1.00  0.00     0.035 C 
ATOM      7  C   UNL     1     142.804 143.723 162.484  1.00  0.00     0.035 C 
ENDROOT
BRANCH   5   8
ATOM      8  C   UNL     1     145.083 140.813 163.654  1.00  0.00     0.009 C 
ATOM      9  C   UNL     1     145.045 140.150 162.272  1.00  0.00     0.012 C 
ATOM     10  C   UNL     1     144.841 139.787 164.767  1.00  0.00     0.012 C 
ENDBRANCH   5   8
TORSDOF 1
ENDMDL
