MODEL 1
REMARK VINA RESULT:    -2.897      0.000      0.000
REMARK INTER + INTRA:          -3.436
REMARK INTER:                  -3.405
REMARK INTRA:                  -0.031
REMARK UNBOUND:                -0.031
REMARK SMILES O=C([O-])CCC(=O)[O-]
REMARK SMILES IDX 4 1 2 2 1 3 3 4 5 5 6 6 7 7 8 8
REMARK H PARENT
REMARK Flexibility Score: inf
ROOT
ATOM      1  C   UNL     1      -5.355  27.637  -1.844  1.00  0.00     0.059 C 
ENDROOT
BRANCH   1   2
ATOM      2  C   UNL     1      -5.332  27.072  -3.228  1.00  0.00     0.042 C 
ATOM      3  O   UNL     1      -5.263  27.839  -4.225  1.00  0.00    -0.550 OA
ATOM      4  O   UNL     1      -5.438  25.700  -3.421  1.00  0.00    -0.550 OA
ENDBRANCH   1   2
BRANCH   1   5
ATOM      5  C   UNL     1      -6.791  27.731  -1.327  1.00  0.00     0.059 C 
BRANCH   5   6
ATOM      6  C   UNL     1      -6.811  28.261   0.072  1.00  0.00     0.042 C 
ATOM      7  O   UNL     1      -7.833  28.850   0.512  1.00  0.00    -0.550 OA
ATOM      8  O   UNL     1      -5.683  28.148   0.874  1.00  0.00    -0.550 OA
ENDBRANCH   5   6
ENDBRANCH   1   5
TORSDOF 3
ENDMDL
MODEL 2
REMARK VINA RESULT:    -2.881      0.175      4.231
REMARK INTER + INTRA:          -3.417
REMARK INTER:                  -3.387
REMARK INTRA:                  -0.030
REMARK UNBOUND:                -0.031
REMARK SMILES O=C([O-])CCC(=O)[O-]
REMARK SMILES IDX 4 1 2 2 1 3 3 4 5 5 6 6 7 7 8 8
REMARK H PARENT
REMARK Flexibility Score: inf
ROOT
ATOM      1  C   UNL     1      -6.713  27.628  -1.406  1.00  0.00     0.059 C 
ENDROOT
BRANCH   1   2
ATOM      2  C   UNL     1      -6.710  28.230  -0.037  1.00  0.00     0.042 C 
ATOM      3  O   UNL     1      -7.756  28.758   0.425  1.00  0.00    -0.550 OA
ATOM      4  O   UNL     1      -5.539  28.252   0.711  1.00  0.00    -0.550 OA
ENDBRANCH   1   2
BRANCH   1   5
ATOM      5  C   UNL     1      -5.296  27.593  -1.979  1.00  0.00     0.059 C 
BRANCH   5   6
ATOM      6  C   UNL     1      -5.312  27.085  -3.386  1.00  0.00     0.042 C 
ATOM      7  O   UNL     1      -5.318  27.893  -4.351  1.00  0.00    -0.550 OA
ATOM      8  O   UNL     1      -5.370  25.719  -3.631  1.00  0.00    -0.550 OA
ENDBRANCH   5   6
ENDBRANCH   1   5
TORSDOF 3
ENDMDL
MODEL 3
REMARK VINA RESULT:    -2.797     16.154     17.202
REMARK INTER + INTRA:          -3.318
REMARK INTER:                  -3.220
REMARK INTRA:                  -0.097
REMARK UNBOUND:                -0.031
REMARK SMILES O=C([O-])CCC(=O)[O-]
REMARK SMILES IDX 4 1 2 2 1 3 3 4 5 5 6 6 7 7 8 8
REMARK H PARENT
REMARK Flexibility Score: inf
ROOT
ATOM      1  C   UNL     1     -21.907  21.316  -0.853  1.00  0.00     0.059 C 
ENDROOT
BRANCH   1   2
ATOM      2  C   UNL     1     -22.868  20.443  -0.111  1.00  0.00     0.042 C 
ATOM      3  O   UNL     1     -22.476  19.764   0.874  1.00  0.00    -0.550 OA
ATOM      4  O   UNL     1     -24.187  20.342  -0.537  1.00  0.00    -0.550 OA
ENDBRANCH   1   2
BRANCH   1   5
ATOM      5  C   UNL     1     -20.926  20.467  -1.661  1.00  0.00     0.059 C 
BRANCH   5   6
ATOM      6  C   UNL     1     -19.586  20.440  -0.997  1.00  0.00     0.042 C 
ATOM      7  O   UNL     1     -19.228  21.391  -0.253  1.00  0.00    -0.550 OA
ATOM      8  O   UNL     1     -18.711  19.388  -1.237  1.00  0.00    -0.550 OA
ENDBRANCH   5   6
ENDBRANCH   1   5
TORSDOF 3
ENDMDL
MODEL 4
REMARK VINA RESULT:    -2.776     16.103     16.985
REMARK INTER + INTRA:          -3.294
REMARK INTER:                  -3.199
REMARK INTRA:                  -0.095
REMARK UNBOUND:                -0.031
REMARK SMILES O=C([O-])CCC(=O)[O-]
REMARK SMILES IDX 4 1 2 2 1 3 3 4 5 5 6 6 7 7 8 8
REMARK H PARENT
REMARK Flexibility Score: inf
ROOT
ATOM      1  C   UNL     1     -20.967  21.348  -1.110  1.00  0.00     0.059 C 
ENDROOT
BRANCH   1   2
ATOM      2  C   UNL     1     -19.575  21.039  -0.657  1.00  0.00     0.042 C 
ATOM      3  O   UNL     1     -18.818  21.964  -0.261  1.00  0.00    -0.550 OA
ATOM      4  O   UNL     1     -19.098  19.736  -0.718  1.00  0.00    -0.550 OA
ENDBRANCH   1   2
BRANCH   1   5
ATOM      5  C   UNL     1     -21.796  20.067  -1.208  1.00  0.00     0.059 C 
BRANCH   5   6
ATOM      6  C   UNL     1     -22.865  20.054  -0.161  1.00  0.00     0.042 C 
ATOM      7  O   UNL     1     -22.594  19.700   1.017  1.00  0.00    -0.550 OA
ATOM      8  O   UNL     1     -24.171  20.387  -0.497  1.00  0.00    -0.550 OA
ENDBRANCH   5   6
ENDBRANCH   1   5
TORSDOF 3
ENDMDL
MODEL 5
REMARK VINA RESULT:    -2.764     16.236     17.235
REMARK INTER + INTRA:          -3.280
REMARK INTER:                  -3.160
REMARK INTRA:                  -0.120
REMARK UNBOUND:                -0.031
REMARK SMILES O=C([O-])CCC(=O)[O-]
REMARK SMILES IDX 4 1 2 2 1 3 3 4 5 5 6 6 7 7 8 8
REMARK H PARENT
REMARK Flexibility Score: inf
ROOT
ATOM      1  C   UNL     1     -21.749  19.115  -1.409  1.00  0.00     0.059 C 
ENDROOT
BRANCH   1   2
ATOM      2  C   UNL     1     -21.833  20.540  -0.961  1.00  0.00     0.042 C 
ATOM      3  O   UNL     1     -22.656  20.875  -0.069  1.00  0.00    -0.550 OA
ATOM      4  O   UNL     1     -21.037  21.506  -1.564  1.00  0.00    -0.550 OA
ENDBRANCH   1   2
BRANCH   1   5
ATOM      5  C   UNL     1     -20.824  18.988  -2.620  1.00  0.00     0.059 C 
BRANCH   5   6
ATOM      6  C   UNL     1     -19.563  18.276  -2.244  1.00  0.00     0.042 C 
ATOM      7  O   UNL     1     -19.393  17.072  -2.574  1.00  0.00    -0.550 OA
ATOM      8  O   UNL     1     -18.596  18.925  -1.488  1.00  0.00    -0.550 OA
ENDBRANCH   5   6
ENDBRANCH   1   5
TORSDOF 3
ENDMDL
MODEL 6
REMARK VINA RESULT:    -2.762     16.254     16.939
REMARK INTER + INTRA:          -3.277
REMARK INTER:                  -3.158
REMARK INTRA:                  -0.119
REMARK UNBOUND:                -0.031
REMARK SMILES O=C([O-])CCC(=O)[O-]
REMARK SMILES IDX 4 1 2 2 1 3 3 4 5 5 6 6 7 7 8 8
REMARK H PARENT
REMARK Flexibility Score: inf
ROOT
ATOM      1  C   UNL     1     -20.835  18.998  -2.620  1.00  0.00     0.059 C 
ENDROOT
BRANCH   1   2
ATOM      2  C   UNL     1     -19.591  18.261  -2.239  1.00  0.00     0.042 C 
ATOM      3  O   UNL     1     -19.445  17.053  -2.563  1.00  0.00    -0.550 OA
ATOM      4  O   UNL     1     -18.612  18.894  -1.482  1.00  0.00    -0.550 OA
ENDBRANCH   1   2
BRANCH   1   5
ATOM      5  C   UNL     1     -21.771  19.128  -1.417  1.00  0.00     0.059 C 
BRANCH   5   6
ATOM      6  C   UNL     1     -21.848  20.552  -0.965  1.00  0.00     0.042 C 
ATOM      7  O   UNL     1     -22.674  20.892  -0.078  1.00  0.00    -0.550 OA
ATOM      8  O   UNL     1     -21.041  21.515  -1.558  1.00  0.00    -0.550 OA
ENDBRANCH   5   6
ENDBRANCH   1   5
TORSDOF 3
ENDMDL
MODEL 7
REMARK VINA RESULT:    -2.755     16.576     17.484
REMARK INTER + INTRA:          -3.268
REMARK INTER:                  -3.148
REMARK INTRA:                  -0.121
REMARK UNBOUND:                -0.031
REMARK SMILES O=C([O-])CCC(=O)[O-]
REMARK SMILES IDX 4 1 2 2 1 3 3 4 5 5 6 6 7 7 8 8
REMARK H PARENT
REMARK Flexibility Score: inf
ROOT
ATOM      1  C   UNL     1     -20.077  19.419  -1.446  1.00  0.00     0.059 C 
ENDROOT
BRANCH   1   2
ATOM      2  C   UNL     1     -20.278  20.867  -1.134  1.00  0.00     0.042 C 
ATOM      3  O   UNL     1     -21.301  21.470  -1.554  1.00  0.00    -0.550 OA
ATOM      4  O   UNL     1     -19.312  21.565  -0.420  1.00  0.00    -0.550 OA
ENDBRANCH   1   2
BRANCH   1   5
ATOM      5  C   UNL     1     -20.917  19.010  -2.657  1.00  0.00     0.059 C 
BRANCH   5   6
ATOM      6  C   UNL     1     -21.993  18.053  -2.249  1.00  0.00     0.042 C 
ATOM      7  O   UNL     1     -21.956  16.856  -2.636  1.00  0.00    -0.550 OA
ATOM      8  O   UNL     1     -23.062  18.496  -1.481  1.00  0.00    -0.550 OA
ENDBRANCH   5   6
ENDBRANCH   1   5
TORSDOF 3
ENDMDL
MODEL 8
REMARK VINA RESULT:    -2.725     16.592     17.336
REMARK INTER + INTRA:          -3.233
REMARK INTER:                  -3.115
REMARK INTRA:                  -0.118
REMARK UNBOUND:                -0.031
REMARK SMILES O=C([O-])CCC(=O)[O-]
REMARK SMILES IDX 4 1 2 2 1 3 3 4 5 5 6 6 7 7 8 8
REMARK H PARENT
REMARK Flexibility Score: inf
ROOT
ATOM      1  C   UNL     1     -20.996  19.009  -2.636  1.00  0.00     0.059 C 
ENDROOT
BRANCH   1   2
ATOM      2  C   UNL     1     -21.990  17.992  -2.173  1.00  0.00     0.042 C 
ATOM      3  O   UNL     1     -21.851  16.781  -2.488  1.00  0.00    -0.550 OA
ATOM      4  O   UNL     1     -23.098  18.389  -1.435  1.00  0.00    -0.550 OA
ENDBRANCH   1   2
BRANCH   1   5
ATOM      5  C   UNL     1     -20.076  19.422  -1.486  1.00  0.00     0.059 C 
BRANCH   5   6
ATOM      6  C   UNL     1     -20.276  20.865  -1.148  1.00  0.00     0.042 C 
ATOM      7  O   UNL     1     -21.327  21.460  -1.503  1.00  0.00    -0.550 OA
ATOM      8  O   UNL     1     -19.280  21.568  -0.481  1.00  0.00    -0.550 OA
ENDBRANCH   5   6
ENDBRANCH   1   5
TORSDOF 3
ENDMDL
MODEL 9
REMARK VINA RESULT:    -2.689     15.042     15.672
REMARK INTER + INTRA:          -3.191
REMARK INTER:                  -3.096
REMARK INTRA:                  -0.094
REMARK UNBOUND:                -0.031
REMARK SMILES O=C([O-])CCC(=O)[O-]
REMARK SMILES IDX 4 1 2 2 1 3 3 4 5 5 6 6 7 7 8 8
REMARK H PARENT
REMARK Flexibility Score: inf
ROOT
ATOM      1  C   UNL     1     -19.210  18.638  -0.880  1.00  0.00     0.059 C 
ENDROOT
BRANCH   1   2
ATOM      2  C   UNL     1     -18.327  18.086  -1.954  1.00  0.00     0.042 C 
ATOM      3  O   UNL     1     -17.248  18.666  -2.247  1.00  0.00    -0.550 OA
ATOM      4  O   UNL     1     -18.718  16.959  -2.665  1.00  0.00    -0.550 OA
ENDBRANCH   1   2
BRANCH   1   5
ATOM      5  C   UNL     1     -20.347  19.457  -1.490  1.00  0.00     0.059 C 
BRANCH   5   6
ATOM      6  C   UNL     1     -20.298  20.869  -0.999  1.00  0.00     0.042 C 
ATOM      7  O   UNL     1     -21.294  21.626  -1.143  1.00  0.00    -0.550 OA
ATOM      8  O   UNL     1     -19.135  21.365  -0.424  1.00  0.00    -0.550 OA
ENDBRANCH   5   6
ENDBRANCH   1   5
TORSDOF 3
ENDMDL
