MODEL 1
REMARK VINA RESULT:    -6.965      0.000      0.000
REMARK INTER + INTRA:         -14.001
REMARK INTER:                 -10.834
REMARK INTRA:                  -3.168
REMARK UNBOUND:                -3.168
REMARK SMILES COc1ccc([C@H]2CC(=O)c3c(O)cc(O[C@@H]4O[C@H](CO[C@H]5O[C@@H](C)[C@@H](O)[C@H](O)[C@@H]5O)[C@H](O)[C@H](O)[C@@H]4O)cc3O2)cc1O
REMARK SMILES IDX 19 1 32 2 34 3 36 4 17 5 18 6 20 7 21 8 22 9 25 10 24 11
REMARK SMILES IDX 26 12 23 13 28 14 30 15 27 16 29 18 31 20 33 22 35 24 16 26
REMARK SMILES IDX 15 27 14 28 38 29 12 30 39 31 11 32 40 33 9 34 7 35 10 36
REMARK SMILES IDX 8 37 13 38 6 40 41 41 5 42 42 43 4 44 3 45 43 46 2 48 1 49
REMARK SMILES IDX 37 50
REMARK H PARENT 27 17 29 19 31 21 33 23 35 25 13 39 43 47 37 51
REMARK Flexibility Score: inf
ROOT
ATOM      1  C   UNL     1      72.669  46.833   8.753  1.00  0.00     0.180 C 
ATOM      2  C   UNL     1      73.907  47.504   8.788  1.00  0.00     0.177 C 
ATOM      3  C   UNL     1      73.628  48.837   7.639  1.00  0.00     0.180 C 
ATOM      4  C   UNL     1      73.018  48.122   6.309  1.00  0.00     0.214 C 
ATOM      5  C   UNL     1      73.448  46.604   6.449  1.00  0.00     0.339 C 
ATOM      6  O   UNL     1      72.640  46.019   7.538  1.00  0.00    -0.332 OA
ENDROOT
BRANCH   1   7
ATOM      7  C   UNL     1      71.942  48.231   9.449  1.00  0.00     0.198 C 
BRANCH   7   8
ATOM      8  O   UNL     1      70.456  48.691   9.051  1.00  0.00    -0.347 OA
BRANCH   8   9
ATOM      9  C   UNL     1      69.255  48.133   8.218  1.00  0.00     0.281 C 
ATOM     10  C   UNL     1      69.214  44.772   8.305  1.00  0.00     0.041 C 
ATOM     11  C   UNL     1      68.777  45.732   7.176  1.00  0.00     0.150 C 
ATOM     12  C   UNL     1      67.295  45.806   7.099  1.00  0.00     0.174 C 
ATOM     13  O   UNL     1      69.345  47.058   7.242  1.00  0.00    -0.344 OA
ATOM     14  C   UNL     1      66.683  47.145   7.798  1.00  0.00     0.179 C 
ATOM     15  C   UNL     1      67.732  48.022   8.686  1.00  0.00     0.202 C 
BRANCH  12  16
ATOM     16  O   UNL     1      66.646  44.613   7.433  1.00  0.00    -0.388 OA
ATOM     17  H   UNL     1      66.605  44.012   6.667  1.00  0.00     0.211 HD
ENDBRANCH  12  16
BRANCH  14  18
ATOM     18  O   UNL     1      66.003  47.833   6.746  1.00  0.00    -0.387 OA
ATOM     19  H   UNL     1      65.589  47.199   6.127  1.00  0.00     0.211 HD
ENDBRANCH  14  18
BRANCH  15  20
ATOM     20  O   UNL     1      67.177  49.321   8.686  1.00  0.00    -0.385 OA
ATOM     21  H   UNL     1      67.031  49.651   7.743  1.00  0.00     0.211 HD
ENDBRANCH  15  20
ENDBRANCH   8   9
ENDBRANCH   7   8
ENDBRANCH   1   7
BRANCH   2  22
ATOM     22  O   UNL     1      74.123  47.029  10.125  1.00  0.00    -0.387 OA
ATOM     23  H   UNL     1      74.776  46.231  10.036  1.00  0.00     0.211 HD
ENDBRANCH   2  22
BRANCH   3  24
ATOM     24  O   UNL     1      72.749  49.963   7.730  1.00  0.00    -0.387 OA
ATOM     25  H   UNL     1      72.641  50.179   8.742  1.00  0.00     0.211 HD
ENDBRANCH   3  24
BRANCH   5  26
ATOM     26  O   UNL     1      73.567  45.812   5.302  1.00  0.00    -0.462 OA
BRANCH  26  27
ATOM     27  C   UNL     1      73.223  44.445   5.392  1.00  0.00     0.130 A 
ATOM     28  C   UNL     1      74.181  43.352   5.655  1.00  0.00     0.093 A 
ATOM     29  C   UNL     1      71.909  44.097   4.963  1.00  0.00     0.094 A 
ATOM     30  C   UNL     1      73.641  42.084   5.550  1.00  0.00     0.133 A 
ATOM     31  C   UNL     1      71.490  42.818   5.184  1.00  0.00     0.138 A 
ATOM     32  C   UNL     1      72.330  41.907   5.821  1.00  0.00     0.102 A 
ATOM     33  O   UNL     1      70.186  42.315   5.064  1.00  0.00    -0.484 OA
ATOM     34  C   UNL     1      71.888  41.715   7.212  1.00  0.00     0.174 C 
ATOM     35  C   UNL     1      69.714  41.239   5.952  1.00  0.00     0.211 C 
ATOM     36  O   UNL     1      72.517  42.202   8.218  1.00  0.00    -0.294 OA
ATOM     37  C   UNL     1      70.459  41.323   7.332  1.00  0.00     0.131 C 
BRANCH  30  38
ATOM     38  O   UNL     1      74.506  40.958   5.263  1.00  0.00    -0.507 OA
ATOM     39  H   UNL     1      74.115  40.040   5.508  1.00  0.00     0.293 HD
ENDBRANCH  30  38
BRANCH  35  40
ATOM     40  C   UNL     1      70.017  39.871   5.251  1.00  0.00    -0.003 A 
ATOM     41  C   UNL     1      70.851  39.786   4.108  1.00  0.00     0.057 A 
ATOM     42  C   UNL     1      69.966  38.760   6.067  1.00  0.00     0.011 A 
ATOM     43  C   UNL     1      71.904  38.810   4.183  1.00  0.00     0.158 A 
ATOM     44  C   UNL     1      71.071  37.872   6.129  1.00  0.00     0.051 A 
ATOM     45  C   UNL     1      72.234  38.285   5.439  1.00  0.00     0.160 A 
BRANCH  43  46
ATOM     46  O   UNL     1      72.761  38.653   3.038  1.00  0.00    -0.504 OA
ATOM     47  H   UNL     1      73.683  39.073   2.920  1.00  0.00     0.293 HD
ENDBRANCH  43  46
BRANCH  45  48
ATOM     48  O   UNL     1      73.455  38.460   6.153  1.00  0.00    -0.493 OA
ATOM     49  C   UNL     1      73.575  38.436   7.627  1.00  0.00     0.278 C 
ENDBRANCH  45  48
ENDBRANCH  35  40
ENDBRANCH  26  27
ENDBRANCH   5  26
BRANCH   4  50
ATOM     50  O   UNL     1      71.641  48.174   6.306  1.00  0.00    -0.384 OA
ATOM     51  H   UNL     1      71.291  47.352   6.792  1.00  0.00     0.211 HD
ENDBRANCH   4  50
TORSDOF 15
ENDMDL
MODEL 2
REMARK VINA RESULT:    -6.705      1.729      2.884
REMARK INTER + INTRA:         -13.597
REMARK INTER:                 -10.115
REMARK INTRA:                  -3.481
REMARK UNBOUND:                -3.168
REMARK SMILES COc1ccc([C@H]2CC(=O)c3c(O)cc(O[C@@H]4O[C@H](CO[C@H]5O[C@@H](C)[C@@H](O)[C@H](O)[C@@H]5O)[C@H](O)[C@H](O)[C@@H]4O)cc3O2)cc1O
REMARK SMILES IDX 19 1 32 2 34 3 36 4 17 5 18 6 20 7 21 8 22 9 25 10 24 11
REMARK SMILES IDX 26 12 23 13 28 14 30 15 27 16 29 18 31 20 33 22 35 24 16 26
REMARK SMILES IDX 15 27 14 28 38 29 12 30 39 31 11 32 40 33 9 34 7 35 10 36
REMARK SMILES IDX 8 37 13 38 6 40 41 41 5 42 42 43 4 44 3 45 43 46 2 48 1 49
REMARK SMILES IDX 37 50
REMARK H PARENT 27 17 29 19 31 21 33 23 35 25 13 39 43 47 37 51
REMARK Flexibility Score: inf
ROOT
ATOM      1  C   UNL     1      72.488  47.442   7.979  1.00  0.00     0.180 C 
ATOM      2  C   UNL     1      73.306  48.158   7.083  1.00  0.00     0.177 C 
ATOM      3  C   UNL     1      72.705  47.580   5.507  1.00  0.00     0.180 C 
ATOM      4  C   UNL     1      72.697  45.957   5.632  1.00  0.00     0.214 C 
ATOM      5  C   UNL     1      73.689  45.652   6.828  1.00  0.00     0.339 C 
ATOM      6  O   UNL     1      73.019  46.082   8.073  1.00  0.00    -0.332 OA
ENDROOT
BRANCH   1   7
ATOM      7  C   UNL     1      71.133  48.314   7.372  1.00  0.00     0.198 C 
BRANCH   7   8
ATOM      8  O   UNL     1      69.680  47.639   7.262  1.00  0.00    -0.347 OA
BRANCH   8   9
ATOM      9  C   UNL     1      68.894  46.466   7.936  1.00  0.00     0.281 C 
ATOM     10  C   UNL     1      66.447  47.659   9.909  1.00  0.00     0.041 C 
ATOM     11  C   UNL     1      67.305  46.384  10.068  1.00  0.00     0.150 C 
ATOM     12  C   UNL     1      66.514  45.175   9.718  1.00  0.00     0.174 C 
ATOM     13  O   UNL     1      68.557  46.391   9.350  1.00  0.00    -0.344 OA
ATOM     14  C   UNL     1      66.838  44.607   8.225  1.00  0.00     0.179 C 
ATOM     15  C   UNL     1      67.739  45.582   7.278  1.00  0.00     0.202 C 
BRANCH  12  16
ATOM     16  O   UNL     1      65.155  45.272  10.035  1.00  0.00    -0.388 OA
ATOM     17  H   UNL     1      64.610  44.796   9.382  1.00  0.00     0.211 HD
ENDBRANCH  12  16
BRANCH  14  18
ATOM     18  O   UNL     1      67.330  43.282   8.433  1.00  0.00    -0.387 OA
ATOM     19  H   UNL     1      67.705  42.917   7.608  1.00  0.00     0.211 HD
ENDBRANCH  14  18
BRANCH  15  20
ATOM     20  O   UNL     1      68.336  44.699   6.351  1.00  0.00    -0.385 OA
ATOM     21  H   UNL     1      68.312  45.086   5.418  1.00  0.00     0.211 HD
ENDBRANCH  15  20
ENDBRANCH   8   9
ENDBRANCH   7   8
ENDBRANCH   1   7
BRANCH   2  22
ATOM     22  O   UNL     1      73.457  49.199   8.058  1.00  0.00    -0.387 OA
ATOM     23  H   UNL     1      74.185  48.864   8.714  1.00  0.00     0.211 HD
ENDBRANCH   2  22
BRANCH   3  24
ATOM     24  O   UNL     1      71.436  47.778   4.876  1.00  0.00    -0.387 OA
ATOM     25  H   UNL     1      71.621  48.270   3.978  1.00  0.00     0.211 HD
ENDBRANCH   3  24
BRANCH   5  26
ATOM     26  O   UNL     1      74.330  44.410   6.894  1.00  0.00    -0.462 OA
BRANCH  26  27
ATOM     27  C   UNL     1      73.533  43.243   6.910  1.00  0.00     0.130 A 
ATOM     28  C   UNL     1      73.034  42.584   8.134  1.00  0.00     0.093 A 
ATOM     29  C   UNL     1      73.417  42.543   5.676  1.00  0.00     0.094 A 
ATOM     30  C   UNL     1      72.401  41.375   7.911  1.00  0.00     0.133 A 
ATOM     31  C   UNL     1      72.532  41.507   5.617  1.00  0.00     0.138 A 
ATOM     32  C   UNL     1      71.770  41.175   6.735  1.00  0.00     0.102 A 
ATOM     33  O   UNL     1      72.083  40.832   4.472  1.00  0.00    -0.484 OA
ATOM     34  C   UNL     1      70.389  41.652   6.553  1.00  0.00     0.174 C 
ATOM     35  C   UNL     1      70.713  40.298   4.406  1.00  0.00     0.211 C 
ATOM     36  O   UNL     1      69.913  42.665   7.178  1.00  0.00    -0.294 OA
ATOM     37  C   UNL     1      69.758  41.174   5.295  1.00  0.00     0.131 C 
BRANCH  30  38
ATOM     38  O   UNL     1      72.332  40.396   8.977  1.00  0.00    -0.507 OA
ATOM     39  H   UNL     1      72.885  40.627   9.812  1.00  0.00     0.293 HD
ENDBRANCH  30  38
BRANCH  35  40
ATOM     40  C   UNL     1      70.746  38.823   4.934  1.00  0.00    -0.003 A 
ATOM     41  C   UNL     1      71.866  38.305   5.631  1.00  0.00     0.057 A 
ATOM     42  C   UNL     1      69.518  38.269   5.231  1.00  0.00     0.011 A 
ATOM     43  C   UNL     1      71.570  37.659   6.881  1.00  0.00     0.158 A 
ATOM     44  C   UNL     1      69.285  37.700   6.510  1.00  0.00     0.051 A 
ATOM     45  C   UNL     1      70.315  37.880   7.462  1.00  0.00     0.160 A 
BRANCH  43  46
ATOM     46  O   UNL     1      72.663  37.080   7.617  1.00  0.00    -0.504 OA
ATOM     47  H   UNL     1      73.579  37.508   7.761  1.00  0.00     0.293 HD
ENDBRANCH  43  46
BRANCH  45  48
ATOM     48  O   UNL     1      70.038  38.561   8.683  1.00  0.00    -0.493 OA
ATOM     49  C   UNL     1      68.805  39.333   8.951  1.00  0.00     0.278 C 
ENDBRANCH  45  48
ENDBRANCH  35  40
ENDBRANCH  26  27
ENDBRANCH   5  26
BRANCH   4  50
ATOM     50  O   UNL     1      71.449  45.494   5.987  1.00  0.00    -0.384 OA
ATOM     51  H   UNL     1      71.024  46.173   6.613  1.00  0.00     0.211 HD
ENDBRANCH   4  50
TORSDOF 15
ENDMDL
MODEL 3
REMARK VINA RESULT:    -6.610      1.810      3.301
REMARK INTER + INTRA:         -13.448
REMARK INTER:                  -9.851
REMARK INTRA:                  -3.597
REMARK UNBOUND:                -3.168
REMARK SMILES COc1ccc([C@H]2CC(=O)c3c(O)cc(O[C@@H]4O[C@H](CO[C@H]5O[C@@H](C)[C@@H](O)[C@H](O)[C@@H]5O)[C@H](O)[C@H](O)[C@@H]4O)cc3O2)cc1O
REMARK SMILES IDX 19 1 32 2 34 3 36 4 17 5 18 6 20 7 21 8 22 9 25 10 24 11
REMARK SMILES IDX 26 12 23 13 28 14 30 15 27 16 29 18 31 20 33 22 35 24 16 26
REMARK SMILES IDX 15 27 14 28 38 29 12 30 39 31 11 32 40 33 9 34 7 35 10 36
REMARK SMILES IDX 8 37 13 38 6 40 41 41 5 42 42 43 4 44 3 45 43 46 2 48 1 49
REMARK SMILES IDX 37 50
REMARK H PARENT 27 17 29 19 31 21 33 23 35 25 13 39 43 47 37 51
REMARK Flexibility Score: inf
ROOT
ATOM      1  C   UNL     1      70.229  48.054   8.865  1.00  0.00     0.180 C 
ATOM      2  C   UNL     1      70.941  49.259   8.704  1.00  0.00     0.177 C 
ATOM      3  C   UNL     1      70.773  49.547   6.953  1.00  0.00     0.180 C 
ATOM      4  C   UNL     1      71.201  48.139   6.256  1.00  0.00     0.214 C 
ATOM      5  C   UNL     1      72.044  47.391   7.369  1.00  0.00     0.339 C 
ATOM      6  O   UNL     1      71.099  46.964   8.421  1.00  0.00    -0.332 OA
ENDROOT
BRANCH   1   7
ATOM      7  C   UNL     1      68.793  48.892   8.416  1.00  0.00     0.198 C 
BRANCH   7   8
ATOM      8  O   UNL     1      67.623  48.170   7.586  1.00  0.00    -0.347 OA
BRANCH   8   9
ATOM      9  C   UNL     1      67.031  46.730   7.433  1.00  0.00     0.281 C 
ATOM     10  C   UNL     1      68.890  44.499   9.129  1.00  0.00     0.041 C 
ATOM     11  C   UNL     1      68.094  44.321   7.817  1.00  0.00     0.150 C 
ATOM     12  C   UNL     1      66.844  43.556   8.065  1.00  0.00     0.174 C 
ATOM     13  O   UNL     1      67.804  45.542   7.102  1.00  0.00    -0.344 OA
ATOM     14  C   UNL     1      65.521  44.503   8.157  1.00  0.00     0.179 C 
ATOM     15  C   UNL     1      65.803  46.107   8.239  1.00  0.00     0.202 C 
BRANCH  12  16
ATOM     16  O   UNL     1      66.956  42.592   9.073  1.00  0.00    -0.388 OA
ATOM     17  H   UNL     1      67.889  42.439   9.307  1.00  0.00     0.211 HD
ENDBRANCH  12  16
BRANCH  14  18
ATOM     18  O   UNL     1      64.672  44.055   7.098  1.00  0.00    -0.387 OA
ATOM     19  H   UNL     1      65.160  44.022   6.252  1.00  0.00     0.211 HD
ENDBRANCH  14  18
BRANCH  15  20
ATOM     20  O   UNL     1      64.613  46.688   7.747  1.00  0.00    -0.385 OA
ATOM     21  H   UNL     1      63.804  46.160   8.043  1.00  0.00     0.211 HD
ENDBRANCH  15  20
ENDBRANCH   8   9
ENDBRANCH   7   8
ENDBRANCH   1   7
BRANCH   2  22
ATOM     22  O   UNL     1      70.644  49.611  10.064  1.00  0.00    -0.387 OA
ATOM     23  H   UNL     1      70.131  50.509  10.014  1.00  0.00     0.211 HD
ENDBRANCH   2  22
BRANCH   3  24
ATOM     24  O   UNL     1      69.611  49.855   6.177  1.00  0.00    -0.387 OA
ATOM     25  H   UNL     1      69.108  50.616   6.678  1.00  0.00     0.211 HD
ENDBRANCH   3  24
BRANCH   5  26
ATOM     26  O   UNL     1      72.989  46.432   6.991  1.00  0.00    -0.462 OA
BRANCH  26  27
ATOM     27  C   UNL     1      72.605  45.072   6.995  1.00  0.00     0.130 A 
ATOM     28  C   UNL     1      71.805  44.421   5.938  1.00  0.00     0.093 A 
ATOM     29  C   UNL     1      72.807  44.365   8.215  1.00  0.00     0.094 A 
ATOM     30  C   UNL     1      71.426  43.124   6.229  1.00  0.00     0.133 A 
ATOM     31  C   UNL     1      72.597  43.018   8.207  1.00  0.00     0.138 A 
ATOM     32  C   UNL     1      72.213  42.377   7.032  1.00  0.00     0.102 A 
ATOM     33  O   UNL     1      72.948  42.094   9.204  1.00  0.00    -0.484 OA
ATOM     34  C   UNL     1      73.362  41.653   6.464  1.00  0.00     0.174 C 
ATOM     35  C   UNL     1      73.342  40.721   8.846  1.00  0.00     0.211 C 
ATOM     36  O   UNL     1      73.994  42.054   5.422  1.00  0.00    -0.294 OA
ATOM     37  C   UNL     1      74.002  40.712   7.420  1.00  0.00     0.131 C 
BRANCH  30  38
ATOM     38  O   UNL     1      70.258  42.558   5.585  1.00  0.00    -0.507 OA
ATOM     39  H   UNL     1      69.575  43.247   5.245  1.00  0.00     0.293 HD
ENDBRANCH  30  38
BRANCH  35  40
ATOM     40  C   UNL     1      72.051  39.833   8.855  1.00  0.00    -0.003 A 
ATOM     41  C   UNL     1      70.753  40.402   8.886  1.00  0.00     0.057 A 
ATOM     42  C   UNL     1      72.174  38.598   8.252  1.00  0.00     0.011 A 
ATOM     43  C   UNL     1      69.841  39.915   7.888  1.00  0.00     0.158 A 
ATOM     44  C   UNL     1      71.266  38.211   7.233  1.00  0.00     0.051 A 
ATOM     45  C   UNL     1      70.366  39.211   6.796  1.00  0.00     0.160 A 
BRANCH  43  46
ATOM     46  O   UNL     1      68.497  40.429   7.893  1.00  0.00    -0.504 OA
ATOM     47  H   UNL     1      67.644  39.871   7.935  1.00  0.00     0.293 HD
ENDBRANCH  43  46
BRANCH  45  48
ATOM     48  O   UNL     1      70.364  39.614   5.429  1.00  0.00    -0.493 OA
ATOM     49  C   UNL     1      69.486  39.039   4.387  1.00  0.00     0.278 C 
ENDBRANCH  45  48
ENDBRANCH  35  40
ENDBRANCH  26  27
ENDBRANCH   5  26
BRANCH   4  50
ATOM     50  O   UNL     1      70.093  47.369   5.974  1.00  0.00    -0.384 OA
ATOM     51  H   UNL     1      70.369  46.391   6.008  1.00  0.00     0.211 HD
ENDBRANCH   4  50
TORSDOF 15
ENDMDL
MODEL 4
REMARK VINA RESULT:    -6.539      1.753      5.302
REMARK INTER + INTRA:         -13.338
REMARK INTER:                  -9.730
REMARK INTRA:                  -3.608
REMARK UNBOUND:                -3.168
REMARK SMILES COc1ccc([C@H]2CC(=O)c3c(O)cc(O[C@@H]4O[C@H](CO[C@H]5O[C@@H](C)[C@@H](O)[C@H](O)[C@@H]5O)[C@H](O)[C@H](O)[C@@H]4O)cc3O2)cc1O
REMARK SMILES IDX 19 1 32 2 34 3 36 4 17 5 18 6 20 7 21 8 22 9 25 10 24 11
REMARK SMILES IDX 26 12 23 13 28 14 30 15 27 16 29 18 31 20 33 22 35 24 16 26
REMARK SMILES IDX 15 27 14 28 38 29 12 30 39 31 11 32 40 33 9 34 7 35 10 36
REMARK SMILES IDX 8 37 13 38 6 40 41 41 5 42 42 43 4 44 3 45 43 46 2 48 1 49
REMARK SMILES IDX 37 50
REMARK H PARENT 27 17 29 19 31 21 33 23 35 25 13 39 43 47 37 51
REMARK Flexibility Score: inf
ROOT
ATOM      1  C   UNL     1      67.737  46.781   7.178  1.00  0.00     0.180 C 
ATOM      2  C   UNL     1      66.518  47.265   7.695  1.00  0.00     0.177 C 
ATOM      3  C   UNL     1      66.986  47.722   9.353  1.00  0.00     0.180 C 
ATOM      4  C   UNL     1      67.769  46.421   9.940  1.00  0.00     0.214 C 
ATOM      5  C   UNL     1      67.296  45.228   9.012  1.00  0.00     0.339 C 
ATOM      6  O   UNL     1      67.926  45.424   7.690  1.00  0.00    -0.332 OA
ENDROOT
BRANCH   1   7
ATOM      7  C   UNL     1      68.380  48.372   7.322  1.00  0.00     0.198 C 
BRANCH   7   8
ATOM      8  O   UNL     1      69.933  48.624   7.648  1.00  0.00    -0.347 OA
BRANCH   8   9
ATOM      9  C   UNL     1      71.299  47.901   7.405  1.00  0.00     0.281 C 
ATOM     10  C   UNL     1      73.262  48.137  10.125  1.00  0.00     0.041 C 
ATOM     11  C   UNL     1      73.652  48.090   8.631  1.00  0.00     0.150 C 
ATOM     12  C   UNL     1      74.204  46.756   8.276  1.00  0.00     0.174 C 
ATOM     13  O   UNL     1      72.606  48.463   7.709  1.00  0.00    -0.344 OA
ATOM     14  C   UNL     1      73.127  45.800   7.513  1.00  0.00     0.179 C 
ATOM     15  C   UNL     1      71.586  46.334   7.508  1.00  0.00     0.202 C 
BRANCH  12  16
ATOM     16  O   UNL     1      74.916  46.140   9.311  1.00  0.00    -0.388 OA
ATOM     17  H   UNL     1      75.605  45.550   8.957  1.00  0.00     0.211 HD
ENDBRANCH  12  16
BRANCH  14  18
ATOM     18  O   UNL     1      73.715  45.527   6.239  1.00  0.00    -0.387 OA
ATOM     19  H   UNL     1      74.642  45.237   6.340  1.00  0.00     0.211 HD
ENDBRANCH  14  18
BRANCH  15  20
ATOM     20  O   UNL     1      71.012  45.706   6.380  1.00  0.00    -0.385 OA
ATOM     21  H   UNL     1      71.152  44.706   6.413  1.00  0.00     0.211 HD
ENDBRANCH  15  20
ENDBRANCH   8   9
ENDBRANCH   7   8
ENDBRANCH   1   7
BRANCH   2  22
ATOM     22  O   UNL     1      66.103  47.624   6.368  1.00  0.00    -0.387 OA
ATOM     23  H   UNL     1      65.072  47.709   6.412  1.00  0.00     0.211 HD
ENDBRANCH   2  22
BRANCH   3  24
ATOM     24  O   UNL     1      67.863  48.757   9.811  1.00  0.00    -0.387 OA
ATOM     25  H   UNL     1      67.276  49.438  10.335  1.00  0.00     0.211 HD
ENDBRANCH   3  24
BRANCH   5  26
ATOM     26  O   UNL     1      67.330  43.918   9.501  1.00  0.00    -0.462 OA
BRANCH  26  27
ATOM     27  C   UNL     1      68.192  42.990   8.875  1.00  0.00     0.130 A 
ATOM     28  C   UNL     1      67.761  41.968   7.900  1.00  0.00     0.093 A 
ATOM     29  C   UNL     1      69.509  42.894   9.410  1.00  0.00     0.094 A 
ATOM     30  C   UNL     1      68.753  41.077   7.534  1.00  0.00     0.133 A 
ATOM     31  C   UNL     1      70.412  42.129   8.733  1.00  0.00     0.138 A 
ATOM     32  C   UNL     1      70.039  41.485   7.555  1.00  0.00     0.102 A 
ATOM     33  O   UNL     1      71.800  42.071   8.932  1.00  0.00    -0.484 OA
ATOM     34  C   UNL     1      70.600  42.203   6.399  1.00  0.00     0.174 C 
ATOM     35  C   UNL     1      72.709  41.833   7.799  1.00  0.00     0.211 C 
ATOM     36  O   UNL     1      69.888  42.925   5.614  1.00  0.00    -0.294 OA
ATOM     37  C   UNL     1      72.072  42.398   6.478  1.00  0.00     0.131 C 
BRANCH  30  38
ATOM     38  O   UNL     1      68.389  39.767   7.034  1.00  0.00    -0.507 OA
ATOM     39  H   UNL     1      69.152  39.253   6.574  1.00  0.00     0.293 HD
ENDBRANCH  30  38
BRANCH  35  40
ATOM     40  C   UNL     1      72.933  40.287   7.678  1.00  0.00    -0.003 A 
ATOM     41  C   UNL     1      72.118  39.359   8.371  1.00  0.00     0.057 A 
ATOM     42  C   UNL     1      73.495  39.858   6.494  1.00  0.00     0.011 A 
ATOM     43  C   UNL     1      71.561  38.304   7.567  1.00  0.00     0.158 A 
ATOM     44  C   UNL     1      72.855  38.851   5.726  1.00  0.00     0.051 A 
ATOM     45  C   UNL     1      71.573  38.455   6.174  1.00  0.00     0.160 A 
BRANCH  43  46
ATOM     46  O   UNL     1      70.754  37.310   8.223  1.00  0.00    -0.504 OA
ATOM     47  H   UNL     1      70.562  37.262   9.224  1.00  0.00     0.293 HD
ENDBRANCH  43  46
BRANCH  45  48
ATOM     48  O   UNL     1      70.447  38.598   5.313  1.00  0.00    -0.493 OA
ATOM     49  C   UNL     1      70.403  39.490   4.134  1.00  0.00     0.278 C 
ENDBRANCH  45  48
ENDBRANCH  35  40
ENDBRANCH  26  27
ENDBRANCH   5  26
BRANCH   4  50
ATOM     50  O   UNL     1      69.133  46.556   9.794  1.00  0.00    -0.384 OA
ATOM     51  H   UNL     1      69.576  46.247  10.655  1.00  0.00     0.211 HD
ENDBRANCH   4  50
TORSDOF 15
ENDMDL
MODEL 5
REMARK VINA RESULT:    -6.447      1.743      4.895
REMARK INTER + INTRA:         -13.194
REMARK INTER:                  -9.596
REMARK INTRA:                  -3.598
REMARK UNBOUND:                -3.168
REMARK SMILES COc1ccc([C@H]2CC(=O)c3c(O)cc(O[C@@H]4O[C@H](CO[C@H]5O[C@@H](C)[C@@H](O)[C@H](O)[C@@H]5O)[C@H](O)[C@H](O)[C@@H]4O)cc3O2)cc1O
REMARK SMILES IDX 19 1 32 2 34 3 36 4 17 5 18 6 20 7 21 8 22 9 25 10 24 11
REMARK SMILES IDX 26 12 23 13 28 14 30 15 27 16 29 18 31 20 33 22 35 24 16 26
REMARK SMILES IDX 15 27 14 28 38 29 12 30 39 31 11 32 40 33 9 34 7 35 10 36
REMARK SMILES IDX 8 37 13 38 6 40 41 41 5 42 42 43 4 44 3 45 43 46 2 48 1 49
REMARK SMILES IDX 37 50
REMARK H PARENT 27 17 29 19 31 21 33 23 35 25 13 39 43 47 37 51
REMARK Flexibility Score: inf
ROOT
ATOM      1  C   UNL     1      67.822  46.932   6.903  1.00  0.00     0.180 C 
ATOM      2  C   UNL     1      66.575  47.049   7.549  1.00  0.00     0.177 C 
ATOM      3  C   UNL     1      67.055  47.033   9.265  1.00  0.00     0.180 C 
ATOM      4  C   UNL     1      68.037  45.744   9.413  1.00  0.00     0.214 C 
ATOM      5  C   UNL     1      67.689  44.840   8.160  1.00  0.00     0.339 C 
ATOM      6  O   UNL     1      68.222  45.526   6.964  1.00  0.00    -0.332 OA
ENDROOT
BRANCH   1   7
ATOM      7  C   UNL     1      68.246  48.476   7.537  1.00  0.00     0.198 C 
BRANCH   7   8
ATOM      8  O   UNL     1      69.773  48.865   7.851  1.00  0.00    -0.347 OA
BRANCH   8   9
ATOM      9  C   UNL     1      71.196  48.483   7.326  1.00  0.00     0.281 C 
ATOM     10  C   UNL     1      72.729  46.396   9.472  1.00  0.00     0.041 C 
ATOM     11  C   UNL     1      73.334  47.481   8.553  1.00  0.00     0.150 C 
ATOM     12  C   UNL     1      74.001  46.859   7.381  1.00  0.00     0.174 C 
ATOM     13  O   UNL     1      72.413  48.507   8.123  1.00  0.00    -0.344 OA
ATOM     14  C   UNL     1      73.100  46.919   6.024  1.00  0.00     0.179 C 
ATOM     15  C   UNL     1      71.550  47.382   6.225  1.00  0.00     0.202 C 
BRANCH  12  16
ATOM     16  O   UNL     1      74.588  45.618   7.650  1.00  0.00    -0.388 OA
ATOM     17  H   UNL     1      75.414  45.725   8.156  1.00  0.00     0.211 HD
ENDBRANCH  12  16
BRANCH  14  18
ATOM     18  O   UNL     1      73.880  47.674   5.095  1.00  0.00    -0.387 OA
ATOM     19  H   UNL     1      73.305  48.186   4.494  1.00  0.00     0.211 HD
ENDBRANCH  14  18
BRANCH  15  20
ATOM     20  O   UNL     1      71.180  47.891   4.960  1.00  0.00    -0.385 OA
ATOM     21  H   UNL     1      71.105  48.898   4.984  1.00  0.00     0.211 HD
ENDBRANCH  15  20
ENDBRANCH   8   9
ENDBRANCH   7   8
ENDBRANCH   1   7
BRANCH   2  22
ATOM     22  O   UNL     1      66.051  47.735   6.403  1.00  0.00    -0.387 OA
ATOM     23  H   UNL     1      65.293  48.341   6.763  1.00  0.00     0.211 HD
ENDBRANCH   2  22
BRANCH   3  24
ATOM     24  O   UNL     1      67.802  47.992  10.023  1.00  0.00    -0.387 OA
ATOM     25  H   UNL     1      68.228  47.477  10.820  1.00  0.00     0.211 HD
ENDBRANCH   3  24
BRANCH   5  26
ATOM     26  O   UNL     1      67.927  43.463   8.214  1.00  0.00    -0.462 OA
BRANCH  26  27
ATOM     27  C   UNL     1      69.188  42.982   7.794  1.00  0.00     0.130 A 
ATOM     28  C   UNL     1      70.433  43.092   8.580  1.00  0.00     0.093 A 
ATOM     29  C   UNL     1      69.287  42.587   6.429  1.00  0.00     0.094 A 
ATOM     30  C   UNL     1      71.569  42.685   7.904  1.00  0.00     0.133 A 
ATOM     31  C   UNL     1      70.438  41.971   6.032  1.00  0.00     0.138 A 
ATOM     32  C   UNL     1      71.458  41.737   6.950  1.00  0.00     0.102 A 
ATOM     33  O   UNL     1      70.671  41.298   4.823  1.00  0.00    -0.484 OA
ATOM     34  C   UNL     1      71.469  40.313   7.326  1.00  0.00     0.174 C 
ATOM     35  C   UNL     1      71.571  40.134   4.776  1.00  0.00     0.211 C 
ATOM     36  O   UNL     1      71.058  39.889   8.464  1.00  0.00    -0.294 OA
ATOM     37  C   UNL     1      71.554  39.393   6.162  1.00  0.00     0.131 C 
BRANCH  30  38
ATOM     38  O   UNL     1      72.863  43.198   8.306  1.00  0.00    -0.507 OA
ATOM     39  H   UNL     1      73.668  42.719   7.882  1.00  0.00     0.293 HD
ENDBRANCH  30  38
BRANCH  35  40
ATOM     40  C   UNL     1      73.014  40.654   4.454  1.00  0.00    -0.003 A 
ATOM     41  C   UNL     1      73.336  42.033   4.495  1.00  0.00     0.057 A 
ATOM     42  C   UNL     1      74.038  39.768   4.715  1.00  0.00     0.011 A 
ATOM     43  C   UNL     1      74.498  42.373   5.271  1.00  0.00     0.158 A 
ATOM     44  C   UNL     1      75.124  40.160   5.539  1.00  0.00     0.051 A 
ATOM     45  C   UNL     1      74.999  41.420   6.168  1.00  0.00     0.160 A 
BRANCH  43  46
ATOM     46  O   UNL     1      74.897  43.755   5.320  1.00  0.00    -0.504 OA
ATOM     47  H   UNL     1      74.354  44.545   4.972  1.00  0.00     0.293 HD
ENDBRANCH  43  46
BRANCH  45  48
ATOM     48  O   UNL     1      75.030  41.507   7.590  1.00  0.00    -0.493 OA
ATOM     49  C   UNL     1      75.013  40.341   8.501  1.00  0.00     0.278 C 
ENDBRANCH  45  48
ENDBRANCH  35  40
ENDBRANCH  26  27
ENDBRANCH   5  26
BRANCH   4  50
ATOM     50  O   UNL     1      69.361  46.115   9.314  1.00  0.00    -0.384 OA
ATOM     51  H   UNL     1      69.396  47.096   9.051  1.00  0.00     0.211 HD
ENDBRANCH   4  50
TORSDOF 15
ENDMDL
MODEL 6
REMARK VINA RESULT:    -6.425      1.611      2.624
REMARK INTER + INTRA:         -13.161
REMARK INTER:                 -11.191
REMARK INTRA:                  -1.970
REMARK UNBOUND:                -3.168
REMARK SMILES COc1ccc([C@H]2CC(=O)c3c(O)cc(O[C@@H]4O[C@H](CO[C@H]5O[C@@H](C)[C@@H](O)[C@H](O)[C@@H]5O)[C@H](O)[C@H](O)[C@@H]4O)cc3O2)cc1O
REMARK SMILES IDX 19 1 32 2 34 3 36 4 17 5 18 6 20 7 21 8 22 9 25 10 24 11
REMARK SMILES IDX 26 12 23 13 28 14 30 15 27 16 29 18 31 20 33 22 35 24 16 26
REMARK SMILES IDX 15 27 14 28 38 29 12 30 39 31 11 32 40 33 9 34 7 35 10 36
REMARK SMILES IDX 8 37 13 38 6 40 41 41 5 42 42 43 4 44 3 45 43 46 2 48 1 49
REMARK SMILES IDX 37 50
REMARK H PARENT 27 17 29 19 31 21 33 23 35 25 13 39 43 47 37 51
REMARK Flexibility Score: inf
ROOT
ATOM      1  C   UNL     1      72.760  46.968   6.881  1.00  0.00     0.180 C 
ATOM      2  C   UNL     1      73.822  47.731   6.357  1.00  0.00     0.177 C 
ATOM      3  C   UNL     1      73.670  47.408   4.611  1.00  0.00     0.180 C 
ATOM      4  C   UNL     1      73.571  45.787   4.493  1.00  0.00     0.214 C 
ATOM      5  C   UNL     1      74.175  45.258   5.858  1.00  0.00     0.339 C 
ATOM      6  O   UNL     1      73.197  45.572   6.920  1.00  0.00    -0.332 OA
ENDROOT
BRANCH   1   7
ATOM      7  C   UNL     1      71.662  48.008   6.058  1.00  0.00     0.198 C 
BRANCH   7   8
ATOM      8  O   UNL     1      70.480  48.767   6.837  1.00  0.00    -0.347 OA
BRANCH   8   9
ATOM      9  C   UNL     1      68.961  48.546   7.134  1.00  0.00     0.281 C 
ATOM     10  C   UNL     1      68.243  45.263   7.254  1.00  0.00     0.041 C 
ATOM     11  C   UNL     1      67.368  46.445   6.781  1.00  0.00     0.150 C 
ATOM     12  C   UNL     1      66.333  46.768   7.798  1.00  0.00     0.174 C 
ATOM     13  O   UNL     1      68.092  47.635   6.404  1.00  0.00    -0.344 OA
ATOM     14  C   UNL     1      66.714  48.063   8.710  1.00  0.00     0.179 C 
ATOM     15  C   UNL     1      68.242  48.610   8.558  1.00  0.00     0.202 C 
BRANCH  12  16
ATOM     16  O   UNL     1      65.865  45.657   8.508  1.00  0.00    -0.388 OA
ATOM     17  H   UNL     1      65.364  45.056   7.927  1.00  0.00     0.211 HD
ENDBRANCH  12  16
BRANCH  14  18
ATOM     18  O   UNL     1      65.668  49.006   8.468  1.00  0.00    -0.387 OA
ATOM     19  H   UNL     1      64.894  48.569   8.061  1.00  0.00     0.211 HD
ENDBRANCH  14  18
BRANCH  15  20
ATOM     20  O   UNL     1      68.159  49.966   8.948  1.00  0.00    -0.385 OA
ATOM     21  H   UNL     1      68.752  50.149   9.744  1.00  0.00     0.211 HD
ENDBRANCH  15  20
ENDBRANCH   8   9
ENDBRANCH   7   8
ENDBRANCH   1   7
BRANCH   2  22
ATOM     22  O   UNL     1      73.728  48.624   7.476  1.00  0.00    -0.387 OA
ATOM     23  H   UNL     1      73.005  49.320   7.218  1.00  0.00     0.211 HD
ENDBRANCH   2  22
BRANCH   3  24
ATOM     24  O   UNL     1      72.637  47.778   3.691  1.00  0.00    -0.387 OA
ATOM     25  H   UNL     1      72.276  46.895   3.275  1.00  0.00     0.211 HD
ENDBRANCH   3  24
BRANCH   5  26
ATOM     26  O   UNL     1      74.728  43.975   5.917  1.00  0.00    -0.462 OA
BRANCH  26  27
ATOM     27  C   UNL     1      73.863  42.879   6.136  1.00  0.00     0.130 A 
ATOM     28  C   UNL     1      73.359  42.458   7.459  1.00  0.00     0.093 A 
ATOM     29  C   UNL     1      73.669  41.999   5.033  1.00  0.00     0.094 A 
ATOM     30  C   UNL     1      72.648  41.273   7.446  1.00  0.00     0.133 A 
ATOM     31  C   UNL     1      72.721  41.027   5.158  1.00  0.00     0.138 A 
ATOM     32  C   UNL     1      71.972  40.928   6.329  1.00  0.00     0.102 A 
ATOM     33  O   UNL     1      72.200  40.208   4.145  1.00  0.00    -0.484 OA
ATOM     34  C   UNL     1      70.619  41.458   6.097  1.00  0.00     0.174 C 
ATOM     35  C   UNL     1      70.798  39.761   4.192  1.00  0.00     0.211 C 
ATOM     36  O   UNL     1      70.223  42.586   6.560  1.00  0.00    -0.294 OA
ATOM     37  C   UNL     1      69.924  40.828   4.944  1.00  0.00     0.131 C 
BRANCH  30  38
ATOM     38  O   UNL     1      72.549  40.483   8.656  1.00  0.00    -0.507 OA
ATOM     39  H   UNL     1      71.705  39.901   8.725  1.00  0.00     0.293 HD
ENDBRANCH  30  38
BRANCH  35  40
ATOM     40  C   UNL     1      70.756  38.390   4.950  1.00  0.00    -0.003 A 
ATOM     41  C   UNL     1      71.866  37.913   5.691  1.00  0.00     0.057 A 
ATOM     42  C   UNL     1      69.507  37.977   5.364  1.00  0.00     0.011 A 
ATOM     43  C   UNL     1      71.576  37.497   7.037  1.00  0.00     0.158 A 
ATOM     44  C   UNL     1      69.286  37.636   6.724  1.00  0.00     0.051 A 
ATOM     45  C   UNL     1      70.360  37.894   7.607  1.00  0.00     0.160 A 
BRANCH  43  46
ATOM     46  O   UNL     1      72.656  36.968   7.827  1.00  0.00    -0.504 OA
ATOM     47  H   UNL     1      73.614  37.320   7.841  1.00  0.00     0.293 HD
ENDBRANCH  43  46
BRANCH  45  48
ATOM     48  O   UNL     1      70.172  38.778   8.709  1.00  0.00    -0.493 OA
ATOM     49  C   UNL     1      68.988  39.645   8.895  1.00  0.00     0.278 C 
ENDBRANCH  45  48
ENDBRANCH  35  40
ENDBRANCH  26  27
ENDBRANCH   5  26
BRANCH   4  50
ATOM     50  O   UNL     1      72.259  45.374   4.421  1.00  0.00    -0.384 OA
ATOM     51  H   UNL     1      71.663  46.185   4.568  1.00  0.00     0.211 HD
ENDBRANCH   4  50
TORSDOF 15
ENDMDL
MODEL 7
REMARK VINA RESULT:    -6.386      1.744      5.184
REMARK INTER + INTRA:         -13.100
REMARK INTER:                 -11.396
REMARK INTRA:                  -1.704
REMARK UNBOUND:                -3.168
REMARK SMILES COc1ccc([C@H]2CC(=O)c3c(O)cc(O[C@@H]4O[C@H](CO[C@H]5O[C@@H](C)[C@@H](O)[C@H](O)[C@@H]5O)[C@H](O)[C@H](O)[C@@H]4O)cc3O2)cc1O
REMARK SMILES IDX 19 1 32 2 34 3 36 4 17 5 18 6 20 7 21 8 22 9 25 10 24 11
REMARK SMILES IDX 26 12 23 13 28 14 30 15 27 16 29 18 31 20 33 22 35 24 16 26
REMARK SMILES IDX 15 27 14 28 38 29 12 30 39 31 11 32 40 33 9 34 7 35 10 36
REMARK SMILES IDX 8 37 13 38 6 40 41 41 5 42 42 43 4 44 3 45 43 46 2 48 1 49
REMARK SMILES IDX 37 50
REMARK H PARENT 27 17 29 19 31 21 33 23 35 25 13 39 43 47 37 51
REMARK Flexibility Score: inf
ROOT
ATOM      1  C   UNL     1      67.300  47.203   7.115  1.00  0.00     0.180 C 
ATOM      2  C   UNL     1      66.530  47.429   8.273  1.00  0.00     0.177 C 
ATOM      3  C   UNL     1      67.684  47.001   9.563  1.00  0.00     0.180 C 
ATOM      4  C   UNL     1      68.271  45.545   9.131  1.00  0.00     0.214 C 
ATOM      5  C   UNL     1      67.198  44.976   8.115  1.00  0.00     0.339 C 
ATOM      6  O   UNL     1      67.316  45.761   6.869  1.00  0.00    -0.332 OA
ENDROOT
BRANCH   1   7
ATOM      7  C   UNL     1      68.333  48.493   7.603  1.00  0.00     0.198 C 
BRANCH   7   8
ATOM      8  O   UNL     1      69.512  49.029   6.654  1.00  0.00    -0.347 OA
BRANCH   8   9
ATOM      9  C   UNL     1      71.069  48.909   6.562  1.00  0.00     0.281 C 
ATOM     10  C   UNL     1      72.403  48.447   9.614  1.00  0.00     0.041 C 
ATOM     11  C   UNL     1      72.984  49.186   8.388  1.00  0.00     0.150 C 
ATOM     12  C   UNL     1      74.041  48.369   7.738  1.00  0.00     0.174 C 
ATOM     13  O   UNL     1      72.012  49.620   7.413  1.00  0.00    -0.344 OA
ATOM     14  C   UNL     1      73.522  47.596   6.401  1.00  0.00     0.179 C 
ATOM     15  C   UNL     1      71.910  47.615   6.154  1.00  0.00     0.202 C 
BRANCH  12  16
ATOM     16  O   UNL     1      74.783  47.584   8.628  1.00  0.00    -0.388 OA
ATOM     17  H   UNL     1      74.850  48.014   9.500  1.00  0.00     0.211 HD
ENDBRANCH  12  16
BRANCH  14  18
ATOM     18  O   UNL     1      74.339  48.100   5.342  1.00  0.00    -0.387 OA
ATOM     19  H   UNL     1      74.649  47.373   4.767  1.00  0.00     0.211 HD
ENDBRANCH  14  18
BRANCH  15  20
ATOM     20  O   UNL     1      71.777  47.426   4.760  1.00  0.00    -0.385 OA
ATOM     21  H   UNL     1      70.821  47.208   4.516  1.00  0.00     0.211 HD
ENDBRANCH  15  20
ENDBRANCH   8   9
ENDBRANCH   7   8
ENDBRANCH   1   7
BRANCH   2  22
ATOM     22  O   UNL     1      65.754  48.405   7.563  1.00  0.00    -0.387 OA
ATOM     23  H   UNL     1      65.116  48.820   8.264  1.00  0.00     0.211 HD
ENDBRANCH   2  22
BRANCH   3  24
ATOM     24  O   UNL     1      68.901  47.641   9.961  1.00  0.00    -0.387 OA
ATOM     25  H   UNL     1      69.680  47.059   9.593  1.00  0.00     0.211 HD
ENDBRANCH   3  24
BRANCH   5  26
ATOM     26  O   UNL     1      67.078  43.593   7.939  1.00  0.00    -0.462 OA
BRANCH  26  27
ATOM     27  C   UNL     1      68.257  42.835   7.755  1.00  0.00     0.130 A 
ATOM     28  C   UNL     1      68.968  42.114   8.830  1.00  0.00     0.093 A 
ATOM     29  C   UNL     1      68.912  42.985   6.499  1.00  0.00     0.094 A 
ATOM     30  C   UNL     1      70.177  41.565   8.442  1.00  0.00     0.133 A 
ATOM     31  C   UNL     1      69.957  42.152   6.228  1.00  0.00     0.138 A 
ATOM     32  C   UNL     1      70.342  41.188   7.157  1.00  0.00     0.102 A 
ATOM     33  O   UNL     1      70.595  41.958   4.993  1.00  0.00    -0.484 OA
ATOM     34  C   UNL     1      69.878  39.862   6.716  1.00  0.00     0.174 C 
ATOM     35  C   UNL     1      71.145  40.640   4.634  1.00  0.00     0.211 C 
ATOM     36  O   UNL     1      68.896  39.248   7.266  1.00  0.00    -0.294 OA
ATOM     37  C   UNL     1      70.317  39.507   5.341  1.00  0.00     0.131 C 
BRANCH  30  38
ATOM     38  O   UNL     1      71.196  41.304   9.438  1.00  0.00    -0.507 OA
ATOM     39  H   UNL     1      72.152  41.225   9.068  1.00  0.00     0.293 HD
ENDBRANCH  30  38
BRANCH  35  40
ATOM     40  C   UNL     1      72.639  40.598   5.108  1.00  0.00    -0.003 A 
ATOM     41  C   UNL     1      73.210  39.431   5.672  1.00  0.00     0.057 A 
ATOM     42  C   UNL     1      73.496  41.454   4.448  1.00  0.00     0.011 A 
ATOM     43  C   UNL     1      74.456  39.010   5.091  1.00  0.00     0.158 A 
ATOM     44  C   UNL     1      74.680  40.952   3.850  1.00  0.00     0.051 A 
ATOM     45  C   UNL     1      74.823  39.545   3.849  1.00  0.00     0.160 A 
BRANCH  43  46
ATOM     46  O   UNL     1      75.103  37.852   5.648  1.00  0.00    -0.504 OA
ATOM     47  H   UNL     1      76.000  37.468   5.349  1.00  0.00     0.293 HD
ENDBRANCH  43  46
BRANCH  45  48
ATOM     48  O   UNL     1      74.949  38.847   2.613  1.00  0.00    -0.493 OA
ATOM     49  C   UNL     1      73.882  38.022   2.005  1.00  0.00     0.278 C 
ENDBRANCH  45  48
ENDBRANCH  35  40
ENDBRANCH  26  27
ENDBRANCH   5  26
BRANCH   4  50
ATOM     50  O   UNL     1      69.467  45.672   8.459  1.00  0.00    -0.384 OA
ATOM     51  H   UNL     1      69.944  46.498   8.813  1.00  0.00     0.211 HD
ENDBRANCH   4  50
TORSDOF 15
ENDMDL
MODEL 8
REMARK VINA RESULT:    -6.385      1.710      2.418
REMARK INTER + INTRA:         -13.098
REMARK INTER:                 -10.527
REMARK INTRA:                  -2.570
REMARK UNBOUND:                -3.168
REMARK SMILES COc1ccc([C@H]2CC(=O)c3c(O)cc(O[C@@H]4O[C@H](CO[C@H]5O[C@@H](C)[C@@H](O)[C@H](O)[C@@H]5O)[C@H](O)[C@H](O)[C@@H]4O)cc3O2)cc1O
REMARK SMILES IDX 19 1 32 2 34 3 36 4 17 5 18 6 20 7 21 8 22 9 25 10 24 11
REMARK SMILES IDX 26 12 23 13 28 14 30 15 27 16 29 18 31 20 33 22 35 24 16 26
REMARK SMILES IDX 15 27 14 28 38 29 12 30 39 31 11 32 40 33 9 34 7 35 10 36
REMARK SMILES IDX 8 37 13 38 6 40 41 41 5 42 42 43 4 44 3 45 43 46 2 48 1 49
REMARK SMILES IDX 37 50
REMARK H PARENT 27 17 29 19 31 21 33 23 35 25 13 39 43 47 37 51
REMARK Flexibility Score: inf
ROOT
ATOM      1  C   UNL     1      70.201  47.651   8.503  1.00  0.00     0.180 C 
ATOM      2  C   UNL     1      70.863  48.864   8.779  1.00  0.00     0.177 C 
ATOM      3  C   UNL     1      71.111  49.520   7.141  1.00  0.00     0.180 C 
ATOM      4  C   UNL     1      71.772  48.295   6.296  1.00  0.00     0.214 C 
ATOM      5  C   UNL     1      72.358  47.327   7.403  1.00  0.00     0.339 C 
ATOM      6  O   UNL     1      71.210  46.683   8.074  1.00  0.00    -0.332 OA
ENDROOT
BRANCH   1   7
ATOM      7  C   UNL     1      68.874  48.565   7.895  1.00  0.00     0.198 C 
BRANCH   7   8
ATOM      8  O   UNL     1      67.392  47.949   7.823  1.00  0.00    -0.347 OA
BRANCH   8   9
ATOM      9  C   UNL     1      66.730  46.539   7.680  1.00  0.00     0.281 C 
ATOM     10  C   UNL     1      67.951  44.418   9.987  1.00  0.00     0.041 C 
ATOM     11  C   UNL     1      67.465  44.134   8.548  1.00  0.00     0.150 C 
ATOM     12  C   UNL     1      66.131  43.480   8.567  1.00  0.00     0.174 C 
ATOM     13  O   UNL     1      67.453  45.276   7.665  1.00  0.00    -0.344 OA
ATOM     14  C   UNL     1      64.908  44.508   8.245  1.00  0.00     0.179 C 
ATOM     15  C   UNL     1      65.300  46.090   8.230  1.00  0.00     0.202 C 
BRANCH  12  16
ATOM     16  O   UNL     1      65.924  42.637   9.665  1.00  0.00    -0.388 OA
ATOM     17  H   UNL     1      65.225  41.985   9.478  1.00  0.00     0.211 HD
ENDBRANCH  12  16
BRANCH  14  18
ATOM     18  O   UNL     1      64.291  43.989   7.065  1.00  0.00    -0.387 OA
ATOM     19  H   UNL     1      64.083  43.040   7.170  1.00  0.00     0.211 HD
ENDBRANCH  14  18
BRANCH  15  20
ATOM     20  O   UNL     1      64.310  46.679   7.412  1.00  0.00    -0.385 OA
ATOM     21  H   UNL     1      64.606  46.701   6.446  1.00  0.00     0.211 HD
ENDBRANCH  15  20
ENDBRANCH   8   9
ENDBRANCH   7   8
ENDBRANCH   1   7
BRANCH   2  22
ATOM     22  O   UNL     1      70.226  48.915  10.064  1.00  0.00    -0.387 OA
ATOM     23  H   UNL     1      70.501  48.042  10.548  1.00  0.00     0.211 HD
ENDBRANCH   2  22
BRANCH   3  24
ATOM     24  O   UNL     1      70.158  49.987   6.180  1.00  0.00    -0.387 OA
ATOM     25  H   UNL     1      69.604  50.733   6.647  1.00  0.00     0.211 HD
ENDBRANCH   3  24
BRANCH   5  26
ATOM     26  O   UNL     1      73.418  46.472   7.082  1.00  0.00    -0.462 OA
BRANCH  26  27
ATOM     27  C   UNL     1      73.147  45.092   6.935  1.00  0.00     0.130 A 
ATOM     28  C   UNL     1      73.635  44.038   7.847  1.00  0.00     0.093 A 
ATOM     29  C   UNL     1      72.568  44.693   5.697  1.00  0.00     0.094 A 
ATOM     30  C   UNL     1      73.370  42.750   7.422  1.00  0.00     0.133 A 
ATOM     31  C   UNL     1      72.148  43.400   5.583  1.00  0.00     0.138 A 
ATOM     32  C   UNL     1      72.279  42.525   6.659  1.00  0.00     0.102 A 
ATOM     33  O   UNL     1      71.354  42.848   4.566  1.00  0.00    -0.484 OA
ATOM     34  C   UNL     1      70.967  42.324   7.296  1.00  0.00     0.174 C 
ATOM     35  C   UNL     1      70.408  41.759   4.864  1.00  0.00     0.211 C 
ATOM     36  O   UNL     1      70.654  42.839   8.427  1.00  0.00    -0.294 OA
ATOM     37  C   UNL     1      69.911  41.878   6.350  1.00  0.00     0.131 C 
BRANCH  30  38
ATOM     38  O   UNL     1      74.197  41.657   7.890  1.00  0.00    -0.507 OA
ATOM     39  H   UNL     1      74.282  40.869   7.235  1.00  0.00     0.293 HD
ENDBRANCH  30  38
BRANCH  35  40
ATOM     40  C   UNL     1      71.157  40.400   4.647  1.00  0.00    -0.003 A 
ATOM     41  C   UNL     1      72.563  40.340   4.486  1.00  0.00     0.057 A 
ATOM     42  C   UNL     1      70.546  39.290   5.193  1.00  0.00     0.011 A 
ATOM     43  C   UNL     1      73.243  39.400   5.336  1.00  0.00     0.158 A 
ATOM     44  C   UNL     1      71.268  38.440   6.070  1.00  0.00     0.051 A 
ATOM     45  C   UNL     1      72.555  38.890   6.445  1.00  0.00     0.160 A 
BRANCH  43  46
ATOM     46  O   UNL     1      74.668  39.268   5.192  1.00  0.00    -0.504 OA
ATOM     47  H   UNL     1      75.349  40.023   5.276  1.00  0.00     0.293 HD
ENDBRANCH  43  46
BRANCH  45  48
ATOM     48  O   UNL     1      72.856  39.107   7.821  1.00  0.00    -0.493 OA
ATOM     49  C   UNL     1      71.847  39.152   8.902  1.00  0.00     0.278 C 
ENDBRANCH  45  48
ENDBRANCH  35  40
ENDBRANCH  26  27
ENDBRANCH   5  26
BRANCH   4  50
ATOM     50  O   UNL     1      70.810  47.603   5.593  1.00  0.00    -0.384 OA
ATOM     51  H   UNL     1      71.088  47.576   4.615  1.00  0.00     0.211 HD
ENDBRANCH   4  50
TORSDOF 15
ENDMDL
MODEL 9
REMARK VINA RESULT:    -5.969      1.814      4.678
REMARK INTER + INTRA:         -12.452
REMARK INTER:                  -9.456
REMARK INTRA:                  -2.996
REMARK UNBOUND:                -3.168
REMARK SMILES COc1ccc([C@H]2CC(=O)c3c(O)cc(O[C@@H]4O[C@H](CO[C@H]5O[C@@H](C)[C@@H](O)[C@H](O)[C@@H]5O)[C@H](O)[C@H](O)[C@@H]4O)cc3O2)cc1O
REMARK SMILES IDX 19 1 32 2 34 3 36 4 17 5 18 6 20 7 21 8 22 9 25 10 24 11
REMARK SMILES IDX 26 12 23 13 28 14 30 15 27 16 29 18 31 20 33 22 35 24 16 26
REMARK SMILES IDX 15 27 14 28 38 29 12 30 39 31 11 32 40 33 9 34 7 35 10 36
REMARK SMILES IDX 8 37 13 38 6 40 41 41 5 42 42 43 4 44 3 45 43 46 2 48 1 49
REMARK SMILES IDX 37 50
REMARK H PARENT 27 17 29 19 31 21 33 23 35 25 13 39 43 47 37 51
REMARK Flexibility Score: inf
ROOT
ATOM      1  C   UNL     1      70.018  47.872   6.983  1.00  0.00     0.180 C 
ATOM      2  C   UNL     1      69.135  48.723   7.677  1.00  0.00     0.177 C 
ATOM      3  C   UNL     1      69.521  48.338   9.374  1.00  0.00     0.180 C 
ATOM      4  C   UNL     1      69.469  46.712   9.456  1.00  0.00     0.214 C 
ATOM      5  C   UNL     1      68.611  46.284   8.196  1.00  0.00     0.339 C 
ATOM      6  O   UNL     1      69.439  46.528   6.997  1.00  0.00    -0.332 OA
ENDROOT
BRANCH   1   7
ATOM      7  C   UNL     1      71.331  48.774   7.636  1.00  0.00     0.198 C 
BRANCH   7   8
ATOM      8  O   UNL     1      72.767  48.102   7.892  1.00  0.00    -0.347 OA
BRANCH   8   9
ATOM      9  C   UNL     1      73.562  46.847   7.400  1.00  0.00     0.281 C 
ATOM     10  C   UNL     1      74.114  44.722   9.948  1.00  0.00     0.041 C 
ATOM     11  C   UNL     1      74.987  45.021   8.709  1.00  0.00     0.150 C 
ATOM     12  C   UNL     1      74.896  43.911   7.726  1.00  0.00     0.174 C 
ATOM     13  O   UNL     1      74.730  46.287   8.065  1.00  0.00    -0.344 OA
ATOM     14  C   UNL     1      73.896  44.238   6.481  1.00  0.00     0.179 C 
ATOM     15  C   UNL     1      72.970  45.569   6.649  1.00  0.00     0.202 C 
BRANCH  12  16
ATOM     16  O   UNL     1      74.730  42.648   8.305  1.00  0.00    -0.388 OA
ATOM     17  H   UNL     1      73.806  42.349   8.231  1.00  0.00     0.211 HD
ENDBRANCH  12  16
BRANCH  14  18
ATOM     18  O   UNL     1      74.722  44.174   5.317  1.00  0.00    -0.387 OA
ATOM     19  H   UNL     1      75.278  44.974   5.241  1.00  0.00     0.211 HD
ENDBRANCH  14  18
BRANCH  15  20
ATOM     20  O   UNL     1      72.665  45.942   5.321  1.00  0.00    -0.385 OA
ATOM     21  H   UNL     1      71.775  45.561   5.035  1.00  0.00     0.211 HD
ENDBRANCH  15  20
ENDBRANCH   8   9
ENDBRANCH   7   8
ENDBRANCH   1   7
BRANCH   2  22
ATOM     22  O   UNL     1      69.146  49.633   6.567  1.00  0.00    -0.387 OA
ATOM     23  H   UNL     1      68.620  50.466   6.884  1.00  0.00     0.211 HD
ENDBRANCH   2  22
BRANCH   3  24
ATOM     24  O   UNL     1      70.717  48.577  10.124  1.00  0.00    -0.387 OA
ATOM     25  H   UNL     1      70.788  49.607  10.254  1.00  0.00     0.211 HD
ENDBRANCH   3  24
BRANCH   5  26
ATOM     26  O   UNL     1      67.925  45.065   8.210  1.00  0.00    -0.462 OA
BRANCH  26  27
ATOM     27  C   UNL     1      68.588  43.916   7.721  1.00  0.00     0.130 A 
ATOM     28  C   UNL     1      69.655  43.933   6.700  1.00  0.00     0.093 A 
ATOM     29  C   UNL     1      68.013  42.661   8.071  1.00  0.00     0.094 A 
ATOM     30  C   UNL     1      70.051  42.679   6.271  1.00  0.00     0.133 A 
ATOM     31  C   UNL     1      68.713  41.535   7.753  1.00  0.00     0.138 A 
ATOM     32  C   UNL     1      69.950  41.635   7.121  1.00  0.00     0.102 A 
ATOM     33  O   UNL     1      68.467  40.225   8.193  1.00  0.00    -0.484 OA
ATOM     34  C   UNL     1      71.025  41.373   8.091  1.00  0.00     0.174 C 
ATOM     35  C   UNL     1      69.580  39.285   8.405  1.00  0.00     0.211 C 
ATOM     36  O   UNL     1      71.778  42.296   8.565  1.00  0.00    -0.294 OA
ATOM     37  C   UNL     1      70.876  40.078   8.806  1.00  0.00     0.131 C 
BRANCH  30  38
ATOM     38  O   UNL     1      70.665  42.530   4.968  1.00  0.00    -0.507 OA
ATOM     39  H   UNL     1      70.009  42.549   4.176  1.00  0.00     0.293 HD
ENDBRANCH  30  38
BRANCH  35  40
ATOM     40  C   UNL     1      69.812  38.505   7.066  1.00  0.00    -0.003 A 
ATOM     41  C   UNL     1      69.275  38.958   5.835  1.00  0.00     0.057 A 
ATOM     42  C   UNL     1      70.973  37.764   7.002  1.00  0.00     0.011 A 
ATOM     43  C   UNL     1      70.212  39.047   4.748  1.00  0.00     0.158 A 
ATOM     44  C   UNL     1      71.877  37.950   5.925  1.00  0.00     0.051 A 
ATOM     45  C   UNL     1      71.580  39.019   5.048  1.00  0.00     0.160 A 
BRANCH  43  46
ATOM     46  O   UNL     1      69.717  39.467   3.464  1.00  0.00    -0.504 OA
ATOM     47  H   UNL     1      68.869  40.010   3.299  1.00  0.00     0.293 HD
ENDBRANCH  43  46
BRANCH  45  48
ATOM     48  O   UNL     1      72.523  40.073   4.872  1.00  0.00    -0.493 OA
ATOM     49  C   UNL     1      73.574  40.428   5.850  1.00  0.00     0.278 C 
ENDBRANCH  45  48
ENDBRANCH  35  40
ENDBRANCH  26  27
ENDBRANCH   5  26
BRANCH   4  50
ATOM     50  O   UNL     1      70.728  46.169   9.315  1.00  0.00    -0.384 OA
ATOM     51  H   UNL     1      70.706  45.219   9.677  1.00  0.00     0.211 HD
ENDBRANCH   4  50
TORSDOF 15
ENDMDL
