MODEL 1
REMARK VINA RESULT:    -3.909      0.000      0.000
REMARK INTER + INTRA:          -6.157
REMARK INTER:                  -5.966
REMARK INTRA:                  -0.191
REMARK UNBOUND:                -0.191
REMARK SMILES CC1=CCC[C@H](C)C(=O)C[C@@H](C(C)C)C(=O)C1
REMARK SMILES IDX 8 1 9 2 6 3 7 4 5 5 4 6 3 7 2 8 1 9 10 11 11 12 15 13 16 14
REMARK SMILES IDX 17 15 12 17 13 18 14 19
REMARK H PARENT
REMARK Flexibility Score: 70.00
ROOT
ATOM      1  C   UNL     1     -13.533 -21.522  20.957  1.00  0.00     0.136 C 
ATOM      2  O   UNL     1     -13.735 -22.217  19.969  1.00  0.00    -0.299 OA
ENDROOT
BRANCH   1   3
ATOM      3  C   UNL     1     -14.612 -21.405  22.017  1.00  0.00     0.053 C 
ATOM      4  C   UNL     1     -16.000 -21.381  21.363  1.00  0.00     0.016 C 
BRANCH   3   5
ATOM      5  C   UNL     1     -14.501 -22.566  23.032  1.00  0.00     0.015 C 
BRANCH   5   6
ATOM      6  C   UNL     1     -14.463 -22.049  24.483  1.00  0.00     0.028 C 
BRANCH   6   7
ATOM      7  C   UNL     1     -13.183 -22.386  25.208  1.00  0.00    -0.028 C 
ATOM      8  C   UNL     1     -12.048 -21.642  25.198  1.00  0.00    -0.070 CG0
ATOM      9  C   UNL     1     -10.907 -22.097  26.073  1.00  0.00     0.039 C 
ATOM     10  G   UNL     1     -11.850 -20.413  24.319  1.00  0.00     0.000 G0
ENDBRANCH   6   7
ENDBRANCH   5   6
ENDBRANCH   3   5
ENDBRANCH   1   3
BRANCH   1  11
ATOM     11  C   UNL     1     -12.219 -20.782  21.073  1.00  0.00     0.087 C 
BRANCH  11  12
ATOM     12  C   UNL     1     -11.219 -21.517  22.008  1.00  0.00     0.066 C 
BRANCH  12  13
ATOM     13  C   UNL     1     -10.857 -20.609  23.175  1.00  0.00     0.140 C 
ATOM     14  O   UNL     1      -9.753 -20.083  23.221  1.00  0.00    -0.299 OA
BRANCH  13  15
ATOM     15  C   UNL     1     -11.839 -20.394  24.299  1.00  0.00     0.106 CG0
ATOM     16  G   UNL     1     -12.056 -21.619  25.180  1.00  0.00     0.000 G0
ENDBRANCH  13  15
ENDBRANCH  12  13
BRANCH  12  17
ATOM     17  C   UNL     1      -9.938 -22.021  21.265  1.00  0.00    -0.006 C 
ATOM     18  C   UNL     1      -9.344 -23.258  21.966  1.00  0.00     0.008 C 
ATOM     19  C   UNL     1     -10.211 -22.377  19.791  1.00  0.00     0.008 C 
ENDBRANCH  12  17
ENDBRANCH  11  12
ENDBRANCH   1  11
TORSDOF 1
ENDMDL
MODEL 2
REMARK VINA RESULT:    -3.854      1.728      4.174
REMARK INTER + INTRA:          -6.074
REMARK INTER:                  -5.876
REMARK INTRA:                  -0.198
REMARK UNBOUND:                -0.191
REMARK SMILES CC1=CCC[C@H](C)C(=O)C[C@@H](C(C)C)C(=O)C1
REMARK SMILES IDX 8 1 9 2 6 3 7 4 5 5 4 6 3 7 2 8 1 9 10 11 11 12 15 13 16 14
REMARK SMILES IDX 17 15 12 17 13 18 14 19
REMARK H PARENT
REMARK Flexibility Score: 70.00
ROOT
ATOM      1  C   UNL     1     -11.519 -22.483  20.545  1.00  0.00     0.136 C 
ATOM      2  O   UNL     1     -12.268 -22.797  19.629  1.00  0.00    -0.299 OA
ENDROOT
BRANCH   1   3
ATOM      3  C   UNL     1     -10.179 -21.849  20.226  1.00  0.00     0.053 C 
ATOM      4  C   UNL     1      -9.417 -22.702  19.203  1.00  0.00     0.016 C 
BRANCH   3   5
ATOM      5  C   UNL     1     -10.374 -20.406  19.706  1.00  0.00     0.015 C 
BRANCH   5   6
ATOM      6  C   UNL     1     -10.150 -19.367  20.821  1.00  0.00     0.028 C 
BRANCH   6   7
ATOM      7  C   UNL     1      -9.238 -19.853  21.922  1.00  0.00    -0.028 C 
ATOM      8  C   UNL     1      -9.615 -20.137  23.194  1.00  0.00    -0.070 CG0
ATOM      9  C   UNL     1      -8.572 -20.712  24.119  1.00  0.00     0.039 C 
ATOM     10  G   UNL     1     -11.008 -19.859  23.746  1.00  0.00     0.000 G0
ENDBRANCH   6   7
ENDBRANCH   5   6
ENDBRANCH   3   5
ENDBRANCH   1   3
BRANCH   1  11
ATOM     11  C   UNL     1     -11.950 -22.763  21.968  1.00  0.00     0.087 C 
BRANCH  11  12
ATOM     12  C   UNL     1     -12.667 -21.543  22.609  1.00  0.00     0.066 C 
BRANCH  12  13
ATOM     13  C   UNL     1     -11.889 -21.087  23.835  1.00  0.00     0.140 C 
ATOM     14  O   UNL     1     -12.003 -21.693  24.892  1.00  0.00    -0.299 OA
BRANCH  13  15
ATOM     15  C   UNL     1     -11.015 -19.859  23.765  1.00  0.00     0.106 CG0
ATOM     16  G   UNL     1      -9.623 -20.117  23.199  1.00  0.00     0.000 G0
ENDBRANCH  13  15
ENDBRANCH  12  13
BRANCH  12  17
ATOM     17  C   UNL     1     -14.165 -21.824  22.961  1.00  0.00    -0.006 C 
ATOM     18  C   UNL     1     -15.074 -21.577  21.742  1.00  0.00     0.008 C 
ATOM     19  C   UNL     1     -14.395 -23.263  23.460  1.00  0.00     0.008 C 
ENDBRANCH  12  17
ENDBRANCH  11  12
ENDBRANCH   1  11
TORSDOF 1
ENDMDL
MODEL 3
REMARK VINA RESULT:    -3.737      1.826      4.348
REMARK INTER + INTRA:          -5.895
REMARK INTER:                  -5.536
REMARK INTRA:                  -0.359
REMARK UNBOUND:                -0.191
REMARK SMILES CC1=CCC[C@H](C)C(=O)C[C@@H](C(C)C)C(=O)C1
REMARK SMILES IDX 8 1 9 2 6 3 7 4 5 5 4 6 3 7 2 8 1 9 10 11 11 12 15 13 16 14
REMARK SMILES IDX 17 15 12 17 13 18 14 19
REMARK H PARENT
REMARK Flexibility Score: 70.00
ROOT
ATOM      1  C   UNL     1      -9.102 -22.600  22.681  1.00  0.00     0.136 C 
ATOM      2  O   UNL     1      -7.993 -22.088  22.595  1.00  0.00    -0.299 OA
ENDROOT
BRANCH   1   3
ATOM      3  C   UNL     1      -9.827 -22.583  24.014  1.00  0.00     0.053 C 
ATOM      4  C   UNL     1      -9.061 -23.424  25.045  1.00  0.00     0.016 C 
BRANCH   3   5
ATOM      5  C   UNL     1     -10.010 -21.131  24.513  1.00  0.00     0.015 C 
BRANCH   5   6
ATOM      6  C   UNL     1     -10.973 -20.339  23.608  1.00  0.00     0.028 C 
BRANCH   6   7
ATOM      7  C   UNL     1     -12.328 -20.990  23.458  1.00  0.00    -0.028 C 
ATOM      8  C   UNL     1     -12.911 -21.339  22.284  1.00  0.00    -0.070 CG0
ATOM      9  C   UNL     1     -14.226 -22.075  22.350  1.00  0.00     0.039 C 
ATOM     10  G   UNL     1     -12.340 -20.985  20.916  1.00  0.00     0.000 G0
ENDBRANCH   6   7
ENDBRANCH   5   6
ENDBRANCH   3   5
ENDBRANCH   1   3
BRANCH   1  11
ATOM     11  C   UNL     1      -9.703 -23.253  21.456  1.00  0.00     0.087 C 
BRANCH  11  12
ATOM     12  C   UNL     1     -10.069 -22.212  20.363  1.00  0.00     0.066 C 
BRANCH  12  13
ATOM     13  C   UNL     1     -11.583 -22.126  20.233  1.00  0.00     0.140 C 
ATOM     14  O   UNL     1     -12.186 -22.948  19.555  1.00  0.00    -0.299 OA
BRANCH  13  15
ATOM     15  C   UNL     1     -12.338 -21.003  20.899  1.00  0.00     0.106 CG0
ATOM     16  G   UNL     1     -12.921 -21.364  22.259  1.00  0.00     0.000 G0
ENDBRANCH  13  15
ENDBRANCH  12  13
BRANCH  12  17
ATOM     17  C   UNL     1      -9.398 -22.509  18.981  1.00  0.00    -0.006 C 
ATOM     18  C   UNL     1      -9.704 -21.389  17.967  1.00  0.00     0.008 C 
ATOM     19  C   UNL     1      -7.870 -22.669  19.087  1.00  0.00     0.008 C 
ENDBRANCH  12  17
ENDBRANCH  11  12
ENDBRANCH   1  11
TORSDOF 1
ENDMDL
MODEL 4
REMARK VINA RESULT:    -3.730      1.778      2.064
REMARK INTER + INTRA:          -5.883
REMARK INTER:                  -5.532
REMARK INTRA:                  -0.351
REMARK UNBOUND:                -0.191
REMARK SMILES CC1=CCC[C@H](C)C(=O)C[C@@H](C(C)C)C(=O)C1
REMARK SMILES IDX 8 1 9 2 6 3 7 4 5 5 4 6 3 7 2 8 1 9 10 11 11 12 15 13 16 14
REMARK SMILES IDX 17 15 12 17 13 18 14 19
REMARK H PARENT
REMARK Flexibility Score: 70.00
ROOT
ATOM      1  C   UNL     1     -13.461 -21.389  21.948  1.00  0.00     0.136 C 
ATOM      2  O   UNL     1     -13.882 -21.471  20.802  1.00  0.00    -0.299 OA
ENDROOT
BRANCH   1   3
ATOM      3  C   UNL     1     -14.393 -21.695  23.106  1.00  0.00     0.053 C 
ATOM      4  C   UNL     1     -15.827 -21.272  22.760  1.00  0.00     0.016 C 
BRANCH   3   5
ATOM      5  C   UNL     1     -14.332 -23.198  23.466  1.00  0.00     0.015 C 
BRANCH   5   6
ATOM      6  C   UNL     1     -13.585 -23.433  24.792  1.00  0.00     0.028 C 
BRANCH   6   7
ATOM      7  C   UNL     1     -12.435 -24.404  24.669  1.00  0.00    -0.028 C 
ATOM      8  C   UNL     1     -11.130 -24.069  24.511  1.00  0.00    -0.070 CG0
ATOM      9  C   UNL     1     -10.117 -25.186  24.513  1.00  0.00     0.039 C 
ATOM     10  G   UNL     1     -10.644 -22.642  24.282  1.00  0.00     0.000 G0
ENDBRANCH   6   7
ENDBRANCH   5   6
ENDBRANCH   3   5
ENDBRANCH   1   3
BRANCH   1  11
ATOM     11  C   UNL     1     -12.028 -20.960  22.172  1.00  0.00     0.087 C 
BRANCH  11  12
ATOM     12  C   UNL     1     -11.018 -22.066  21.758  1.00  0.00     0.066 C 
BRANCH  12  13
ATOM     13  C   UNL     1     -10.083 -22.358  22.923  1.00  0.00     0.140 C 
ATOM     14  O   UNL     1      -8.874 -22.406  22.738  1.00  0.00    -0.299 OA
BRANCH  13  15
ATOM     15  C   UNL     1     -10.646 -22.636  24.294  1.00  0.00     0.106 CG0
ATOM     16  G   UNL     1     -11.131 -24.067  24.490  1.00  0.00     0.000 G0
ENDBRANCH  13  15
ENDBRANCH  12  13
BRANCH  12  17
ATOM     17  C   UNL     1     -10.216 -21.714  20.462  1.00  0.00    -0.006 C 
ATOM     18  C   UNL     1     -10.713 -22.545  19.263  1.00  0.00     0.008 C 
ATOM     19  C   UNL     1     -10.311 -20.221  20.095  1.00  0.00     0.008 C 
ENDBRANCH  12  17
ENDBRANCH  11  12
ENDBRANCH   1  11
TORSDOF 1
ENDMDL
MODEL 5
REMARK VINA RESULT:    -3.616      1.455      2.170
REMARK INTER + INTRA:          -5.710
REMARK INTER:                  -5.364
REMARK INTRA:                  -0.345
REMARK UNBOUND:                -0.191
REMARK SMILES CC1=CCC[C@H](C)C(=O)C[C@@H](C(C)C)C(=O)C1
REMARK SMILES IDX 8 1 9 2 6 3 7 4 5 5 4 6 3 7 2 8 1 9 10 11 11 12 15 13 16 14
REMARK SMILES IDX 17 15 12 17 13 18 14 19
REMARK H PARENT
REMARK Flexibility Score: 70.00
ROOT
ATOM      1  C   UNL     1     -14.003 -21.623  22.294  1.00  0.00     0.136 C 
ATOM      2  O   UNL     1     -14.751 -22.537  21.973  1.00  0.00    -0.299 OA
ENDROOT
BRANCH   1   3
ATOM      3  C   UNL     1     -13.971 -21.159  23.738  1.00  0.00     0.053 C 
ATOM      4  C   UNL     1     -15.356 -20.653  24.164  1.00  0.00     0.016 C 
BRANCH   3   5
ATOM      5  C   UNL     1     -13.492 -22.301  24.663  1.00  0.00     0.015 C 
BRANCH   5   6
ATOM      6  C   UNL     1     -11.965 -22.265  24.863  1.00  0.00     0.028 C 
BRANCH   6   7
ATOM      7  C   UNL     1     -11.431 -20.885  25.165  1.00  0.00    -0.028 C 
ATOM      8  C   UNL     1     -10.617 -20.158  24.359  1.00  0.00    -0.070 CG0
ATOM      9  C   UNL     1     -10.278 -18.755  24.793  1.00  0.00     0.039 C 
ATOM     10  G   UNL     1      -9.993 -20.698  23.078  1.00  0.00     0.000 G0
ENDBRANCH   6   7
ENDBRANCH   5   6
ENDBRANCH   3   5
ENDBRANCH   1   3
BRANCH   1  11
ATOM     11  C   UNL     1     -13.150 -20.970  21.229  1.00  0.00     0.087 C 
BRANCH  11  12
ATOM     12  C   UNL     1     -11.687 -21.494  21.252  1.00  0.00     0.066 C 
BRANCH  12  13
ATOM     13  C   UNL     1     -10.775 -20.419  21.826  1.00  0.00     0.140 C 
ATOM     14  O   UNL     1     -10.658 -19.345  21.250  1.00  0.00    -0.299 OA
BRANCH  13  15
ATOM     15  C   UNL     1      -9.976 -20.692  23.076  1.00  0.00     0.106 CG0
ATOM     16  G   UNL     1     -10.620 -20.168  24.354  1.00  0.00     0.000 G0
ENDBRANCH  13  15
ENDBRANCH  12  13
BRANCH  12  17
ATOM     17  C   UNL     1     -11.184 -21.976  19.852  1.00  0.00    -0.006 C 
ATOM     18  C   UNL     1      -9.817 -22.679  19.969  1.00  0.00     0.008 C 
ATOM     19  C   UNL     1     -12.172 -22.939  19.168  1.00  0.00     0.008 C 
ENDBRANCH  12  17
ENDBRANCH  11  12
ENDBRANCH   1  11
TORSDOF 1
ENDMDL
MODEL 6
REMARK VINA RESULT:    -3.590      6.399      8.484
REMARK INTER + INTRA:          -5.671
REMARK INTER:                  -5.310
REMARK INTRA:                  -0.361
REMARK UNBOUND:                -0.191
REMARK SMILES CC1=CCC[C@H](C)C(=O)C[C@@H](C(C)C)C(=O)C1
REMARK SMILES IDX 8 1 9 2 6 3 7 4 5 5 4 6 3 7 2 8 1 9 10 11 11 12 15 13 16 14
REMARK SMILES IDX 17 15 12 17 13 18 14 19
REMARK H PARENT
REMARK Flexibility Score: 70.00
ROOT
ATOM      1  C   UNL     1      -7.164 -15.481  23.029  1.00  0.00     0.136 C 
ATOM      2  O   UNL     1      -8.077 -14.687  22.840  1.00  0.00    -0.299 OA
ENDROOT
BRANCH   1   3
ATOM      3  C   UNL     1      -5.781 -14.957  23.368  1.00  0.00     0.053 C 
ATOM      4  C   UNL     1      -5.254 -14.073  22.229  1.00  0.00     0.016 C 
BRANCH   3   5
ATOM      5  C   UNL     1      -5.810 -14.178  24.703  1.00  0.00     0.015 C 
BRANCH   5   6
ATOM      6  C   UNL     1      -5.485 -15.092  25.900  1.00  0.00     0.028 C 
BRANCH   6   7
ATOM      7  C   UNL     1      -4.398 -16.099  25.608  1.00  0.00    -0.028 C 
ATOM      8  C   UNL     1      -4.565 -17.443  25.532  1.00  0.00    -0.070 CG0
ATOM      9  C   UNL     1      -3.373 -18.273  25.126  1.00  0.00     0.039 C 
ATOM     10  G   UNL     1      -5.866 -18.156  25.882  1.00  0.00     0.000 G0
ENDBRANCH   6   7
ENDBRANCH   5   6
ENDBRANCH   3   5
ENDBRANCH   1   3
BRANCH   1  11
ATOM     11  C   UNL     1      -7.444 -16.961  22.894  1.00  0.00     0.087 C 
BRANCH  11  12
ATOM     12  C   UNL     1      -7.847 -17.603  24.250  1.00  0.00     0.066 C 
BRANCH  12  13
ATOM     13  C   UNL     1      -6.742 -18.541  24.714  1.00  0.00     0.140 C 
ATOM     14  O   UNL     1      -6.575 -19.615  24.151  1.00  0.00    -0.299 OA
BRANCH  13  15
ATOM     15  C   UNL     1      -5.883 -18.172  25.898  1.00  0.00     0.106 CG0
ATOM     16  G   UNL     1      -4.583 -17.468  25.529  1.00  0.00     0.000 G0
ENDBRANCH  13  15
ENDBRANCH  12  13
BRANCH  12  17
ATOM     17  C   UNL     1      -9.228 -18.337  24.197  1.00  0.00    -0.006 C 
ATOM     18  C   UNL     1     -10.294 -17.567  25.001  1.00  0.00     0.008 C 
ATOM     19  C   UNL     1      -9.742 -18.526  22.757  1.00  0.00     0.008 C 
ENDBRANCH  12  17
ENDBRANCH  11  12
ENDBRANCH   1  11
TORSDOF 1
ENDMDL
MODEL 7
REMARK VINA RESULT:    -3.571      2.277      4.275
REMARK INTER + INTRA:          -5.641
REMARK INTER:                  -5.405
REMARK INTRA:                  -0.237
REMARK UNBOUND:                -0.191
REMARK SMILES CC1=CCC[C@H](C)C(=O)C[C@@H](C(C)C)C(=O)C1
REMARK SMILES IDX 8 1 9 2 6 3 7 4 5 5 4 6 3 7 2 8 1 9 10 11 11 12 15 13 16 14
REMARK SMILES IDX 17 15 12 17 13 18 14 19
REMARK H PARENT
REMARK Flexibility Score: 70.00
ROOT
ATOM      1  C   UNL     1     -15.107 -21.783  24.295  1.00  0.00     0.136 C 
ATOM      2  O   UNL     1     -14.856 -20.849  25.047  1.00  0.00    -0.299 OA
ENDROOT
BRANCH   1   3
ATOM      3  C   UNL     1     -16.236 -21.647  23.292  1.00  0.00     0.053 C 
ATOM      4  C   UNL     1     -16.886 -20.261  23.407  1.00  0.00     0.016 C 
BRANCH   3   5
ATOM      5  C   UNL     1     -15.718 -21.896  21.857  1.00  0.00     0.015 C 
BRANCH   5   6
ATOM      6  C   UNL     1     -14.519 -20.988  21.522  1.00  0.00     0.028 C 
BRANCH   6   7
ATOM      7  C   UNL     1     -13.506 -21.642  20.612  1.00  0.00    -0.028 C 
ATOM      8  C   UNL     1     -12.297 -22.126  20.993  1.00  0.00    -0.070 CG0
ATOM      9  C   UNL     1     -11.471 -22.839  19.952  1.00  0.00     0.039 C 
ATOM     10  G   UNL     1     -11.713 -21.943  22.389  1.00  0.00     0.000 G0
ENDBRANCH   6   7
ENDBRANCH   5   6
ENDBRANCH   3   5
ENDBRANCH   1   3
BRANCH   1  11
ATOM     11  C   UNL     1     -14.292 -23.052  24.411  1.00  0.00     0.087 C 
BRANCH  11  12
ATOM     12  C   UNL     1     -12.784 -22.757  24.638  1.00  0.00     0.066 C 
BRANCH  12  13
ATOM     13  C   UNL     1     -12.012 -23.062  23.362  1.00  0.00     0.140 C 
ATOM     14  O   UNL     1     -11.614 -24.200  23.146  1.00  0.00    -0.299 OA
BRANCH  13  15
ATOM     15  C   UNL     1     -11.693 -21.957  22.387  1.00  0.00     0.106 CG0
ATOM     16  G   UNL     1     -12.298 -22.154  21.002  1.00  0.00     0.000 G0
ENDBRANCH  13  15
ENDBRANCH  12  13
BRANCH  12  17
ATOM     17  C   UNL     1     -12.183 -23.526  25.861  1.00  0.00    -0.006 C 
ATOM     18  C   UNL     1     -10.917 -22.822  26.387  1.00  0.00     0.008 C 
ATOM     19  C   UNL     1     -13.186 -23.664  27.023  1.00  0.00     0.008 C 
ENDBRANCH  12  17
ENDBRANCH  11  12
ENDBRANCH   1  11
TORSDOF 1
ENDMDL
MODEL 8
REMARK VINA RESULT:    -3.525      5.962      7.557
REMARK INTER + INTRA:          -5.570
REMARK INTER:                  -5.403
REMARK INTRA:                  -0.167
REMARK UNBOUND:                -0.191
REMARK SMILES CC1=CCC[C@H](C)C(=O)C[C@@H](C(C)C)C(=O)C1
REMARK SMILES IDX 8 1 9 2 6 3 7 4 5 5 4 6 3 7 2 8 1 9 10 11 11 12 15 13 16 14
REMARK SMILES IDX 17 15 12 17 13 18 14 19
REMARK H PARENT
REMARK Flexibility Score: 70.00
ROOT
ATOM      1  C   UNL     1      -7.870 -15.431  23.231  1.00  0.00     0.136 C 
ATOM      2  O   UNL     1      -7.762 -14.611  22.328  1.00  0.00    -0.299 OA
ENDROOT
BRANCH   1   3
ATOM      3  C   UNL     1      -8.859 -16.572  23.086  1.00  0.00     0.053 C 
ATOM      4  C   UNL     1      -8.228 -17.726  22.295  1.00  0.00     0.016 C 
BRANCH   3   5
ATOM      5  C   UNL     1      -9.339 -17.052  24.475  1.00  0.00     0.015 C 
BRANCH   5   6
ATOM      6  C   UNL     1      -9.197 -18.578  24.628  1.00  0.00     0.028 C 
BRANCH   6   7
ATOM      7  C   UNL     1      -8.871 -19.013  26.037  1.00  0.00    -0.028 C 
ATOM      8  C   UNL     1      -7.651 -18.938  26.625  1.00  0.00    -0.070 CG0
ATOM      9  C   UNL     1      -7.552 -19.327  28.079  1.00  0.00     0.039 C 
ATOM     10  G   UNL     1      -6.379 -18.535  25.889  1.00  0.00     0.000 G0
ENDBRANCH   6   7
ENDBRANCH   5   6
ENDBRANCH   3   5
ENDBRANCH   1   3
BRANCH   1  11
ATOM     11  C   UNL     1      -7.026 -15.262  24.475  1.00  0.00     0.087 C 
BRANCH  11  12
ATOM     12  C   UNL     1      -5.913 -16.342  24.574  1.00  0.00     0.066 C 
BRANCH  12  13
ATOM     13  C   UNL     1      -6.048 -17.086  25.894  1.00  0.00     0.140 C 
ATOM     14  O   UNL     1      -5.867 -16.495  26.951  1.00  0.00    -0.299 OA
BRANCH  13  15
ATOM     15  C   UNL     1      -6.356 -18.563  25.903  1.00  0.00     0.106 CG0
ATOM     16  G   UNL     1      -7.654 -18.924  26.617  1.00  0.00     0.000 G0
ENDBRANCH  13  15
ENDBRANCH  12  13
BRANCH  12  17
ATOM     17  C   UNL     1      -4.472 -15.759  24.397  1.00  0.00    -0.006 C 
ATOM     18  C   UNL     1      -3.877 -16.164  23.034  1.00  0.00     0.008 C 
ATOM     19  C   UNL     1      -4.438 -14.223  24.510  1.00  0.00     0.008 C 
ENDBRANCH  12  17
ENDBRANCH  11  12
ENDBRANCH   1  11
TORSDOF 1
ENDMDL
MODEL 9
REMARK VINA RESULT:    -3.482      1.945      4.087
REMARK INTER + INTRA:          -5.505
REMARK INTER:                  -5.739
REMARK INTRA:                   0.234
REMARK UNBOUND:                -0.191
REMARK SMILES CC1=CCC[C@H](C)C(=O)C[C@@H](C(C)C)C(=O)C1
REMARK SMILES IDX 8 1 9 2 6 3 7 4 5 5 4 6 3 7 2 8 1 9 10 11 11 12 15 13 16 14
REMARK SMILES IDX 17 15 12 17 13 18 14 19
REMARK H PARENT
REMARK Flexibility Score: 70.00
ROOT
ATOM      1  C   UNL     1     -13.346 -22.040  21.313  1.00  0.00     0.136 C 
ATOM      2  O   UNL     1     -13.382 -20.935  20.785  1.00  0.00    -0.299 OA
ENDROOT
BRANCH   1   3
ATOM      3  C   UNL     1     -12.226 -22.999  20.954  1.00  0.00     0.053 C 
ATOM      4  C   UNL     1     -11.427 -22.460  19.759  1.00  0.00     0.016 C 
BRANCH   3   5
ATOM      5  C   UNL     1     -11.305 -23.235  22.173  1.00  0.00     0.015 C 
BRANCH   5   6
ATOM      6  C   UNL     1     -11.881 -24.306  23.119  1.00  0.00     0.028 C 
BRANCH   6   7
ATOM      7  C   UNL     1     -11.506 -24.093  24.566  1.00  0.00    -0.028 C 
ATOM      8  C   UNL     1     -12.315 -23.581  25.527  1.00  0.00    -0.070 CG0
ATOM      9  C   UNL     1     -11.787 -23.545  26.939  1.00  0.00     0.039 C 
ATOM     10  G   UNL     1     -13.696 -23.000  25.248  1.00  0.00     0.000 G0
ENDBRANCH   6   7
ENDBRANCH   5   6
ENDBRANCH   3   5
ENDBRANCH   1   3
BRANCH   1  11
ATOM     11  C   UNL     1     -14.436 -22.418  22.291  1.00  0.00     0.087 C 
BRANCH  11  12
ATOM     12  C   UNL     1     -14.610 -21.353  23.408  1.00  0.00     0.066 C 
BRANCH  12  13
ATOM     13  C   UNL     1     -13.640 -21.648  24.543  1.00  0.00     0.140 C 
ATOM     14  O   UNL     1     -12.799 -20.816  24.860  1.00  0.00    -0.299 OA
BRANCH  13  15
ATOM     15  C   UNL     1     -13.679 -22.982  25.246  1.00  0.00     0.106 CG0
ATOM     16  G   UNL     1     -12.306 -23.582  25.521  1.00  0.00     0.000 G0
ENDBRANCH  13  15
ENDBRANCH  12  13
BRANCH  12  17
ATOM     17  C   UNL     1     -16.080 -21.247  23.933  1.00  0.00    -0.006 C 
ATOM     18  C   UNL     1     -16.253 -20.015  24.844  1.00  0.00     0.008 C 
ATOM     19  C   UNL     1     -17.111 -21.160  22.792  1.00  0.00     0.008 C 
ENDBRANCH  12  17
ENDBRANCH  11  12
ENDBRANCH   1  11
TORSDOF 1
ENDMDL
