MODEL 1
REMARK VINA RESULT:    -5.429      0.000      0.000
REMARK INTER + INTRA:         -11.112
REMARK INTER:                 -10.189
REMARK INTRA:                  -0.923
REMARK UNBOUND:                -0.923
REMARK SMILES O=C([O-])CCCCCCCCCCCCCCC(=O)[O-]
REMARK SMILES IDX 10 1 9 2 8 3 7 4 6 5 5 6 4 7 2 8 1 9 3 10 11 11 12 12 13 13
REMARK SMILES IDX 14 14 15 15 16 16 17 17 18 18 19 19 20 20
REMARK H PARENT
REMARK Flexibility Score: inf
ROOT
ATOM      1  C   UNL     1     254.516 260.812 246.465  1.00  0.00     0.000 C 
ENDROOT
BRANCH   1   2
ATOM      2  C   UNL     1     254.168 259.559 245.652  1.00  0.00     0.000 C 
BRANCH   2   3
ATOM      3  C   UNL     1     253.409 258.538 246.512  1.00  0.00     0.000 C 
BRANCH   3   4
ATOM      4  C   UNL     1     252.046 259.064 246.993  1.00  0.00     0.000 C 
BRANCH   4   5
ATOM      5  C   UNL     1     250.971 257.964 247.032  1.00  0.00     0.000 C 
BRANCH   5   6
ATOM      6  C   UNL     1     249.584 258.508 247.412  1.00  0.00     0.006 C 
BRANCH   6   7
ATOM      7  C   UNL     1     248.473 258.007 246.479  1.00  0.00     0.053 C 
BRANCH   7   8
ATOM      8  C   UNL     1     247.941 259.132 245.650  1.00  0.00     0.041 C 
ATOM      9  O   UNL     1     248.425 260.290 245.766  1.00  0.00    -0.550 OA
ATOM     10  O   UNL     1     246.876 258.915 244.785  1.00  0.00    -0.550 OA
ENDBRANCH   7   8
ENDBRANCH   6   7
ENDBRANCH   5   6
ENDBRANCH   4   5
ENDBRANCH   3   4
ENDBRANCH   2   3
ENDBRANCH   1   2
BRANCH   1  11
ATOM     11  C   UNL     1     256.011 260.839 246.822  1.00  0.00     0.000 C 
BRANCH  11  12
ATOM     12  C   UNL     1     256.279 260.457 248.286  1.00  0.00     0.000 C 
BRANCH  12  13
ATOM     13  C   UNL     1     255.094 260.786 249.209  1.00  0.00     0.000 C 
BRANCH  13  14
ATOM     14  C   UNL     1     255.437 260.598 250.697  1.00  0.00     0.000 C 
BRANCH  14  15
ATOM     15  C   UNL     1     255.526 261.936 251.453  1.00  0.00     0.000 C 
BRANCH  15  16
ATOM     16  C   UNL     1     254.314 262.184 252.370  1.00  0.00     0.006 C 
BRANCH  16  17
ATOM     17  C   UNL     1     254.619 262.063 253.872  1.00  0.00     0.053 C 
BRANCH  17  18
ATOM     18  C   UNL     1     254.079 260.792 254.454  1.00  0.00     0.041 C 
ATOM     19  O   UNL     1     253.211 260.126 253.828  1.00  0.00    -0.550 OA
ATOM     20  O   UNL     1     254.561 260.324 255.670  1.00  0.00    -0.550 OA
ENDBRANCH  17  18
ENDBRANCH  16  17
ENDBRANCH  15  16
ENDBRANCH  14  15
ENDBRANCH  13  14
ENDBRANCH  12  13
ENDBRANCH  11  12
ENDBRANCH   1  11
TORSDOF 15
ENDMDL
MODEL 2
REMARK VINA RESULT:    -5.354      4.262      6.925
REMARK INTER + INTRA:         -10.972
REMARK INTER:                  -8.906
REMARK INTRA:                  -2.066
REMARK UNBOUND:                -0.923
REMARK SMILES O=C([O-])CCCCCCCCCCCCCCC(=O)[O-]
REMARK SMILES IDX 10 1 9 2 8 3 7 4 6 5 5 6 4 7 2 8 1 9 3 10 11 11 12 12 13 13
REMARK SMILES IDX 14 14 15 15 16 16 17 17 18 18 19 19 20 20
REMARK H PARENT
REMARK Flexibility Score: inf
ROOT
ATOM      1  C   UNL     1     253.289 259.295 246.166  1.00  0.00     0.000 C 
ENDROOT
BRANCH   1   2
ATOM      2  C   UNL     1     254.126 260.580 246.146  1.00  0.00     0.000 C 
BRANCH   2   3
ATOM      3  C   UNL     1     255.314 260.449 245.181  1.00  0.00     0.000 C 
BRANCH   3   4
ATOM      4  C   UNL     1     256.494 261.357 245.567  1.00  0.00     0.000 C 
BRANCH   4   5
ATOM      5  C   UNL     1     257.646 261.289 244.550  1.00  0.00     0.000 C 
BRANCH   5   6
ATOM      6  C   UNL     1     258.984 260.898 245.198  1.00  0.00     0.006 C 
BRANCH   6   7
ATOM      7  C   UNL     1     259.053 261.266 246.686  1.00  0.00     0.053 C 
BRANCH   7   8
ATOM      8  C   UNL     1     259.968 260.332 247.413  1.00  0.00     0.041 C 
ATOM      9  O   UNL     1     260.142 260.453 248.654  1.00  0.00    -0.550 OA
ATOM     10  O   UNL     1     260.669 259.360 246.711  1.00  0.00    -0.550 OA
ENDBRANCH   7   8
ENDBRANCH   6   7
ENDBRANCH   5   6
ENDBRANCH   4   5
ENDBRANCH   3   4
ENDBRANCH   2   3
ENDBRANCH   1   2
BRANCH   1  11
ATOM     11  C   UNL     1     252.815 258.969 247.591  1.00  0.00     0.000 C 
BRANCH  11  12
ATOM     12  C   UNL     1     253.246 257.570 248.055  1.00  0.00     0.000 C 
BRANCH  12  13
ATOM     13  C   UNL     1     254.762 257.468 248.298  1.00  0.00     0.000 C 
BRANCH  13  14
ATOM     14  C   UNL     1     255.267 258.513 249.308  1.00  0.00     0.000 C 
BRANCH  14  15
ATOM     15  C   UNL     1     256.394 259.389 248.731  1.00  0.00     0.000 C 
BRANCH  15  16
ATOM     16  C   UNL     1     256.311 260.852 249.203  1.00  0.00     0.006 C 
BRANCH  16  17
ATOM     17  C   UNL     1     255.314 261.095 250.348  1.00  0.00     0.053 C 
BRANCH  17  18
ATOM     18  C   UNL     1     255.975 261.699 251.549  1.00  0.00     0.041 C 
ATOM     19  O   UNL     1     255.671 261.303 252.706  1.00  0.00    -0.550 OA
ATOM     20  O   UNL     1     256.953 262.673 251.389  1.00  0.00    -0.550 OA
ENDBRANCH  17  18
ENDBRANCH  16  17
ENDBRANCH  15  16
ENDBRANCH  14  15
ENDBRANCH  13  14
ENDBRANCH  12  13
ENDBRANCH  11  12
ENDBRANCH   1  11
TORSDOF 15
ENDMDL
MODEL 3
REMARK VINA RESULT:    -5.344      1.628      2.770
REMARK INTER + INTRA:         -10.953
REMARK INTER:                  -9.594
REMARK INTRA:                  -1.358
REMARK UNBOUND:                -0.923
REMARK SMILES O=C([O-])CCCCCCCCCCCCCCC(=O)[O-]
REMARK SMILES IDX 10 1 9 2 8 3 7 4 6 5 5 6 4 7 2 8 1 9 3 10 11 11 12 12 13 13
REMARK SMILES IDX 14 14 15 15 16 16 17 17 18 18 19 19 20 20
REMARK H PARENT
REMARK Flexibility Score: inf
ROOT
ATOM      1  C   UNL     1     253.795 257.938 246.645  1.00  0.00     0.000 C 
ENDROOT
BRANCH   1   2
ATOM      2  C   UNL     1     252.998 256.740 246.112  1.00  0.00     0.000 C 
BRANCH   2   3
ATOM      3  C   UNL     1     251.718 256.522 246.932  1.00  0.00     0.000 C 
BRANCH   3   4
ATOM      4  C   UNL     1     251.271 257.787 247.683  1.00  0.00     0.000 C 
BRANCH   4   5
ATOM      5  C   UNL     1     250.133 258.529 246.961  1.00  0.00     0.000 C 
BRANCH   5   6
ATOM      6  C   UNL     1     248.780 257.813 247.103  1.00  0.00     0.006 C 
BRANCH   6   7
ATOM      7  C   UNL     1     248.256 257.261 245.771  1.00  0.00     0.053 C 
BRANCH   7   8
ATOM      8  C   UNL     1     247.085 258.062 245.298  1.00  0.00     0.041 C 
ATOM      9  O   UNL     1     245.979 257.499 245.078  1.00  0.00    -0.550 OA
ATOM     10  O   UNL     1     247.226 259.421 245.052  1.00  0.00    -0.550 OA
ENDBRANCH   7   8
ENDBRANCH   6   7
ENDBRANCH   5   6
ENDBRANCH   4   5
ENDBRANCH   3   4
ENDBRANCH   2   3
ENDBRANCH   1   2
BRANCH   1  11
ATOM     11  C   UNL     1     254.117 258.930 245.516  1.00  0.00     0.000 C 
BRANCH  11  12
ATOM     12  C   UNL     1     254.469 260.331 246.040  1.00  0.00     0.000 C 
BRANCH  12  13
ATOM     13  C   UNL     1     253.340 260.947 246.883  1.00  0.00     0.000 C 
BRANCH  13  14
ATOM     14  C   UNL     1     253.771 261.220 248.334  1.00  0.00     0.000 C 
BRANCH  14  15
ATOM     15  C   UNL     1     255.166 260.650 248.649  1.00  0.00     0.000 C 
BRANCH  15  16
ATOM     16  C   UNL     1     255.404 260.458 250.158  1.00  0.00     0.006 C 
BRANCH  16  17
ATOM     17  C   UNL     1     256.175 261.605 250.831  1.00  0.00     0.053 C 
BRANCH  17  18
ATOM     18  C   UNL     1     255.504 262.071 252.087  1.00  0.00     0.041 C 
ATOM     19  O   UNL     1     256.117 262.028 253.187  1.00  0.00    -0.550 OA
ATOM     20  O   UNL     1     254.215 262.587 252.037  1.00  0.00    -0.550 OA
ENDBRANCH  17  18
ENDBRANCH  16  17
ENDBRANCH  15  16
ENDBRANCH  14  15
ENDBRANCH  13  14
ENDBRANCH  12  13
ENDBRANCH  11  12
ENDBRANCH   1  11
TORSDOF 15
ENDMDL
MODEL 4
REMARK VINA RESULT:    -5.320      4.016      6.669
REMARK INTER + INTRA:         -10.909
REMARK INTER:                  -8.720
REMARK INTRA:                  -2.189
REMARK UNBOUND:                -0.923
REMARK SMILES O=C([O-])CCCCCCCCCCCCCCC(=O)[O-]
REMARK SMILES IDX 10 1 9 2 8 3 7 4 6 5 5 6 4 7 2 8 1 9 3 10 11 11 12 12 13 13
REMARK SMILES IDX 14 14 15 15 16 16 17 17 18 18 19 19 20 20
REMARK H PARENT
REMARK Flexibility Score: inf
ROOT
ATOM      1  C   UNL     1     253.261 259.595 247.266  1.00  0.00     0.000 C 
ENDROOT
BRANCH   1   2
ATOM      2  C   UNL     1     254.017 260.893 246.958  1.00  0.00     0.000 C 
BRANCH   2   3
ATOM      3  C   UNL     1     254.956 260.713 245.755  1.00  0.00     0.000 C 
BRANCH   3   4
ATOM      4  C   UNL     1     256.375 261.239 246.027  1.00  0.00     0.000 C 
BRANCH   4   5
ATOM      5  C   UNL     1     256.929 260.766 247.382  1.00  0.00     0.000 C 
BRANCH   5   6
ATOM      6  C   UNL     1     258.436 261.032 247.529  1.00  0.00     0.006 C 
BRANCH   6   7
ATOM      7  C   UNL     1     258.742 262.412 248.124  1.00  0.00     0.053 C 
BRANCH   7   8
ATOM      8  C   UNL     1     259.160 262.283 249.554  1.00  0.00     0.041 C 
ATOM      9  O   UNL     1     260.298 261.827 249.844  1.00  0.00    -0.550 OA
ATOM     10  O   UNL     1     258.274 262.620 250.570  1.00  0.00    -0.550 OA
ENDBRANCH   7   8
ENDBRANCH   6   7
ENDBRANCH   5   6
ENDBRANCH   4   5
ENDBRANCH   3   4
ENDBRANCH   2   3
ENDBRANCH   1   2
BRANCH   1  11
ATOM     11  C   UNL     1     254.000 258.378 246.687  1.00  0.00     0.000 C 
BRANCH  11  12
ATOM     12  C   UNL     1     254.368 257.341 247.759  1.00  0.00     0.000 C 
BRANCH  12  13
ATOM     13  C   UNL     1     255.421 257.864 248.750  1.00  0.00     0.000 C 
BRANCH  13  14
ATOM     14  C   UNL     1     255.089 257.502 250.208  1.00  0.00     0.000 C 
BRANCH  14  15
ATOM     15  C   UNL     1     254.870 258.747 251.087  1.00  0.00     0.000 C 
BRANCH  15  16
ATOM     16  C   UNL     1     255.749 259.937 250.662  1.00  0.00     0.006 C 
BRANCH  16  17
ATOM     17  C   UNL     1     255.001 261.276 250.560  1.00  0.00     0.053 C 
BRANCH  17  18
ATOM     18  C   UNL     1     254.941 261.987 251.877  1.00  0.00     0.041 C 
ATOM     19  O   UNL     1     253.967 262.740 252.147  1.00  0.00    -0.550 OA
ATOM     20  O   UNL     1     255.942 261.791 252.820  1.00  0.00    -0.550 OA
ENDBRANCH  17  18
ENDBRANCH  16  17
ENDBRANCH  15  16
ENDBRANCH  14  15
ENDBRANCH  13  14
ENDBRANCH  12  13
ENDBRANCH  11  12
ENDBRANCH   1  11
TORSDOF 15
ENDMDL
MODEL 5
REMARK VINA RESULT:    -5.294      4.720      6.605
REMARK INTER + INTRA:         -10.860
REMARK INTER:                  -9.683
REMARK INTRA:                  -1.176
REMARK UNBOUND:                -0.923
REMARK SMILES O=C([O-])CCCCCCCCCCCCCCC(=O)[O-]
REMARK SMILES IDX 10 1 9 2 8 3 7 4 6 5 5 6 4 7 2 8 1 9 3 10 11 11 12 12 13 13
REMARK SMILES IDX 14 14 15 15 16 16 17 17 18 18 19 19 20 20
REMARK H PARENT
REMARK Flexibility Score: inf
ROOT
ATOM      1  C   UNL     1     254.331 260.740 247.367  1.00  0.00     0.000 C 
ENDROOT
BRANCH   1   2
ATOM      2  C   UNL     1     254.884 260.876 245.943  1.00  0.00     0.000 C 
BRANCH   2   3
ATOM      3  C   UNL     1     256.361 261.299 245.963  1.00  0.00     0.000 C 
BRANCH   3   4
ATOM      4  C   UNL     1     257.083 260.993 244.640  1.00  0.00     0.000 C 
BRANCH   4   5
ATOM      5  C   UNL     1     258.475 261.643 244.566  1.00  0.00     0.000 C 
BRANCH   5   6
ATOM      6  C   UNL     1     258.848 262.389 245.857  1.00  0.00     0.006 C 
BRANCH   6   7
ATOM      7  C   UNL     1     260.163 261.892 246.472  1.00  0.00     0.053 C 
BRANCH   7   8
ATOM      8  C   UNL     1     260.012 260.485 246.959  1.00  0.00     0.041 C 
ATOM      9  O   UNL     1     260.694 259.560 246.444  1.00  0.00    -0.550 OA
ATOM     10  O   UNL     1     259.082 260.187 247.946  1.00  0.00    -0.550 OA
ENDBRANCH   7   8
ENDBRANCH   6   7
ENDBRANCH   5   6
ENDBRANCH   4   5
ENDBRANCH   3   4
ENDBRANCH   2   3
ENDBRANCH   1   2
BRANCH   1  11
ATOM     11  C   UNL     1     255.466 260.771 248.403  1.00  0.00     0.000 C 
BRANCH  11  12
ATOM     12  C   UNL     1     255.545 259.483 249.236  1.00  0.00     0.000 C 
BRANCH  12  13
ATOM     13  C   UNL     1     255.082 259.688 250.688  1.00  0.00     0.000 C 
BRANCH  13  14
ATOM     14  C   UNL     1     255.713 260.932 251.337  1.00  0.00     0.000 C 
BRANCH  14  15
ATOM     15  C   UNL     1     254.661 261.985 251.731  1.00  0.00     0.000 C 
BRANCH  15  16
ATOM     16  C   UNL     1     254.523 262.146 253.256  1.00  0.00     0.006 C 
BRANCH  16  17
ATOM     17  C   UNL     1     254.120 260.862 253.998  1.00  0.00     0.053 C 
BRANCH  17  18
ATOM     18  C   UNL     1     255.022 260.577 255.159  1.00  0.00     0.041 C 
ATOM     19  O   UNL     1     256.258 260.805 255.073  1.00  0.00    -0.550 OA
ATOM     20  O   UNL     1     254.492 260.095 256.350  1.00  0.00    -0.550 OA
ENDBRANCH  17  18
ENDBRANCH  16  17
ENDBRANCH  15  16
ENDBRANCH  14  15
ENDBRANCH  13  14
ENDBRANCH  12  13
ENDBRANCH  11  12
ENDBRANCH   1  11
TORSDOF 15
ENDMDL
MODEL 6
REMARK VINA RESULT:    -5.286      3.852      5.701
REMARK INTER + INTRA:         -10.843
REMARK INTER:                  -9.050
REMARK INTRA:                  -1.793
REMARK UNBOUND:                -0.923
REMARK SMILES O=C([O-])CCCCCCCCCCCCCCC(=O)[O-]
REMARK SMILES IDX 10 1 9 2 8 3 7 4 6 5 5 6 4 7 2 8 1 9 3 10 11 11 12 12 13 13
REMARK SMILES IDX 14 14 15 15 16 16 17 17 18 18 19 19 20 20
REMARK H PARENT
REMARK Flexibility Score: inf
ROOT
ATOM      1  C   UNL     1     253.813 257.113 247.269  1.00  0.00     0.000 C 
ENDROOT
BRANCH   1   2
ATOM      2  C   UNL     1     253.682 258.184 246.179  1.00  0.00     0.000 C 
BRANCH   2   3
ATOM      3  C   UNL     1     252.968 259.433 246.716  1.00  0.00     0.000 C 
BRANCH   3   4
ATOM      4  C   UNL     1     253.775 260.722 246.488  1.00  0.00     0.000 C 
BRANCH   4   5
ATOM      5  C   UNL     1     254.947 260.518 245.513  1.00  0.00     0.000 C 
BRANCH   5   6
ATOM      6  C   UNL     1     256.207 261.292 245.932  1.00  0.00     0.006 C 
BRANCH   6   7
ATOM      7  C   UNL     1     257.292 261.295 244.848  1.00  0.00     0.053 C 
BRANCH   7   8
ATOM      8  C   UNL     1     258.190 262.480 245.011  1.00  0.00     0.041 C 
ATOM      9  O   UNL     1     257.766 263.638 244.755  1.00  0.00    -0.550 OA
ATOM     10  O   UNL     1     259.512 262.302 245.399  1.00  0.00    -0.550 OA
ENDBRANCH   7   8
ENDBRANCH   6   7
ENDBRANCH   5   6
ENDBRANCH   4   5
ENDBRANCH   3   4
ENDBRANCH   2   3
ENDBRANCH   1   2
BRANCH   1  11
ATOM     11  C   UNL     1     253.442 257.683 248.647  1.00  0.00     0.000 C 
BRANCH  11  12
ATOM     12  C   UNL     1     254.494 257.369 249.722  1.00  0.00     0.000 C 
BRANCH  12  13
ATOM     13  C   UNL     1     255.155 258.637 250.290  1.00  0.00     0.000 C 
BRANCH  13  14
ATOM     14  C   UNL     1     255.839 259.481 249.201  1.00  0.00     0.000 C 
BRANCH  14  15
ATOM     15  C   UNL     1     256.114 260.924 249.664  1.00  0.00     0.000 C 
BRANCH  15  16
ATOM     16  C   UNL     1     255.086 261.425 250.695  1.00  0.00     0.006 C 
BRANCH  16  17
ATOM     17  C   UNL     1     255.703 261.983 251.987  1.00  0.00     0.053 C 
BRANCH  17  18
ATOM     18  C   UNL     1     254.829 261.736 253.178  1.00  0.00     0.041 C 
ATOM     19  O   UNL     1     253.908 260.878 253.123  1.00  0.00    -0.550 OA
ATOM     20  O   UNL     1     255.054 262.427 254.362  1.00  0.00    -0.550 OA
ENDBRANCH  17  18
ENDBRANCH  16  17
ENDBRANCH  15  16
ENDBRANCH  14  15
ENDBRANCH  13  14
ENDBRANCH  12  13
ENDBRANCH  11  12
ENDBRANCH   1  11
TORSDOF 15
ENDMDL
MODEL 7
REMARK VINA RESULT:    -5.278      4.465      7.083
REMARK INTER + INTRA:         -10.829
REMARK INTER:                  -9.144
REMARK INTRA:                  -1.685
REMARK UNBOUND:                -0.923
REMARK SMILES O=C([O-])CCCCCCCCCCCCCCC(=O)[O-]
REMARK SMILES IDX 10 1 9 2 8 3 7 4 6 5 5 6 4 7 2 8 1 9 3 10 11 11 12 12 13 13
REMARK SMILES IDX 14 14 15 15 16 16 17 17 18 18 19 19 20 20
REMARK H PARENT
REMARK Flexibility Score: inf
ROOT
ATOM      1  C   UNL     1     255.949 260.580 246.915  1.00  0.00     0.000 C 
ENDROOT
BRANCH   1   2
ATOM      2  C   UNL     1     254.524 260.878 247.399  1.00  0.00     0.000 C 
BRANCH   2   3
ATOM      3  C   UNL     1     254.334 260.440 248.859  1.00  0.00     0.000 C 
BRANCH   3   4
ATOM      4  C   UNL     1     255.668 260.167 249.573  1.00  0.00     0.000 C 
BRANCH   4   5
ATOM      5  C   UNL     1     255.601 260.465 251.081  1.00  0.00     0.000 C 
BRANCH   5   6
ATOM      6  C   UNL     1     255.486 261.968 251.381  1.00  0.00     0.006 C 
BRANCH   6   7
ATOM      7  C   UNL     1     254.267 262.311 252.247  1.00  0.00     0.053 C 
BRANCH   7   8
ATOM      8  C   UNL     1     254.367 261.638 253.579  1.00  0.00     0.041 C 
ATOM      9  O   UNL     1     255.281 261.958 254.384  1.00  0.00    -0.550 OA
ATOM     10  O   UNL     1     253.481 260.621 253.912  1.00  0.00    -0.550 OA
ENDBRANCH   7   8
ENDBRANCH   6   7
ENDBRANCH   5   6
ENDBRANCH   4   5
ENDBRANCH   3   4
ENDBRANCH   2   3
ENDBRANCH   1   2
BRANCH   1  11
ATOM     11  C   UNL     1     256.379 261.575 245.826  1.00  0.00     0.000 C 
BRANCH  11  12
ATOM     12  C   UNL     1     257.144 260.903 244.676  1.00  0.00     0.000 C 
BRANCH  12  13
ATOM     13  C   UNL     1     258.633 261.289 244.651  1.00  0.00     0.000 C 
BRANCH  13  14
ATOM     14  C   UNL     1     259.117 261.853 245.997  1.00  0.00     0.000 C 
BRANCH  14  15
ATOM     15  C   UNL     1     259.750 260.773 246.893  1.00  0.00     0.000 C 
BRANCH  15  16
ATOM     16  C   UNL     1     259.325 260.898 248.368  1.00  0.00     0.006 C 
BRANCH  16  17
ATOM     17  C   UNL     1     258.680 262.245 248.730  1.00  0.00     0.053 C 
BRANCH  17  18
ATOM     18  C   UNL     1     259.548 263.056 249.643  1.00  0.00     0.041 C 
ATOM     19  O   UNL     1     259.936 264.204 249.295  1.00  0.00    -0.550 OA
ATOM     20  O   UNL     1     259.898 262.561 250.893  1.00  0.00    -0.550 OA
ENDBRANCH  17  18
ENDBRANCH  16  17
ENDBRANCH  15  16
ENDBRANCH  14  15
ENDBRANCH  13  14
ENDBRANCH  12  13
ENDBRANCH  11  12
ENDBRANCH   1  11
TORSDOF 15
ENDMDL
MODEL 8
REMARK VINA RESULT:    -5.246      3.740      7.151
REMARK INTER + INTRA:         -10.769
REMARK INTER:                  -9.215
REMARK INTRA:                  -1.554
REMARK UNBOUND:                -0.923
REMARK SMILES O=C([O-])CCCCCCCCCCCCCCC(=O)[O-]
REMARK SMILES IDX 10 1 9 2 8 3 7 4 6 5 5 6 4 7 2 8 1 9 3 10 11 11 12 12 13 13
REMARK SMILES IDX 14 14 15 15 16 16 17 17 18 18 19 19 20 20
REMARK H PARENT
REMARK Flexibility Score: inf
ROOT
ATOM      1  C   UNL     1     254.963 260.893 246.927  1.00  0.00     0.000 C 
ENDROOT
BRANCH   1   2
ATOM      2  C   UNL     1     256.414 260.786 247.413  1.00  0.00     0.000 C 
BRANCH   2   3
ATOM      3  C   UNL     1     256.471 260.555 248.931  1.00  0.00     0.000 C 
BRANCH   3   4
ATOM      4  C   UNL     1     257.355 261.584 249.655  1.00  0.00     0.000 C 
BRANCH   4   5
ATOM      5  C   UNL     1     256.729 262.074 250.972  1.00  0.00     0.000 C 
BRANCH   5   6
ATOM      6  C   UNL     1     255.479 261.272 251.366  1.00  0.00     0.006 C 
BRANCH   6   7
ATOM      7  C   UNL     1     254.462 262.107 252.155  1.00  0.00     0.053 C 
BRANCH   7   8
ATOM      8  C   UNL     1     254.225 261.505 253.504  1.00  0.00     0.041 C 
ATOM      9  O   UNL     1     253.376 260.586 253.648  1.00  0.00    -0.550 OA
ATOM     10  O   UNL     1     254.908 261.992 254.611  1.00  0.00    -0.550 OA
ENDBRANCH   7   8
ENDBRANCH   6   7
ENDBRANCH   5   6
ENDBRANCH   4   5
ENDBRANCH   3   4
ENDBRANCH   2   3
ENDBRANCH   1   2
BRANCH   1  11
ATOM     11  C   UNL     1     254.772 260.146 245.598  1.00  0.00     0.000 C 
BRANCH  11  12
ATOM     12  C   UNL     1     253.981 258.839 245.760  1.00  0.00     0.000 C 
BRANCH  12  13
ATOM     13  C   UNL     1     252.746 259.002 246.662  1.00  0.00     0.000 C 
BRANCH  13  14
ATOM     14  C   UNL     1     252.650 257.904 247.734  1.00  0.00     0.000 C 
BRANCH  14  15
ATOM     15  C   UNL     1     253.813 257.963 248.741  1.00  0.00     0.000 C 
BRANCH  15  16
ATOM     16  C   UNL     1     254.545 256.617 248.885  1.00  0.00     0.006 C 
BRANCH  16  17
ATOM     17  C   UNL     1     256.077 256.713 248.796  1.00  0.00     0.053 C 
BRANCH  17  18
ATOM     18  C   UNL     1     256.745 255.445 249.231  1.00  0.00     0.041 C 
ATOM     19  O   UNL     1     257.161 254.621 248.373  1.00  0.00    -0.550 OA
ATOM     20  O   UNL     1     256.942 255.189 250.582  1.00  0.00    -0.550 OA
ENDBRANCH  17  18
ENDBRANCH  16  17
ENDBRANCH  15  16
ENDBRANCH  14  15
ENDBRANCH  13  14
ENDBRANCH  12  13
ENDBRANCH  11  12
ENDBRANCH   1  11
TORSDOF 15
ENDMDL
MODEL 9
REMARK VINA RESULT:    -5.178      3.567      6.463
REMARK INTER + INTRA:         -10.641
REMARK INTER:                  -8.611
REMARK INTRA:                  -2.030
REMARK UNBOUND:                -0.923
REMARK SMILES O=C([O-])CCCCCCCCCCCCCCC(=O)[O-]
REMARK SMILES IDX 10 1 9 2 8 3 7 4 6 5 5 6 4 7 2 8 1 9 3 10 11 11 12 12 13 13
REMARK SMILES IDX 14 14 15 15 16 16 17 17 18 18 19 19 20 20
REMARK H PARENT
REMARK Flexibility Score: inf
ROOT
ATOM      1  C   UNL     1     255.439 259.698 249.981  1.00  0.00     0.000 C 
ENDROOT
BRANCH   1   2
ATOM      2  C   UNL     1     255.118 260.825 248.992  1.00  0.00     0.000 C 
BRANCH   2   3
ATOM      3  C   UNL     1     255.663 260.503 247.593  1.00  0.00     0.000 C 
BRANCH   3   4
ATOM      4  C   UNL     1     254.644 260.793 246.478  1.00  0.00     0.000 C 
BRANCH   4   5
ATOM      5  C   UNL     1     253.651 259.637 246.273  1.00  0.00     0.000 C 
BRANCH   5   6
ATOM      6  C   UNL     1     252.290 259.902 246.936  1.00  0.00     0.006 C 
BRANCH   6   7
ATOM      7  C   UNL     1     251.483 258.618 247.172  1.00  0.00     0.053 C 
BRANCH   7   8
ATOM      8  C   UNL     1     250.022 258.927 247.249  1.00  0.00     0.041 C 
ATOM      9  O   UNL     1     249.616 260.113 247.120  1.00  0.00    -0.550 OA
ATOM     10  O   UNL     1     249.110 257.913 247.515  1.00  0.00    -0.550 OA
ENDBRANCH   7   8
ENDBRANCH   6   7
ENDBRANCH   5   6
ENDBRANCH   4   5
ENDBRANCH   3   4
ENDBRANCH   2   3
ENDBRANCH   1   2
BRANCH   1  11
ATOM     11  C   UNL     1     254.523 258.486 249.750  1.00  0.00     0.000 C 
BRANCH  11  12
ATOM     12  C   UNL     1     255.297 257.227 249.331  1.00  0.00     0.000 C 
BRANCH  12  13
ATOM     13  C   UNL     1     254.789 256.634 248.006  1.00  0.00     0.000 C 
BRANCH  13  14
ATOM     14  C   UNL     1     255.256 255.184 247.793  1.00  0.00     0.000 C 
BRANCH  14  15
ATOM     15  C   UNL     1     254.200 254.327 247.071  1.00  0.00     0.000 C 
BRANCH  15  16
ATOM     16  C   UNL     1     252.795 254.956 247.109  1.00  0.00     0.006 C 
BRANCH  16  17
ATOM     17  C   UNL     1     252.129 255.109 245.732  1.00  0.00     0.053 C 
BRANCH  17  18
ATOM     18  C   UNL     1     250.635 255.140 245.832  1.00  0.00     0.041 C 
ATOM     19  O   UNL     1     250.045 254.474 246.724  1.00  0.00    -0.550 OA
ATOM     20  O   UNL     1     249.896 255.932 244.962  1.00  0.00    -0.550 OA
ENDBRANCH  17  18
ENDBRANCH  16  17
ENDBRANCH  15  16
ENDBRANCH  14  15
ENDBRANCH  13  14
ENDBRANCH  12  13
ENDBRANCH  11  12
ENDBRANCH   1  11
TORSDOF 15
ENDMDL
