MODEL 1
REMARK VINA RESULT:    -5.778      0.000      0.000
REMARK INTER + INTRA:          -7.755
REMARK INTER:                  -7.129
REMARK INTRA:                  -0.626
REMARK UNBOUND:                -0.626
REMARK SMILES CC(C)=CCC[C@H](C)c1ccc(C)cc1
REMARK SMILES IDX 6 1 7 2 8 3 9 4 13 5 12 6 11 7 14 8 10 9 15 10 5 11 4 12
REMARK SMILES IDX 2 13 1 14 3 15
REMARK H PARENT
REMARK Flexibility Score: inf
ROOT
ATOM      1  C   UNL     1      45.016  23.108  -0.071  1.00  0.00     0.012 C 
ENDROOT
BRANCH   1   2
ATOM      2  C   UNL     1      46.192  24.106  -0.199  1.00  0.00     0.016 C 
ATOM      3  C   UNL     1      45.933  25.192  -1.256  1.00  0.00     0.013 C 
BRANCH   2   4
ATOM      4  C   UNL     1      47.479  23.361  -0.511  1.00  0.00    -0.045 A 
ATOM      5  C   UNL     1      51.143  21.280  -1.455  1.00  0.00     0.044 C 
ATOM      6  C   UNL     1      49.861  21.979  -1.111  1.00  0.00    -0.051 A 
ATOM      7  C   UNL     1      48.764  21.908  -1.981  1.00  0.00     0.004 A 
ATOM      8  C   UNL     1      49.774  22.765   0.046  1.00  0.00     0.004 A 
ATOM      9  C   UNL     1      47.580  22.590  -1.681  1.00  0.00     0.004 A 
ATOM     10  C   UNL     1      48.591  23.447   0.347  1.00  0.00     0.004 A 
ENDBRANCH   2   4
ENDBRANCH   1   2
BRANCH   1  11
ATOM     11  C   UNL     1      43.942  23.264  -1.166  1.00  0.00     0.028 C 
BRANCH  11  12
ATOM     12  C   UNL     1      43.551  21.941  -1.780  1.00  0.00    -0.028 C 
ATOM     13  C   UNL     1      42.277  21.514  -1.929  1.00  0.00    -0.080 C 
ATOM     14  C   UNL     1      41.094  22.364  -1.528  1.00  0.00     0.039 C 
ATOM     15  C   UNL     1      42.043  20.159  -2.546  1.00  0.00     0.039 C 
ENDBRANCH  11  12
ENDBRANCH   1  11
TORSDOF 4
ENDMDL
MODEL 2
REMARK VINA RESULT:    -5.563      1.060      5.974
REMARK INTER + INTRA:          -7.491
REMARK INTER:                  -6.878
REMARK INTRA:                  -0.613
REMARK UNBOUND:                -0.626
REMARK SMILES CC(C)=CCC[C@H](C)c1ccc(C)cc1
REMARK SMILES IDX 6 1 7 2 8 3 9 4 13 5 12 6 11 7 14 8 10 9 15 10 5 11 4 12
REMARK SMILES IDX 2 13 1 14 3 15
REMARK H PARENT
REMARK Flexibility Score: inf
ROOT
ATOM      1  C   UNL     1      47.767  23.834  -1.443  1.00  0.00     0.012 C 
ENDROOT
BRANCH   1   2
ATOM      2  C   UNL     1      46.395  24.392  -0.996  1.00  0.00     0.016 C 
ATOM      3  C   UNL     1      46.348  24.711   0.506  1.00  0.00     0.013 C 
BRANCH   2   4
ATOM      4  C   UNL     1      45.289  23.418  -1.365  1.00  0.00    -0.045 A 
ATOM      5  C   UNL     1      42.098  20.694  -2.387  1.00  0.00     0.044 C 
ATOM      6  C   UNL     1      43.224  21.617  -2.030  1.00  0.00    -0.051 A 
ATOM      7  C   UNL     1      43.429  21.997  -0.696  1.00  0.00     0.004 A 
ATOM      8  C   UNL     1      44.037  22.160  -3.033  1.00  0.00     0.004 A 
ATOM      9  C   UNL     1      44.456  22.887  -0.365  1.00  0.00     0.004 A 
ATOM     10  C   UNL     1      45.064  23.050  -2.705  1.00  0.00     0.004 A 
ENDBRANCH   2   4
ENDBRANCH   1   2
BRANCH   1  11
ATOM     11  C   UNL     1      48.334  22.747  -0.509  1.00  0.00     0.028 C 
BRANCH  11  12
ATOM     12  C   UNL     1      49.759  22.381  -0.850  1.00  0.00    -0.028 C 
ATOM     13  C   UNL     1      50.116  21.558  -1.861  1.00  0.00    -0.080 C 
ATOM     14  C   UNL     1      49.099  20.951  -2.799  1.00  0.00     0.039 C 
ATOM     15  C   UNL     1      51.581  21.272  -2.069  1.00  0.00     0.039 C 
ENDBRANCH  11  12
ENDBRANCH   1  11
TORSDOF 4
ENDMDL
MODEL 3
REMARK VINA RESULT:    -5.547      1.665      6.424
REMARK INTER + INTRA:          -7.471
REMARK INTER:                  -6.917
REMARK INTRA:                  -0.554
REMARK UNBOUND:                -0.626
REMARK SMILES CC(C)=CCC[C@H](C)c1ccc(C)cc1
REMARK SMILES IDX 6 1 7 2 8 3 9 4 13 5 12 6 11 7 14 8 10 9 15 10 5 11 4 12
REMARK SMILES IDX 2 13 1 14 3 15
REMARK H PARENT
REMARK Flexibility Score: inf
ROOT
ATOM      1  C   UNL     1      46.735  23.934   0.266  1.00  0.00     0.012 C 
ENDROOT
BRANCH   1   2
ATOM      2  C   UNL     1      45.879  24.488  -0.898  1.00  0.00     0.016 C 
ATOM      3  C   UNL     1      45.157  25.794  -0.530  1.00  0.00     0.013 C 
BRANCH   2   4
ATOM      4  C   UNL     1      44.878  23.442  -1.356  1.00  0.00    -0.045 A 
ATOM      5  C   UNL     1      41.982  20.505  -2.637  1.00  0.00     0.044 C 
ATOM      6  C   UNL     1      43.008  21.503  -2.188  1.00  0.00    -0.051 A 
ATOM      7  C   UNL     1      43.078  21.886  -0.841  1.00  0.00     0.004 A 
ATOM      8  C   UNL     1      43.857  22.111  -3.122  1.00  0.00     0.004 A 
ATOM      9  C   UNL     1      44.009  22.845  -0.427  1.00  0.00     0.004 A 
ATOM     10  C   UNL     1      44.788  23.069  -2.710  1.00  0.00     0.004 A 
ENDBRANCH   2   4
ENDBRANCH   1   2
BRANCH   1  11
ATOM     11  C   UNL     1      48.125  23.427  -0.167  1.00  0.00     0.028 C 
BRANCH  11  12
ATOM     12  C   UNL     1      49.097  23.357   0.986  1.00  0.00    -0.028 C 
ATOM     13  C   UNL     1      50.069  24.266   1.223  1.00  0.00    -0.080 C 
ATOM     14  C   UNL     1      50.246  25.495   0.363  1.00  0.00     0.039 C 
ATOM     15  C   UNL     1      50.977  24.052   2.407  1.00  0.00     0.039 C 
ENDBRANCH  11  12
ENDBRANCH   1  11
TORSDOF 4
ENDMDL
MODEL 4
REMARK VINA RESULT:    -5.364      1.235      2.371
REMARK INTER + INTRA:          -7.244
REMARK INTER:                  -6.810
REMARK INTRA:                  -0.434
REMARK UNBOUND:                -0.626
REMARK SMILES CC(C)=CCC[C@H](C)c1ccc(C)cc1
REMARK SMILES IDX 6 1 7 2 8 3 9 4 13 5 12 6 11 7 14 8 10 9 15 10 5 11 4 12
REMARK SMILES IDX 2 13 1 14 3 15
REMARK H PARENT
REMARK Flexibility Score: inf
ROOT
ATOM      1  C   UNL     1      45.650  22.797  -1.187  1.00  0.00     0.012 C 
ENDROOT
BRANCH   1   2
ATOM      2  C   UNL     1      47.021  22.946  -1.890  1.00  0.00     0.016 C 
ATOM      3  C   UNL     1      47.389  21.716  -2.735  1.00  0.00     0.013 C 
BRANCH   2   4
ATOM      4  C   UNL     1      48.107  23.229  -0.866  1.00  0.00    -0.045 A 
ATOM      5  C   UNL     1      51.234  24.053   1.996  1.00  0.00     0.044 C 
ATOM      6  C   UNL     1      50.138  23.745   1.020  1.00  0.00    -0.051 A 
ATOM      7  C   UNL     1      50.356  22.833  -0.023  1.00  0.00     0.004 A 
ATOM      8  C   UNL     1      48.911  24.419   1.101  1.00  0.00     0.004 A 
ATOM      9  C   UNL     1      49.347  22.573  -0.956  1.00  0.00     0.004 A 
ATOM     10  C   UNL     1      47.901  24.160   0.170  1.00  0.00     0.004 A 
ENDBRANCH   2   4
ENDBRANCH   1   2
BRANCH   1  11
ATOM     11  C   UNL     1      44.584  22.085  -2.043  1.00  0.00     0.028 C 
BRANCH  11  12
ATOM     12  C   UNL     1      43.190  22.595  -1.766  1.00  0.00    -0.028 C 
ATOM     13  C   UNL     1      42.060  21.888  -1.987  1.00  0.00    -0.080 C 
ATOM     14  C   UNL     1      42.088  20.466  -2.498  1.00  0.00     0.039 C 
ATOM     15  C   UNL     1      40.735  22.538  -1.677  1.00  0.00     0.039 C 
ENDBRANCH  11  12
ENDBRANCH   1  11
TORSDOF 4
ENDMDL
MODEL 5
REMARK VINA RESULT:    -4.897      1.158      2.043
REMARK INTER + INTRA:          -6.668
REMARK INTER:                  -5.987
REMARK INTRA:                  -0.681
REMARK UNBOUND:                -0.626
REMARK SMILES CC(C)=CCC[C@H](C)c1ccc(C)cc1
REMARK SMILES IDX 6 1 7 2 8 3 9 4 13 5 12 6 11 7 14 8 10 9 15 10 5 11 4 12
REMARK SMILES IDX 2 13 1 14 3 15
REMARK H PARENT
REMARK Flexibility Score: inf
ROOT
ATOM      1  C   UNL     1      44.551  22.934  -0.553  1.00  0.00     0.012 C 
ENDROOT
BRANCH   1   2
ATOM      2  C   UNL     1      45.434  24.130  -0.984  1.00  0.00     0.016 C 
ATOM      3  C   UNL     1      45.251  24.495  -2.466  1.00  0.00     0.013 C 
BRANCH   2   4
ATOM      4  C   UNL     1      46.895  23.836  -0.688  1.00  0.00    -0.045 A 
ATOM      5  C   UNL     1      51.030  22.981   0.217  1.00  0.00     0.044 C 
ATOM      6  C   UNL     1      49.603  23.299  -0.117  1.00  0.00    -0.051 A 
ATOM      7  C   UNL     1      48.894  24.243   0.640  1.00  0.00     0.004 A 
ATOM      8  C   UNL     1      48.946  22.605  -1.142  1.00  0.00     0.004 A 
ATOM      9  C   UNL     1      47.552  24.513   0.354  1.00  0.00     0.004 A 
ATOM     10  C   UNL     1      47.605  22.874  -1.430  1.00  0.00     0.004 A 
ENDBRANCH   2   4
ENDBRANCH   1   2
BRANCH   1  11
ATOM     11  C   UNL     1      43.841  22.228  -1.724  1.00  0.00     0.028 C 
BRANCH  11  12
ATOM     12  C   UNL     1      42.349  22.122  -1.513  1.00  0.00    -0.028 C 
ATOM     13  C   UNL     1      41.435  22.924  -2.100  1.00  0.00    -0.080 C 
ATOM     14  C   UNL     1      41.826  24.000  -3.087  1.00  0.00     0.039 C 
ATOM     15  C   UNL     1      39.978  22.708  -1.777  1.00  0.00     0.039 C 
ENDBRANCH  11  12
ENDBRANCH   1  11
TORSDOF 4
ENDMDL
MODEL 6
REMARK VINA RESULT:    -4.043      1.968      3.305
REMARK INTER + INTRA:          -5.614
REMARK INTER:                  -4.784
REMARK INTRA:                  -0.830
REMARK UNBOUND:                -0.626
REMARK SMILES CC(C)=CCC[C@H](C)c1ccc(C)cc1
REMARK SMILES IDX 6 1 7 2 8 3 9 4 13 5 12 6 11 7 14 8 10 9 15 10 5 11 4 12
REMARK SMILES IDX 2 13 1 14 3 15
REMARK H PARENT
REMARK Flexibility Score: inf
ROOT
ATOM      1  C   UNL     1      47.325  25.604  -2.517  1.00  0.00     0.012 C 
ENDROOT
BRANCH   1   2
ATOM      2  C   UNL     1      48.496  24.592  -2.538  1.00  0.00     0.016 C 
ATOM      3  C   UNL     1      48.089  23.231  -3.125  1.00  0.00     0.013 C 
BRANCH   2   4
ATOM      4  C   UNL     1      49.062  24.417  -1.140  1.00  0.00    -0.045 A 
ATOM      5  C   UNL     1      50.710  23.869   2.814  1.00  0.00     0.044 C 
ATOM      6  C   UNL     1      50.113  24.070   1.453  1.00  0.00    -0.051 A 
ATOM      7  C   UNL     1      49.421  23.025   0.825  1.00  0.00     0.004 A 
ATOM      8  C   UNL     1      50.302  25.280   0.771  1.00  0.00     0.004 A 
ATOM      9  C   UNL     1      48.896  23.198  -0.460  1.00  0.00     0.004 A 
ATOM     10  C   UNL     1      49.777  25.455  -0.512  1.00  0.00     0.004 A 
ENDBRANCH   2   4
ENDBRANCH   1   2
BRANCH   1  11
ATOM     11  C   UNL     1      45.948  24.971  -2.797  1.00  0.00     0.028 C 
BRANCH  11  12
ATOM     12  C   UNL     1      45.334  24.359  -1.560  1.00  0.00    -0.028 C 
ATOM     13  C   UNL     1      44.670  23.182  -1.538  1.00  0.00    -0.080 C 
ATOM     14  C   UNL     1      44.517  22.323  -2.772  1.00  0.00     0.039 C 
ATOM     15  C   UNL     1      44.096  22.706  -0.228  1.00  0.00     0.039 C 
ENDBRANCH  11  12
ENDBRANCH   1  11
TORSDOF 4
ENDMDL
MODEL 7
REMARK VINA RESULT:    -3.632     15.399     17.272
REMARK INTER + INTRA:          -5.108
REMARK INTER:                  -4.656
REMARK INTRA:                  -0.452
REMARK UNBOUND:                -0.626
REMARK SMILES CC(C)=CCC[C@H](C)c1ccc(C)cc1
REMARK SMILES IDX 6 1 7 2 8 3 9 4 13 5 12 6 11 7 14 8 10 9 15 10 5 11 4 12
REMARK SMILES IDX 2 13 1 14 3 15
REMARK H PARENT
REMARK Flexibility Score: inf
ROOT
ATOM      1  C   UNL     1      31.877  11.931   3.997  1.00  0.00     0.012 C 
ENDROOT
BRANCH   1   2
ATOM      2  C   UNL     1      33.039  10.913   4.085  1.00  0.00     0.016 C 
ATOM      3  C   UNL     1      32.572   9.522   4.542  1.00  0.00     0.013 C 
BRANCH   2   4
ATOM      4  C   UNL     1      34.125  11.436   5.009  1.00  0.00    -0.045 A 
ATOM      5  C   UNL     1      37.192  12.989   7.623  1.00  0.00     0.044 C 
ATOM      6  C   UNL     1      36.144  12.425   6.710  1.00  0.00    -0.051 A 
ATOM      7  C   UNL     1      36.128  12.776   5.352  1.00  0.00     0.004 A 
ATOM      8  C   UNL     1      35.132  11.601   7.221  1.00  0.00     0.004 A 
ATOM      9  C   UNL     1      35.129  12.282   4.507  1.00  0.00     0.004 A 
ATOM     10  C   UNL     1      34.133  11.106   6.377  1.00  0.00     0.004 A 
ENDBRANCH   2   4
ENDBRANCH   1   2
BRANCH   1  11
ATOM     11  C   UNL     1      32.234  13.222   3.234  1.00  0.00     0.028 C 
BRANCH  11  12
ATOM     12  C   UNL     1      31.920  13.125   1.760  1.00  0.00    -0.028 C 
ATOM     13  C   UNL     1      32.276  14.049   0.840  1.00  0.00    -0.080 C 
ATOM     14  C   UNL     1      33.086  15.272   1.202  1.00  0.00     0.039 C 
ATOM     15  C   UNL     1      31.875  13.823  -0.595  1.00  0.00     0.039 C 
ENDBRANCH  11  12
ENDBRANCH   1  11
TORSDOF 4
ENDMDL
MODEL 8
REMARK VINA RESULT:    -3.569     15.673     17.435
REMARK INTER + INTRA:          -5.030
REMARK INTER:                  -4.479
REMARK INTRA:                  -0.551
REMARK UNBOUND:                -0.626
REMARK SMILES CC(C)=CCC[C@H](C)c1ccc(C)cc1
REMARK SMILES IDX 6 1 7 2 8 3 9 4 13 5 12 6 11 7 14 8 10 9 15 10 5 11 4 12
REMARK SMILES IDX 2 13 1 14 3 15
REMARK H PARENT
REMARK Flexibility Score: inf
ROOT
ATOM      1  C   UNL     1      31.877  12.048   3.596  1.00  0.00     0.012 C 
ENDROOT
BRANCH   1   2
ATOM      2  C   UNL     1      32.765  10.863   4.046  1.00  0.00     0.016 C 
ATOM      3  C   UNL     1      31.967   9.769   4.773  1.00  0.00     0.013 C 
BRANCH   2   4
ATOM      4  C   UNL     1      33.899  11.363   4.925  1.00  0.00    -0.045 A 
ATOM      5  C   UNL     1      37.150  12.722   7.421  1.00  0.00     0.044 C 
ATOM      6  C   UNL     1      36.003  12.270   6.567  1.00  0.00    -0.051 A 
ATOM      7  C   UNL     1      35.193  11.203   6.980  1.00  0.00     0.004 A 
ATOM      8  C   UNL     1      35.775  12.865   5.319  1.00  0.00     0.004 A 
ATOM      9  C   UNL     1      34.147  10.755   6.168  1.00  0.00     0.004 A 
ATOM     10  C   UNL     1      34.729  12.420   4.506  1.00  0.00     0.004 A 
ENDBRANCH   2   4
ENDBRANCH   1   2
BRANCH   1  11
ATOM     11  C   UNL     1      31.926  12.325   2.081  1.00  0.00     0.028 C 
BRANCH  11  12
ATOM     12  C   UNL     1      31.981  13.801   1.768  1.00  0.00    -0.028 C 
ATOM     13  C   UNL     1      31.981  14.318   0.519  1.00  0.00    -0.080 C 
ATOM     14  C   UNL     1      31.875  13.447  -0.711  1.00  0.00     0.039 C 
ATOM     15  C   UNL     1      32.057  15.816   0.363  1.00  0.00     0.039 C 
ENDBRANCH  11  12
ENDBRANCH   1  11
TORSDOF 4
ENDMDL
