MODEL 1
REMARK VINA RESULT:    -4.413      0.000      0.000
REMARK INTER + INTRA:          -6.886
REMARK INTER:                  -6.477
REMARK INTRA:                  -0.410
REMARK UNBOUND:                -0.410
REMARK SMILES O=C([O-])CCCCCCCC(=O)[O-]
REMARK SMILES IDX 7 1 6 2 5 3 4 4 2 5 1 6 3 7 8 8 9 9 10 10 11 11 12 12 13 13
REMARK H PARENT
REMARK Flexibility Score: inf
ROOT
ATOM      1  C   UNL     1      16.917 116.774 295.115  1.00  0.00     0.000 C 
ENDROOT
BRANCH   1   2
ATOM      2  C   UNL     1      17.072 117.710 293.904  1.00  0.00     0.000 C 
BRANCH   2   3
ATOM      3  C   UNL     1      17.915 117.086 292.775  1.00  0.00     0.006 C 
BRANCH   3   4
ATOM      4  C   UNL     1      17.276 115.855 292.112  1.00  0.00     0.053 C 
BRANCH   4   5
ATOM      5  C   UNL     1      18.023 115.427 290.886  1.00  0.00     0.041 C 
ATOM      6  O   UNL     1      19.239 115.723 290.748  1.00  0.00    -0.550 OA
ATOM      7  O   UNL     1      17.383 114.672 289.909  1.00  0.00    -0.550 OA
ENDBRANCH   4   5
ENDBRANCH   3   4
ENDBRANCH   2   3
ENDBRANCH   1   2
BRANCH   1   8
ATOM      8  C   UNL     1      17.594 117.330 296.379  1.00  0.00     0.000 C 
BRANCH   8   9
ATOM      9  C   UNL     1      19.037 116.833 296.548  1.00  0.00     0.006 C 
BRANCH   9  10
ATOM     10  C   UNL     1      20.040 117.918 296.142  1.00  0.00     0.053 C 
BRANCH  10  11
ATOM     11  C   UNL     1      20.742 118.460 297.347  1.00  0.00     0.041 C 
ATOM     12  O   UNL     1      21.657 119.315 297.217  1.00  0.00    -0.550 OA
ATOM     13  O   UNL     1      20.418 117.984 298.611  1.00  0.00    -0.550 OA
ENDBRANCH  10  11
ENDBRANCH   9  10
ENDBRANCH   8   9
ENDBRANCH   1   8
TORSDOF 8
ENDMDL
MODEL 2
REMARK VINA RESULT:    -4.310      1.193      6.563
REMARK INTER + INTRA:          -6.735
REMARK INTER:                  -6.469
REMARK INTRA:                  -0.266
REMARK UNBOUND:                -0.410
REMARK SMILES O=C([O-])CCCCCCCC(=O)[O-]
REMARK SMILES IDX 7 1 6 2 5 3 4 4 2 5 1 6 3 7 8 8 9 9 10 10 11 11 12 12 13 13
REMARK H PARENT
REMARK Flexibility Score: inf
ROOT
ATOM      1  C   UNL     1      17.226 116.713 295.059  1.00  0.00     0.000 C 
ENDROOT
BRANCH   1   2
ATOM      2  C   UNL     1      17.632 117.344 296.402  1.00  0.00     0.000 C 
BRANCH   2   3
ATOM      3  C   UNL     1      19.120 117.741 296.446  1.00  0.00     0.006 C 
BRANCH   3   4
ATOM      4  C   UNL     1      20.027 116.727 297.161  1.00  0.00     0.053 C 
BRANCH   4   5
ATOM      5  C   UNL     1      21.417 117.252 297.348  1.00  0.00     0.041 C 
ATOM      6  O   UNL     1      22.251 117.190 296.407  1.00  0.00    -0.550 OA
ATOM      7  O   UNL     1      21.783 117.838 298.555  1.00  0.00    -0.550 OA
ENDBRANCH   4   5
ENDBRANCH   3   4
ENDBRANCH   2   3
ENDBRANCH   1   2
BRANCH   1   8
ATOM      8  C   UNL     1      17.942 117.362 293.863  1.00  0.00     0.000 C 
BRANCH   8   9
ATOM      9  C   UNL     1      17.314 116.978 292.515  1.00  0.00     0.006 C 
BRANCH   9  10
ATOM     10  C   UNL     1      18.281 116.128 291.683  1.00  0.00     0.053 C 
BRANCH  10  11
ATOM     11  C   UNL     1      17.523 115.219 290.768  1.00  0.00     0.041 C 
ATOM     12  O   UNL     1      16.963 114.186 291.221  1.00  0.00    -0.550 OA
ATOM     13  O   UNL     1      17.476 115.486 289.406  1.00  0.00    -0.550 OA
ENDBRANCH  10  11
ENDBRANCH   9  10
ENDBRANCH   8   9
ENDBRANCH   1   8
TORSDOF 8
ENDMDL
MODEL 3
REMARK VINA RESULT:    -4.254      1.602      1.959
REMARK INTER + INTRA:          -6.653
REMARK INTER:                  -6.319
REMARK INTRA:                  -0.334
REMARK UNBOUND:                -0.410
REMARK SMILES O=C([O-])CCCCCCCC(=O)[O-]
REMARK SMILES IDX 7 1 6 2 5 3 4 4 2 5 1 6 3 7 8 8 9 9 10 10 11 11 12 12 13 13
REMARK H PARENT
REMARK Flexibility Score: inf
ROOT
ATOM      1  C   UNL     1      18.241 118.396 294.391  1.00  0.00     0.000 C 
ENDROOT
BRANCH   1   2
ATOM      2  C   UNL     1      17.628 117.022 294.068  1.00  0.00     0.000 C 
BRANCH   2   3
ATOM      3  C   UNL     1      17.211 116.888 292.591  1.00  0.00     0.006 C 
BRANCH   3   4
ATOM      4  C   UNL     1      18.226 116.141 291.710  1.00  0.00     0.053 C 
BRANCH   4   5
ATOM      5  C   UNL     1      17.553 115.286 290.681  1.00  0.00     0.041 C 
ATOM      6  O   UNL     1      17.504 115.658 289.480  1.00  0.00    -0.550 OA
ATOM      7  O   UNL     1      17.006 114.060 291.046  1.00  0.00    -0.550 OA
ENDBRANCH   4   5
ENDBRANCH   3   4
ENDBRANCH   2   3
ENDBRANCH   1   2
BRANCH   1   8
ATOM      8  C   UNL     1      19.775 118.396 294.287  1.00  0.00     0.000 C 
BRANCH   8   9
ATOM      9  C   UNL     1      20.461 118.651 295.637  1.00  0.00     0.006 C 
BRANCH   9  10
ATOM     10  C   UNL     1      19.775 117.863 296.758  1.00  0.00     0.053 C 
BRANCH  10  11
ATOM     11  C   UNL     1      20.547 116.621 297.073  1.00  0.00     0.041 C 
ATOM     12  O   UNL     1      21.797 116.597 296.922  1.00  0.00    -0.550 OA
ATOM     13  O   UNL     1      19.881 115.475 297.489  1.00  0.00    -0.550 OA
ENDBRANCH  10  11
ENDBRANCH   9  10
ENDBRANCH   8   9
ENDBRANCH   1   8
TORSDOF 8
ENDMDL
MODEL 4
REMARK VINA RESULT:    -4.144      3.800      6.611
REMARK INTER + INTRA:          -6.492
REMARK INTER:                  -6.234
REMARK INTRA:                  -0.258
REMARK UNBOUND:                -0.410
REMARK SMILES O=C([O-])CCCCCCCC(=O)[O-]
REMARK SMILES IDX 7 1 6 2 5 3 4 4 2 5 1 6 3 7 8 8 9 9 10 10 11 11 12 12 13 13
REMARK H PARENT
REMARK Flexibility Score: inf
ROOT
ATOM      1  C   UNL     1      17.021 119.058 293.936  1.00  0.00     0.000 C 
ENDROOT
BRANCH   1   2
ATOM      2  C   UNL     1      15.647 119.654 293.584  1.00  0.00     0.000 C 
BRANCH   2   3
ATOM      3  C   UNL     1      15.734 121.125 293.137  1.00  0.00     0.006 C 
BRANCH   3   4
ATOM      4  C   UNL     1      16.941 121.891 293.704  1.00  0.00     0.053 C 
BRANCH   4   5
ATOM      5  C   UNL     1      17.154 123.199 293.006  1.00  0.00     0.041 C 
ATOM      6  O   UNL     1      17.701 124.159 293.610  1.00  0.00    -0.550 OA
ATOM      7  O   UNL     1      16.775 123.347 291.676  1.00  0.00    -0.550 OA
ENDBRANCH   4   5
ENDBRANCH   3   4
ENDBRANCH   2   3
ENDBRANCH   1   2
BRANCH   1   8
ATOM      8  C   UNL     1      17.026 117.521 293.888  1.00  0.00     0.000 C 
BRANCH   8   9
ATOM      9  C   UNL     1      17.951 116.963 292.795  1.00  0.00     0.006 C 
BRANCH   9  10
ATOM     10  C   UNL     1      17.215 115.932 291.932  1.00  0.00     0.053 C 
BRANCH  10  11
ATOM     11  C   UNL     1      18.065 115.521 290.771  1.00  0.00     0.041 C 
ATOM     12  O   UNL     1      17.572 114.837 289.836  1.00  0.00    -0.550 OA
ATOM     13  O   UNL     1      19.414 115.853 290.745  1.00  0.00    -0.550 OA
ENDBRANCH  10  11
ENDBRANCH   9  10
ENDBRANCH   8   9
ENDBRANCH   1   8
TORSDOF 8
ENDMDL
MODEL 5
REMARK VINA RESULT:    -3.970      6.864      7.518
REMARK INTER + INTRA:          -6.236
REMARK INTER:                  -5.928
REMARK INTRA:                  -0.308
REMARK UNBOUND:                -0.410
REMARK SMILES O=C([O-])CCCCCCCC(=O)[O-]
REMARK SMILES IDX 7 1 6 2 5 3 4 4 2 5 1 6 3 7 8 8 9 9 10 10 11 11 12 12 13 13
REMARK H PARENT
REMARK Flexibility Score: inf
ROOT
ATOM      1  C   UNL     1      24.339 118.499 292.324  1.00  0.00     0.000 C 
ENDROOT
BRANCH   1   2
ATOM      2  C   UNL     1      25.270 117.975 291.216  1.00  0.00     0.000 C 
BRANCH   2   3
ATOM      3  C   UNL     1      24.527 117.709 289.893  1.00  0.00     0.006 C 
BRANCH   3   4
ATOM      4  C   UNL     1      24.603 118.863 288.879  1.00  0.00     0.053 C 
BRANCH   4   5
ATOM      5  C   UNL     1      23.409 118.896 287.976  1.00  0.00     0.041 C 
ATOM      6  O   UNL     1      22.883 117.823 287.580  1.00  0.00    -0.550 OA
ATOM      7  O   UNL     1      22.858 120.114 287.596  1.00  0.00    -0.550 OA
ENDBRANCH   4   5
ENDBRANCH   3   4
ENDBRANCH   2   3
ENDBRANCH   1   2
BRANCH   1   8
ATOM      8  C   UNL     1      24.828 118.122 293.732  1.00  0.00     0.000 C 
BRANCH   8   9
ATOM      9  C   UNL     1      25.962 119.030 294.231  1.00  0.00     0.006 C 
BRANCH   9  10
ATOM     10  C   UNL     1      25.409 120.367 294.735  1.00  0.00     0.053 C 
BRANCH  10  11
ATOM     11  C   UNL     1      26.177 121.507 294.144  1.00  0.00     0.041 C 
ATOM     12  O   UNL     1      25.986 122.682 294.557  1.00  0.00    -0.550 OA
ATOM     13  O   UNL     1      27.070 121.279 293.105  1.00  0.00    -0.550 OA
ENDBRANCH  10  11
ENDBRANCH   9  10
ENDBRANCH   8   9
ENDBRANCH   1   8
TORSDOF 8
ENDMDL
MODEL 6
REMARK VINA RESULT:    -3.945      3.323      4.128
REMARK INTER + INTRA:          -6.200
REMARK INTER:                  -5.914
REMARK INTRA:                  -0.286
REMARK UNBOUND:                -0.410
REMARK SMILES O=C([O-])CCCCCCCC(=O)[O-]
REMARK SMILES IDX 7 1 6 2 5 3 4 4 2 5 1 6 3 7 8 8 9 9 10 10 11 11 12 12 13 13
REMARK H PARENT
REMARK Flexibility Score: inf
ROOT
ATOM      1  C   UNL     1      16.885 119.254 294.213  1.00  0.00     0.000 C 
ENDROOT
BRANCH   1   2
ATOM      2  C   UNL     1      16.683 117.767 293.875  1.00  0.00     0.000 C 
BRANCH   2   3
ATOM      3  C   UNL     1      17.735 117.234 292.885  1.00  0.00     0.006 C 
BRANCH   3   4
ATOM      4  C   UNL     1      17.367 115.894 292.226  1.00  0.00     0.053 C 
BRANCH   4   5
ATOM      5  C   UNL     1      18.069 115.701 290.917  1.00  0.00     0.041 C 
ATOM      6  O   UNL     1      19.326 115.734 290.860  1.00  0.00    -0.550 OA
ATOM      7  O   UNL     1      17.333 115.454 289.763  1.00  0.00    -0.550 OA
ENDBRANCH   4   5
ENDBRANCH   3   4
ENDBRANCH   2   3
ENDBRANCH   1   2
BRANCH   1   8
ATOM      8  C   UNL     1      15.973 120.176 293.387  1.00  0.00     0.000 C 
BRANCH   8   9
ATOM      9  C   UNL     1      15.959 121.621 293.908  1.00  0.00     0.006 C 
BRANCH   9  10
ATOM     10  C   UNL     1      17.198 122.386 293.429  1.00  0.00     0.053 C 
BRANCH  10  11
ATOM     11  C   UNL     1      17.952 122.943 294.595  1.00  0.00     0.041 C 
ATOM     12  O   UNL     1      17.790 122.457 295.745  1.00  0.00    -0.550 OA
ATOM     13  O   UNL     1      18.798 124.030 294.420  1.00  0.00    -0.550 OA
ENDBRANCH  10  11
ENDBRANCH   9  10
ENDBRANCH   8   9
ENDBRANCH   1   8
TORSDOF 8
ENDMDL
MODEL 7
REMARK VINA RESULT:    -3.902      6.686      9.896
REMARK INTER + INTRA:          -6.136
REMARK INTER:                  -5.772
REMARK INTRA:                  -0.364
REMARK UNBOUND:                -0.410
REMARK SMILES O=C([O-])CCCCCCCC(=O)[O-]
REMARK SMILES IDX 7 1 6 2 5 3 4 4 2 5 1 6 3 7 8 8 9 9 10 10 11 11 12 12 13 13
REMARK H PARENT
REMARK Flexibility Score: inf
ROOT
ATOM      1  C   UNL     1      24.351 118.554 292.567  1.00  0.00     0.000 C 
ENDROOT
BRANCH   1   2
ATOM      2  C   UNL     1      25.034 119.243 293.761  1.00  0.00     0.000 C 
BRANCH   2   3
ATOM      3  C   UNL     1      26.464 119.715 293.437  1.00  0.00     0.006 C 
BRANCH   3   4
ATOM      4  C   UNL     1      26.662 121.238 293.515  1.00  0.00     0.053 C 
BRANCH   4   5
ATOM      5  C   UNL     1      26.779 121.717 294.930  1.00  0.00     0.041 C 
ATOM      6  O   UNL     1      27.622 121.198 295.708  1.00  0.00    -0.550 OA
ATOM      7  O   UNL     1      25.976 122.759 295.379  1.00  0.00    -0.550 OA
ENDBRANCH   4   5
ENDBRANCH   3   4
ENDBRANCH   2   3
ENDBRANCH   1   2
BRANCH   1   8
ATOM      8  C   UNL     1      25.181 118.654 291.276  1.00  0.00     0.000 C 
BRANCH   8   9
ATOM      9  C   UNL     1      25.076 117.394 290.404  1.00  0.00     0.006 C 
BRANCH   9  10
ATOM     10  C   UNL     1      23.662 117.239 289.835  1.00  0.00     0.053 C 
BRANCH  10  11
ATOM     11  C   UNL     1      23.519 118.019 288.567  1.00  0.00     0.041 C 
ATOM     12  O   UNL     1      22.376 118.284 288.110  1.00  0.00    -0.550 OA
ATOM     13  O   UNL     1      24.650 118.414 287.863  1.00  0.00    -0.550 OA
ENDBRANCH  10  11
ENDBRANCH   9  10
ENDBRANCH   8   9
ENDBRANCH   1   8
TORSDOF 8
ENDMDL
MODEL 8
REMARK VINA RESULT:    -3.899      7.989     10.514
REMARK INTER + INTRA:          -6.132
REMARK INTER:                  -5.750
REMARK INTRA:                  -0.382
REMARK UNBOUND:                -0.410
REMARK SMILES O=C([O-])CCCCCCCC(=O)[O-]
REMARK SMILES IDX 7 1 6 2 5 3 4 4 2 5 1 6 3 7 8 8 9 9 10 10 11 11 12 12 13 13
REMARK H PARENT
REMARK Flexibility Score: inf
ROOT
ATOM      1  C   UNL     1      25.827 117.140 292.011  1.00  0.00     0.000 C 
ENDROOT
BRANCH   1   2
ATOM      2  C   UNL     1      26.071 118.575 292.510  1.00  0.00     0.000 C 
BRANCH   2   3
ATOM      3  C   UNL     1      27.418 118.730 293.240  1.00  0.00     0.006 C 
BRANCH   3   4
ATOM      4  C   UNL     1      28.504 117.740 292.787  1.00  0.00     0.053 C 
BRANCH   4   5
ATOM      5  C   UNL     1      29.837 118.404 292.624  1.00  0.00     0.041 C 
ATOM      6  O   UNL     1      30.848 117.727 292.301  1.00  0.00    -0.550 OA
ATOM      7  O   UNL     1      29.955 119.778 292.800  1.00  0.00    -0.550 OA
ENDBRANCH   4   5
ENDBRANCH   3   4
ENDBRANCH   2   3
ENDBRANCH   1   2
BRANCH   1   8
ATOM      8  C   UNL     1      25.204 117.102 290.606  1.00  0.00     0.000 C 
BRANCH   8   9
ATOM      9  C   UNL     1      24.726 118.482 290.131  1.00  0.00     0.006 C 
BRANCH   9  10
ATOM     10  C   UNL     1      24.691 118.551 288.600  1.00  0.00     0.053 C 
BRANCH  10  11
ATOM     11  C   UNL     1      23.293 118.780 288.118  1.00  0.00     0.041 C 
ATOM     12  O   UNL     1      22.408 117.903 288.303  1.00  0.00    -0.550 OA
ATOM     13  O   UNL     1      22.979 119.940 287.422  1.00  0.00    -0.550 OA
ENDBRANCH  10  11
ENDBRANCH   9  10
ENDBRANCH   8   9
ENDBRANCH   1   8
TORSDOF 8
ENDMDL
MODEL 9
REMARK VINA RESULT:    -3.771      3.888      5.068
REMARK INTER + INTRA:          -5.944
REMARK INTER:                  -5.535
REMARK INTRA:                  -0.409
REMARK UNBOUND:                -0.410
REMARK SMILES O=C([O-])CCCCCCCC(=O)[O-]
REMARK SMILES IDX 7 1 6 2 5 3 4 4 2 5 1 6 3 7 8 8 9 9 10 10 11 11 12 12 13 13
REMARK H PARENT
REMARK Flexibility Score: inf
ROOT
ATOM      1  C   UNL     1      18.156 118.811 294.333  1.00  0.00     0.000 C 
ENDROOT
BRANCH   1   2
ATOM      2  C   UNL     1      17.804 117.396 294.825  1.00  0.00     0.000 C 
BRANCH   2   3
ATOM      3  C   UNL     1      17.260 116.494 293.701  1.00  0.00     0.006 C 
BRANCH   3   4
ATOM      4  C   UNL     1      17.753 116.866 292.293  1.00  0.00     0.053 C 
BRANCH   4   5
ATOM      5  C   UNL     1      17.838 115.671 291.394  1.00  0.00     0.041 C 
ATOM      6  O   UNL     1      18.765 115.578 290.547  1.00  0.00    -0.550 OA
ATOM      7  O   UNL     1      16.908 114.644 291.514  1.00  0.00    -0.550 OA
ENDBRANCH   4   5
ENDBRANCH   3   4
ENDBRANCH   2   3
ENDBRANCH   1   2
BRANCH   1   8
ATOM      8  C   UNL     1      17.045 119.831 294.628  1.00  0.00     0.000 C 
BRANCH   8   9
ATOM      9  C   UNL     1      16.019 119.938 293.491  1.00  0.00     0.006 C 
BRANCH   9  10
ATOM     10  C   UNL     1      14.950 120.988 293.815  1.00  0.00     0.053 C 
BRANCH  10  11
ATOM     11  C   UNL     1      14.955 122.075 292.787  1.00  0.00     0.041 C 
ATOM     12  O   UNL     1      13.875 122.619 292.435  1.00  0.00    -0.550 OA
ATOM     13  O   UNL     1      16.147 122.454 292.182  1.00  0.00    -0.550 OA
ENDBRANCH  10  11
ENDBRANCH   9  10
ENDBRANCH   8   9
ENDBRANCH   1   8
TORSDOF 8
ENDMDL
