MODEL 1
REMARK VINA RESULT:    -4.877      0.000      0.000
REMARK INTER + INTRA:          -5.430
REMARK INTER:                  -5.305
REMARK INTRA:                  -0.125
REMARK UNBOUND:                -0.125
REMARK SMILES C=C(C)[C@H]1CC[C@H](C)C[C@H]1O
REMARK SMILES IDX 8 1 7 2 6 3 5 4 4 5 10 6 9 7 11 8 2 10 1 11 3 12
REMARK H PARENT 11 9
REMARK Flexibility Score: inf
ROOT
ATOM      1  C   UNL     1       1.124  15.908  46.012  1.00  0.00     0.008 C 
ATOM      2  C   UNL     1      -0.399  16.107  46.097  1.00  0.00    -0.012 C 
ATOM      3  C   UNL     1      -0.939  15.925  47.527  1.00  0.00     0.004 C 
ATOM      4  C   UNL     1      -0.496  17.057  48.458  1.00  0.00     0.011 C 
ATOM      5  C   UNL     1      -0.937  18.443  47.946  1.00  0.00     0.043 C 
ATOM      6  C   UNL     1      -0.541  18.662  46.453  1.00  0.00     0.121 C 
ATOM      7  C   UNL     1      -0.838  17.463  45.519  1.00  0.00     0.035 C 
ENDROOT
BRANCH   6   8
ATOM      8  O   UNL     1      -1.149  19.826  45.958  1.00  0.00    -0.392 OA
ATOM      9  H   UNL     1      -1.971  19.973  46.490  1.00  0.00     0.210 HD
ENDBRANCH   6   8
BRANCH   5  10
ATOM     10  C   UNL     1      -2.382  18.759  48.359  1.00  0.00    -0.075 C 
ATOM     11  C   UNL     1      -2.612  19.857  49.100  1.00  0.00     0.008 C 
ATOM     12  C   UNL     1      -3.584  17.924  47.992  1.00  0.00     0.039 C 
ENDBRANCH   5  10
TORSDOF 2
ENDMDL
MODEL 2
REMARK VINA RESULT:    -4.663      1.118      3.886
REMARK INTER + INTRA:          -5.197
REMARK INTER:                  -5.056
REMARK INTRA:                  -0.141
REMARK UNBOUND:                -0.125
REMARK SMILES C=C(C)[C@H]1CC[C@H](C)C[C@H]1O
REMARK SMILES IDX 8 1 7 2 6 3 5 4 4 5 10 6 9 7 11 8 2 10 1 11 3 12
REMARK H PARENT 11 9
REMARK Flexibility Score: inf
ROOT
ATOM      1  C   UNL     1      -3.194  17.810  48.755  1.00  0.00     0.008 C 
ATOM      2  C   UNL     1      -1.688  17.616  48.998  1.00  0.00    -0.012 C 
ATOM      3  C   UNL     1      -1.202  16.211  48.600  1.00  0.00     0.004 C 
ATOM      4  C   UNL     1      -1.230  16.000  47.083  1.00  0.00     0.011 C 
ATOM      5  C   UNL     1      -0.375  17.040  46.332  1.00  0.00     0.043 C 
ATOM      6  C   UNL     1      -0.714  18.497  46.773  1.00  0.00     0.121 C 
ATOM      7  C   UNL     1      -0.846  18.699  48.303  1.00  0.00     0.035 C 
ENDROOT
BRANCH   6   8
ATOM      8  O   UNL     1       0.228  19.394  46.244  1.00  0.00    -0.392 OA
ATOM      9  H   UNL     1       0.984  19.429  46.883  1.00  0.00     0.210 HD
ENDBRANCH   6   8
BRANCH   5  10
ATOM     10  C   UNL     1       1.104  16.627  46.294  1.00  0.00    -0.075 C 
ATOM     11  C   UNL     1       1.534  15.877  45.264  1.00  0.00     0.008 C 
ATOM     12  C   UNL     1       2.128  17.002  47.336  1.00  0.00     0.039 C 
ENDBRANCH   5  10
TORSDOF 2
ENDMDL
MODEL 3
REMARK VINA RESULT:    -4.647      1.852      4.221
REMARK INTER + INTRA:          -5.180
REMARK INTER:                  -4.997
REMARK INTRA:                  -0.183
REMARK UNBOUND:                -0.125
REMARK SMILES C=C(C)[C@H]1CC[C@H](C)C[C@H]1O
REMARK SMILES IDX 8 1 7 2 6 3 5 4 4 5 10 6 9 7 11 8 2 10 1 11 3 12
REMARK H PARENT 11 9
REMARK Flexibility Score: inf
ROOT
ATOM      1  C   UNL     1      -2.366  20.655  49.603  1.00  0.00     0.008 C 
ATOM      2  C   UNL     1      -2.675  19.701  48.437  1.00  0.00    -0.012 C 
ATOM      3  C   UNL     1      -1.628  19.783  47.313  1.00  0.00     0.004 C 
ATOM      4  C   UNL     1      -0.276  19.206  47.743  1.00  0.00     0.011 C 
ATOM      5  C   UNL     1      -0.385  17.737  48.199  1.00  0.00     0.043 C 
ATOM      6  C   UNL     1      -1.519  17.539  49.251  1.00  0.00     0.121 C 
ATOM      7  C   UNL     1      -2.853  18.248  48.910  1.00  0.00     0.035 C 
ENDROOT
BRANCH   6   8
ATOM      8  O   UNL     1      -1.739  16.170  49.472  1.00  0.00    -0.392 OA
ATOM      9  H   UNL     1      -2.099  16.080  50.391  1.00  0.00     0.210 HD
ENDBRANCH   6   8
BRANCH   5  10
ATOM     10  C   UNL     1      -0.339  16.775  47.002  1.00  0.00    -0.075 C 
ATOM     11  C   UNL     1       0.829  16.177  46.704  1.00  0.00     0.008 C 
ATOM     12  C   UNL     1      -1.518  16.440  46.122  1.00  0.00     0.039 C 
ENDBRANCH   5  10
TORSDOF 2
ENDMDL
MODEL 4
REMARK VINA RESULT:    -4.417      1.399      3.801
REMARK INTER + INTRA:          -4.929
REMARK INTER:                  -4.810
REMARK INTRA:                  -0.120
REMARK UNBOUND:                -0.125
REMARK SMILES C=C(C)[C@H]1CC[C@H](C)C[C@H]1O
REMARK SMILES IDX 8 1 7 2 6 3 5 4 4 5 10 6 9 7 11 8 2 10 1 11 3 12
REMARK H PARENT 11 9
REMARK Flexibility Score: inf
ROOT
ATOM      1  C   UNL     1      -2.130  20.911  49.638  1.00  0.00     0.008 C 
ATOM      2  C   UNL     1      -1.430  19.542  49.632  1.00  0.00    -0.012 C 
ATOM      3  C   UNL     1      -2.417  18.374  49.464  1.00  0.00     0.004 C 
ATOM      4  C   UNL     1      -3.030  18.336  48.061  1.00  0.00     0.011 C 
ATOM      5  C   UNL     1      -1.959  18.229  46.957  1.00  0.00     0.043 C 
ATOM      6  C   UNL     1      -0.841  19.302  47.128  1.00  0.00     0.121 C 
ATOM      7  C   UNL     1      -0.315  19.468  48.576  1.00  0.00     0.035 C 
ENDROOT
BRANCH   6   8
ATOM      8  O   UNL     1       0.223  19.035  46.252  1.00  0.00    -0.392 OA
ATOM      9  H   UNL     1      -0.172  18.871  45.359  1.00  0.00     0.210 HD
ENDBRANCH   6   8
BRANCH   5  10
ATOM     10  C   UNL     1      -1.528  16.772  46.735  1.00  0.00    -0.075 C 
ATOM     11  C   UNL     1      -1.671  16.240  45.508  1.00  0.00     0.008 C 
ATOM     12  C   UNL     1      -0.947  15.875  47.800  1.00  0.00     0.039 C 
ENDBRANCH   5  10
TORSDOF 2
ENDMDL
MODEL 5
REMARK VINA RESULT:    -4.404      1.640      1.989
REMARK INTER + INTRA:          -4.915
REMARK INTER:                  -4.745
REMARK INTRA:                  -0.171
REMARK UNBOUND:                -0.125
REMARK SMILES C=C(C)[C@H]1CC[C@H](C)C[C@H]1O
REMARK SMILES IDX 8 1 7 2 6 3 5 4 4 5 10 6 9 7 11 8 2 10 1 11 3 12
REMARK H PARENT 11 9
REMARK Flexibility Score: inf
ROOT
ATOM      1  C   UNL     1       0.472  16.066  44.994  1.00  0.00     0.008 C 
ATOM      2  C   UNL     1       0.210  15.943  46.504  1.00  0.00    -0.012 C 
ATOM      3  C   UNL     1       0.961  17.008  47.323  1.00  0.00     0.004 C 
ATOM      4  C   UNL     1       0.396  18.413  47.094  1.00  0.00     0.011 C 
ATOM      5  C   UNL     1      -1.104  18.504  47.440  1.00  0.00     0.043 C 
ATOM      6  C   UNL     1      -1.927  17.374  46.750  1.00  0.00     0.121 C 
ATOM      7  C   UNL     1      -1.292  15.963  46.834  1.00  0.00     0.035 C 
ENDROOT
BRANCH   6   8
ATOM      8  O   UNL     1      -3.235  17.349  47.260  1.00  0.00    -0.392 OA
ATOM      9  H   UNL     1      -3.464  16.398  47.422  1.00  0.00     0.210 HD
ENDBRANCH   6   8
BRANCH   5  10
ATOM     10  C   UNL     1      -1.319  18.735  48.943  1.00  0.00    -0.075 C 
ATOM     11  C   UNL     1      -1.484  19.996  49.382  1.00  0.00     0.008 C 
ATOM     12  C   UNL     1      -1.362  17.643  49.983  1.00  0.00     0.039 C 
ENDBRANCH   5  10
TORSDOF 2
ENDMDL
MODEL 6
REMARK VINA RESULT:    -4.400      6.166      8.572
REMARK INTER + INTRA:          -4.911
REMARK INTER:                  -4.720
REMARK INTRA:                  -0.191
REMARK UNBOUND:                -0.125
REMARK SMILES C=C(C)[C@H]1CC[C@H](C)C[C@H]1O
REMARK SMILES IDX 8 1 7 2 6 3 5 4 4 5 10 6 9 7 11 8 2 10 1 11 3 12
REMARK H PARENT 11 9
REMARK Flexibility Score: inf
ROOT
ATOM      1  C   UNL     1      -2.316  22.031  49.955  1.00  0.00     0.008 C 
ATOM      2  C   UNL     1      -2.530  22.524  51.395  1.00  0.00    -0.012 C 
ATOM      3  C   UNL     1      -1.252  23.120  52.012  1.00  0.00     0.004 C 
ATOM      4  C   UNL     1      -0.863  24.449  51.358  1.00  0.00     0.011 C 
ATOM      5  C   UNL     1      -1.985  25.501  51.459  1.00  0.00     0.043 C 
ATOM      6  C   UNL     1      -3.355  24.935  50.972  1.00  0.00     0.121 C 
ATOM      7  C   UNL     1      -3.698  23.520  51.499  1.00  0.00     0.035 C 
ENDROOT
BRANCH   6   8
ATOM      8  O   UNL     1      -4.388  25.834  51.286  1.00  0.00    -0.392 OA
ATOM      9  H   UNL     1      -5.108  25.307  51.717  1.00  0.00     0.210 HD
ENDBRANCH   6   8
BRANCH   5  10
ATOM     10  C   UNL     1      -1.949  26.231  52.809  1.00  0.00    -0.075 C 
ATOM     11  C   UNL     1      -1.508  27.502  52.839  1.00  0.00     0.008 C 
ATOM     12  C   UNL     1      -2.375  25.629  54.125  1.00  0.00     0.039 C 
ENDBRANCH   5  10
TORSDOF 2
ENDMDL
MODEL 7
REMARK VINA RESULT:    -4.235      2.550      4.077
REMARK INTER + INTRA:          -4.732
REMARK INTER:                  -4.612
REMARK INTRA:                  -0.120
REMARK UNBOUND:                -0.125
REMARK SMILES C=C(C)[C@H]1CC[C@H](C)C[C@H]1O
REMARK SMILES IDX 8 1 7 2 6 3 5 4 4 5 10 6 9 7 11 8 2 10 1 11 3 12
REMARK H PARENT 11 9
REMARK Flexibility Score: inf
ROOT
ATOM      1  C   UNL     1      -0.080  22.920  48.571  1.00  0.00     0.008 C 
ATOM      2  C   UNL     1       0.105  21.463  49.027  1.00  0.00    -0.012 C 
ATOM      3  C   UNL     1      -0.965  21.021  50.042  1.00  0.00     0.004 C 
ATOM      4  C   UNL     1      -2.350  20.899  49.401  1.00  0.00     0.011 C 
ATOM      5  C   UNL     1      -2.363  19.907  48.220  1.00  0.00     0.043 C 
ATOM      6  C   UNL     1      -1.220  20.204  47.201  1.00  0.00     0.121 C 
ATOM      7  C   UNL     1       0.163  20.487  47.839  1.00  0.00     0.035 C 
ENDROOT
BRANCH   6   8
ATOM      8  O   UNL     1      -1.120  19.159  46.269  1.00  0.00    -0.392 OA
ATOM      9  H   UNL     1      -0.292  18.658  46.484  1.00  0.00     0.210 HD
ENDBRANCH   6   8
BRANCH   5  10
ATOM     10  C   UNL     1      -2.534  18.460  48.706  1.00  0.00    -0.075 C 
ATOM     11  C   UNL     1      -3.580  17.749  48.248  1.00  0.00     0.008 C 
ATOM     12  C   UNL     1      -1.607  17.762  49.669  1.00  0.00     0.039 C 
ENDBRANCH   5  10
TORSDOF 2
ENDMDL
MODEL 8
REMARK VINA RESULT:    -4.227      2.144      3.350
REMARK INTER + INTRA:          -4.723
REMARK INTER:                  -4.579
REMARK INTRA:                  -0.143
REMARK UNBOUND:                -0.125
REMARK SMILES C=C(C)[C@H]1CC[C@H](C)C[C@H]1O
REMARK SMILES IDX 8 1 7 2 6 3 5 4 4 5 10 6 9 7 11 8 2 10 1 11 3 12
REMARK H PARENT 11 9
REMARK Flexibility Score: inf
ROOT
ATOM      1  C   UNL     1       0.432  21.383  46.293  1.00  0.00     0.008 C 
ATOM      2  C   UNL     1      -0.855  20.543  46.347  1.00  0.00    -0.012 C 
ATOM      3  C   UNL     1      -0.580  19.034  46.233  1.00  0.00     0.004 C 
ATOM      4  C   UNL     1       0.120  18.480  47.477  1.00  0.00     0.011 C 
ATOM      5  C   UNL     1      -0.692  18.730  48.765  1.00  0.00     0.043 C 
ATOM      6  C   UNL     1      -1.126  20.221  48.896  1.00  0.00     0.121 C 
ATOM      7  C   UNL     1      -1.694  20.850  47.599  1.00  0.00     0.035 C 
ENDROOT
BRANCH   6   8
ATOM      8  O   UNL     1      -2.044  20.367  49.948  1.00  0.00    -0.392 OA
ATOM      9  H   UNL     1      -1.533  20.278  50.792  1.00  0.00     0.210 HD
ENDBRANCH   6   8
BRANCH   5  10
ATOM     10  C   UNL     1      -1.763  17.649  48.969  1.00  0.00    -0.075 C 
ATOM     11  C   UNL     1      -1.439  16.548  49.671  1.00  0.00     0.008 C 
ATOM     12  C   UNL     1      -3.173  17.724  48.438  1.00  0.00     0.039 C 
ENDBRANCH   5  10
TORSDOF 2
ENDMDL
MODEL 9
REMARK VINA RESULT:    -4.171      1.734      2.473
REMARK INTER + INTRA:          -4.662
REMARK INTER:                  -4.555
REMARK INTRA:                  -0.107
REMARK UNBOUND:                -0.125
REMARK SMILES C=C(C)[C@H]1CC[C@H](C)C[C@H]1O
REMARK SMILES IDX 8 1 7 2 6 3 5 4 4 5 10 6 9 7 11 8 2 10 1 11 3 12
REMARK H PARENT 11 9
REMARK Flexibility Score: inf
ROOT
ATOM      1  C   UNL     1      -1.296  15.875  48.141  1.00  0.00     0.008 C 
ATOM      2  C   UNL     1      -1.877  17.071  47.368  1.00  0.00    -0.012 C 
ATOM      3  C   UNL     1      -2.624  18.058  48.282  1.00  0.00     0.004 C 
ATOM      4  C   UNL     1      -1.672  18.814  49.212  1.00  0.00     0.011 C 
ATOM      5  C   UNL     1      -0.591  19.594  48.436  1.00  0.00     0.043 C 
ATOM      6  C   UNL     1       0.132  18.694  47.388  1.00  0.00     0.121 C 
ATOM      7  C   UNL     1      -0.806  17.800  46.540  1.00  0.00     0.035 C 
ENDROOT
BRANCH   6   8
ATOM      8  O   UNL     1       0.941  19.480  46.552  1.00  0.00    -0.392 OA
ATOM      9  H   UNL     1       1.583  19.958  47.136  1.00  0.00     0.210 HD
ENDBRANCH   6   8
BRANCH   5  10
ATOM     10  C   UNL     1      -1.114  20.961  47.970  1.00  0.00    -0.075 C 
ATOM     11  C   UNL     1      -1.041  22.000  48.822  1.00  0.00     0.008 C 
ATOM     12  C   UNL     1      -1.709  21.237  46.612  1.00  0.00     0.039 C 
ENDBRANCH   5  10
TORSDOF 2
ENDMDL
