MODEL 1
REMARK VINA RESULT:    -3.996      0.000      0.000
REMARK INTER + INTRA:          -5.107
REMARK INTER:                  -4.930
REMARK INTRA:                  -0.177
REMARK UNBOUND:                -0.177
REMARK SMILES CCCCCC(=O)[O-]
REMARK SMILES IDX 4 1 5 2 6 3 7 4 8 5 3 6 2 7 1 8
REMARK H PARENT
REMARK Flexibility Score: inf
ROOT
ATOM      1  C   UNL     1      -3.923  -5.272   6.285  1.00  0.00     0.006 C 
ENDROOT
BRANCH   1   2
ATOM      2  C   UNL     1      -4.157  -4.315   5.109  1.00  0.00     0.053 C 
BRANCH   2   3
ATOM      3  C   UNL     1      -4.650  -2.978   5.571  1.00  0.00     0.041 C 
ATOM      4  O   UNL     1      -4.342  -1.936   4.935  1.00  0.00    -0.550 OA
ATOM      5  O   UNL     1      -5.422  -2.879   6.721  1.00  0.00    -0.550 OA
ENDBRANCH   2   3
ENDBRANCH   1   2
BRANCH   1   6
ATOM      6  C   UNL     1      -4.920  -6.440   6.293  1.00  0.00     0.000 C 
BRANCH   6   7
ATOM      7  C   UNL     1      -6.000  -6.248   5.222  1.00  0.00    -0.003 C 
ATOM      8  C   UNL     1      -7.375  -6.049   5.854  1.00  0.00     0.004 C 
ENDBRANCH   6   7
ENDBRANCH   1   6
TORSDOF 4
ENDMDL
MODEL 2
REMARK VINA RESULT:    -3.819      2.993      3.999
REMARK INTER + INTRA:          -4.890
REMARK INTER:                  -4.821
REMARK INTRA:                  -0.068
REMARK UNBOUND:                -0.177
REMARK SMILES CCCCCC(=O)[O-]
REMARK SMILES IDX 4 1 5 2 6 3 7 4 8 5 3 6 2 7 1 8
REMARK H PARENT
REMARK Flexibility Score: inf
ROOT
ATOM      1  C   UNL     1      -4.078  -5.588   6.423  1.00  0.00     0.006 C 
ENDROOT
BRANCH   1   2
ATOM      2  C   UNL     1      -4.398  -4.863   7.737  1.00  0.00     0.053 C 
BRANCH   2   3
ATOM      3  C   UNL     1      -3.881  -5.613   8.926  1.00  0.00     0.041 C 
ATOM      4  O   UNL     1      -4.502  -6.619   9.358  1.00  0.00    -0.550 OA
ATOM      5  O   UNL     1      -2.732  -5.181   9.576  1.00  0.00    -0.550 OA
ENDBRANCH   2   3
ENDBRANCH   1   2
BRANCH   1   6
ATOM      6  C   UNL     1      -4.603  -4.830   5.195  1.00  0.00     0.000 C 
BRANCH   6   7
ATOM      7  C   UNL     1      -3.694  -3.643   4.853  1.00  0.00    -0.003 C 
ATOM      8  C   UNL     1      -4.379  -2.315   5.166  1.00  0.00     0.004 C 
ENDBRANCH   6   7
ENDBRANCH   1   6
TORSDOF 4
ENDMDL
MODEL 3
REMARK VINA RESULT:    -3.781     16.848     17.886
REMARK INTER + INTRA:          -4.843
REMARK INTER:                  -4.650
REMARK INTRA:                  -0.193
REMARK UNBOUND:                -0.177
REMARK SMILES CCCCCC(=O)[O-]
REMARK SMILES IDX 4 1 5 2 6 3 7 4 8 5 3 6 2 7 1 8
REMARK H PARENT
REMARK Flexibility Score: inf
ROOT
ATOM      1  C   UNL     1       2.096   6.025  -6.855  1.00  0.00     0.006 C 
ENDROOT
BRANCH   1   2
ATOM      2  C   UNL     1       2.278   7.388  -6.172  1.00  0.00     0.053 C 
BRANCH   2   3
ATOM      3  C   UNL     1       1.174   8.337  -6.521  1.00  0.00     0.041 C 
ATOM      4  O   UNL     1       1.198   9.521  -6.094  1.00  0.00    -0.550 OA
ATOM      5  O   UNL     1       0.101   7.905  -7.291  1.00  0.00    -0.550 OA
ENDBRANCH   2   3
ENDBRANCH   1   2
BRANCH   1   6
ATOM      6  C   UNL     1       1.407   5.003  -5.941  1.00  0.00     0.000 C 
BRANCH   6   7
ATOM      7  C   UNL     1       0.371   4.182  -6.718  1.00  0.00    -0.003 C 
ATOM      8  C   UNL     1       0.446   4.472  -8.214  1.00  0.00     0.004 C 
ENDBRANCH   6   7
ENDBRANCH   1   6
TORSDOF 4
ENDMDL
MODEL 4
REMARK VINA RESULT:    -3.731     16.425     17.625
REMARK INTER + INTRA:          -4.781
REMARK INTER:                  -4.632
REMARK INTRA:                  -0.150
REMARK UNBOUND:                -0.177
REMARK SMILES CCCCCC(=O)[O-]
REMARK SMILES IDX 4 1 5 2 6 3 7 4 8 5 3 6 2 7 1 8
REMARK H PARENT
REMARK Flexibility Score: inf
ROOT
ATOM      1  C   UNL     1       1.763   6.471  -6.844  1.00  0.00     0.006 C 
ENDROOT
BRANCH   1   2
ATOM      2  C   UNL     1       1.810   7.777  -6.040  1.00  0.00     0.053 C 
BRANCH   2   3
ATOM      3  C   UNL     1       2.992   7.822  -5.121  1.00  0.00     0.041 C 
ATOM      4  O   UNL     1       4.160   7.823  -5.592  1.00  0.00    -0.550 OA
ATOM      5  O   UNL     1       2.805   7.829  -3.744  1.00  0.00    -0.550 OA
ENDBRANCH   2   3
ENDBRANCH   1   2
BRANCH   1   6
ATOM      6  C   UNL     1       1.582   5.240  -5.943  1.00  0.00     0.000 C 
BRANCH   6   7
ATOM      7  C   UNL     1       0.426   4.363  -6.438  1.00  0.00    -0.003 C 
ATOM      8  C   UNL     1       0.377   4.322  -7.963  1.00  0.00     0.004 C 
ENDBRANCH   6   7
ENDBRANCH   1   6
TORSDOF 4
ENDMDL
MODEL 5
REMARK VINA RESULT:    -3.729     16.598     17.792
REMARK INTER + INTRA:          -4.778
REMARK INTER:                  -4.583
REMARK INTRA:                  -0.195
REMARK UNBOUND:                -0.177
REMARK SMILES CCCCCC(=O)[O-]
REMARK SMILES IDX 4 1 5 2 6 3 7 4 8 5 3 6 2 7 1 8
REMARK H PARENT
REMARK Flexibility Score: inf
ROOT
ATOM      1  C   UNL     1       2.263   5.853  -7.064  1.00  0.00     0.006 C 
ENDROOT
BRANCH   1   2
ATOM      2  C   UNL     1       2.611   7.333  -6.857  1.00  0.00     0.053 C 
BRANCH   2   3
ATOM      3  C   UNL     1       1.410   8.137  -6.463  1.00  0.00     0.041 C 
ATOM      4  O   UNL     1       0.359   8.084  -7.155  1.00  0.00    -0.550 OA
ATOM      5  O   UNL     1       1.461   8.969  -5.352  1.00  0.00    -0.550 OA
ENDBRANCH   2   3
ENDBRANCH   1   2
BRANCH   1   6
ATOM      6  C   UNL     1       1.586   5.236  -5.832  1.00  0.00     0.000 C 
BRANCH   6   7
ATOM      7  C   UNL     1       0.422   4.326  -6.243  1.00  0.00    -0.003 C 
ATOM      8  C   UNL     1       0.293   4.246  -7.761  1.00  0.00     0.004 C 
ENDBRANCH   6   7
ENDBRANCH   1   6
TORSDOF 4
ENDMDL
MODEL 6
REMARK VINA RESULT:    -3.689      2.153      3.626
REMARK INTER + INTRA:          -4.729
REMARK INTER:                  -4.517
REMARK INTRA:                  -0.212
REMARK UNBOUND:                -0.177
REMARK SMILES CCCCCC(=O)[O-]
REMARK SMILES IDX 4 1 5 2 6 3 7 4 8 5 3 6 2 7 1 8
REMARK H PARENT
REMARK Flexibility Score: inf
ROOT
ATOM      1  C   UNL     1      -4.805  -6.388   6.070  1.00  0.00     0.006 C 
ENDROOT
BRANCH   1   2
ATOM      2  C   UNL     1      -5.959  -6.196   5.077  1.00  0.00     0.053 C 
BRANCH   2   3
ATOM      3  C   UNL     1      -7.284  -6.121   5.772  1.00  0.00     0.041 C 
ATOM      4  O   UNL     1      -7.583  -5.106   6.456  1.00  0.00    -0.550 OA
ATOM      5  O   UNL     1      -8.174  -7.185   5.693  1.00  0.00    -0.550 OA
ENDBRANCH   2   3
ENDBRANCH   1   2
BRANCH   1   6
ATOM      6  C   UNL     1      -3.971  -5.111   6.246  1.00  0.00     0.000 C 
BRANCH   6   7
ATOM      7  C   UNL     1      -4.152  -4.167   5.051  1.00  0.00    -0.003 C 
ATOM      8  C   UNL     1      -4.535  -2.763   5.511  1.00  0.00     0.004 C 
ENDBRANCH   6   7
ENDBRANCH   1   6
TORSDOF 4
ENDMDL
MODEL 7
REMARK VINA RESULT:    -3.683     16.515     17.709
REMARK INTER + INTRA:          -4.722
REMARK INTER:                  -4.591
REMARK INTRA:                  -0.131
REMARK UNBOUND:                -0.177
REMARK SMILES CCCCCC(=O)[O-]
REMARK SMILES IDX 4 1 5 2 6 3 7 4 8 5 3 6 2 7 1 8
REMARK H PARENT
REMARK Flexibility Score: inf
ROOT
ATOM      1  C   UNL     1       2.188   5.863  -6.768  1.00  0.00     0.006 C 
ENDROOT
BRANCH   1   2
ATOM      2  C   UNL     1       1.120   4.873  -6.284  1.00  0.00     0.053 C 
BRANCH   2   3
ATOM      3  C   UNL     1       0.350   4.284  -7.426  1.00  0.00     0.041 C 
ATOM      4  O   UNL     1      -0.341   3.245  -7.254  1.00  0.00    -0.550 OA
ATOM      5  O   UNL     1       0.423   4.861  -8.687  1.00  0.00    -0.550 OA
ENDBRANCH   2   3
ENDBRANCH   1   2
BRANCH   1   6
ATOM      6  C   UNL     1       1.851   7.313  -6.393  1.00  0.00     0.000 C 
BRANCH   6   7
ATOM      7  C   UNL     1       2.876   7.877  -5.402  1.00  0.00    -0.003 C 
ATOM      8  C   UNL     1       2.500   7.532  -3.963  1.00  0.00     0.004 C 
ENDBRANCH   6   7
ENDBRANCH   1   6
TORSDOF 4
ENDMDL
MODEL 8
REMARK VINA RESULT:    -3.620     16.470     17.972
REMARK INTER + INTRA:          -4.643
REMARK INTER:                  -4.397
REMARK INTRA:                  -0.247
REMARK UNBOUND:                -0.177
REMARK SMILES CCCCCC(=O)[O-]
REMARK SMILES IDX 4 1 5 2 6 3 7 4 8 5 3 6 2 7 1 8
REMARK H PARENT
REMARK Flexibility Score: inf
ROOT
ATOM      1  C   UNL     1       0.317   6.774  -7.261  1.00  0.00     0.006 C 
ENDROOT
BRANCH   1   2
ATOM      2  C   UNL     1       1.405   7.734  -6.761  1.00  0.00     0.053 C 
BRANCH   2   3
ATOM      3  C   UNL     1       2.519   7.003  -6.077  1.00  0.00     0.041 C 
ATOM      4  O   UNL     1       2.323   6.448  -4.964  1.00  0.00    -0.550 OA
ATOM      5  O   UNL     1       3.783   6.962  -6.653  1.00  0.00    -0.550 OA
ENDBRANCH   2   3
ENDBRANCH   1   2
BRANCH   1   6
ATOM      6  C   UNL     1       0.793   5.920  -8.445  1.00  0.00     0.000 C 
BRANCH   6   7
ATOM      7  C   UNL     1       0.434   4.444  -8.236  1.00  0.00    -0.003 C 
ATOM      8  C   UNL     1       0.285   4.116  -6.753  1.00  0.00     0.004 C 
ENDBRANCH   6   7
ENDBRANCH   1   6
TORSDOF 4
ENDMDL
MODEL 9
REMARK VINA RESULT:    -3.404      2.871      4.001
REMARK INTER + INTRA:          -4.377
REMARK INTER:                  -4.228
REMARK INTRA:                  -0.150
REMARK UNBOUND:                -0.177
REMARK SMILES CCCCCC(=O)[O-]
REMARK SMILES IDX 4 1 5 2 6 3 7 4 8 5 3 6 2 7 1 8
REMARK H PARENT
REMARK Flexibility Score: inf
ROOT
ATOM      1  C   UNL     1      -4.210  -5.595   6.020  1.00  0.00     0.006 C 
ENDROOT
BRANCH   1   2
ATOM      2  C   UNL     1      -5.482  -6.135   5.353  1.00  0.00     0.053 C 
BRANCH   2   3
ATOM      3  C   UNL     1      -6.074  -7.274   6.125  1.00  0.00     0.041 C 
ATOM      4  O   UNL     1      -5.707  -8.456   5.892  1.00  0.00    -0.550 OA
ATOM      5  O   UNL     1      -7.054  -7.033   7.080  1.00  0.00    -0.550 OA
ENDBRANCH   2   3
ENDBRANCH   1   2
BRANCH   1   6
ATOM      6  C   UNL     1      -4.506  -4.442   6.990  1.00  0.00     0.000 C 
BRANCH   6   7
ATOM      7  C   UNL     1      -5.218  -3.289   6.272  1.00  0.00    -0.003 C 
ATOM      8  C   UNL     1      -4.307  -2.639   5.234  1.00  0.00     0.004 C 
ENDBRANCH   6   7
ENDBRANCH   1   6
TORSDOF 4
ENDMDL
