MODEL 1
REMARK VINA RESULT:    -4.727      0.000      0.000
REMARK INTER + INTRA:          -8.145
REMARK INTER:                  -7.214
REMARK INTRA:                  -0.930
REMARK UNBOUND:                -0.930
REMARK SMILES CCCCCCCCCCC(=O)[O-]
REMARK SMILES IDX 7 1 8 2 9 3 10 4 11 5 12 6 13 7 6 8 5 9 4 10 3 11 2 12 1 13
REMARK H PARENT
REMARK Flexibility Score: inf
ROOT
ATOM      1  C   UNL     1     103.041 108.041 230.618  1.00  0.00     0.000 C 
ENDROOT
BRANCH   1   2
ATOM      2  C   UNL     1     102.146 106.797 230.683  1.00  0.00     0.000 C 
BRANCH   2   3
ATOM      3  C   UNL     1     102.847 105.653 231.429  1.00  0.00     0.006 C 
BRANCH   3   4
ATOM      4  C   UNL     1     102.005 105.116 232.593  1.00  0.00     0.053 C 
BRANCH   4   5
ATOM      5  C   UNL     1     102.154 105.957 233.823  1.00  0.00     0.041 C 
ATOM      6  O   UNL     1     101.172 106.611 234.266  1.00  0.00    -0.550 OA
ATOM      7  O   UNL     1     103.385 106.048 234.461  1.00  0.00    -0.550 OA
ENDBRANCH   4   5
ENDBRANCH   3   4
ENDBRANCH   2   3
ENDBRANCH   1   2
BRANCH   1   8
ATOM      8  C   UNL     1     104.464 107.719 231.101  1.00  0.00     0.000 C 
BRANCH   8   9
ATOM      9  C   UNL     1     105.477 107.633 229.947  1.00  0.00    -0.000 C 
BRANCH   9  10
ATOM     10  C   UNL     1     104.805 107.357 228.591  1.00  0.00    -0.000 C 
BRANCH  10  11
ATOM     11  C   UNL     1     104.877 105.876 228.179  1.00  0.00    -0.000 C 
BRANCH  11  12
ATOM     12  C   UNL     1     103.959 105.482 227.008  1.00  0.00    -0.003 C 
ATOM     13  C   UNL     1     102.549 105.097 227.454  1.00  0.00     0.004 C 
ENDBRANCH  11  12
ENDBRANCH  10  11
ENDBRANCH   9  10
ENDBRANCH   8   9
ENDBRANCH   1   8
TORSDOF 9
ENDMDL
MODEL 2
REMARK VINA RESULT:    -4.720      2.450      4.913
REMARK INTER + INTRA:          -8.133
REMARK INTER:                  -7.140
REMARK INTRA:                  -0.993
REMARK UNBOUND:                -0.930
REMARK SMILES CCCCCCCCCCC(=O)[O-]
REMARK SMILES IDX 7 1 8 2 9 3 10 4 11 5 12 6 13 7 6 8 5 9 4 10 3 11 2 12 1 13
REMARK H PARENT
REMARK Flexibility Score: inf
ROOT
ATOM      1  C   UNL     1     105.481 106.649 230.019  1.00  0.00     0.000 C 
ENDROOT
BRANCH   1   2
ATOM      2  C   UNL     1     104.889 106.906 228.628  1.00  0.00     0.000 C 
BRANCH   2   3
ATOM      3  C   UNL     1     104.820 105.608 227.810  1.00  0.00     0.006 C 
BRANCH   3   4
ATOM      4  C   UNL     1     103.438 105.392 227.180  1.00  0.00     0.053 C 
BRANCH   4   5
ATOM      5  C   UNL     1     102.429 104.941 228.191  1.00  0.00     0.041 C 
ATOM      6  O   UNL     1     101.241 105.357 228.130  1.00  0.00    -0.550 OA
ATOM      7  O   UNL     1     102.807 104.089 229.221  1.00  0.00    -0.550 OA
ENDBRANCH   4   5
ENDBRANCH   3   4
ENDBRANCH   2   3
ENDBRANCH   1   2
BRANCH   1   8
ATOM      8  C   UNL     1     104.629 107.316 231.111  1.00  0.00     0.000 C 
BRANCH   8   9
ATOM      9  C   UNL     1     103.217 107.679 230.621  1.00  0.00    -0.000 C 
BRANCH   9  10
ATOM     10  C   UNL     1     102.114 106.939 231.399  1.00  0.00    -0.000 C 
BRANCH  10  11
ATOM     11  C   UNL     1     102.676 105.947 232.434  1.00  0.00    -0.000 C 
BRANCH  11  12
ATOM     12  C   UNL     1     101.973 105.970 233.803  1.00  0.00    -0.003 C 
ATOM     13  C   UNL     1     100.774 106.916 233.846  1.00  0.00     0.004 C 
ENDBRANCH  11  12
ENDBRANCH  10  11
ENDBRANCH   9  10
ENDBRANCH   8   9
ENDBRANCH   1   8
TORSDOF 9
ENDMDL
MODEL 3
REMARK VINA RESULT:    -4.673      1.331      2.110
REMARK INTER + INTRA:          -8.062
REMARK INTER:                  -6.948
REMARK INTRA:                  -1.113
REMARK UNBOUND:                -0.930
REMARK SMILES CCCCCCCCCCC(=O)[O-]
REMARK SMILES IDX 7 1 8 2 9 3 10 4 11 5 12 6 13 7 6 8 5 9 4 10 3 11 2 12 1 13
REMARK H PARENT
REMARK Flexibility Score: inf
ROOT
ATOM      1  C   UNL     1     104.770 106.923 231.201  1.00  0.00     0.000 C 
ENDROOT
BRANCH   1   2
ATOM      2  C   UNL     1     103.770 107.857 230.508  1.00  0.00     0.000 C 
BRANCH   2   3
ATOM      3  C   UNL     1     102.325 107.465 230.845  1.00  0.00     0.006 C 
BRANCH   3   4
ATOM      4  C   UNL     1     102.251 106.435 231.980  1.00  0.00     0.053 C 
BRANCH   4   5
ATOM      5  C   UNL     1     100.899 106.408 232.622  1.00  0.00     0.041 C 
ATOM      6  O   UNL     1      99.963 105.745 232.101  1.00  0.00    -0.550 OA
ATOM      7  O   UNL     1     100.661 107.143 233.777  1.00  0.00    -0.550 OA
ENDBRANCH   4   5
ENDBRANCH   3   4
ENDBRANCH   2   3
ENDBRANCH   1   2
BRANCH   1   8
ATOM      8  C   UNL     1     105.554 106.096 230.170  1.00  0.00     0.000 C 
BRANCH   8   9
ATOM      9  C   UNL     1     105.103 106.368 228.725  1.00  0.00    -0.000 C 
BRANCH   9  10
ATOM     10  C   UNL     1     104.680 105.086 227.988  1.00  0.00    -0.000 C 
BRANCH  10  11
ATOM     11  C   UNL     1     103.473 105.301 227.058  1.00  0.00    -0.000 C 
BRANCH  11  12
ATOM     12  C   UNL     1     102.098 105.184 227.740  1.00  0.00    -0.003 C 
ATOM     13  C   UNL     1     102.076 104.159 228.873  1.00  0.00     0.004 C 
ENDBRANCH  11  12
ENDBRANCH  10  11
ENDBRANCH   9  10
ENDBRANCH   8   9
ENDBRANCH   1   8
TORSDOF 9
ENDMDL
MODEL 4
REMARK VINA RESULT:    -4.662      2.611      3.209
REMARK INTER + INTRA:          -8.046
REMARK INTER:                  -6.849
REMARK INTRA:                  -1.197
REMARK UNBOUND:                -0.930
REMARK SMILES CCCCCCCCCCC(=O)[O-]
REMARK SMILES IDX 7 1 8 2 9 3 10 4 11 5 12 6 13 7 6 8 5 9 4 10 3 11 2 12 1 13
REMARK H PARENT
REMARK Flexibility Score: inf
ROOT
ATOM      1  C   UNL     1     102.160 106.961 231.368  1.00  0.00     0.000 C 
ENDROOT
BRANCH   1   2
ATOM      2  C   UNL     1     102.924 105.757 231.933  1.00  0.00     0.000 C 
BRANCH   2   3
ATOM      3  C   UNL     1     102.696 104.506 231.074  1.00  0.00     0.006 C 
BRANCH   3   4
ATOM      4  C   UNL     1     103.961 103.648 230.949  1.00  0.00     0.053 C 
BRANCH   4   5
ATOM      5  C   UNL     1     103.646 102.184 230.965  1.00  0.00     0.041 C 
ATOM      6  O   UNL     1     104.569 101.335 230.842  1.00  0.00    -0.550 OA
ATOM      7  O   UNL     1     102.329 101.756 231.081  1.00  0.00    -0.550 OA
ENDBRANCH   4   5
ENDBRANCH   3   4
ENDBRANCH   2   3
ENDBRANCH   1   2
BRANCH   1   8
ATOM      8  C   UNL     1     103.113 107.928 230.648  1.00  0.00     0.000 C 
BRANCH   8   9
ATOM      9  C   UNL     1     104.578 107.747 231.079  1.00  0.00    -0.000 C 
BRANCH   9  10
ATOM     10  C   UNL     1     105.504 107.412 229.896  1.00  0.00    -0.000 C 
BRANCH  10  11
ATOM     11  C   UNL     1     104.736 107.189 228.581  1.00  0.00    -0.000 C 
BRANCH  11  12
ATOM     12  C   UNL     1     104.773 105.747 228.044  1.00  0.00    -0.003 C 
ATOM     13  C   UNL     1     103.557 105.395 227.187  1.00  0.00     0.004 C 
ENDBRANCH  11  12
ENDBRANCH  10  11
ENDBRANCH   9  10
ENDBRANCH   8   9
ENDBRANCH   1   8
TORSDOF 9
ENDMDL
MODEL 5
REMARK VINA RESULT:    -4.638      3.449      5.471
REMARK INTER + INTRA:          -8.008
REMARK INTER:                  -6.971
REMARK INTRA:                  -1.037
REMARK UNBOUND:                -0.930
REMARK SMILES CCCCCCCCCCC(=O)[O-]
REMARK SMILES IDX 7 1 8 2 9 3 10 4 11 5 12 6 13 7 6 8 5 9 4 10 3 11 2 12 1 13
REMARK H PARENT
REMARK Flexibility Score: inf
ROOT
ATOM      1  C   UNL     1     102.603 105.020 229.473  1.00  0.00     0.000 C 
ENDROOT
BRANCH   1   2
ATOM      2  C   UNL     1     102.529 104.872 227.948  1.00  0.00     0.000 C 
BRANCH   2   3
ATOM      3  C   UNL     1     103.628 105.695 227.261  1.00  0.00     0.006 C 
BRANCH   3   4
ATOM      4  C   UNL     1     104.982 105.563 227.969  1.00  0.00     0.053 C 
BRANCH   4   5
ATOM      5  C   UNL     1     105.755 104.377 227.478  1.00  0.00     0.041 C 
ATOM      6  O   UNL     1     106.370 103.640 228.292  1.00  0.00    -0.550 OA
ATOM      7  O   UNL     1     105.825 104.107 226.116  1.00  0.00    -0.550 OA
ENDBRANCH   4   5
ENDBRANCH   3   4
ENDBRANCH   2   3
ENDBRANCH   1   2
BRANCH   1   8
ATOM      8  C   UNL     1     101.727 106.187 229.954  1.00  0.00     0.000 C 
BRANCH   8   9
ATOM      9  C   UNL     1     102.387 106.999 231.081  1.00  0.00    -0.000 C 
BRANCH   9  10
ATOM     10  C   UNL     1     103.595 107.815 230.589  1.00  0.00    -0.000 C 
BRANCH  10  11
ATOM     11  C   UNL     1     104.840 107.635 231.477  1.00  0.00    -0.000 C 
BRANCH  11  12
ATOM     12  C   UNL     1     105.097 106.193 231.951  1.00  0.00    -0.003 C 
ATOM     13  C   UNL     1     105.124 106.058 233.473  1.00  0.00     0.004 C 
ENDBRANCH  11  12
ENDBRANCH  10  11
ENDBRANCH   9  10
ENDBRANCH   8   9
ENDBRANCH   1   8
TORSDOF 9
ENDMDL
MODEL 6
REMARK VINA RESULT:    -4.617      2.694      3.198
REMARK INTER + INTRA:          -7.977
REMARK INTER:                  -6.725
REMARK INTRA:                  -1.251
REMARK UNBOUND:                -0.930
REMARK SMILES CCCCCCCCCCC(=O)[O-]
REMARK SMILES IDX 7 1 8 2 9 3 10 4 11 5 12 6 13 7 6 8 5 9 4 10 3 11 2 12 1 13
REMARK H PARENT
REMARK Flexibility Score: inf
ROOT
ATOM      1  C   UNL     1     103.673 105.928 232.184  1.00  0.00     0.000 C 
ENDROOT
BRANCH   1   2
ATOM      2  C   UNL     1     102.450 106.629 231.580  1.00  0.00     0.000 C 
BRANCH   2   3
ATOM      3  C   UNL     1     101.775 105.745 230.522  1.00  0.00     0.006 C 
BRANCH   3   4
ATOM      4  C   UNL     1     102.318 104.310 230.531  1.00  0.00     0.053 C 
BRANCH   4   5
ATOM      5  C   UNL     1     101.456 103.382 229.733  1.00  0.00     0.041 C 
ATOM      6  O   UNL     1     101.250 103.603 228.510  1.00  0.00    -0.550 OA
ATOM      7  O   UNL     1     100.850 102.292 230.347  1.00  0.00    -0.550 OA
ENDBRANCH   4   5
ENDBRANCH   3   4
ENDBRANCH   2   3
ENDBRANCH   1   2
BRANCH   1   8
ATOM      8  C   UNL     1     104.926 106.811 232.068  1.00  0.00     0.000 C 
BRANCH   8   9
ATOM      9  C   UNL     1     104.721 108.010 231.126  1.00  0.00    -0.000 C 
BRANCH   9  10
ATOM     10  C   UNL     1     105.575 107.910 229.851  1.00  0.00    -0.000 C 
BRANCH  10  11
ATOM     11  C   UNL     1     104.777 107.402 228.636  1.00  0.00    -0.000 C 
BRANCH  11  12
ATOM     12  C   UNL     1     104.880 105.888 228.378  1.00  0.00    -0.003 C 
ATOM     13  C   UNL     1     103.982 105.411 227.236  1.00  0.00     0.004 C 
ENDBRANCH  11  12
ENDBRANCH  10  11
ENDBRANCH   9  10
ENDBRANCH   8   9
ENDBRANCH   1   8
TORSDOF 9
ENDMDL
MODEL 7
REMARK VINA RESULT:    -4.599      1.506      2.279
REMARK INTER + INTRA:          -7.949
REMARK INTER:                  -6.748
REMARK INTRA:                  -1.201
REMARK UNBOUND:                -0.930
REMARK SMILES CCCCCCCCCCC(=O)[O-]
REMARK SMILES IDX 7 1 8 2 9 3 10 4 11 5 12 6 13 7 6 8 5 9 4 10 3 11 2 12 1 13
REMARK H PARENT
REMARK Flexibility Score: inf
ROOT
ATOM      1  C   UNL     1     104.750 107.823 231.396  1.00  0.00     0.000 C 
ENDROOT
BRANCH   1   2
ATOM      2  C   UNL     1     104.999 106.590 232.273  1.00  0.00     0.000 C 
BRANCH   2   3
ATOM      3  C   UNL     1     103.674 105.950 232.711  1.00  0.00     0.006 C 
BRANCH   3   4
ATOM      4  C   UNL     1     102.458 106.641 232.080  1.00  0.00     0.053 C 
BRANCH   4   5
ATOM      5  C   UNL     1     101.205 106.388 232.861  1.00  0.00     0.041 C 
ATOM      6  O   UNL     1     100.177 105.946 232.282  1.00  0.00    -0.550 OA
ATOM      7  O   UNL     1     101.161 106.673 234.220  1.00  0.00    -0.550 OA
ENDBRANCH   4   5
ENDBRANCH   3   4
ENDBRANCH   2   3
ENDBRANCH   1   2
BRANCH   1   8
ATOM      8  C   UNL     1     105.723 107.855 230.206  1.00  0.00     0.000 C 
BRANCH   8   9
ATOM      9  C   UNL     1     105.000 107.934 228.851  1.00  0.00    -0.000 C 
BRANCH   9  10
ATOM     10  C   UNL     1     104.246 106.637 228.509  1.00  0.00    -0.000 C 
BRANCH  10  11
ATOM     11  C   UNL     1     105.184 105.431 228.320  1.00  0.00    -0.000 C 
BRANCH  11  12
ATOM     12  C   UNL     1     105.003 104.301 229.349  1.00  0.00    -0.003 C 
ATOM     13  C   UNL     1     106.310 103.895 230.030  1.00  0.00     0.004 C 
ENDBRANCH  11  12
ENDBRANCH  10  11
ENDBRANCH   9  10
ENDBRANCH   8   9
ENDBRANCH   1   8
TORSDOF 9
ENDMDL
MODEL 8
REMARK VINA RESULT:    -4.577      1.236      3.029
REMARK INTER + INTRA:          -7.915
REMARK INTER:                  -6.559
REMARK INTRA:                  -1.356
REMARK UNBOUND:                -0.930
REMARK SMILES CCCCCCCCCCC(=O)[O-]
REMARK SMILES IDX 7 1 8 2 9 3 10 4 11 5 12 6 13 7 6 8 5 9 4 10 3 11 2 12 1 13
REMARK H PARENT
REMARK Flexibility Score: inf
ROOT
ATOM      1  C   UNL     1     102.607 104.040 229.349  1.00  0.00     0.000 C 
ENDROOT
BRANCH   1   2
ATOM      2  C   UNL     1     102.224 104.513 230.756  1.00  0.00     0.000 C 
BRANCH   2   3
ATOM      3  C   UNL     1     101.603 105.917 230.716  1.00  0.00     0.006 C 
BRANCH   3   4
ATOM      4  C   UNL     1     102.104 106.807 231.861  1.00  0.00     0.053 C 
BRANCH   4   5
ATOM      5  C   UNL     1     101.423 106.487 233.155  1.00  0.00     0.041 C 
ATOM      6  O   UNL     1     102.013 105.795 234.028  1.00  0.00    -0.550 OA
ATOM      7  O   UNL     1     100.123 106.921 233.385  1.00  0.00    -0.550 OA
ENDBRANCH   4   5
ENDBRANCH   3   4
ENDBRANCH   2   3
ENDBRANCH   1   2
BRANCH   1   8
ATOM      8  C   UNL     1     102.183 105.069 228.289  1.00  0.00     0.000 C 
BRANCH   8   9
ATOM      9  C   UNL     1     103.290 105.350 227.259  1.00  0.00    -0.000 C 
BRANCH   9  10
ATOM     10  C   UNL     1     104.649 105.642 227.918  1.00  0.00    -0.000 C 
BRANCH  10  11
ATOM     11  C   UNL     1     104.722 107.049 228.539  1.00  0.00    -0.000 C 
BRANCH  11  12
ATOM     12  C   UNL     1     105.345 107.106 229.946  1.00  0.00    -0.003 C 
ATOM     13  C   UNL     1     105.794 105.738 230.458  1.00  0.00     0.004 C 
ENDBRANCH  11  12
ENDBRANCH  10  11
ENDBRANCH   9  10
ENDBRANCH   8   9
ENDBRANCH   1   8
TORSDOF 9
ENDMDL
MODEL 9
REMARK VINA RESULT:    -4.554      2.290      4.284
REMARK INTER + INTRA:          -7.880
REMARK INTER:                  -6.760
REMARK INTRA:                  -1.120
REMARK UNBOUND:                -0.930
REMARK SMILES CCCCCCCCCCC(=O)[O-]
REMARK SMILES IDX 7 1 8 2 9 3 10 4 11 5 12 6 13 7 6 8 5 9 4 10 3 11 2 12 1 13
REMARK H PARENT
REMARK Flexibility Score: inf
ROOT
ATOM      1  C   UNL     1     104.649 105.745 228.353  1.00  0.00     0.000 C 
ENDROOT
BRANCH   1   2
ATOM      2  C   UNL     1     103.864 105.528 227.054  1.00  0.00     0.000 C 
BRANCH   2   3
ATOM      3  C   UNL     1     102.399 105.175 227.347  1.00  0.00     0.006 C 
BRANCH   3   4
ATOM      4  C   UNL     1     102.232 104.464 228.697  1.00  0.00     0.053 C 
BRANCH   4   5
ATOM      5  C   UNL     1     100.982 104.893 229.401  1.00  0.00     0.041 C 
ATOM      6  O   UNL     1     100.439 105.993 229.117  1.00  0.00    -0.550 OA
ATOM      7  O   UNL     1     100.435 104.094 230.398  1.00  0.00    -0.550 OA
ENDBRANCH   4   5
ENDBRANCH   3   4
ENDBRANCH   2   3
ENDBRANCH   1   2
BRANCH   1   8
ATOM      8  C   UNL     1     104.936 107.239 228.578  1.00  0.00     0.000 C 
BRANCH   8   9
ATOM      9  C   UNL     1     104.750 107.664 230.044  1.00  0.00    -0.000 C 
BRANCH   9  10
ATOM     10  C   UNL     1     103.268 107.766 230.446  1.00  0.00    -0.000 C 
BRANCH  10  11
ATOM     11  C   UNL     1     102.918 106.894 231.666  1.00  0.00    -0.000 C 
BRANCH  11  12
ATOM     12  C   UNL     1     103.981 105.848 232.044  1.00  0.00    -0.003 C 
ATOM     13  C   UNL     1     104.644 106.126 233.393  1.00  0.00     0.004 C 
ENDBRANCH  11  12
ENDBRANCH  10  11
ENDBRANCH   9  10
ENDBRANCH   8   9
ENDBRANCH   1   8
TORSDOF 9
ENDMDL
