MODEL 1
REMARK VINA RESULT:    -4.517      0.000      0.000
REMARK INTER + INTRA:          -5.115
REMARK INTER:                  -5.045
REMARK INTRA:                  -0.069
REMARK UNBOUND:                -0.069
REMARK SMILES COc1cc2ccc(=O)oc2c(O)c1O
REMARK SMILES IDX 3 1 14 2 12 3 11 4 5 5 4 6 6 7 7 8 8 9 9 10 10 11 2 12 1 13
REMARK SMILES IDX 15 14 13 16
REMARK H PARENT 15 15 13 17
REMARK Flexibility Score: inf
ROOT
ATOM      1  C   UNL     1       2.732  38.949   5.777  1.00  0.00     0.165 A 
ATOM      2  C   UNL     1       1.712  39.516   6.555  1.00  0.00     0.204 A 
ATOM      3  C   UNL     1       0.590  38.751   6.927  1.00  0.00     0.205 A 
ATOM      4  C   UNL     1       0.491  37.411   6.517  1.00  0.00     0.184 A 
ATOM      5  C   UNL     1       1.516  36.840   5.735  1.00  0.00     0.025 A 
ATOM      6  C   UNL     1       2.630  37.605   5.368  1.00  0.00     0.062 A 
ATOM      7  C   UNL     1       1.391  35.503   5.341  1.00  0.00     0.020 A 
ATOM      8  C   UNL     1       0.266  34.777   5.728  1.00  0.00     0.094 A 
ATOM      9  C   UNL     1      -0.711  35.407   6.504  1.00  0.00     0.336 A 
ATOM     10  O   UNL     1      -1.735  34.770   6.865  1.00  0.00    -0.246 OA
ATOM     11  O   UNL     1      -0.567  36.680   6.865  1.00  0.00    -0.419 OA
ENDROOT
BRANCH   1  12
ATOM     12  O   UNL     1       3.830  39.751   5.431  1.00  0.00    -0.493 OA
ATOM     13  C   UNL     1       5.134  39.621   5.988  1.00  0.00     0.278 C 
ENDBRANCH   1  12
BRANCH   2  14
ATOM     14  O   UNL     1       1.827  40.849   6.953  1.00  0.00    -0.502 OA
ATOM     15  H   UNL     1       1.041  41.487   6.943  1.00  0.00     0.293 HD
ENDBRANCH   2  14
BRANCH   3  16
ATOM     16  O   UNL     1      -0.415  39.335   7.702  1.00  0.00    -0.502 OA
ATOM     17  H   UNL     1      -0.296  40.236   8.149  1.00  0.00     0.293 HD
ENDBRANCH   3  16
TORSDOF 3
ENDMDL
MODEL 2
REMARK VINA RESULT:    -4.361      2.783      5.784
REMARK INTER + INTRA:          -4.941
REMARK INTER:                  -4.872
REMARK INTRA:                  -0.068
REMARK UNBOUND:                -0.069
REMARK SMILES COc1cc2ccc(=O)oc2c(O)c1O
REMARK SMILES IDX 3 1 14 2 12 3 11 4 5 5 4 6 6 7 7 8 8 9 9 10 10 11 2 12 1 13
REMARK SMILES IDX 15 14 13 16
REMARK H PARENT 15 15 13 17
REMARK Flexibility Score: inf
ROOT
ATOM      1  C   UNL     1       2.964  38.218   6.258  1.00  0.00     0.165 A 
ATOM      2  C   UNL     1       3.172  39.588   6.041  1.00  0.00     0.204 A 
ATOM      3  C   UNL     1       4.254  40.251   6.651  1.00  0.00     0.205 A 
ATOM      4  C   UNL     1       5.131  39.536   7.483  1.00  0.00     0.184 A 
ATOM      5  C   UNL     1       4.922  38.158   7.703  1.00  0.00     0.025 A 
ATOM      6  C   UNL     1       3.845  37.504   7.093  1.00  0.00     0.062 A 
ATOM      7  C   UNL     1       5.812  37.471   8.537  1.00  0.00     0.020 A 
ATOM      8  C   UNL     1       6.872  38.161   9.123  1.00  0.00     0.094 A 
ATOM      9  C   UNL     1       7.018  39.526   8.861  1.00  0.00     0.336 A 
ATOM     10  O   UNL     1       7.968  40.168   9.381  1.00  0.00    -0.246 OA
ATOM     11  O   UNL     1       6.158  40.154   8.064  1.00  0.00    -0.419 OA
ENDROOT
BRANCH   1  12
ATOM     12  O   UNL     1       1.871  37.601   5.628  1.00  0.00    -0.493 OA
ATOM     13  C   UNL     1       1.978  36.628   4.595  1.00  0.00     0.278 C 
ENDBRANCH   1  12
BRANCH   2  14
ATOM     14  O   UNL     1       2.290  40.282   5.210  1.00  0.00    -0.502 OA
ATOM     15  H   UNL     1       1.504  39.830   4.758  1.00  0.00     0.293 HD
ENDBRANCH   2  14
BRANCH   3  16
ATOM     16  O   UNL     1       4.444  41.615   6.421  1.00  0.00    -0.502 OA
ATOM     17  H   UNL     1       3.917  42.122   5.719  1.00  0.00     0.293 HD
ENDBRANCH   3  16
TORSDOF 3
ENDMDL
MODEL 3
REMARK VINA RESULT:    -4.200      2.597      4.357
REMARK INTER + INTRA:          -4.760
REMARK INTER:                  -4.691
REMARK INTRA:                  -0.069
REMARK UNBOUND:                -0.069
REMARK SMILES COc1cc2ccc(=O)oc2c(O)c1O
REMARK SMILES IDX 3 1 14 2 12 3 11 4 5 5 4 6 6 7 7 8 8 9 9 10 10 11 2 12 1 13
REMARK SMILES IDX 15 14 13 16
REMARK H PARENT 15 15 13 17
REMARK Flexibility Score: inf
ROOT
ATOM      1  C   UNL     1       0.220  36.657   5.373  1.00  0.00     0.165 A 
ATOM      2  C   UNL     1      -0.078  35.383   5.877  1.00  0.00     0.204 A 
ATOM      3  C   UNL     1      -1.086  35.217   6.846  1.00  0.00     0.205 A 
ATOM      4  C   UNL     1      -1.797  36.335   7.312  1.00  0.00     0.184 A 
ATOM      5  C   UNL     1      -1.498  37.618   6.806  1.00  0.00     0.025 A 
ATOM      6  C   UNL     1      -0.495  37.776   5.841  1.00  0.00     0.062 A 
ATOM      7  C   UNL     1      -2.223  38.714   7.288  1.00  0.00     0.020 A 
ATOM      8  C   UNL     1      -3.213  38.511   8.247  1.00  0.00     0.094 A 
ATOM      9  C   UNL     1      -3.457  37.212   8.704  1.00  0.00     0.336 A 
ATOM     10  O   UNL     1      -4.346  37.007   9.571  1.00  0.00    -0.246 OA
ATOM     11  O   UNL     1      -2.753  36.189   8.229  1.00  0.00    -0.419 OA
ENDROOT
BRANCH   1  12
ATOM     12  O   UNL     1       1.233  36.772   4.408  1.00  0.00    -0.493 OA
ATOM     13  C   UNL     1       2.562  37.205   4.679  1.00  0.00     0.278 C 
ENDBRANCH   1  12
BRANCH   2  14
ATOM     14  O   UNL     1       0.639  34.284   5.403  1.00  0.00    -0.502 OA
ATOM     15  H   UNL     1       0.238  33.355   5.354  1.00  0.00     0.293 HD
ENDBRANCH   2  14
BRANCH   3  16
ATOM     16  O   UNL     1      -1.367  33.940   7.335  1.00  0.00    -0.502 OA
ATOM     17  H   UNL     1      -0.843  33.526   8.097  1.00  0.00     0.293 HD
ENDBRANCH   3  16
TORSDOF 3
ENDMDL
MODEL 4
REMARK VINA RESULT:    -4.145      1.807      5.135
REMARK INTER + INTRA:          -4.699
REMARK INTER:                  -4.631
REMARK INTRA:                  -0.068
REMARK UNBOUND:                -0.069
REMARK SMILES COc1cc2ccc(=O)oc2c(O)c1O
REMARK SMILES IDX 3 1 14 2 12 3 11 4 5 5 4 6 6 7 7 8 8 9 9 10 10 11 2 12 1 13
REMARK SMILES IDX 15 14 13 16
REMARK H PARENT 15 15 13 17
REMARK Flexibility Score: inf
ROOT
ATOM      1  C   UNL     1      -2.099  35.219   7.181  1.00  0.00     0.165 A 
ATOM      2  C   UNL     1      -2.226  36.557   7.580  1.00  0.00     0.204 A 
ATOM      3  C   UNL     1      -1.246  37.504   7.229  1.00  0.00     0.205 A 
ATOM      4  C   UNL     1      -0.131  37.107   6.472  1.00  0.00     0.184 A 
ATOM      5  C   UNL     1      -0.001  35.761   6.069  1.00  0.00     0.025 A 
ATOM      6  C   UNL     1      -0.980  34.824   6.422  1.00  0.00     0.062 A 
ATOM      7  C   UNL     1       1.120  35.393   5.315  1.00  0.00     0.020 A 
ATOM      8  C   UNL     1       2.070  36.358   4.986  1.00  0.00     0.094 A 
ATOM      9  C   UNL     1       1.876  37.674   5.419  1.00  0.00     0.336 A 
ATOM     10  O   UNL     1       2.723  38.561   5.132  1.00  0.00    -0.246 OA
ATOM     11  O   UNL     1       0.802  37.995   6.133  1.00  0.00    -0.419 OA
ENDROOT
BRANCH   1  12
ATOM     12  O   UNL     1      -3.102  34.312   7.556  1.00  0.00    -0.493 OA
ATOM     13  C   UNL     1      -3.003  33.404   8.648  1.00  0.00     0.278 C 
ENDBRANCH   1  12
BRANCH   2  14
ATOM     14  O   UNL     1      -3.341  36.934   8.333  1.00  0.00    -0.502 OA
ATOM     15  H   UNL     1      -3.272  37.192   9.309  1.00  0.00     0.293 HD
ENDBRANCH   2  14
BRANCH   3  16
ATOM     16  O   UNL     1      -1.393  38.831   7.637  1.00  0.00    -0.502 OA
ATOM     17  H   UNL     1      -0.630  39.357   8.047  1.00  0.00     0.293 HD
ENDBRANCH   3  16
TORSDOF 3
ENDMDL
MODEL 5
REMARK VINA RESULT:    -4.012      1.968      5.515
REMARK INTER + INTRA:          -4.551
REMARK INTER:                  -4.482
REMARK INTRA:                  -0.069
REMARK UNBOUND:                -0.069
REMARK SMILES COc1cc2ccc(=O)oc2c(O)c1O
REMARK SMILES IDX 3 1 14 2 12 3 11 4 5 5 4 6 6 7 7 8 8 9 9 10 10 11 2 12 1 13
REMARK SMILES IDX 15 14 13 16
REMARK H PARENT 15 15 13 17
REMARK Flexibility Score: inf
ROOT
ATOM      1  C   UNL     1      -2.284  36.723   7.000  1.00  0.00     0.165 A 
ATOM      2  C   UNL     1      -1.668  35.565   6.502  1.00  0.00     0.204 A 
ATOM      3  C   UNL     1      -0.332  35.601   6.062  1.00  0.00     0.205 A 
ATOM      4  C   UNL     1       0.392  36.803   6.122  1.00  0.00     0.184 A 
ATOM      5  C   UNL     1      -0.226  37.969   6.622  1.00  0.00     0.025 A 
ATOM      6  C   UNL     1      -1.556  37.928   7.059  1.00  0.00     0.062 A 
ATOM      7  C   UNL     1       0.519  39.153   6.671  1.00  0.00     0.020 A 
ATOM      8  C   UNL     1       1.840  39.150   6.226  1.00  0.00     0.094 A 
ATOM      9  C   UNL     1       2.388  37.958   5.743  1.00  0.00     0.336 A 
ATOM     10  O   UNL     1       3.579  37.933   5.336  1.00  0.00    -0.246 OA
ATOM     11  O   UNL     1       1.657  36.847   5.708  1.00  0.00    -0.419 OA
ENDROOT
BRANCH   1  12
ATOM     12  O   UNL     1      -3.618  36.639   7.427  1.00  0.00    -0.493 OA
ATOM     13  C   UNL     1      -4.038  36.701   8.786  1.00  0.00     0.278 C 
ENDBRANCH   1  12
BRANCH   2  14
ATOM     14  O   UNL     1      -2.403  34.379   6.450  1.00  0.00    -0.502 OA
ATOM     15  H   UNL     1      -2.417  33.718   7.216  1.00  0.00     0.293 HD
ENDBRANCH   2  14
BRANCH   3  16
ATOM     16  O   UNL     1       0.262  34.437   5.570  1.00  0.00    -0.502 OA
ATOM     17  H   UNL     1      -0.280  33.618   5.323  1.00  0.00     0.293 HD
ENDBRANCH   3  16
TORSDOF 3
ENDMDL
MODEL 6
REMARK VINA RESULT:    -3.976      6.071      7.989
REMARK INTER + INTRA:          -4.510
REMARK INTER:                  -4.441
REMARK INTRA:                  -0.069
REMARK UNBOUND:                -0.069
REMARK SMILES COc1cc2ccc(=O)oc2c(O)c1O
REMARK SMILES IDX 3 1 14 2 12 3 11 4 5 5 4 6 6 7 7 8 8 9 9 10 10 11 2 12 1 13
REMARK SMILES IDX 15 14 13 16
REMARK H PARENT 15 15 13 17
REMARK Flexibility Score: inf
ROOT
ATOM      1  C   UNL     1      -2.525  41.391   7.655  1.00  0.00     0.165 A 
ATOM      2  C   UNL     1      -2.685  40.451   8.684  1.00  0.00     0.204 A 
ATOM      3  C   UNL     1      -3.691  40.620   9.654  1.00  0.00     0.205 A 
ATOM      4  C   UNL     1      -4.540  41.737   9.592  1.00  0.00     0.184 A 
ATOM      5  C   UNL     1      -4.380  42.683   8.558  1.00  0.00     0.025 A 
ATOM      6  C   UNL     1      -3.378  42.510   7.596  1.00  0.00     0.062 A 
ATOM      7  C   UNL     1      -5.241  43.786   8.521  1.00  0.00     0.020 A 
ATOM      8  C   UNL     1      -6.225  43.921   9.499  1.00  0.00     0.094 A 
ATOM      9  C   UNL     1      -6.326  42.944  10.495  1.00  0.00     0.336 A 
ATOM     10  O   UNL     1      -7.208  43.046  11.388  1.00  0.00    -0.246 OA
ATOM     11  O   UNL     1      -5.495  41.906  10.506  1.00  0.00    -0.419 OA
ENDROOT
BRANCH   1  12
ATOM     12  O   UNL     1      -1.508  41.179   6.711  1.00  0.00    -0.493 OA
ATOM     13  C   UNL     1      -1.718  40.681   5.394  1.00  0.00     0.278 C 
ENDBRANCH   1  12
BRANCH   2  14
ATOM     14  O   UNL     1      -1.832  39.347   8.729  1.00  0.00    -0.502 OA
ATOM     15  H   UNL     1      -0.829  39.443   8.829  1.00  0.00     0.293 HD
ENDBRANCH   2  14
BRANCH   3  16
ATOM     16  O   UNL     1      -3.834  39.673  10.670  1.00  0.00    -0.502 OA
ATOM     17  H   UNL     1      -4.541  38.948  10.636  1.00  0.00     0.293 HD
ENDBRANCH   3  16
TORSDOF 3
ENDMDL
MODEL 7
REMARK VINA RESULT:    -3.962      1.982      3.338
REMARK INTER + INTRA:          -4.495
REMARK INTER:                  -4.426
REMARK INTRA:                  -0.069
REMARK UNBOUND:                -0.069
REMARK SMILES COc1cc2ccc(=O)oc2c(O)c1O
REMARK SMILES IDX 3 1 14 2 12 3 11 4 5 5 4 6 6 7 7 8 8 9 9 10 10 11 2 12 1 13
REMARK SMILES IDX 15 14 13 16
REMARK H PARENT 15 15 13 17
REMARK Flexibility Score: inf
ROOT
ATOM      1  C   UNL     1       0.978  38.027   5.814  1.00  0.00     0.165 A 
ATOM      2  C   UNL     1       1.281  36.711   5.434  1.00  0.00     0.204 A 
ATOM      3  C   UNL     1       0.388  35.661   5.719  1.00  0.00     0.205 A 
ATOM      4  C   UNL     1      -0.817  35.933   6.389  1.00  0.00     0.184 A 
ATOM      5  C   UNL     1      -1.123  37.255   6.772  1.00  0.00     0.025 A 
ATOM      6  C   UNL     1      -0.231  38.295   6.485  1.00  0.00     0.062 A 
ATOM      7  C   UNL     1      -2.331  37.496   7.437  1.00  0.00     0.020 A 
ATOM      8  C   UNL     1      -3.191  36.432   7.703  1.00  0.00     0.094 A 
ATOM      9  C   UNL     1      -2.823  35.147   7.294  1.00  0.00     0.336 A 
ATOM     10  O   UNL     1      -3.585  34.172   7.524  1.00  0.00    -0.246 OA
ATOM     11  O   UNL     1      -1.669  34.946   6.663  1.00  0.00    -0.419 OA
ENDROOT
BRANCH   1  12
ATOM     12  O   UNL     1       1.901  39.039   5.507  1.00  0.00    -0.493 OA
ATOM     13  C   UNL     1       2.727  39.696   6.463  1.00  0.00     0.278 C 
ENDBRANCH   1  12
BRANCH   2  14
ATOM     14  O   UNL     1       2.483  36.460   4.769  1.00  0.00    -0.502 OA
ATOM     15  H   UNL     1       3.269  36.011   5.223  1.00  0.00     0.293 HD
ENDBRANCH   2  14
BRANCH   3  16
ATOM     16  O   UNL     1       0.709  34.359   5.332  1.00  0.00    -0.502 OA
ATOM     17  H   UNL     1       0.090  33.576   5.506  1.00  0.00     0.293 HD
ENDBRANCH   3  16
TORSDOF 3
ENDMDL
MODEL 8
REMARK VINA RESULT:    -3.926      1.953      3.550
REMARK INTER + INTRA:          -4.454
REMARK INTER:                  -4.400
REMARK INTRA:                  -0.054
REMARK UNBOUND:                -0.069
REMARK SMILES COc1cc2ccc(=O)oc2c(O)c1O
REMARK SMILES IDX 3 1 14 2 12 3 11 4 5 5 4 6 6 7 7 8 8 9 9 10 10 11 2 12 1 13
REMARK SMILES IDX 15 14 13 16
REMARK H PARENT 15 15 13 17
REMARK Flexibility Score: inf
ROOT
ATOM      1  C   UNL     1       2.318  38.040   6.281  1.00  0.00     0.165 A 
ATOM      2  C   UNL     1       1.508  36.992   5.818  1.00  0.00     0.204 A 
ATOM      3  C   UNL     1       0.126  36.985   6.086  1.00  0.00     0.205 A 
ATOM      4  C   UNL     1      -0.447  38.035   6.823  1.00  0.00     0.184 A 
ATOM      5  C   UNL     1       0.366  39.089   7.290  1.00  0.00     0.025 A 
ATOM      6  C   UNL     1       1.740  39.091   7.020  1.00  0.00     0.062 A 
ATOM      7  C   UNL     1      -0.232  40.122   8.022  1.00  0.00     0.020 A 
ATOM      8  C   UNL     1      -1.603  40.082   8.268  1.00  0.00     0.094 A 
ATOM      9  C   UNL     1      -2.348  39.006   7.775  1.00  0.00     0.336 A 
ATOM     10  O   UNL     1      -3.587  38.950   7.986  1.00  0.00    -0.246 OA
ATOM     11  O   UNL     1      -1.754  38.038   7.082  1.00  0.00    -0.419 OA
ENDROOT
BRANCH   1  12
ATOM     12  O   UNL     1       3.690  38.002   5.989  1.00  0.00    -0.493 OA
ATOM     13  C   UNL     1       4.711  38.520   6.834  1.00  0.00     0.278 C 
ENDBRANCH   1  12
BRANCH   2  14
ATOM     14  O   UNL     1       2.095  35.957   5.087  1.00  0.00    -0.502 OA
ATOM     15  H   UNL     1       2.532  35.160   5.533  1.00  0.00     0.293 HD
ENDBRANCH   2  14
BRANCH   3  16
ATOM     16  O   UNL     1      -0.661  35.933   5.616  1.00  0.00    -0.502 OA
ATOM     17  H   UNL     1      -1.530  35.667   6.064  1.00  0.00     0.293 HD
ENDBRANCH   3  16
TORSDOF 3
ENDMDL
MODEL 9
REMARK VINA RESULT:    -3.852      2.731      5.982
REMARK INTER + INTRA:          -4.372
REMARK INTER:                  -4.302
REMARK INTRA:                  -0.070
REMARK UNBOUND:                -0.069
REMARK SMILES COc1cc2ccc(=O)oc2c(O)c1O
REMARK SMILES IDX 3 1 14 2 12 3 11 4 5 5 4 6 6 7 7 8 8 9 9 10 10 11 2 12 1 13
REMARK SMILES IDX 15 14 13 16
REMARK H PARENT 15 15 13 17
REMARK Flexibility Score: inf
ROOT
ATOM      1  C   UNL     1      -3.621  36.016   5.798  1.00  0.00     0.165 A 
ATOM      2  C   UNL     1      -2.954  35.022   6.529  1.00  0.00     0.204 A 
ATOM      3  C   UNL     1      -1.547  34.967   6.539  1.00  0.00     0.205 A 
ATOM      4  C   UNL     1      -0.806  35.914   5.812  1.00  0.00     0.184 A 
ATOM      5  C   UNL     1      -1.476  36.914   5.077  1.00  0.00     0.025 A 
ATOM      6  C   UNL     1      -2.875  36.964   5.071  1.00  0.00     0.062 A 
ATOM      7  C   UNL     1      -0.712  37.844   4.362  1.00  0.00     0.020 A 
ATOM      8  C   UNL     1       0.679  37.758   4.395  1.00  0.00     0.094 A 
ATOM      9  C   UNL     1       1.276  36.741   5.146  1.00  0.00     0.336 A 
ATOM     10  O   UNL     1       2.530  36.645   5.189  1.00  0.00    -0.246 OA
ATOM     11  O   UNL     1       0.525  35.870   5.816  1.00  0.00    -0.419 OA
ENDROOT
BRANCH   1  12
ATOM     12  O   UNL     1      -5.024  36.030   5.819  1.00  0.00    -0.493 OA
ATOM     13  C   UNL     1      -5.813  36.935   6.585  1.00  0.00     0.278 C 
ENDBRANCH   1  12
BRANCH   2  14
ATOM     14  O   UNL     1      -3.707  34.090   7.245  1.00  0.00    -0.502 OA
ATOM     15  H   UNL     1      -3.562  33.092   7.153  1.00  0.00     0.293 HD
ENDBRANCH   2  14
BRANCH   3  16
ATOM     16  O   UNL     1      -0.902  33.970   7.273  1.00  0.00    -0.502 OA
ATOM     17  H   UNL     1      -0.128  34.172   7.894  1.00  0.00     0.293 HD
ENDBRANCH   3  16
TORSDOF 3
ENDMDL
