MODEL 1
REMARK VINA RESULT:    -4.177      0.000      0.000
REMARK INTER + INTRA:         -11.436
REMARK INTER:                  -8.084
REMARK INTRA:                  -3.352
REMARK UNBOUND:                -3.352
REMARK SMILES CCCCCCCCCCCCCCCCCC(=O)[O-]
REMARK SMILES IDX 10 1 11 2 12 3 13 4 14 5 15 6 16 7 17 8 18 9 19 10 20 11
REMARK SMILES IDX 9 12 8 13 7 14 6 15 5 16 4 17 3 18 2 19 1 20
REMARK H PARENT
REMARK Flexibility Score: inf
ROOT
ATOM      1  C   UNL     1      61.522  18.886  39.499  1.00  0.00     0.000 C 
ENDROOT
BRANCH   1   2
ATOM      2  C   UNL     1      61.021  18.890  38.045  1.00  0.00     0.000 C 
BRANCH   2   3
ATOM      3  C   UNL     1      59.805  17.970  37.842  1.00  0.00     0.000 C 
BRANCH   3   4
ATOM      4  C   UNL     1      59.407  17.221  39.125  1.00  0.00     0.000 C 
BRANCH   4   5
ATOM      5  C   UNL     1      59.209  15.714  38.889  1.00  0.00     0.000 C 
BRANCH   5   6
ATOM      6  C   UNL     1      59.632  14.864  40.097  1.00  0.00     0.000 C 
BRANCH   6   7
ATOM      7  C   UNL     1      59.990  13.420  39.714  1.00  0.00     0.006 C 
BRANCH   7   8
ATOM      8  C   UNL     1      61.026  12.836  40.679  1.00  0.00     0.053 C 
BRANCH   8   9
ATOM      9  C   UNL     1      62.025  12.008  39.935  1.00  0.00     0.041 C 
ATOM     10  O   UNL     1      62.123  12.106  38.683  1.00  0.00    -0.550 OA
ATOM     11  O   UNL     1      62.891  11.173  40.629  1.00  0.00    -0.550 OA
ENDBRANCH   8   9
ENDBRANCH   7   8
ENDBRANCH   6   7
ENDBRANCH   5   6
ENDBRANCH   4   5
ENDBRANCH   3   4
ENDBRANCH   2   3
ENDBRANCH   1   2
BRANCH   1  12
ATOM     12  C   UNL     1      63.049  19.049  39.594  1.00  0.00     0.000 C 
BRANCH  12  13
ATOM     13  C   UNL     1      63.736  17.844  40.261  1.00  0.00    -0.000 C 
BRANCH  13  14
ATOM     14  C   UNL     1      62.883  16.559  40.317  1.00  0.00    -0.000 C 
BRANCH  14  15
ATOM     15  C   UNL     1      63.311  15.448  39.337  1.00  0.00    -0.000 C 
BRANCH  15  16
ATOM     16  C   UNL     1      62.723  15.573  37.918  1.00  0.00    -0.000 C 
BRANCH  16  17
ATOM     17  C   UNL     1      63.761  15.814  36.803  1.00  0.00    -0.000 C 
BRANCH  17  18
ATOM     18  C   UNL     1      63.882  17.275  36.327  1.00  0.00    -0.000 C 
BRANCH  18  19
ATOM     19  C   UNL     1      65.278  17.899  36.506  1.00  0.00    -0.003 C 
ATOM     20  C   UNL     1      66.150  17.134  37.500  1.00  0.00     0.004 C 
ENDBRANCH  18  19
ENDBRANCH  17  18
ENDBRANCH  16  17
ENDBRANCH  15  16
ENDBRANCH  14  15
ENDBRANCH  13  14
ENDBRANCH  12  13
ENDBRANCH   1  12
TORSDOF 16
ENDMDL
MODEL 2
REMARK VINA RESULT:    -4.135      1.882      5.198
REMARK INTER + INTRA:         -11.356
REMARK INTER:                  -8.730
REMARK INTRA:                  -2.625
REMARK UNBOUND:                -3.352
REMARK SMILES CCCCCCCCCCCCCCCCCC(=O)[O-]
REMARK SMILES IDX 10 1 11 2 12 3 13 4 14 5 15 6 16 7 17 8 18 9 19 10 20 11
REMARK SMILES IDX 9 12 8 13 7 14 6 15 5 16 4 17 3 18 2 19 1 20
REMARK H PARENT
REMARK Flexibility Score: inf
ROOT
ATOM      1  C   UNL     1      60.487  18.401  38.135  1.00  0.00     0.000 C 
ENDROOT
BRANCH   1   2
ATOM      2  C   UNL     1      60.893  18.911  39.527  1.00  0.00     0.000 C 
BRANCH   2   3
ATOM      3  C   UNL     1      62.386  19.273  39.606  1.00  0.00     0.000 C 
BRANCH   3   4
ATOM      4  C   UNL     1      63.233  18.160  40.245  1.00  0.00     0.000 C 
BRANCH   4   5
ATOM      5  C   UNL     1      64.309  17.618  39.289  1.00  0.00     0.000 C 
BRANCH   5   6
ATOM      6  C   UNL     1      64.164  18.168  37.861  1.00  0.00     0.000 C 
BRANCH   6   7
ATOM      7  C   UNL     1      65.149  17.524  36.873  1.00  0.00     0.006 C 
BRANCH   7   8
ATOM      8  C   UNL     1      64.404  16.747  35.782  1.00  0.00     0.053 C 
BRANCH   8   9
ATOM      9  C   UNL     1      64.285  15.304  36.156  1.00  0.00     0.041 C 
ATOM     10  O   UNL     1      65.131  14.777  36.926  1.00  0.00    -0.550 OA
ATOM     11  O   UNL     1      63.206  14.555  35.705  1.00  0.00    -0.550 OA
ENDBRANCH   8   9
ENDBRANCH   7   8
ENDBRANCH   6   7
ENDBRANCH   5   6
ENDBRANCH   4   5
ENDBRANCH   3   4
ENDBRANCH   2   3
ENDBRANCH   1   2
BRANCH   1  12
ATOM     12  C   UNL     1      60.171  16.895  38.130  1.00  0.00     0.000 C 
BRANCH  12  13
ATOM     13  C   UNL     1      59.845  16.352  39.533  1.00  0.00    -0.000 C 
BRANCH  13  14
ATOM     14  C   UNL     1      60.718  15.165  39.990  1.00  0.00    -0.000 C 
BRANCH  14  15
ATOM     15  C   UNL     1      61.848  14.772  39.016  1.00  0.00    -0.000 C 
BRANCH  15  16
ATOM     16  C   UNL     1      63.125  14.231  39.687  1.00  0.00    -0.000 C 
BRANCH  16  17
ATOM     17  C   UNL     1      63.530  12.806  39.260  1.00  0.00    -0.000 C 
BRANCH  17  18
ATOM     18  C   UNL     1      62.444  11.730  39.459  1.00  0.00    -0.000 C 
BRANCH  18  19
ATOM     19  C   UNL     1      62.032  11.489  40.922  1.00  0.00    -0.003 C 
ATOM     20  C   UNL     1      60.518  11.505  41.125  1.00  0.00     0.004 C 
ENDBRANCH  18  19
ENDBRANCH  17  18
ENDBRANCH  16  17
ENDBRANCH  15  16
ENDBRANCH  14  15
ENDBRANCH  13  14
ENDBRANCH  12  13
ENDBRANCH   1  12
TORSDOF 16
ENDMDL
MODEL 3
REMARK VINA RESULT:    -4.058      2.457      5.303
REMARK INTER + INTRA:         -11.206
REMARK INTER:                  -8.205
REMARK INTRA:                  -3.002
REMARK UNBOUND:                -3.352
REMARK SMILES CCCCCCCCCCCCCCCCCC(=O)[O-]
REMARK SMILES IDX 10 1 11 2 12 3 13 4 14 5 15 6 16 7 17 8 18 9 19 10 20 11
REMARK SMILES IDX 9 12 8 13 7 14 6 15 5 16 4 17 3 18 2 19 1 20
REMARK H PARENT
REMARK Flexibility Score: inf
ROOT
ATOM      1  C   UNL     1      61.700  18.832  38.903  1.00  0.00     0.000 C 
ENDROOT
BRANCH   1   2
ATOM      2  C   UNL     1      62.801  19.195  39.913  1.00  0.00     0.000 C 
BRANCH   2   3
ATOM      3  C   UNL     1      63.657  17.979  40.309  1.00  0.00     0.000 C 
BRANCH   3   4
ATOM      4  C   UNL     1      62.820  16.704  40.503  1.00  0.00     0.000 C 
BRANCH   4   5
ATOM      5  C   UNL     1      63.438  15.483  39.799  1.00  0.00     0.000 C 
BRANCH   5   6
ATOM      6  C   UNL     1      63.220  15.504  38.277  1.00  0.00     0.000 C 
BRANCH   6   7
ATOM      7  C   UNL     1      64.503  15.202  37.489  1.00  0.00     0.006 C 
BRANCH   7   8
ATOM      8  C   UNL     1      65.400  16.441  37.401  1.00  0.00     0.053 C 
BRANCH   8   9
ATOM      9  C   UNL     1      64.752  17.497  36.563  1.00  0.00     0.041 C 
ATOM     10  O   UNL     1      64.725  18.692  36.960  1.00  0.00    -0.550 OA
ATOM     11  O   UNL     1      64.234  17.174  35.316  1.00  0.00    -0.550 OA
ENDBRANCH   8   9
ENDBRANCH   7   8
ENDBRANCH   6   7
ENDBRANCH   5   6
ENDBRANCH   4   5
ENDBRANCH   3   4
ENDBRANCH   2   3
ENDBRANCH   1   2
BRANCH   1  12
ATOM     12  C   UNL     1      60.310  19.319  39.350  1.00  0.00     0.000 C 
BRANCH  12  13
ATOM     13  C   UNL     1      59.263  18.191  39.370  1.00  0.00    -0.000 C 
BRANCH  13  14
ATOM     14  C   UNL     1      59.177  17.408  40.697  1.00  0.00    -0.000 C 
BRANCH  14  15
ATOM     15  C   UNL     1      59.151  15.873  40.549  1.00  0.00    -0.000 C 
BRANCH  15  16
ATOM     16  C   UNL     1      59.517  15.350  39.147  1.00  0.00    -0.000 C 
BRANCH  16  17
ATOM     17  C   UNL     1      60.058  13.907  39.112  1.00  0.00    -0.000 C 
BRANCH  17  18
ATOM     18  C   UNL     1      60.411  13.308  40.488  1.00  0.00    -0.000 C 
BRANCH  18  19
ATOM     19  C   UNL     1      61.604  12.334  40.483  1.00  0.00    -0.003 C 
ATOM     20  C   UNL     1      62.167  12.092  39.084  1.00  0.00     0.004 C 
ENDBRANCH  18  19
ENDBRANCH  17  18
ENDBRANCH  16  17
ENDBRANCH  15  16
ENDBRANCH  14  15
ENDBRANCH  13  14
ENDBRANCH  12  13
ENDBRANCH   1  12
TORSDOF 16
ENDMDL
MODEL 4
REMARK VINA RESULT:    -4.056      1.349      2.168
REMARK INTER + INTRA:         -11.202
REMARK INTER:                  -8.222
REMARK INTRA:                  -2.980
REMARK UNBOUND:                -3.352
REMARK SMILES CCCCCCCCCCCCCCCCCC(=O)[O-]
REMARK SMILES IDX 10 1 11 2 12 3 13 4 14 5 15 6 16 7 17 8 18 9 19 10 20 11
REMARK SMILES IDX 9 12 8 13 7 14 6 15 5 16 4 17 3 18 2 19 1 20
REMARK H PARENT
REMARK Flexibility Score: inf
ROOT
ATOM      1  C   UNL     1      62.907  18.626  39.730  1.00  0.00     0.000 C 
ENDROOT
BRANCH   1   2
ATOM      2  C   UNL     1      62.336  18.453  38.313  1.00  0.00     0.000 C 
BRANCH   2   3
ATOM      3  C   UNL     1      60.864  18.891  38.216  1.00  0.00     0.000 C 
BRANCH   3   4
ATOM      4  C   UNL     1      60.287  19.332  39.572  1.00  0.00     0.000 C 
BRANCH   4   5
ATOM      5  C   UNL     1      59.057  18.504  39.984  1.00  0.00     0.000 C 
BRANCH   5   6
ATOM      6  C   UNL     1      59.435  17.149  40.604  1.00  0.00     0.000 C 
BRANCH   6   7
ATOM      7  C   UNL     1      59.057  15.959  39.709  1.00  0.00     0.006 C 
BRANCH   7   8
ATOM      8  C   UNL     1      59.473  14.633  40.352  1.00  0.00     0.053 C 
BRANCH   8   9
ATOM      9  C   UNL     1      60.034  13.705  39.323  1.00  0.00     0.041 C 
ATOM     10  O   UNL     1      60.624  12.650  39.676  1.00  0.00    -0.550 OA
ATOM     11  O   UNL     1      59.852  13.972  37.972  1.00  0.00    -0.550 OA
ENDBRANCH   8   9
ENDBRANCH   7   8
ENDBRANCH   6   7
ENDBRANCH   5   6
ENDBRANCH   4   5
ENDBRANCH   3   4
ENDBRANCH   2   3
ENDBRANCH   1   2
BRANCH   1  12
ATOM     12  C   UNL     1      63.366  17.292  40.344  1.00  0.00     0.000 C 
BRANCH  12  13
ATOM     13  C   UNL     1      62.803  16.069  39.599  1.00  0.00    -0.000 C 
BRANCH  13  14
ATOM     14  C   UNL     1      63.556  14.748  39.857  1.00  0.00    -0.000 C 
BRANCH  14  15
ATOM     15  C   UNL     1      63.886  13.926  38.595  1.00  0.00    -0.000 C 
BRANCH  15  16
ATOM     16  C   UNL     1      63.295  14.483  37.285  1.00  0.00    -0.000 C 
BRANCH  16  17
ATOM     17  C   UNL     1      64.333  15.009  36.274  1.00  0.00    -0.000 C 
BRANCH  17  18
ATOM     18  C   UNL     1      64.144  16.478  35.847  1.00  0.00    -0.000 C 
BRANCH  18  19
ATOM     19  C   UNL     1      65.357  17.389  36.106  1.00  0.00    -0.003 C 
ATOM     20  C   UNL     1      65.897  17.269  37.530  1.00  0.00     0.004 C 
ENDBRANCH  18  19
ENDBRANCH  17  18
ENDBRANCH  16  17
ENDBRANCH  15  16
ENDBRANCH  14  15
ENDBRANCH  13  14
ENDBRANCH  12  13
ENDBRANCH   1  12
TORSDOF 16
ENDMDL
MODEL 5
REMARK VINA RESULT:    -3.995      2.361      5.309
REMARK INTER + INTRA:         -11.085
REMARK INTER:                  -8.290
REMARK INTRA:                  -2.795
REMARK UNBOUND:                -3.352
REMARK SMILES CCCCCCCCCCCCCCCCCC(=O)[O-]
REMARK SMILES IDX 10 1 11 2 12 3 13 4 14 5 15 6 16 7 17 8 18 9 19 10 20 11
REMARK SMILES IDX 9 12 8 13 7 14 6 15 5 16 4 17 3 18 2 19 1 20
REMARK H PARENT
REMARK Flexibility Score: inf
ROOT
ATOM      1  C   UNL     1      60.039  16.325  39.640  1.00  0.00     0.000 C 
ENDROOT
BRANCH   1   2
ATOM      2  C   UNL     1      60.250  16.903  38.231  1.00  0.00     0.000 C 
BRANCH   2   3
ATOM      3  C   UNL     1      60.394  18.435  38.243  1.00  0.00     0.000 C 
BRANCH   3   4
ATOM      4  C   UNL     1      60.932  18.970  39.580  1.00  0.00     0.000 C 
BRANCH   4   5
ATOM      5  C   UNL     1      62.437  19.286  39.524  1.00  0.00     0.000 C 
BRANCH   5   6
ATOM      6  C   UNL     1      63.304  18.142  40.072  1.00  0.00     0.000 C 
BRANCH   6   7
ATOM      7  C   UNL     1      64.408  17.711  39.095  1.00  0.00     0.006 C 
BRANCH   7   8
ATOM      8  C   UNL     1      64.028  18.052  37.651  1.00  0.00     0.053 C 
BRANCH   8   9
ATOM      9  C   UNL     1      64.569  17.023  36.710  1.00  0.00     0.041 C 
ATOM     10  O   UNL     1      65.128  15.987  37.157  1.00  0.00    -0.550 OA
ATOM     11  O   UNL     1      64.403  17.177  35.340  1.00  0.00    -0.550 OA
ENDBRANCH   8   9
ENDBRANCH   7   8
ENDBRANCH   6   7
ENDBRANCH   5   6
ENDBRANCH   4   5
ENDBRANCH   3   4
ENDBRANCH   2   3
ENDBRANCH   1   2
BRANCH   1  12
ATOM     12  C   UNL     1      60.743  14.970  39.830  1.00  0.00     0.000 C 
BRANCH  12  13
ATOM     13  C   UNL     1      61.974  14.807  38.920  1.00  0.00    -0.000 C 
BRANCH  13  14
ATOM     14  C   UNL     1      63.249  14.311  39.633  1.00  0.00    -0.000 C 
BRANCH  14  15
ATOM     15  C   UNL     1      63.714  12.896  39.232  1.00  0.00    -0.000 C 
BRANCH  15  16
ATOM     16  C   UNL     1      62.932  11.745  39.894  1.00  0.00    -0.000 C 
BRANCH  16  17
ATOM     17  C   UNL     1      62.014  10.951  38.943  1.00  0.00    -0.000 C 
BRANCH  17  18
ATOM     18  C   UNL     1      60.507  11.236  39.100  1.00  0.00    -0.000 C 
BRANCH  18  19
ATOM     19  C   UNL     1      59.840  11.883  37.872  1.00  0.00    -0.003 C 
ATOM     20  C   UNL     1      60.773  11.974  36.667  1.00  0.00     0.004 C 
ENDBRANCH  18  19
ENDBRANCH  17  18
ENDBRANCH  16  17
ENDBRANCH  15  16
ENDBRANCH  14  15
ENDBRANCH  13  14
ENDBRANCH  12  13
ENDBRANCH   1  12
TORSDOF 16
ENDMDL
MODEL 6
REMARK VINA RESULT:    -3.984      2.506      4.997
REMARK INTER + INTRA:         -11.062
REMARK INTER:                  -8.199
REMARK INTRA:                  -2.863
REMARK UNBOUND:                -3.352
REMARK SMILES CCCCCCCCCCCCCCCCCC(=O)[O-]
REMARK SMILES IDX 10 1 11 2 12 3 13 4 14 5 15 6 16 7 17 8 18 9 19 10 20 11
REMARK SMILES IDX 9 12 8 13 7 14 6 15 5 16 4 17 3 18 2 19 1 20
REMARK H PARENT
REMARK Flexibility Score: inf
ROOT
ATOM      1  C   UNL     1      62.344  18.439  38.458  1.00  0.00     0.000 C 
ENDROOT
BRANCH   1   2
ATOM      2  C   UNL     1      62.846  18.648  39.896  1.00  0.00     0.000 C 
BRANCH   2   3
ATOM      3  C   UNL     1      63.320  17.337  40.547  1.00  0.00     0.000 C 
BRANCH   3   4
ATOM      4  C   UNL     1      62.642  16.096  39.943  1.00  0.00     0.000 C 
BRANCH   4   5
ATOM      5  C   UNL     1      63.553  14.856  39.970  1.00  0.00     0.000 C 
BRANCH   5   6
ATOM      6  C   UNL     1      63.506  14.057  38.658  1.00  0.00     0.000 C 
BRANCH   6   7
ATOM      7  C   UNL     1      64.684  14.375  37.725  1.00  0.00     0.006 C 
BRANCH   7   8
ATOM      8  C   UNL     1      64.200  15.052  36.439  1.00  0.00     0.053 C 
BRANCH   8   9
ATOM      9  C   UNL     1      64.658  16.474  36.392  1.00  0.00     0.041 C 
ATOM     10  O   UNL     1      64.310  17.221  35.439  1.00  0.00    -0.550 OA
ATOM     11  O   UNL     1      65.418  16.995  37.431  1.00  0.00    -0.550 OA
ENDBRANCH   8   9
ENDBRANCH   7   8
ENDBRANCH   6   7
ENDBRANCH   5   6
ENDBRANCH   4   5
ENDBRANCH   3   4
ENDBRANCH   2   3
ENDBRANCH   1   2
BRANCH   1  12
ATOM     12  C   UNL     1      60.888  18.900  38.272  1.00  0.00     0.000 C 
BRANCH  12  13
ATOM     13  C   UNL     1      60.211  19.282  39.600  1.00  0.00    -0.000 C 
BRANCH  13  14
ATOM     14  C   UNL     1      59.007  18.402  39.993  1.00  0.00    -0.000 C 
BRANCH  14  15
ATOM     15  C   UNL     1      59.363  17.112  40.760  1.00  0.00    -0.000 C 
BRANCH  15  16
ATOM     16  C   UNL     1      58.930  15.805  40.069  1.00  0.00    -0.000 C 
BRANCH  16  17
ATOM     17  C   UNL     1      58.816  15.889  38.533  1.00  0.00    -0.000 C 
BRANCH  17  18
ATOM     18  C   UNL     1      60.042  15.367  37.757  1.00  0.00    -0.000 C 
BRANCH  18  19
ATOM     19  C   UNL     1      59.893  13.941  37.195  1.00  0.00    -0.003 C 
ATOM     20  C   UNL     1      60.048  12.861  38.264  1.00  0.00     0.004 C 
ENDBRANCH  18  19
ENDBRANCH  17  18
ENDBRANCH  16  17
ENDBRANCH  15  16
ENDBRANCH  14  15
ENDBRANCH  13  14
ENDBRANCH  12  13
ENDBRANCH   1  12
TORSDOF 16
ENDMDL
MODEL 7
REMARK VINA RESULT:    -3.956      1.699      4.267
REMARK INTER + INTRA:         -11.009
REMARK INTER:                  -8.255
REMARK INTRA:                  -2.754
REMARK UNBOUND:                -3.352
REMARK SMILES CCCCCCCCCCCCCCCCCC(=O)[O-]
REMARK SMILES IDX 10 1 11 2 12 3 13 4 14 5 15 6 16 7 17 8 18 9 19 10 20 11
REMARK SMILES IDX 9 12 8 13 7 14 6 15 5 16 4 17 3 18 2 19 1 20
REMARK H PARENT
REMARK Flexibility Score: inf
ROOT
ATOM      1  C   UNL     1      64.372  16.610  35.722  1.00  0.00     0.000 C 
ENDROOT
BRANCH   1   2
ATOM      2  C   UNL     1      64.533  15.138  36.135  1.00  0.00     0.000 C 
BRANCH   2   3
ATOM      3  C   UNL     1      63.590  14.747  37.287  1.00  0.00     0.000 C 
BRANCH   3   4
ATOM      4  C   UNL     1      64.325  14.049  38.443  1.00  0.00     0.000 C 
BRANCH   4   5
ATOM      5  C   UNL     1      63.371  13.608  39.566  1.00  0.00     0.000 C 
BRANCH   5   6
ATOM      6  C   UNL     1      63.143  12.089  39.588  1.00  0.00     0.000 C 
BRANCH   6   7
ATOM      7  C   UNL     1      61.657  11.708  39.500  1.00  0.00     0.006 C 
BRANCH   7   8
ATOM      8  C   UNL     1      60.961  12.468  38.366  1.00  0.00     0.053 C 
BRANCH   8   9
ATOM      9  C   UNL     1      60.441  11.514  37.338  1.00  0.00     0.041 C 
ATOM     10  O   UNL     1      59.412  11.801  36.670  1.00  0.00    -0.550 OA
ATOM     11  O   UNL     1      61.126  10.335  37.074  1.00  0.00    -0.550 OA
ENDBRANCH   8   9
ENDBRANCH   7   8
ENDBRANCH   6   7
ENDBRANCH   5   6
ENDBRANCH   4   5
ENDBRANCH   3   4
ENDBRANCH   2   3
ENDBRANCH   1   2
BRANCH   1  12
ATOM     12  C   UNL     1      64.724  17.582  36.862  1.00  0.00     0.000 C 
BRANCH  12  13
ATOM     13  C   UNL     1      63.567  18.537  37.206  1.00  0.00    -0.000 C 
BRANCH  13  14
ATOM     14  C   UNL     1      63.326  18.749  38.715  1.00  0.00    -0.000 C 
BRANCH  14  15
ATOM     15  C   UNL     1      63.918  17.658  39.631  1.00  0.00    -0.000 C 
BRANCH  15  16
ATOM     16  C   UNL     1      62.943  17.093  40.682  1.00  0.00    -0.000 C 
BRANCH  16  17
ATOM     17  C   UNL     1      61.449  17.304  40.362  1.00  0.00    -0.000 C 
BRANCH  17  18
ATOM     18  C   UNL     1      60.776  16.150  39.591  1.00  0.00    -0.000 C 
BRANCH  18  19
ATOM     19  C   UNL     1      60.500  16.440  38.105  1.00  0.00    -0.003 C 
ATOM     20  C   UNL     1      59.783  17.771  37.881  1.00  0.00     0.004 C 
ENDBRANCH  18  19
ENDBRANCH  17  18
ENDBRANCH  16  17
ENDBRANCH  15  16
ENDBRANCH  14  15
ENDBRANCH  13  14
ENDBRANCH  12  13
ENDBRANCH   1  12
TORSDOF 16
ENDMDL
MODEL 8
REMARK VINA RESULT:    -3.940      1.456      2.727
REMARK INTER + INTRA:         -10.977
REMARK INTER:                  -8.256
REMARK INTRA:                  -2.721
REMARK UNBOUND:                -3.352
REMARK SMILES CCCCCCCCCCCCCCCCCC(=O)[O-]
REMARK SMILES IDX 10 1 11 2 12 3 13 4 14 5 15 6 16 7 17 8 18 9 19 10 20 11
REMARK SMILES IDX 9 12 8 13 7 14 6 15 5 16 4 17 3 18 2 19 1 20
REMARK H PARENT
REMARK Flexibility Score: inf
ROOT
ATOM      1  C   UNL     1      59.875  17.380  38.196  1.00  0.00     0.000 C 
ENDROOT
BRANCH   1   2
ATOM      2  C   UNL     1      59.223  17.213  39.578  1.00  0.00     0.000 C 
BRANCH   2   3
ATOM      3  C   UNL     1      59.719  15.955  40.312  1.00  0.00     0.000 C 
BRANCH   3   4
ATOM      4  C   UNL     1      60.264  14.885  39.352  1.00  0.00     0.000 C 
BRANCH   4   5
ATOM      5  C   UNL     1      61.299  13.965  40.023  1.00  0.00     0.000 C 
BRANCH   5   6
ATOM      6  C   UNL     1      62.007  13.040  39.021  1.00  0.00     0.000 C 
BRANCH   6   7
ATOM      7  C   UNL     1      63.185  12.276  39.645  1.00  0.00     0.006 C 
BRANCH   7   8
ATOM      8  C   UNL     1      62.689  11.124  40.524  1.00  0.00     0.053 C 
BRANCH   8   9
ATOM      9  C   UNL     1      62.279   9.960  39.679  1.00  0.00     0.041 C 
ATOM     10  O   UNL     1      63.072   9.491  38.819  1.00  0.00    -0.550 OA
ATOM     11  O   UNL     1      61.047   9.352  39.882  1.00  0.00    -0.550 OA
ENDBRANCH   8   9
ENDBRANCH   7   8
ENDBRANCH   6   7
ENDBRANCH   5   6
ENDBRANCH   4   5
ENDBRANCH   3   4
ENDBRANCH   2   3
ENDBRANCH   1   2
BRANCH   1  12
ATOM     12  C   UNL     1      60.633  18.712  38.061  1.00  0.00     0.000 C 
BRANCH  12  13
ATOM     13  C   UNL     1      61.125  19.256  39.414  1.00  0.00    -0.000 C 
BRANCH  13  14
ATOM     14  C   UNL     1      62.649  19.170  39.633  1.00  0.00    -0.000 C 
BRANCH  14  15
ATOM     15  C   UNL     1      63.122  17.967  40.475  1.00  0.00    -0.000 C 
BRANCH  15  16
ATOM     16  C   UNL     1      63.477  16.707  39.663  1.00  0.00    -0.000 C 
BRANCH  16  17
ATOM     17  C   UNL     1      63.846  16.966  38.189  1.00  0.00    -0.000 C 
BRANCH  17  18
ATOM     18  C   UNL     1      63.206  15.997  37.174  1.00  0.00    -0.000 C 
BRANCH  18  19
ATOM     19  C   UNL     1      64.201  15.083  36.435  1.00  0.00    -0.003 C 
ATOM     20  C   UNL     1      65.139  14.337  37.382  1.00  0.00     0.004 C 
ENDBRANCH  18  19
ENDBRANCH  17  18
ENDBRANCH  16  17
ENDBRANCH  15  16
ENDBRANCH  14  15
ENDBRANCH  13  14
ENDBRANCH  12  13
ENDBRANCH   1  12
TORSDOF 16
ENDMDL
MODEL 9
REMARK VINA RESULT:    -3.910      2.676      5.535
REMARK INTER + INTRA:         -10.920
REMARK INTER:                  -8.311
REMARK INTRA:                  -2.609
REMARK UNBOUND:                -3.352
REMARK SMILES CCCCCCCCCCCCCCCCCC(=O)[O-]
REMARK SMILES IDX 10 1 11 2 12 3 13 4 14 5 15 6 16 7 17 8 18 9 19 10 20 11
REMARK SMILES IDX 9 12 8 13 7 14 6 15 5 16 4 17 3 18 2 19 1 20
REMARK H PARENT
REMARK Flexibility Score: inf
ROOT
ATOM      1  C   UNL     1      64.629  14.723  36.452  1.00  0.00     0.000 C 
ENDROOT
BRANCH   1   2
ATOM      2  C   UNL     1      63.602  15.825  36.760  1.00  0.00     0.000 C 
BRANCH   2   3
ATOM      3  C   UNL     1      64.100  17.222  36.349  1.00  0.00     0.000 C 
BRANCH   3   4
ATOM      4  C   UNL     1      63.894  18.273  37.453  1.00  0.00     0.000 C 
BRANCH   4   5
ATOM      5  C   UNL     1      64.399  17.792  38.824  1.00  0.00     0.000 C 
BRANCH   5   6
ATOM      6  C   UNL     1      63.419  18.115  39.963  1.00  0.00     0.000 C 
BRANCH   6   7
ATOM      7  C   UNL     1      62.466  16.951  40.276  1.00  0.00     0.006 C 
BRANCH   7   8
ATOM      8  C   UNL     1      61.016  17.436  40.369  1.00  0.00     0.053 C 
BRANCH   8   9
ATOM      9  C   UNL     1      60.554  17.959  39.046  1.00  0.00     0.041 C 
ATOM     10  O   UNL     1      60.271  19.179  38.910  1.00  0.00    -0.550 OA
ATOM     11  O   UNL     1      60.494  17.112  37.946  1.00  0.00    -0.550 OA
ENDBRANCH   8   9
ENDBRANCH   7   8
ENDBRANCH   6   7
ENDBRANCH   5   6
ENDBRANCH   4   5
ENDBRANCH   3   4
ENDBRANCH   2   3
ENDBRANCH   1   2
BRANCH   1  12
ATOM     12  C   UNL     1      65.117  14.004  37.722  1.00  0.00     0.000 C 
BRANCH  12  13
ATOM     13  C   UNL     1      64.120  14.117  38.890  1.00  0.00    -0.000 C 
BRANCH  13  14
ATOM     14  C   UNL     1      63.350  12.820  39.214  1.00  0.00    -0.000 C 
BRANCH  14  15
ATOM     15  C   UNL     1      62.013  13.022  39.956  1.00  0.00    -0.000 C 
BRANCH  15  16
ATOM     16  C   UNL     1      60.932  13.771  39.152  1.00  0.00    -0.000 C 
BRANCH  16  17
ATOM     17  C   UNL     1      60.920  13.468  37.641  1.00  0.00    -0.000 C 
BRANCH  17  18
ATOM     18  C   UNL     1      59.994  12.312  37.212  1.00  0.00    -0.000 C 
BRANCH  18  19
ATOM     19  C   UNL     1      60.720  11.072  36.660  1.00  0.00    -0.003 C 
ATOM     20  C   UNL     1      61.169  10.108  37.756  1.00  0.00     0.004 C 
ENDBRANCH  18  19
ENDBRANCH  17  18
ENDBRANCH  16  17
ENDBRANCH  15  16
ENDBRANCH  14  15
ENDBRANCH  13  14
ENDBRANCH  12  13
ENDBRANCH   1  12
TORSDOF 16
ENDMDL
