MODEL 1
REMARK VINA RESULT:    51.151      0.000      0.000
REMARK INTER + INTRA:          72.989
REMARK INTER:                  73.579
REMARK INTRA:                  -0.590
REMARK UNBOUND:                -0.590
REMARK SMILES O=c1c(O[C@H]2O[C@H](CO)[C@@H](O)[C@@H](O)[C@@H]2O)c(-c2ccc(O)cc2)oc2cc(O)cc(O)c12
REMARK SMILES IDX 4 1 3 2 16 3 24 4 2 5 25 6 1 7 32 8 26 9 30 10 27 11 29 12
REMARK SMILES IDX 17 13 18 14 19 15 20 16 23 17 22 18 21 19 31 21 28 23 5 25
REMARK SMILES IDX 14 26 6 27 12 28 7 29 10 30 15 31 13 33 8 35 9 36 11 38
REMARK H PARENT 21 20 31 22 28 24 15 32 13 34 9 37 11 39
REMARK Flexibility Score: inf
ROOT
ATOM      1  O   UNL     1       0.742  23.734  41.720  1.00  0.00    -0.454 OA
ENDROOT
BRANCH   1   2
ATOM      2  C   UNL     1       2.078  23.961  42.116  1.00  0.00     0.214 A 
ATOM      3  C   UNL     1       2.644  25.227  41.843  1.00  0.00     0.180 A 
ATOM      4  O   UNL     1       3.889  25.497  42.213  1.00  0.00    -0.452 OA
ATOM      5  C   UNL     1       2.875  23.016  42.809  1.00  0.00     0.239 A 
ATOM      6  C   UNL     1       4.672  24.632  42.840  1.00  0.00     0.146 A 
ATOM      7  O   UNL     1       2.415  21.891  43.117  1.00  0.00    -0.285 OA
ATOM      8  C   UNL     1       4.200  23.346  43.171  1.00  0.00     0.111 A 
ATOM      9  C   UNL     1       5.980  25.008  43.166  1.00  0.00     0.094 A 
ATOM     10  C   UNL     1       5.068  22.442  43.830  1.00  0.00     0.134 A 
ATOM     11  C   UNL     1       6.815  24.134  43.864  1.00  0.00     0.123 A 
ATOM     12  C   UNL     1       6.356  22.859  44.199  1.00  0.00     0.093 A 
BRANCH   3  13
ATOM     13  C   UNL     1       1.885  26.303  41.169  1.00  0.00     0.021 A 
ATOM     14  C   UNL     1       1.126  25.995  40.025  1.00  0.00     0.016 A 
ATOM     15  C   UNL     1       0.374  26.984  39.386  1.00  0.00     0.047 A 
ATOM     16  C   UNL     1       0.306  28.275  39.923  1.00  0.00     0.115 A 
ATOM     17  C   UNL     1       1.852  27.613  41.681  1.00  0.00     0.016 A 
ATOM     18  C   UNL     1       1.054  28.589  41.069  1.00  0.00     0.047 A 
BRANCH  16  19
ATOM     19  O   UNL     1      -0.515  29.232  39.327  1.00  0.00    -0.508 OA
ATOM     20  H   UNL     1      -1.527  29.169  39.364  1.00  0.00     0.293 HD
ENDBRANCH  16  19
ENDBRANCH   3  13
BRANCH  10  21
ATOM     21  O   UNL     1       4.685  21.114  44.062  1.00  0.00    -0.507 OA
ATOM     22  H   UNL     1       4.345  20.518  43.317  1.00  0.00     0.293 HD
ENDBRANCH  10  21
BRANCH  11  23
ATOM     23  O   UNL     1       8.122  24.505  44.192  1.00  0.00    -0.508 OA
ATOM     24  H   UNL     1       8.416  24.612  45.157  1.00  0.00     0.293 HD
ENDBRANCH  11  23
ENDBRANCH   1   2
BRANCH   1  25
ATOM     25  C   UNL     1       0.121  22.524  41.279  1.00  0.00     0.339 C 
ATOM     26  C   UNL     1      -0.413  22.669  39.817  1.00  0.00     0.214 C 
ATOM     27  O   UNL     1      -0.889  22.184  42.226  1.00  0.00    -0.332 OA
ATOM     28  C   UNL     1      -1.599  21.706  39.600  1.00  0.00     0.180 C 
ATOM     29  C   UNL     1      -2.158  22.711  41.875  1.00  0.00     0.179 C 
ATOM     30  C   UNL     1      -2.715  21.938  40.658  1.00  0.00     0.177 C 
BRANCH  26  31
ATOM     31  O   UNL     1       0.601  22.445  38.868  1.00  0.00    -0.384 OA
ATOM     32  H   UNL     1       0.399  21.597  38.397  1.00  0.00     0.211 HD
ENDBRANCH  26  31
BRANCH  28  33
ATOM     33  O   UNL     1      -2.097  21.863  38.299  1.00  0.00    -0.387 OA
ATOM     34  H   UNL     1      -1.309  21.981  37.700  1.00  0.00     0.211 HD
ENDBRANCH  28  33
BRANCH  29  35
ATOM     35  C   UNL     1      -3.093  22.643  43.092  1.00  0.00     0.191 C 
BRANCH  35  36
ATOM     36  O   UNL     1      -4.043  23.675  43.071  1.00  0.00    -0.394 OA
ATOM     37  H   UNL     1      -4.935  23.244  43.035  1.00  0.00     0.210 HD
ENDBRANCH  35  36
ENDBRANCH  29  35
BRANCH  30  38
ATOM     38  O   UNL     1      -3.801  22.639  40.089  1.00  0.00    -0.387 OA
ATOM     39  H   UNL     1      -3.652  22.658  39.107  1.00  0.00     0.211 HD
ENDBRANCH  30  38
ENDBRANCH   1  25
TORSDOF 11
ENDMDL
MODEL 2
REMARK VINA RESULT:    51.244      1.071      2.373
REMARK INTER + INTRA:          73.123
REMARK INTER:                  72.605
REMARK INTRA:                   0.517
REMARK UNBOUND:                -0.590
REMARK SMILES O=c1c(O[C@H]2O[C@H](CO)[C@@H](O)[C@@H](O)[C@@H]2O)c(-c2ccc(O)cc2)oc2cc(O)cc(O)c12
REMARK SMILES IDX 4 1 3 2 16 3 24 4 2 5 25 6 1 7 32 8 26 9 30 10 27 11 29 12
REMARK SMILES IDX 17 13 18 14 19 15 20 16 23 17 22 18 21 19 31 21 28 23 5 25
REMARK SMILES IDX 14 26 6 27 12 28 7 29 10 30 15 31 13 33 8 35 9 36 11 38
REMARK H PARENT 21 20 31 22 28 24 15 32 13 34 9 37 11 39
REMARK Flexibility Score: inf
ROOT
ATOM      1  O   UNL     1       1.357  22.626  41.920  1.00  0.00    -0.454 OA
ENDROOT
BRANCH   1   2
ATOM      2  C   UNL     1       2.624  23.091  42.331  1.00  0.00     0.214 A 
ATOM      3  C   UNL     1       2.994  24.409  41.978  1.00  0.00     0.180 A 
ATOM      4  O   UNL     1       4.167  24.899  42.357  1.00  0.00    -0.452 OA
ATOM      5  C   UNL     1       3.535  22.336  43.111  1.00  0.00     0.239 A 
ATOM      6  C   UNL     1       5.052  24.216  43.066  1.00  0.00     0.146 A 
ATOM      7  O   UNL     1       3.247  21.176  43.491  1.00  0.00    -0.285 OA
ATOM      8  C   UNL     1       4.778  22.898  43.480  1.00  0.00     0.111 A 
ATOM      9  C   UNL     1       6.273  24.818  43.395  1.00  0.00     0.094 A 
ATOM     10  C   UNL     1       5.753  22.192  44.226  1.00  0.00     0.134 A 
ATOM     11  C   UNL     1       7.210  24.139  44.176  1.00  0.00     0.123 A 
ATOM     12  C   UNL     1       6.945  22.834  44.595  1.00  0.00     0.093 A 
BRANCH   3  13
ATOM     13  C   UNL     1       2.100  25.300  41.207  1.00  0.00     0.021 A 
ATOM     14  C   UNL     1       1.606  26.470  41.813  1.00  0.00     0.016 A 
ATOM     15  C   UNL     1       0.787  27.348  41.099  1.00  0.00     0.047 A 
ATOM     16  C   UNL     1       0.510  27.111  39.747  1.00  0.00     0.115 A 
ATOM     17  C   UNL     1       1.783  25.041  39.861  1.00  0.00     0.016 A 
ATOM     18  C   UNL     1       1.005  25.950  39.132  1.00  0.00     0.047 A 
BRANCH  16  19
ATOM     19  O   UNL     1      -0.238  28.036  39.020  1.00  0.00    -0.508 OA
ATOM     20  H   UNL     1      -0.085  28.189  38.029  1.00  0.00     0.293 HD
ENDBRANCH  16  19
ENDBRANCH   3  13
BRANCH  10  21
ATOM     21  O   UNL     1       5.576  20.840  44.547  1.00  0.00    -0.507 OA
ATOM     22  H   UNL     1       6.178  20.365  45.211  1.00  0.00     0.293 HD
ENDBRANCH  10  21
BRANCH  11  23
ATOM     23  O   UNL     1       8.429  24.736  44.508  1.00  0.00    -0.508 OA
ATOM     24  H   UNL     1       8.652  25.683  44.219  1.00  0.00     0.293 HD
ENDBRANCH  11  23
ENDBRANCH   1   2
BRANCH   1  25
ATOM     25  C   UNL     1       0.102  23.311  41.903  1.00  0.00     0.339 C 
ATOM     26  C   UNL     1      -0.909  22.655  42.899  1.00  0.00     0.214 C 
ATOM     27  O   UNL     1      -0.359  23.339  40.555  1.00  0.00    -0.332 OA
ATOM     28  C   UNL     1      -2.352  22.916  42.419  1.00  0.00     0.180 C 
ATOM     29  C   UNL     1      -1.201  22.239  40.248  1.00  0.00     0.179 C 
ATOM     30  C   UNL     1      -2.560  22.419  40.961  1.00  0.00     0.177 C 
BRANCH  26  31
ATOM     31  O   UNL     1      -0.720  23.120  44.214  1.00  0.00    -0.384 OA
ATOM     32  H   UNL     1       0.165  22.804  44.526  1.00  0.00     0.211 HD
ENDBRANCH  26  31
BRANCH  28  33
ATOM     33  O   UNL     1      -3.255  22.297  43.297  1.00  0.00    -0.387 OA
ATOM     34  H   UNL     1      -3.429  22.944  44.035  1.00  0.00     0.211 HD
ENDBRANCH  28  33
BRANCH  29  35
ATOM     35  C   UNL     1      -1.347  22.116  38.725  1.00  0.00     0.191 C 
BRANCH  35  36
ATOM     36  O   UNL     1      -2.608  22.553  38.290  1.00  0.00    -0.394 OA
ATOM     37  H   UNL     1      -2.936  23.200  38.965  1.00  0.00     0.210 HD
ENDBRANCH  35  36
ENDBRANCH  29  35
BRANCH  30  38
ATOM     38  O   UNL     1      -3.285  21.207  40.947  1.00  0.00    -0.387 OA
ATOM     39  H   UNL     1      -3.531  21.005  41.888  1.00  0.00     0.211 HD
ENDBRANCH  30  38
ENDBRANCH   1  25
TORSDOF 11
ENDMDL
MODEL 3
REMARK VINA RESULT:    51.622      2.054      5.702
REMARK INTER + INTRA:          73.666
REMARK INTER:                  73.506
REMARK INTRA:                   0.160
REMARK UNBOUND:                -0.590
REMARK SMILES O=c1c(O[C@H]2O[C@H](CO)[C@@H](O)[C@@H](O)[C@@H]2O)c(-c2ccc(O)cc2)oc2cc(O)cc(O)c12
REMARK SMILES IDX 4 1 3 2 16 3 24 4 2 5 25 6 1 7 32 8 26 9 30 10 27 11 29 12
REMARK SMILES IDX 17 13 18 14 19 15 20 16 23 17 22 18 21 19 31 21 28 23 5 25
REMARK SMILES IDX 14 26 6 27 12 28 7 29 10 30 15 31 13 33 8 35 9 36 11 38
REMARK H PARENT 21 20 31 22 28 24 15 32 13 34 9 37 11 39
REMARK Flexibility Score: inf
ROOT
ATOM      1  O   UNL     1       0.512  24.945  40.000  1.00  0.00    -0.454 OA
ENDROOT
BRANCH   1   2
ATOM      2  C   UNL     1       0.930  23.899  40.851  1.00  0.00     0.214 A 
ATOM      3  C   UNL     1       0.088  22.770  40.976  1.00  0.00     0.180 A 
ATOM      4  O   UNL     1       0.445  21.752  41.748  1.00  0.00    -0.452 OA
ATOM      5  C   UNL     1       2.160  23.887  41.554  1.00  0.00     0.239 A 
ATOM      6  C   UNL     1       1.574  21.715  42.438  1.00  0.00     0.146 A 
ATOM      7  O   UNL     1       2.968  24.840  41.450  1.00  0.00    -0.285 OA
ATOM      8  C   UNL     1       2.490  22.784  42.374  1.00  0.00     0.111 A 
ATOM      9  C   UNL     1       1.847  20.602  43.243  1.00  0.00     0.094 A 
ATOM     10  C   UNL     1       3.682  22.719  43.135  1.00  0.00     0.134 A 
ATOM     11  C   UNL     1       3.047  20.516  43.950  1.00  0.00     0.123 A 
ATOM     12  C   UNL     1       3.962  21.568  43.888  1.00  0.00     0.093 A 
BRANCH   3  13
ATOM     13  C   UNL     1      -1.195  22.656  40.249  1.00  0.00     0.021 A 
ATOM     14  C   UNL     1      -2.391  22.531  40.980  1.00  0.00     0.016 A 
ATOM     15  C   UNL     1      -3.620  22.455  40.322  1.00  0.00     0.047 A 
ATOM     16  C   UNL     1      -3.682  22.579  38.929  1.00  0.00     0.115 A 
ATOM     17  C   UNL     1      -1.256  22.735  38.846  1.00  0.00     0.016 A 
ATOM     18  C   UNL     1      -2.495  22.712  38.191  1.00  0.00     0.047 A 
BRANCH  16  19
ATOM     19  O   UNL     1      -4.921  22.587  38.287  1.00  0.00    -0.508 OA
ATOM     20  H   UNL     1      -5.790  22.468  38.798  1.00  0.00     0.293 HD
ENDBRANCH  16  19
ENDBRANCH   3  13
BRANCH  10  21
ATOM     21  O   UNL     1       4.557  23.811  43.201  1.00  0.00    -0.507 OA
ATOM     22  H   UNL     1       4.299  24.725  42.848  1.00  0.00     0.293 HD
ENDBRANCH  10  21
BRANCH  11  23
ATOM     23  O   UNL     1       3.324  19.407  44.753  1.00  0.00    -0.508 OA
ATOM     24  H   UNL     1       4.074  18.762  44.527  1.00  0.00     0.293 HD
ENDBRANCH  11  23
ENDBRANCH   1   2
BRANCH   1  25
ATOM     25  C   UNL     1       1.114  26.221  39.769  1.00  0.00     0.339 C 
ATOM     26  C   UNL     1       0.886  27.177  40.985  1.00  0.00     0.214 C 
ATOM     27  O   UNL     1       0.601  26.726  38.539  1.00  0.00    -0.332 OA
ATOM     28  C   UNL     1       0.912  28.643  40.503  1.00  0.00     0.180 C 
ATOM     29  C   UNL     1      -0.546  27.541  38.726  1.00  0.00     0.179 C 
ATOM     30  C   UNL     1      -0.122  28.882  39.367  1.00  0.00     0.177 C 
BRANCH  26  31
ATOM     31  O   UNL     1       1.833  26.960  42.002  1.00  0.00    -0.384 OA
ATOM     32  H   UNL     1       1.583  26.132  42.483  1.00  0.00     0.211 HD
ENDBRANCH  26  31
BRANCH  28  33
ATOM     33  O   UNL     1       0.673  29.496  41.591  1.00  0.00    -0.387 OA
ATOM     34  H   UNL     1       1.563  29.810  41.912  1.00  0.00     0.211 HD
ENDBRANCH  28  33
BRANCH  29  35
ATOM     35  C   UNL     1      -1.260  27.733  37.380  1.00  0.00     0.191 C 
BRANCH  35  36
ATOM     36  O   UNL     1      -0.577  28.640  36.557  1.00  0.00    -0.394 OA
ATOM     37  H   UNL     1      -1.253  29.060  35.968  1.00  0.00     0.210 HD
ENDBRANCH  35  36
ENDBRANCH  29  35
BRANCH  30  38
ATOM     38  O   UNL     1      -1.254  29.567  39.861  1.00  0.00    -0.387 OA
ATOM     39  H   UNL     1      -1.889  28.878  40.190  1.00  0.00     0.211 HD
ENDBRANCH  30  38
ENDBRANCH   1  25
TORSDOF 11
ENDMDL
MODEL 4
REMARK VINA RESULT:    52.283      1.731      5.131
REMARK INTER + INTRA:          74.616
REMARK INTER:                  74.312
REMARK INTRA:                   0.304
REMARK UNBOUND:                -0.590
REMARK SMILES O=c1c(O[C@H]2O[C@H](CO)[C@@H](O)[C@@H](O)[C@@H]2O)c(-c2ccc(O)cc2)oc2cc(O)cc(O)c12
REMARK SMILES IDX 4 1 3 2 16 3 24 4 2 5 25 6 1 7 32 8 26 9 30 10 27 11 29 12
REMARK SMILES IDX 17 13 18 14 19 15 20 16 23 17 22 18 21 19 31 21 28 23 5 25
REMARK SMILES IDX 14 26 6 27 12 28 7 29 10 30 15 31 13 33 8 35 9 36 11 38
REMARK H PARENT 21 20 31 22 28 24 15 32 13 34 9 37 11 39
REMARK Flexibility Score: inf
ROOT
ATOM      1  O   UNL     1       2.827  26.106  40.970  1.00  0.00    -0.454 OA
ENDROOT
BRANCH   1   2
ATOM      2  C   UNL     1       3.586  25.278  41.824  1.00  0.00     0.214 A 
ATOM      3  C   UNL     1       3.035  24.032  42.201  1.00  0.00     0.180 A 
ATOM      4  O   UNL     1       3.718  23.209  42.986  1.00  0.00    -0.452 OA
ATOM      5  C   UNL     1       4.884  25.596  42.295  1.00  0.00     0.239 A 
ATOM      6  C   UNL     1       4.923  23.481  43.464  1.00  0.00     0.146 A 
ATOM      7  O   UNL     1       5.444  26.667  41.961  1.00  0.00    -0.285 OA
ATOM      8  C   UNL     1       5.567  24.691  43.139  1.00  0.00     0.111 A 
ATOM      9  C   UNL     1       5.549  22.553  44.305  1.00  0.00     0.094 A 
ATOM     10  C   UNL     1       6.849  24.957  43.678  1.00  0.00     0.134 A 
ATOM     11  C   UNL     1       6.835  22.794  44.791  1.00  0.00     0.123 A 
ATOM     12  C   UNL     1       7.483  23.988  44.471  1.00  0.00     0.093 A 
BRANCH   3  13
ATOM     13  C   UNL     1       1.709  23.579  41.728  1.00  0.00     0.021 A 
ATOM     14  C   UNL     1       1.561  23.164  40.392  1.00  0.00     0.016 A 
ATOM     15  C   UNL     1       0.328  22.700  39.926  1.00  0.00     0.047 A 
ATOM     16  C   UNL     1      -0.754  22.572  40.805  1.00  0.00     0.115 A 
ATOM     17  C   UNL     1       0.607  23.491  42.598  1.00  0.00     0.016 A 
ATOM     18  C   UNL     1      -0.613  22.976  42.142  1.00  0.00     0.047 A 
BRANCH  16  19
ATOM     19  O   UNL     1      -1.956  22.028  40.351  1.00  0.00    -0.508 OA
ATOM     20  H   UNL     1      -2.281  21.117  40.655  1.00  0.00     0.293 HD
ENDBRANCH  16  19
ENDBRANCH   3  13
BRANCH  10  21
ATOM     21  O   UNL     1       7.470  26.198  43.486  1.00  0.00    -0.507 OA
ATOM     22  H   UNL     1       7.674  26.819  44.261  1.00  0.00     0.293 HD
ENDBRANCH  10  21
BRANCH  11  23
ATOM     23  O   UNL     1       7.465  21.871  45.630  1.00  0.00    -0.508 OA
ATOM     24  H   UNL     1       8.404  21.535  45.440  1.00  0.00     0.293 HD
ENDBRANCH  11  23
ENDBRANCH   1   2
BRANCH   1  25
ATOM     25  C   UNL     1       1.478  26.558  41.110  1.00  0.00     0.339 C 
ATOM     26  C   UNL     1       0.791  26.714  39.714  1.00  0.00     0.214 C 
ATOM     27  O   UNL     1       1.499  27.760  41.875  1.00  0.00    -0.332 OA
ATOM     28  C   UNL     1      -0.325  27.777  39.802  1.00  0.00     0.180 C 
ATOM     29  C   UNL     1       1.575  28.919  41.060  1.00  0.00     0.179 C 
ATOM     30  C   UNL     1       0.224  29.128  40.340  1.00  0.00     0.177 C 
BRANCH  26  31
ATOM     31  O   UNL     1       0.288  25.489  39.242  1.00  0.00    -0.384 OA
ATOM     32  H   UNL     1      -0.347  25.681  38.506  1.00  0.00     0.211 HD
ENDBRANCH  26  31
BRANCH  28  33
ATOM     33  O   UNL     1      -0.916  27.939  38.540  1.00  0.00    -0.387 OA
ATOM     34  H   UNL     1      -0.221  28.334  37.944  1.00  0.00     0.211 HD
ENDBRANCH  28  33
BRANCH  29  35
ATOM     35  C   UNL     1       1.975  30.125  41.922  1.00  0.00     0.191 C 
BRANCH  35  36
ATOM     36  O   UNL     1       3.349  30.125  42.205  1.00  0.00    -0.394 OA
ATOM     37  H   UNL     1       3.795  29.637  41.467  1.00  0.00     0.210 HD
ENDBRANCH  35  36
ENDBRANCH  29  35
BRANCH  30  38
ATOM     38  O   UNL     1       0.368  30.060  39.289  1.00  0.00    -0.387 OA
ATOM     39  H   UNL     1      -0.448  29.993  38.727  1.00  0.00     0.211 HD
ENDBRANCH  30  38
ENDBRANCH   1  25
TORSDOF 11
ENDMDL
MODEL 5
REMARK VINA RESULT:    53.673      2.781      8.508
REMARK INTER + INTRA:          76.616
REMARK INTER:                  75.598
REMARK INTRA:                   1.018
REMARK UNBOUND:                -0.590
REMARK SMILES O=c1c(O[C@H]2O[C@H](CO)[C@@H](O)[C@@H](O)[C@@H]2O)c(-c2ccc(O)cc2)oc2cc(O)cc(O)c12
REMARK SMILES IDX 4 1 3 2 16 3 24 4 2 5 25 6 1 7 32 8 26 9 30 10 27 11 29 12
REMARK SMILES IDX 17 13 18 14 19 15 20 16 23 17 22 18 21 19 31 21 28 23 5 25
REMARK SMILES IDX 14 26 6 27 12 28 7 29 10 30 15 31 13 33 8 35 9 36 11 38
REMARK H PARENT 21 20 31 22 28 24 15 32 13 34 9 37 11 39
REMARK Flexibility Score: inf
ROOT
ATOM      1  O   UNL     1       4.724  23.973  43.829  1.00  0.00    -0.454 OA
ENDROOT
BRANCH   1   2
ATOM      2  C   UNL     1       3.718  24.403  42.937  1.00  0.00     0.214 A 
ATOM      3  C   UNL     1       2.719  23.474  42.566  1.00  0.00     0.180 A 
ATOM      4  O   UNL     1       1.741  23.835  41.745  1.00  0.00    -0.452 OA
ATOM      5  C   UNL     1       3.621  25.719  42.420  1.00  0.00     0.239 A 
ATOM      6  C   UNL     1       1.631  25.048  41.225  1.00  0.00     0.146 A 
ATOM      7  O   UNL     1       4.453  26.599  42.746  1.00  0.00    -0.285 OA
ATOM      8  C   UNL     1       2.568  26.052  41.540  1.00  0.00     0.111 A 
ATOM      9  C   UNL     1       0.573  25.321  40.349  1.00  0.00     0.094 A 
ATOM     10  C   UNL     1       2.427  27.334  40.955  1.00  0.00     0.134 A 
ATOM     11  C   UNL     1       0.406  26.600  39.817  1.00  0.00     0.123 A 
ATOM     12  C   UNL     1       1.327  27.603  40.127  1.00  0.00     0.093 A 
BRANCH   3  13
ATOM     13  C   UNL     1       2.697  22.089  43.084  1.00  0.00     0.021 A 
ATOM     14  C   UNL     1       3.886  21.521  43.580  1.00  0.00     0.016 A 
ATOM     15  C   UNL     1       3.889  20.227  44.105  1.00  0.00     0.047 A 
ATOM     16  C   UNL     1       2.692  19.508  44.213  1.00  0.00     0.115 A 
ATOM     17  C   UNL     1       1.504  21.346  43.152  1.00  0.00     0.016 A 
ATOM     18  C   UNL     1       1.500  20.069  43.728  1.00  0.00     0.047 A 
BRANCH  16  19
ATOM     19  O   UNL     1       2.690  18.250  44.817  1.00  0.00    -0.508 OA
ATOM     20  H   UNL     1       2.023  18.003  45.539  1.00  0.00     0.293 HD
ENDBRANCH  16  19
ENDBRANCH   3  13
BRANCH  10  21
ATOM     21  O   UNL     1       3.404  28.322  41.138  1.00  0.00    -0.507 OA
ATOM     22  H   UNL     1       3.241  29.132  41.725  1.00  0.00     0.293 HD
ENDBRANCH  10  21
BRANCH  11  23
ATOM     23  O   UNL     1      -0.648  26.878  38.944  1.00  0.00    -0.508 OA
ATOM     24  H   UNL     1      -1.545  26.410  39.029  1.00  0.00     0.293 HD
ENDBRANCH  11  23
ENDBRANCH   1   2
BRANCH   1  25
ATOM     25  C   UNL     1       5.952  23.295  43.553  1.00  0.00     0.339 C 
ATOM     26  C   UNL     1       6.705  22.936  44.875  1.00  0.00     0.214 C 
ATOM     27  O   UNL     1       6.710  24.115  42.667  1.00  0.00    -0.332 OA
ATOM     28  C   UNL     1       8.221  22.849  44.601  1.00  0.00     0.180 C 
ATOM     29  C   UNL     1       7.594  24.984  43.358  1.00  0.00     0.179 C 
ATOM     30  C   UNL     1       8.755  24.160  43.959  1.00  0.00     0.177 C 
BRANCH  26  31
ATOM     31  O   UNL     1       6.222  21.743  45.441  1.00  0.00    -0.384 OA
ATOM     32  H   UNL     1       6.017  21.114  44.703  1.00  0.00     0.211 HD
ENDBRANCH  26  31
BRANCH  28  33
ATOM     33  O   UNL     1       8.895  22.560  45.796  1.00  0.00    -0.387 OA
ATOM     34  H   UNL     1       8.771  21.586  45.970  1.00  0.00     0.211 HD
ENDBRANCH  28  33
BRANCH  29  35
ATOM     35  C   UNL     1       8.085  26.080  42.401  1.00  0.00     0.191 C 
BRANCH  35  36
ATOM     36  O   UNL     1       8.723  27.121  43.091  1.00  0.00    -0.394 OA
ATOM     37  H   UNL     1       8.670  27.924  42.513  1.00  0.00     0.210 HD
ENDBRANCH  35  36
ENDBRANCH  29  35
BRANCH  30  38
ATOM     38  O   UNL     1       9.458  24.929  44.913  1.00  0.00    -0.387 OA
ATOM     39  H   UNL     1       8.793  25.521  45.355  1.00  0.00     0.211 HD
ENDBRANCH  30  38
ENDBRANCH   1  25
TORSDOF 11
ENDMDL
