MODEL 1
REMARK VINA RESULT:    76.332      0.000      0.000
REMARK INTER + INTRA:          85.131
REMARK INTER:                  85.257
REMARK INTRA:                  -0.127
REMARK UNBOUND:                -0.127
REMARK SMILES CC1(C)CC[C@]2(CO)CC=C3[C@]4(C)CC[C@H]5C(C)(C)[C@@H](O)CC[C@]5(C)[C@@H]4CC[C@@]3(C)[C@H]2C1
REMARK SMILES IDX 1 1 2 2 4 3 5 4 6 5 9 6 10 7 11 8 12 9 14 10 15 11 16 12
REMARK SMILES IDX 17 13 20 14 22 15 23 16 24 17 26 18 27 19 28 20 29 21 31 22
REMARK SMILES IDX 32 23 30 24 25 25 18 26 19 27 13 28 3 29 7 30 8 31 21 33
REMARK H PARENT 8 32 21 34
REMARK Flexibility Score: inf
ROOT
ATOM      1  C   UNL     1      -1.124  46.567  51.417  1.00  0.00     0.011 C 
ATOM      2  C   UNL     1       0.305  47.018  51.026  1.00  0.00    -0.035 C 
ATOM      3  C   UNL     1       0.311  47.613  49.592  1.00  0.00     0.007 C 
ATOM      4  C   UNL     1       0.180  46.553  48.484  1.00  0.00     0.010 C 
ATOM      5  C   UNL     1       1.209  45.387  48.591  1.00  0.00     0.001 C 
ATOM      6  C   UNL     1       0.733  44.253  47.650  1.00  0.00     0.037 C 
ATOM      7  C   UNL     1       1.602  43.032  47.762  1.00  0.00    -0.026 C 
ATOM      8  C   UNL     1       2.387  42.766  48.845  1.00  0.00    -0.062 C 
ATOM      9  C   UNL     1       3.569  41.739  48.698  1.00  0.00    -0.008 C 
ATOM     10  C   UNL     1       2.942  40.323  48.757  1.00  0.00     0.012 C 
ATOM     11  C   UNL     1       3.962  39.192  48.805  1.00  0.00     0.006 C 
ATOM     12  C   UNL     1       4.874  39.332  50.048  1.00  0.00     0.003 C 
ATOM     13  C   UNL     1       5.659  38.006  50.434  1.00  0.00    -0.006 C 
ATOM     14  C   UNL     1       6.475  38.261  51.746  1.00  0.00     0.120 C 
ATOM     15  C   UNL     1       7.357  39.517  51.686  1.00  0.00     0.033 C 
ATOM     16  C   UNL     1       6.524  40.762  51.339  1.00  0.00     0.010 C 
ATOM     17  C   UNL     1       5.724  40.660  49.991  1.00  0.00    -0.025 C 
ATOM     18  C   UNL     1       4.733  41.926  49.787  1.00  0.00     0.005 C 
ATOM     19  C   UNL     1       4.217  42.495  51.128  1.00  0.00     0.006 C 
ATOM     20  C   UNL     1       3.335  43.726  50.958  1.00  0.00     0.012 C 
ATOM     21  C   UNL     1       2.028  43.439  50.196  1.00  0.00    -0.008 C 
ATOM     22  C   UNL     1       1.163  44.774  50.020  1.00  0.00     0.008 C 
ATOM     23  C   UNL     1       1.314  45.838  51.143  1.00  0.00     0.011 C 
ATOM     24  C   UNL     1       1.149  42.452  51.018  1.00  0.00     0.016 C 
ATOM     25  C   UNL     1       6.792  40.657  48.839  1.00  0.00     0.012 C 
ATOM     26  C   UNL     1       6.577  37.491  49.294  1.00  0.00     0.014 C 
ATOM     27  C   UNL     1       4.644  36.870  50.750  1.00  0.00     0.014 C 
ATOM     28  C   UNL     1       4.211  41.946  47.284  1.00  0.00     0.016 C 
ATOM     29  C   UNL     1       0.732  48.124  52.017  1.00  0.00     0.011 C 
ENDROOT
BRANCH   5  30
ATOM     30  C   UNL     1       2.626  45.871  48.130  1.00  0.00     0.163 C 
BRANCH  30  31
ATOM     31  O   UNL     1       2.574  46.679  46.989  1.00  0.00    -0.396 OA
ATOM     32  H   UNL     1       3.442  46.564  46.522  1.00  0.00     0.210 HD
ENDBRANCH  30  31
ENDBRANCH   5  30
BRANCH  14  33
ATOM     33  O   UNL     1       7.235  37.136  52.124  1.00  0.00    -0.393 OA
ATOM     34  H   UNL     1       6.690  36.323  51.966  1.00  0.00     0.210 HD
ENDBRANCH  14  33
TORSDOF 3
ENDMDL
