MODEL 1
REMARK VINA RESULT:    -5.400      0.000      0.000
REMARK INTER + INTRA:          -5.730
REMARK INTER:                  -5.716
REMARK INTRA:                  -0.014
REMARK UNBOUND:                -0.014
REMARK SMILES O=Cc1ccccc1
REMARK SMILES IDX 6 1 5 2 4 3 3 4 8 5 7 6 2 7 1 8
REMARK H PARENT
REMARK Flexibility Score: inf
ROOT
ATOM      1  C   UNL     1     -13.098   0.119 -10.436  1.00  0.00     0.000 A 
ATOM      2  C   UNL     1     -13.990   1.160 -10.163  1.00  0.00     0.001 A 
ATOM      3  C   UNL     1     -13.541   2.321  -9.527  1.00  0.00     0.011 A 
ATOM      4  C   UNL     1     -12.189   2.450  -9.159  1.00  0.00     0.014 A 
ATOM      5  C   UNL     1     -11.299   1.400  -9.439  1.00  0.00     0.011 A 
ATOM      6  C   UNL     1     -11.753   0.239 -10.074  1.00  0.00     0.001 A 
ENDROOT
BRANCH   4   7
ATOM      7  C   UNL     1     -11.693   3.665  -8.488  1.00  0.00     0.260 C 
ATOM      8  O   UNL     1     -10.535   3.708  -7.992  1.00  0.00    -0.298 OA
ENDBRANCH   4   7
TORSDOF 1
ENDMDL
MODEL 2
REMARK VINA RESULT:    -5.394      0.149      1.717
REMARK INTER + INTRA:          -5.723
REMARK INTER:                  -5.711
REMARK INTRA:                  -0.013
REMARK UNBOUND:                -0.014
REMARK SMILES O=Cc1ccccc1
REMARK SMILES IDX 6 1 5 2 4 3 3 4 8 5 7 6 2 7 1 8
REMARK H PARENT
REMARK Flexibility Score: inf
ROOT
ATOM      1  C   UNL     1     -13.296   0.142 -10.450  1.00  0.00     0.000 A 
ATOM      2  C   UNL     1     -11.924   0.218 -10.193  1.00  0.00     0.001 A 
ATOM      3  C   UNL     1     -11.384   1.360  -9.592  1.00  0.00     0.011 A 
ATOM      4  C   UNL     1     -12.219   2.438  -9.242  1.00  0.00     0.014 A 
ATOM      5  C   UNL     1     -13.596   2.352  -9.503  1.00  0.00     0.011 A 
ATOM      6  C   UNL     1     -14.131   1.208 -10.105  1.00  0.00     0.001 A 
ENDROOT
BRANCH   4   7
ATOM      7  C   UNL     1     -11.672   3.651  -8.607  1.00  0.00     0.260 C 
ATOM      8  O   UNL     1     -10.541   3.640  -8.050  1.00  0.00    -0.298 OA
ENDBRANCH   4   7
TORSDOF 1
ENDMDL
MODEL 3
REMARK VINA RESULT:    -5.320      1.144      2.015
REMARK INTER + INTRA:          -5.645
REMARK INTER:                  -5.636
REMARK INTRA:                  -0.009
REMARK UNBOUND:                -0.014
REMARK SMILES O=Cc1ccccc1
REMARK SMILES IDX 6 1 5 2 4 3 3 4 8 5 7 6 2 7 1 8
REMARK H PARENT
REMARK Flexibility Score: inf
ROOT
ATOM      1  C   UNL     1     -12.713   0.255 -10.305  1.00  0.00     0.000 A 
ATOM      2  C   UNL     1     -11.567   0.882  -9.808  1.00  0.00     0.001 A 
ATOM      3  C   UNL     1     -11.652   2.160  -9.247  1.00  0.00     0.011 A 
ATOM      4  C   UNL     1     -12.892   2.823  -9.180  1.00  0.00     0.014 A 
ATOM      5  C   UNL     1     -14.039   2.185  -9.682  1.00  0.00     0.011 A 
ATOM      6  C   UNL     1     -13.948   0.907 -10.242  1.00  0.00     0.001 A 
ENDROOT
BRANCH   4   7
ATOM      7  C   UNL     1     -13.006   4.170  -8.593  1.00  0.00     0.260 C 
ATOM      8  O   UNL     1     -12.905   4.348  -7.349  1.00  0.00    -0.298 OA
ENDBRANCH   4   7
TORSDOF 1
ENDMDL
MODEL 4
REMARK VINA RESULT:    -5.110      1.979      3.096
REMARK INTER + INTRA:          -5.423
REMARK INTER:                  -5.413
REMARK INTRA:                  -0.010
REMARK UNBOUND:                -0.014
REMARK SMILES O=Cc1ccccc1
REMARK SMILES IDX 6 1 5 2 4 3 3 4 8 5 7 6 2 7 1 8
REMARK H PARENT
REMARK Flexibility Score: inf
ROOT
ATOM      1  C   UNL     1     -13.080   3.736  -8.732  1.00  0.00     0.000 A 
ATOM      2  C   UNL     1     -13.786   2.703  -9.356  1.00  0.00     0.001 A 
ATOM      3  C   UNL     1     -13.122   1.537  -9.750  1.00  0.00     0.011 A 
ATOM      4  C   UNL     1     -11.741   1.396  -9.519  1.00  0.00     0.014 A 
ATOM      5  C   UNL     1     -11.040   2.438  -8.890  1.00  0.00     0.011 A 
ATOM      6  C   UNL     1     -11.709   3.603  -8.499  1.00  0.00     0.001 A 
ENDROOT
BRANCH   4   7
ATOM      7  C   UNL     1     -11.021   0.175  -9.924  1.00  0.00     0.260 C 
ATOM      8  O   UNL     1     -11.014  -0.208 -11.125  1.00  0.00    -0.298 OA
ENDBRANCH   4   7
TORSDOF 1
ENDMDL
MODEL 5
REMARK VINA RESULT:    -5.070      1.995      3.085
REMARK INTER + INTRA:          -5.381
REMARK INTER:                  -5.372
REMARK INTRA:                  -0.009
REMARK UNBOUND:                -0.014
REMARK SMILES O=Cc1ccccc1
REMARK SMILES IDX 6 1 5 2 4 3 3 4 8 5 7 6 2 7 1 8
REMARK H PARENT
REMARK Flexibility Score: inf
ROOT
ATOM      1  C   UNL     1     -13.693   2.231  -9.623  1.00  0.00     0.000 A 
ATOM      2  C   UNL     1     -14.013   1.013 -10.231  1.00  0.00     0.001 A 
ATOM      3  C   UNL     1     -13.021   0.050 -10.438  1.00  0.00     0.011 A 
ATOM      4  C   UNL     1     -11.696   0.299 -10.035  1.00  0.00     0.014 A 
ATOM      5  C   UNL     1     -11.384   1.524  -9.423  1.00  0.00     0.011 A 
ATOM      6  C   UNL     1     -12.379   2.486  -9.219  1.00  0.00     0.001 A 
ENDROOT
BRANCH   4   7
ATOM      7  C   UNL     1     -10.635  -0.703 -10.242  1.00  0.00     0.260 C 
ATOM      8  O   UNL     1     -10.336  -1.531  -9.339  1.00  0.00    -0.298 OA
ENDBRANCH   4   7
TORSDOF 1
ENDMDL
MODEL 6
REMARK VINA RESULT:    -5.062      1.974      3.274
REMARK INTER + INTRA:          -5.371
REMARK INTER:                  -5.363
REMARK INTRA:                  -0.009
REMARK UNBOUND:                -0.014
REMARK SMILES O=Cc1ccccc1
REMARK SMILES IDX 6 1 5 2 4 3 3 4 8 5 7 6 2 7 1 8
REMARK H PARENT
REMARK Flexibility Score: inf
ROOT
ATOM      1  C   UNL     1     -13.717   2.275  -9.575  1.00  0.00     0.000 A 
ATOM      2  C   UNL     1     -12.396   2.499  -9.174  1.00  0.00     0.001 A 
ATOM      3  C   UNL     1     -11.417   1.530  -9.409  1.00  0.00     0.011 A 
ATOM      4  C   UNL     1     -11.753   0.324 -10.051  1.00  0.00     0.014 A 
ATOM      5  C   UNL     1     -13.082   0.107 -10.452  1.00  0.00     0.011 A 
ATOM      6  C   UNL     1     -14.059   1.080 -10.213  1.00  0.00     0.001 A 
ENDROOT
BRANCH   4   7
ATOM      7  C   UNL     1     -10.737  -0.712 -10.310  1.00  0.00     0.260 C 
ATOM      8  O   UNL     1     -10.322  -1.461  -9.386  1.00  0.00    -0.298 OA
ENDBRANCH   4   7
TORSDOF 1
ENDMDL
MODEL 7
REMARK VINA RESULT:    -5.019      2.393      3.447
REMARK INTER + INTRA:          -5.326
REMARK INTER:                  -5.315
REMARK INTRA:                  -0.012
REMARK UNBOUND:                -0.014
REMARK SMILES O=Cc1ccccc1
REMARK SMILES IDX 6 1 5 2 4 3 3 4 8 5 7 6 2 7 1 8
REMARK H PARENT
REMARK Flexibility Score: inf
ROOT
ATOM      1  C   UNL     1     -13.021   2.717  -9.219  1.00  0.00     0.000 A 
ATOM      2  C   UNL     1     -14.136   2.063  -9.753  1.00  0.00     0.001 A 
ATOM      3  C   UNL     1     -13.997   0.799 -10.334  1.00  0.00     0.011 A 
ATOM      4  C   UNL     1     -12.735   0.178 -10.386  1.00  0.00     0.014 A 
ATOM      5  C   UNL     1     -11.621   0.841  -9.847  1.00  0.00     0.011 A 
ATOM      6  C   UNL     1     -11.764   2.106  -9.266  1.00  0.00     0.001 A 
ENDROOT
BRANCH   4   7
ATOM      7  C   UNL     1     -12.565  -1.154 -10.993  1.00  0.00     0.260 C 
ATOM      8  O   UNL     1     -11.844  -2.031 -10.447  1.00  0.00    -0.298 OA
ENDBRANCH   4   7
TORSDOF 1
ENDMDL
MODEL 8
REMARK VINA RESULT:    -4.971      2.024      2.667
REMARK INTER + INTRA:          -5.275
REMARK INTER:                  -5.266
REMARK INTRA:                  -0.009
REMARK UNBOUND:                -0.014
REMARK SMILES O=Cc1ccccc1
REMARK SMILES IDX 6 1 5 2 4 3 3 4 8 5 7 6 2 7 1 8
REMARK H PARENT
REMARK Flexibility Score: inf
ROOT
ATOM      1  C   UNL     1     -11.328  -0.763 -10.749  1.00  0.00     0.000 A 
ATOM      2  C   UNL     1     -12.650  -1.019 -11.125  1.00  0.00     0.001 A 
ATOM      3  C   UNL     1     -13.669  -0.138 -10.752  1.00  0.00     0.011 A 
ATOM      4  C   UNL     1     -13.371   1.012  -9.997  1.00  0.00     0.014 A 
ATOM      5  C   UNL     1     -12.040   1.262  -9.625  1.00  0.00     0.011 A 
ATOM      6  C   UNL     1     -11.023   0.376 -10.000  1.00  0.00     0.001 A 
ENDROOT
BRANCH   4   7
ATOM      7  C   UNL     1     -14.429   1.956  -9.593  1.00  0.00     0.260 C 
ATOM      8  O   UNL     1     -14.783   2.059  -8.388  1.00  0.00    -0.298 OA
ENDBRANCH   4   7
TORSDOF 1
ENDMDL
MODEL 9
REMARK VINA RESULT:    -4.869      2.168      3.851
REMARK INTER + INTRA:          -5.167
REMARK INTER:                  -5.154
REMARK INTRA:                  -0.013
REMARK UNBOUND:                -0.014
REMARK SMILES O=Cc1ccccc1
REMARK SMILES IDX 6 1 5 2 4 3 3 4 8 5 7 6 2 7 1 8
REMARK H PARENT
REMARK Flexibility Score: inf
ROOT
ATOM      1  C   UNL     1     -11.839   4.202  -8.076  1.00  0.00     0.000 A 
ATOM      2  C   UNL     1     -10.969   3.197  -8.509  1.00  0.00     0.001 A 
ATOM      3  C   UNL     1     -11.472   2.064  -9.158  1.00  0.00     0.011 A 
ATOM      4  C   UNL     1     -12.855   1.930  -9.378  1.00  0.00     0.014 A 
ATOM      5  C   UNL     1     -13.722   2.945  -8.941  1.00  0.00     0.011 A 
ATOM      6  C   UNL     1     -13.214   4.076  -8.292  1.00  0.00     0.001 A 
ENDROOT
BRANCH   4   7
ATOM      7  C   UNL     1     -13.407   0.745 -10.060  1.00  0.00     0.260 C 
ATOM      8  O   UNL     1     -14.599   0.382  -9.870  1.00  0.00    -0.298 OA
ENDBRANCH   4   7
TORSDOF 1
ENDMDL
