MODEL 1
REMARK VINA RESULT:    -3.922      0.000      0.000
REMARK INTER + INTRA:          -5.402
REMARK INTER:                  -5.068
REMARK INTRA:                  -0.334
REMARK UNBOUND:                -0.334
REMARK SMILES C=CC(=O)CCCCC
REMARK SMILES IDX 6 1 7 2 8 3 9 4 5 5 3 6 4 7 2 8 1 9
REMARK H PARENT
REMARK Flexibility Score: inf
ROOT
ATOM      1  C   UNL     1      14.529 -29.957  22.997  1.00  0.00     0.008 C 
ENDROOT
BRANCH   1   2
ATOM      2  C   UNL     1      13.837 -28.594  23.104  1.00  0.00     0.000 C 
BRANCH   2   3
ATOM      3  C   UNL     1      12.657 -28.650  24.080  1.00  0.00    -0.003 C 
ATOM      4  C   UNL     1      11.413 -28.000  23.479  1.00  0.00     0.004 C 
ENDBRANCH   2   3
ENDBRANCH   1   2
BRANCH   1   5
ATOM      5  C   UNL     1      13.502 -31.100  23.027  1.00  0.00     0.080 C 
BRANCH   5   6
ATOM      6  C   UNL     1      12.815 -31.313  21.697  1.00  0.00     0.155 C 
ATOM      7  O   UNL     1      11.650 -30.868  21.509  1.00  0.00    -0.295 OA
BRANCH   6   8
ATOM      8  C   UNL     1      13.471 -32.037  20.588  1.00  0.00     0.039 C 
ATOM      9  C   UNL     1      14.217 -33.128  20.759  1.00  0.00     0.012 C 
ENDBRANCH   6   8
ENDBRANCH   5   6
ENDBRANCH   1   5
TORSDOF 5
ENDMDL
MODEL 2
REMARK VINA RESULT:    -3.887      1.845      2.271
REMARK INTER + INTRA:          -5.357
REMARK INTER:                  -4.908
REMARK INTRA:                  -0.450
REMARK UNBOUND:                -0.334
REMARK SMILES C=CC(=O)CCCCC
REMARK SMILES IDX 6 1 7 2 8 3 9 4 5 5 3 6 4 7 2 8 1 9
REMARK H PARENT
REMARK Flexibility Score: inf
ROOT
ATOM      1  C   UNL     1      14.386 -30.347  21.394  1.00  0.00     0.008 C 
ENDROOT
BRANCH   1   2
ATOM      2  C   UNL     1      14.350 -29.557  22.707  1.00  0.00     0.000 C 
BRANCH   2   3
ATOM      3  C   UNL     1      13.131 -29.945  23.550  1.00  0.00    -0.003 C 
ATOM      4  C   UNL     1      12.356 -28.710  23.999  1.00  0.00     0.004 C 
ENDBRANCH   2   3
ENDBRANCH   1   2
BRANCH   1   5
ATOM      5  C   UNL     1      13.457 -31.569  21.460  1.00  0.00     0.080 C 
BRANCH   5   6
ATOM      6  C   UNL     1      14.191 -32.880  21.287  1.00  0.00     0.155 C 
ATOM      7  O   UNL     1      14.177 -33.469  20.172  1.00  0.00    -0.295 OA
BRANCH   6   8
ATOM      8  C   UNL     1      14.938 -33.507  22.397  1.00  0.00     0.039 C 
ATOM      9  C   UNL     1      14.652 -33.308  23.683  1.00  0.00     0.012 C 
ENDBRANCH   6   8
ENDBRANCH   5   6
ENDBRANCH   1   5
TORSDOF 5
ENDMDL
MODEL 3
REMARK VINA RESULT:    -3.887      1.959      2.802
REMARK INTER + INTRA:          -5.357
REMARK INTER:                  -4.936
REMARK INTRA:                  -0.421
REMARK UNBOUND:                -0.334
REMARK SMILES C=CC(=O)CCCCC
REMARK SMILES IDX 6 1 7 2 8 3 9 4 5 5 3 6 4 7 2 8 1 9
REMARK H PARENT
REMARK Flexibility Score: inf
ROOT
ATOM      1  C   UNL     1      12.754 -31.370  20.918  1.00  0.00     0.008 C 
ENDROOT
BRANCH   1   2
ATOM      2  C   UNL     1      12.017 -30.630  22.040  1.00  0.00     0.000 C 
BRANCH   2   3
ATOM      3  C   UNL     1      13.006 -30.015  23.035  1.00  0.00    -0.003 C 
ATOM      4  C   UNL     1      12.328 -28.963  23.908  1.00  0.00     0.004 C 
ENDBRANCH   2   3
ENDBRANCH   1   2
BRANCH   1   5
ATOM      5  C   UNL     1      14.221 -31.624  21.295  1.00  0.00     0.080 C 
BRANCH   5   6
ATOM      6  C   UNL     1      14.559 -33.094  21.403  1.00  0.00     0.155 C 
ATOM      7  O   UNL     1      14.512 -33.830  20.379  1.00  0.00    -0.295 OA
BRANCH   6   8
ATOM      8  C   UNL     1      14.949 -33.712  22.687  1.00  0.00     0.039 C 
ATOM      9  C   UNL     1      14.585 -33.233  23.876  1.00  0.00     0.012 C 
ENDBRANCH   6   8
ENDBRANCH   5   6
ENDBRANCH   1   5
TORSDOF 5
ENDMDL
MODEL 4
REMARK VINA RESULT:    -3.793      1.610      2.151
REMARK INTER + INTRA:          -5.236
REMARK INTER:                  -5.113
REMARK INTRA:                  -0.123
REMARK UNBOUND:                -0.334
REMARK SMILES C=CC(=O)CCCCC
REMARK SMILES IDX 6 1 7 2 8 3 9 4 5 5 3 6 4 7 2 8 1 9
REMARK H PARENT
REMARK Flexibility Score: inf
ROOT
ATOM      1  C   UNL     1      12.747 -31.090  22.143  1.00  0.00     0.008 C 
ENDROOT
BRANCH   1   2
ATOM      2  C   UNL     1      13.421 -29.803  22.633  1.00  0.00     0.000 C 
BRANCH   2   3
ATOM      3  C   UNL     1      12.758 -29.289  23.915  1.00  0.00    -0.003 C 
ATOM      4  C   UNL     1      11.631 -28.310  23.599  1.00  0.00     0.004 C 
ENDBRANCH   2   3
ENDBRANCH   1   2
BRANCH   1   5
ATOM      5  C   UNL     1      13.460 -31.649  20.903  1.00  0.00     0.080 C 
BRANCH   5   6
ATOM      6  C   UNL     1      14.212 -32.931  21.179  1.00  0.00     0.155 C 
ATOM      7  O   UNL     1      14.567 -33.214  22.356  1.00  0.00    -0.295 OA
BRANCH   6   8
ATOM      8  C   UNL     1      14.551 -33.883  20.102  1.00  0.00     0.039 C 
ATOM      9  C   UNL     1      15.301 -34.969  20.287  1.00  0.00     0.012 C 
ENDBRANCH   6   8
ENDBRANCH   5   6
ENDBRANCH   1   5
TORSDOF 5
ENDMDL
MODEL 5
REMARK VINA RESULT:    -3.764      1.635      4.171
REMARK INTER + INTRA:          -5.198
REMARK INTER:                  -4.752
REMARK INTRA:                  -0.447
REMARK UNBOUND:                -0.334
REMARK SMILES C=CC(=O)CCCCC
REMARK SMILES IDX 6 1 7 2 8 3 9 4 5 5 3 6 4 7 2 8 1 9
REMARK H PARENT
REMARK Flexibility Score: inf
ROOT
ATOM      1  C   UNL     1      13.805 -32.120  23.811  1.00  0.00     0.008 C 
ENDROOT
BRANCH   1   2
ATOM      2  C   UNL     1      14.686 -32.965  22.884  1.00  0.00     0.000 C 
BRANCH   2   3
ATOM      3  C   UNL     1      14.257 -32.806  21.421  1.00  0.00    -0.003 C 
ATOM      4  C   UNL     1      14.811 -33.936  20.558  1.00  0.00     0.004 C 
ENDBRANCH   2   3
ENDBRANCH   1   2
BRANCH   1   5
ATOM      5  C   UNL     1      12.920 -31.158  23.005  1.00  0.00     0.080 C 
BRANCH   5   6
ATOM      6  C   UNL     1      13.135 -29.707  23.373  1.00  0.00     0.155 C 
ATOM      7  O   UNL     1      12.308 -29.116  24.120  1.00  0.00    -0.295 OA
BRANCH   6   8
ATOM      8  C   UNL     1      14.300 -28.942  22.882  1.00  0.00     0.039 C 
ATOM      9  C   UNL     1      14.905 -29.186  21.720  1.00  0.00     0.012 C 
ENDBRANCH   6   8
ENDBRANCH   5   6
ENDBRANCH   1   5
TORSDOF 5
ENDMDL
MODEL 6
REMARK VINA RESULT:    -3.720      1.778      2.358
REMARK INTER + INTRA:          -5.142
REMARK INTER:                  -4.760
REMARK INTRA:                  -0.381
REMARK UNBOUND:                -0.334
REMARK SMILES C=CC(=O)CCCCC
REMARK SMILES IDX 6 1 7 2 8 3 9 4 5 5 3 6 4 7 2 8 1 9
REMARK H PARENT
REMARK Flexibility Score: inf
ROOT
ATOM      1  C   UNL     1      12.472 -30.950  22.225  1.00  0.00     0.008 C 
ENDROOT
BRANCH   1   2
ATOM      2  C   UNL     1      13.130 -30.424  23.505  1.00  0.00     0.000 C 
BRANCH   2   3
ATOM      3  C   UNL     1      13.056 -28.895  23.573  1.00  0.00    -0.003 C 
ATOM      4  C   UNL     1      11.613 -28.418  23.717  1.00  0.00     0.004 C 
ENDBRANCH   2   3
ENDBRANCH   1   2
BRANCH   1   5
ATOM      5  C   UNL     1      13.483 -31.016  21.071  1.00  0.00     0.080 C 
BRANCH   5   6
ATOM      6  C   UNL     1      14.517 -32.104  21.251  1.00  0.00     0.155 C 
ATOM      7  O   UNL     1      14.200 -33.312  21.075  1.00  0.00    -0.295 OA
BRANCH   6   8
ATOM      8  C   UNL     1      15.912 -31.799  21.633  1.00  0.00     0.039 C 
ATOM      9  C   UNL     1      16.434 -30.573  21.597  1.00  0.00     0.012 C 
ENDBRANCH   6   8
ENDBRANCH   5   6
ENDBRANCH   1   5
TORSDOF 5
ENDMDL
MODEL 7
REMARK VINA RESULT:    -3.720      8.658      9.933
REMARK INTER + INTRA:          -5.141
REMARK INTER:                  -4.727
REMARK INTRA:                  -0.414
REMARK UNBOUND:                -0.334
REMARK SMILES C=CC(=O)CCCCC
REMARK SMILES IDX 6 1 7 2 8 3 9 4 5 5 3 6 4 7 2 8 1 9
REMARK H PARENT
REMARK Flexibility Score: inf
ROOT
ATOM      1  C   UNL     1      19.948 -26.612  21.258  1.00  0.00     0.008 C 
ENDROOT
BRANCH   1   2
ATOM      2  C   UNL     1      19.829 -28.086  20.857  1.00  0.00     0.000 C 
BRANCH   2   3
ATOM      3  C   UNL     1      21.011 -28.900  21.396  1.00  0.00    -0.003 C 
ATOM      4  C   UNL     1      21.005 -30.319  20.833  1.00  0.00     0.004 C 
ENDBRANCH   2   3
ENDBRANCH   1   2
BRANCH   1   5
ATOM      5  C   UNL     1      20.591 -25.784  20.135  1.00  0.00     0.080 C 
BRANCH   5   6
ATOM      6  C   UNL     1      21.963 -25.262  20.497  1.00  0.00     0.155 C 
ATOM      7  O   UNL     1      22.102 -24.468  21.468  1.00  0.00    -0.295 OA
BRANCH   6   8
ATOM      8  C   UNL     1      23.171 -25.654  19.741  1.00  0.00     0.039 C 
ATOM      9  C   UNL     1      23.572 -26.917  19.597  1.00  0.00     0.012 C 
ENDBRANCH   6   8
ENDBRANCH   5   6
ENDBRANCH   1   5
TORSDOF 5
ENDMDL
MODEL 8
REMARK VINA RESULT:    -3.714      1.338      4.632
REMARK INTER + INTRA:          -5.133
REMARK INTER:                  -4.934
REMARK INTRA:                  -0.200
REMARK UNBOUND:                -0.334
REMARK SMILES C=CC(=O)CCCCC
REMARK SMILES IDX 6 1 7 2 8 3 9 4 5 5 3 6 4 7 2 8 1 9
REMARK H PARENT
REMARK Flexibility Score: inf
ROOT
ATOM      1  C   UNL     1      14.962 -32.264  23.303  1.00  0.00     0.008 C 
ENDROOT
BRANCH   1   2
ATOM      2  C   UNL     1      15.007 -33.646  22.641  1.00  0.00     0.000 C 
BRANCH   2   3
ATOM      3  C   UNL     1      14.659 -33.553  21.151  1.00  0.00    -0.003 C 
ATOM      4  C   UNL     1      15.165 -34.775  20.390  1.00  0.00     0.004 C 
ENDBRANCH   2   3
ENDBRANCH   1   2
BRANCH   1   5
ATOM      5  C   UNL     1      13.540 -31.922  23.771  1.00  0.00     0.080 C 
BRANCH   5   6
ATOM      6  C   UNL     1      12.925 -30.773  23.004  1.00  0.00     0.155 C 
ATOM      7  O   UNL     1      12.314 -30.991  21.922  1.00  0.00    -0.295 OA
BRANCH   6   8
ATOM      8  C   UNL     1      13.013 -29.379  23.485  1.00  0.00     0.039 C 
ATOM      9  C   UNL     1      11.957 -28.666  23.877  1.00  0.00     0.012 C 
ENDBRANCH   6   8
ENDBRANCH   5   6
ENDBRANCH   1   5
TORSDOF 5
ENDMDL
MODEL 9
REMARK VINA RESULT:    -3.607      2.067      3.375
REMARK INTER + INTRA:          -4.995
REMARK INTER:                  -4.399
REMARK INTRA:                  -0.595
REMARK UNBOUND:                -0.334
REMARK SMILES C=CC(=O)CCCCC
REMARK SMILES IDX 6 1 7 2 8 3 9 4 5 5 3 6 4 7 2 8 1 9
REMARK H PARENT
REMARK Flexibility Score: inf
ROOT
ATOM      1  C   UNL     1      14.734 -30.554  23.081  1.00  0.00     0.008 C 
ENDROOT
BRANCH   1   2
ATOM      2  C   UNL     1      16.245 -30.805  23.028  1.00  0.00     0.000 C 
BRANCH   2   3
ATOM      3  C   UNL     1      16.867 -30.164  21.784  1.00  0.00    -0.003 C 
ATOM      4  C   UNL     1      17.563 -31.208  20.915  1.00  0.00     0.004 C 
ENDBRANCH   2   3
ENDBRANCH   1   2
BRANCH   1   5
ATOM      5  C   UNL     1      13.950 -31.854  22.849  1.00  0.00     0.080 C 
BRANCH   5   6
ATOM      6  C   UNL     1      13.801 -32.202  21.385  1.00  0.00     0.155 C 
ATOM      7  O   UNL     1      13.088 -31.483  20.634  1.00  0.00    -0.295 OA
BRANCH   6   8
ATOM      8  C   UNL     1      14.474 -33.376  20.791  1.00  0.00     0.039 C 
ATOM      9  C   UNL     1      15.195 -34.247  21.496  1.00  0.00     0.012 C 
ENDBRANCH   6   8
ENDBRANCH   5   6
ENDBRANCH   1   5
TORSDOF 5
ENDMDL
