MODEL 1
REMARK VINA RESULT:    -4.987      0.000      0.000
REMARK INTER + INTRA:          -5.617
REMARK INTER:                  -5.424
REMARK INTRA:                  -0.193
REMARK UNBOUND:                -0.193
REMARK SMILES C=C1CCC[C@@]2(C)CC[C@H](C(C)(C)O)C[C@H]12
REMARK SMILES IDX 11 1 12 2 13 3 10 4 7 5 6 6 5 7 16 8 8 9 4 10 2 11 15 12
REMARK SMILES IDX 9 13 3 14 1 15 14 16
REMARK H PARENT 14 17
REMARK Flexibility Score: inf
ROOT
ATOM      1  C   UNL     1      37.472 -37.877  -8.241  1.00  0.00     0.062 C 
ATOM      2  C   UNL     1      38.373 -36.835  -8.949  1.00  0.00     0.042 C 
ATOM      3  C   UNL     1      36.027 -37.336  -8.289  1.00  0.00     0.042 C 
ENDROOT
BRANCH   1   4
ATOM      4  C   UNL     1      37.914 -38.112  -6.744  1.00  0.00     0.021 C 
ATOM      5  C   UNL     1      37.460 -41.105  -4.520  1.00  0.00     0.012 C 
ATOM      6  C   UNL     1      38.135 -39.744  -4.186  1.00  0.00    -0.026 C 
ATOM      7  C   UNL     1      38.625 -39.764  -2.705  1.00  0.00     0.008 C 
ATOM      8  C   UNL     1      39.355 -39.451  -5.107  1.00  0.00     0.021 C 
ATOM      9  C   UNL     1      37.107 -38.595  -4.350  1.00  0.00     0.008 C 
ATOM     10  C   UNL     1      39.774 -40.765  -2.457  1.00  0.00     0.005 C 
ATOM     11  C   UNL     1      40.456 -40.470  -4.845  1.00  0.00    -0.074 C 
ATOM     12  C   UNL     1      38.942 -39.265  -6.585  1.00  0.00     0.015 C 
ATOM     13  C   UNL     1      36.695 -38.347  -5.812  1.00  0.00     0.007 C 
ATOM     14  C   UNL     1      40.949 -40.548  -3.418  1.00  0.00     0.031 C 
ATOM     15  C   UNL     1      40.963 -41.291  -5.784  1.00  0.00     0.008 C 
ENDBRANCH   1   4
BRANCH   1  16
ATOM     16  O   UNL     1      37.489 -39.087  -8.964  1.00  0.00    -0.390 OA
ATOM     17  H   UNL     1      38.401 -39.221  -9.330  1.00  0.00     0.211 HD
ENDBRANCH   1  16
TORSDOF 2
ENDMDL
MODEL 2
REMARK VINA RESULT:    -4.858      2.432      4.635
REMARK INTER + INTRA:          -5.477
REMARK INTER:                  -5.219
REMARK INTRA:                  -0.258
REMARK UNBOUND:                -0.193
REMARK SMILES C=C1CCC[C@@]2(C)CC[C@H](C(C)(C)O)C[C@H]12
REMARK SMILES IDX 11 1 12 2 13 3 10 4 7 5 6 6 5 7 16 8 8 9 4 10 2 11 15 12
REMARK SMILES IDX 9 13 3 14 1 15 14 16
REMARK H PARENT 14 17
REMARK Flexibility Score: inf
ROOT
ATOM      1  C   UNL     1      37.638 -40.620  -4.532  1.00  0.00     0.062 C 
ATOM      2  C   UNL     1      37.749 -40.106  -5.989  1.00  0.00     0.042 C 
ATOM      3  C   UNL     1      36.911 -39.528  -3.719  1.00  0.00     0.042 C 
ENDROOT
BRANCH   1   4
ATOM      4  C   UNL     1      39.057 -40.910  -3.905  1.00  0.00     0.021 C 
ATOM      5  C   UNL     1      41.509 -38.583  -2.267  1.00  0.00     0.012 C 
ATOM      6  C   UNL     1      41.645 -40.111  -2.519  1.00  0.00    -0.026 C 
ATOM      7  C   UNL     1      43.028 -40.598  -1.985  1.00  0.00     0.008 C 
ATOM      8  C   UNL     1      40.526 -40.927  -1.809  1.00  0.00     0.021 C 
ATOM      9  C   UNL     1      41.575 -40.400  -4.041  1.00  0.00     0.008 C 
ATOM     10  C   UNL     1      43.152 -40.511  -0.449  1.00  0.00     0.005 C 
ATOM     11  C   UNL     1      40.673 -40.799  -0.298  1.00  0.00    -0.074 C 
ATOM     12  C   UNL     1      39.124 -40.618  -2.382  1.00  0.00     0.015 C 
ATOM     13  C   UNL     1      40.185 -40.143  -4.648  1.00  0.00     0.007 C 
ATOM     14  C   UNL     1      42.005 -41.233   0.268  1.00  0.00     0.031 C 
ATOM     15  C   UNL     1      39.718 -40.306   0.513  1.00  0.00     0.008 C 
ENDBRANCH   1   4
BRANCH   1  16
ATOM     16  O   UNL     1      36.831 -41.775  -4.497  1.00  0.00    -0.390 OA
ATOM     17  H   UNL     1      37.292 -42.496  -4.998  1.00  0.00     0.211 HD
ENDBRANCH   1  16
TORSDOF 2
ENDMDL
MODEL 3
REMARK VINA RESULT:    -4.810      1.806      2.587
REMARK INTER + INTRA:          -5.425
REMARK INTER:                  -5.223
REMARK INTRA:                  -0.202
REMARK UNBOUND:                -0.193
REMARK SMILES C=C1CCC[C@@]2(C)CC[C@H](C(C)(C)O)C[C@H]12
REMARK SMILES IDX 11 1 12 2 13 3 10 4 7 5 6 6 5 7 16 8 8 9 4 10 2 11 15 12
REMARK SMILES IDX 9 13 3 14 1 15 14 16
REMARK H PARENT 14 17
REMARK Flexibility Score: inf
ROOT
ATOM      1  C   UNL     1      37.381 -38.191  -6.039  1.00  0.00     0.062 C 
ATOM      2  C   UNL     1      37.357 -39.092  -7.299  1.00  0.00     0.042 C 
ATOM      3  C   UNL     1      37.160 -36.739  -6.514  1.00  0.00     0.042 C 
ENDROOT
BRANCH   1   4
ATOM      4  C   UNL     1      38.752 -38.306  -5.265  1.00  0.00     0.021 C 
ATOM      5  C   UNL     1      39.918 -40.849  -2.757  1.00  0.00     0.012 C 
ATOM      6  C   UNL     1      40.676 -39.603  -3.298  1.00  0.00    -0.026 C 
ATOM      7  C   UNL     1      42.077 -39.520  -2.615  1.00  0.00     0.008 C 
ATOM      8  C   UNL     1      40.881 -39.662  -4.839  1.00  0.00     0.021 C 
ATOM      9  C   UNL     1      39.883 -38.317  -2.954  1.00  0.00     0.008 C 
ATOM     10  C   UNL     1      43.020 -40.673  -3.017  1.00  0.00     0.005 C 
ATOM     11  C   UNL     1      41.800 -40.823  -5.195  1.00  0.00    -0.074 C 
ATOM     12  C   UNL     1      39.542 -39.597  -5.610  1.00  0.00     0.015 C 
ATOM     13  C   UNL     1      38.559 -38.190  -3.729  1.00  0.00     0.007 C 
ATOM     14  C   UNL     1      43.162 -40.804  -4.539  1.00  0.00     0.031 C 
ATOM     15  C   UNL     1      41.453 -41.838  -6.008  1.00  0.00     0.008 C 
ENDBRANCH   1   4
BRANCH   1  16
ATOM     16  O   UNL     1      36.302 -38.525  -5.197  1.00  0.00    -0.390 OA
ATOM     17  H   UNL     1      36.266 -39.512  -5.108  1.00  0.00     0.211 HD
ENDBRANCH   1  16
TORSDOF 2
ENDMDL
MODEL 4
REMARK VINA RESULT:    -4.710      3.605      6.537
REMARK INTER + INTRA:          -5.316
REMARK INTER:                  -5.131
REMARK INTRA:                  -0.185
REMARK UNBOUND:                -0.193
REMARK SMILES C=C1CCC[C@@]2(C)CC[C@H](C(C)(C)O)C[C@H]12
REMARK SMILES IDX 11 1 12 2 13 3 10 4 7 5 6 6 5 7 16 8 8 9 4 10 2 11 15 12
REMARK SMILES IDX 9 13 3 14 1 15 14 16
REMARK H PARENT 14 17
REMARK Flexibility Score: inf
ROOT
ATOM      1  C   UNL     1      42.542 -40.240   0.228  1.00  0.00     0.062 C 
ATOM      2  C   UNL     1      43.739 -41.191  -0.018  1.00  0.00     0.042 C 
ATOM      3  C   UNL     1      41.896 -40.659   1.566  1.00  0.00     0.042 C 
ENDROOT
BRANCH   1   4
ATOM      4  C   UNL     1      41.480 -40.324  -0.936  1.00  0.00     0.021 C 
ATOM      5  C   UNL     1      40.873 -38.018  -3.839  1.00  0.00     0.012 C 
ATOM      6  C   UNL     1      40.113 -39.322  -3.463  1.00  0.00    -0.026 C 
ATOM      7  C   UNL     1      38.975 -39.570  -4.502  1.00  0.00     0.008 C 
ATOM      8  C   UNL     1      41.049 -40.565  -3.448  1.00  0.00     0.021 C 
ATOM      9  C   UNL     1      39.474 -39.169  -2.059  1.00  0.00     0.008 C 
ATOM     10  C   UNL     1      39.502 -39.898  -5.915  1.00  0.00     0.005 C 
ATOM     11  C   UNL     1      41.562 -40.842  -4.855  1.00  0.00    -0.074 C 
ATOM     12  C   UNL     1      42.124 -40.474  -2.341  1.00  0.00     0.015 C 
ATOM     13  C   UNL     1      40.507 -39.114  -0.920  1.00  0.00     0.007 C 
ATOM     14  C   UNL     1      40.498 -41.065  -5.906  1.00  0.00     0.031 C 
ATOM     15  C   UNL     1      42.865 -40.865  -5.193  1.00  0.00     0.008 C 
ENDBRANCH   1   4
BRANCH   1  16
ATOM     16  O   UNL     1      43.009 -38.919   0.385  1.00  0.00    -0.390 OA
ATOM     17  H   UNL     1      42.291 -38.296   0.103  1.00  0.00     0.211 HD
ENDBRANCH   1  16
TORSDOF 2
ENDMDL
MODEL 5
REMARK VINA RESULT:    -4.665      3.278      4.990
REMARK INTER + INTRA:          -5.267
REMARK INTER:                  -5.005
REMARK INTRA:                  -0.262
REMARK UNBOUND:                -0.193
REMARK SMILES C=C1CCC[C@@]2(C)CC[C@H](C(C)(C)O)C[C@H]12
REMARK SMILES IDX 11 1 12 2 13 3 10 4 7 5 6 6 5 7 16 8 8 9 4 10 2 11 15 12
REMARK SMILES IDX 9 13 3 14 1 15 14 16
REMARK H PARENT 14 17
REMARK Flexibility Score: inf
ROOT
ATOM      1  C   UNL     1      37.791 -39.279  -1.385  1.00  0.00     0.062 C 
ATOM      2  C   UNL     1      36.770 -38.436  -2.190  1.00  0.00     0.042 C 
ATOM      3  C   UNL     1      38.645 -38.293  -0.560  1.00  0.00     0.042 C 
ENDROOT
BRANCH   1   4
ATOM      4  C   UNL     1      38.716 -40.137  -2.333  1.00  0.00     0.021 C 
ATOM      5  C   UNL     1      40.331 -39.246  -5.606  1.00  0.00     0.012 C 
ATOM      6  C   UNL     1      40.394 -40.592  -4.830  1.00  0.00    -0.026 C 
ATOM      7  C   UNL     1      41.259 -41.609  -5.637  1.00  0.00     0.008 C 
ATOM      8  C   UNL     1      41.018 -40.427  -3.414  1.00  0.00     0.021 C 
ATOM      9  C   UNL     1      38.966 -41.175  -4.674  1.00  0.00     0.008 C 
ATOM     10  C   UNL     1      42.749 -41.212  -5.719  1.00  0.00     0.005 C 
ATOM     11  C   UNL     1      42.480 -40.017  -3.539  1.00  0.00    -0.074 C 
ATOM     12  C   UNL     1      40.145 -39.549  -2.489  1.00  0.00     0.015 C 
ATOM     13  C   UNL     1      38.071 -40.354  -3.728  1.00  0.00     0.007 C 
ATOM     14  C   UNL     1      43.357 -40.956  -4.334  1.00  0.00     0.031 C 
ATOM     15  C   UNL     1      42.993 -38.885  -3.020  1.00  0.00     0.008 C 
ENDBRANCH   1   4
BRANCH   1  16
ATOM     16  O   UNL     1      37.108 -40.106  -0.471  1.00  0.00    -0.390 OA
ATOM     17  H   UNL     1      36.244 -40.377  -0.878  1.00  0.00     0.211 HD
ENDBRANCH   1  16
TORSDOF 2
ENDMDL
MODEL 6
REMARK VINA RESULT:    -4.639      1.370      1.876
REMARK INTER + INTRA:          -5.239
REMARK INTER:                  -5.031
REMARK INTRA:                  -0.208
REMARK UNBOUND:                -0.193
REMARK SMILES C=C1CCC[C@@]2(C)CC[C@H](C(C)(C)O)C[C@H]12
REMARK SMILES IDX 11 1 12 2 13 3 10 4 7 5 6 6 5 7 16 8 8 9 4 10 2 11 15 12
REMARK SMILES IDX 9 13 3 14 1 15 14 16
REMARK H PARENT 14 17
REMARK Flexibility Score: inf
ROOT
ATOM      1  C   UNL     1      37.470 -37.934  -7.680  1.00  0.00     0.062 C 
ATOM      2  C   UNL     1      38.499 -36.858  -8.108  1.00  0.00     0.042 C 
ATOM      3  C   UNL     1      36.090 -37.245  -7.622  1.00  0.00     0.042 C 
ENDROOT
BRANCH   1   4
ATOM      4  C   UNL     1      37.826 -38.556  -6.274  1.00  0.00     0.021 C 
ATOM      5  C   UNL     1      40.507 -41.005  -5.311  1.00  0.00     0.012 C 
ATOM      6  C   UNL     1      39.430 -40.343  -4.405  1.00  0.00    -0.026 C 
ATOM      7  C   UNL     1      39.597 -40.865  -2.944  1.00  0.00     0.008 C 
ATOM      8  C   UNL     1      39.545 -38.791  -4.392  1.00  0.00     0.021 C 
ATOM      9  C   UNL     1      38.014 -40.727  -4.907  1.00  0.00     0.008 C 
ATOM     10  C   UNL     1      40.910 -40.400  -2.279  1.00  0.00     0.005 C 
ATOM     11  C   UNL     1      40.860 -38.376  -3.746  1.00  0.00    -0.074 C 
ATOM     12  C   UNL     1      39.245 -38.170  -5.776  1.00  0.00     0.015 C 
ATOM     13  C   UNL     1      37.656 -40.099  -6.266  1.00  0.00     0.007 C 
ATOM     14  C   UNL     1      41.084 -38.877  -2.338  1.00  0.00     0.031 C 
ATOM     15  C   UNL     1      41.805 -37.641  -4.362  1.00  0.00     0.008 C 
ENDBRANCH   1   4
BRANCH   1  16
ATOM     16  O   UNL     1      37.395 -38.937  -8.667  1.00  0.00    -0.390 OA
ATOM     17  H   UNL     1      36.570 -38.794  -9.198  1.00  0.00     0.211 HD
ENDBRANCH   1  16
TORSDOF 2
ENDMDL
MODEL 7
REMARK VINA RESULT:    -4.618      3.719      5.199
REMARK INTER + INTRA:          -5.216
REMARK INTER:                  -4.966
REMARK INTRA:                  -0.250
REMARK UNBOUND:                -0.193
REMARK SMILES C=C1CCC[C@@]2(C)CC[C@H](C(C)(C)O)C[C@H]12
REMARK SMILES IDX 11 1 12 2 13 3 10 4 7 5 6 6 5 7 16 8 8 9 4 10 2 11 15 12
REMARK SMILES IDX 9 13 3 14 1 15 14 16
REMARK H PARENT 14 17
REMARK Flexibility Score: inf
ROOT
ATOM      1  C   UNL     1      39.790 -36.301  -2.242  1.00  0.00     0.062 C 
ATOM      2  C   UNL     1      40.627 -35.228  -1.502  1.00  0.00     0.042 C 
ATOM      3  C   UNL     1      39.134 -37.188  -1.163  1.00  0.00     0.042 C 
ENDROOT
BRANCH   1   4
ATOM      4  C   UNL     1      40.683 -37.181  -3.200  1.00  0.00     0.021 C 
ATOM      5  C   UNL     1      42.402 -40.463  -2.581  1.00  0.00     0.012 C 
ATOM      6  C   UNL     1      42.403 -39.599  -3.874  1.00  0.00    -0.026 C 
ATOM      7  C   UNL     1      43.278 -40.300  -4.959  1.00  0.00     0.008 C 
ATOM      8  C   UNL     1      40.970 -39.397  -4.448  1.00  0.00     0.021 C 
ATOM      9  C   UNL     1      43.013 -38.206  -3.572  1.00  0.00     0.008 C 
ATOM     10  C   UNL     1      42.677 -41.630  -5.460  1.00  0.00     0.005 C 
ATOM     11  C   UNL     1      40.407 -40.734  -4.913  1.00  0.00    -0.074 C 
ATOM     12  C   UNL     1      40.069 -38.576  -3.498  1.00  0.00     0.015 C 
ATOM     13  C   UNL     1      42.130 -37.336  -2.660  1.00  0.00     0.007 C 
ATOM     14  C   UNL     1      41.231 -41.467  -5.946  1.00  0.00     0.031 C 
ATOM     15  C   UNL     1      39.272 -41.280  -4.437  1.00  0.00     0.008 C 
ENDBRANCH   1   4
BRANCH   1  16
ATOM     16  O   UNL     1      38.750 -35.678  -2.961  1.00  0.00    -0.390 OA
ATOM     17  H   UNL     1      38.536 -34.815  -2.520  1.00  0.00     0.211 HD
ENDBRANCH   1  16
TORSDOF 2
ENDMDL
MODEL 8
REMARK VINA RESULT:    -4.502      2.517      5.249
REMARK INTER + INTRA:          -5.090
REMARK INTER:                  -4.860
REMARK INTRA:                  -0.230
REMARK UNBOUND:                -0.193
REMARK SMILES C=C1CCC[C@@]2(C)CC[C@H](C(C)(C)O)C[C@H]12
REMARK SMILES IDX 11 1 12 2 13 3 10 4 7 5 6 6 5 7 16 8 8 9 4 10 2 11 15 12
REMARK SMILES IDX 9 13 3 14 1 15 14 16
REMARK H PARENT 14 17
REMARK Flexibility Score: inf
ROOT
ATOM      1  C   UNL     1      42.610 -40.133  -3.991  1.00  0.00     0.062 C 
ATOM      2  C   UNL     1      43.368 -41.252  -4.747  1.00  0.00     0.042 C 
ATOM      3  C   UNL     1      42.620 -40.510  -2.494  1.00  0.00     0.042 C 
ENDROOT
BRANCH   1   4
ATOM      4  C   UNL     1      41.125 -39.983  -4.503  1.00  0.00     0.021 C 
ATOM      5  C   UNL     1      38.059 -38.730  -2.731  1.00  0.00     0.012 C 
ATOM      6  C   UNL     1      38.187 -39.260  -4.187  1.00  0.00    -0.026 C 
ATOM      7  C   UNL     1      36.785 -39.221  -4.872  1.00  0.00     0.008 C 
ATOM      8  C   UNL     1      39.177 -38.412  -5.038  1.00  0.00     0.021 C 
ATOM      9  C   UNL     1      38.685 -40.728  -4.169  1.00  0.00     0.008 C 
ATOM     10  C   UNL     1      36.256 -37.788  -5.094  1.00  0.00     0.005 C 
ATOM     11  C   UNL     1      38.627 -37.003  -5.217  1.00  0.00    -0.074 C 
ATOM     12  C   UNL     1      40.629 -38.512  -4.518  1.00  0.00     0.015 C 
ATOM     13  C   UNL     1      40.142 -40.872  -3.695  1.00  0.00     0.007 C 
ATOM     14  C   UNL     1      37.260 -36.910  -5.853  1.00  0.00     0.031 C 
ATOM     15  C   UNL     1      39.268 -35.887  -4.820  1.00  0.00     0.008 C 
ENDBRANCH   1   4
BRANCH   1  16
ATOM     16  O   UNL     1      43.309 -38.916  -4.120  1.00  0.00    -0.390 OA
ATOM     17  H   UNL     1      43.193 -38.584  -5.047  1.00  0.00     0.211 HD
ENDBRANCH   1  16
TORSDOF 2
ENDMDL
MODEL 9
REMARK VINA RESULT:    -4.446      2.968      3.578
REMARK INTER + INTRA:          -5.029
REMARK INTER:                  -4.790
REMARK INTRA:                  -0.239
REMARK UNBOUND:                -0.193
REMARK SMILES C=C1CCC[C@@]2(C)CC[C@H](C(C)(C)O)C[C@H]12
REMARK SMILES IDX 11 1 12 2 13 3 10 4 7 5 6 6 5 7 16 8 8 9 4 10 2 11 15 12
REMARK SMILES IDX 9 13 3 14 1 15 14 16
REMARK H PARENT 14 17
REMARK Flexibility Score: inf
ROOT
ATOM      1  C   UNL     1      40.951 -35.301  -5.360  1.00  0.00     0.062 C 
ATOM      2  C   UNL     1      40.558 -33.886  -4.866  1.00  0.00     0.042 C 
ATOM      3  C   UNL     1      41.024 -35.240  -6.901  1.00  0.00     0.042 C 
ENDROOT
BRANCH   1   4
ATOM      4  C   UNL     1      39.903 -36.390  -4.908  1.00  0.00     0.021 C 
ATOM      5  C   UNL     1      38.146 -39.043  -6.905  1.00  0.00     0.012 C 
ATOM      6  C   UNL     1      38.009 -38.723  -5.389  1.00  0.00    -0.026 C 
ATOM      7  C   UNL     1      36.969 -39.695  -4.751  1.00  0.00     0.008 C 
ATOM      8  C   UNL     1      39.360 -38.876  -4.631  1.00  0.00     0.021 C 
ATOM      9  C   UNL     1      37.503 -37.269  -5.205  1.00  0.00     0.008 C 
ATOM     10  C   UNL     1      37.442 -41.164  -4.729  1.00  0.00     0.005 C 
ATOM     11  C   UNL     1      39.800 -40.334  -4.650  1.00  0.00    -0.074 C 
ATOM     12  C   UNL     1      40.413 -37.844  -5.097  1.00  0.00     0.015 C 
ATOM     13  C   UNL     1      38.535 -36.205  -5.619  1.00  0.00     0.007 C 
ATOM     14  C   UNL     1      38.816 -41.322  -4.066  1.00  0.00     0.031 C 
ATOM     15  C   UNL     1      40.964 -40.764  -5.172  1.00  0.00     0.008 C 
ENDBRANCH   1   4
BRANCH   1  16
ATOM     16  O   UNL     1      42.241 -35.624  -4.893  1.00  0.00    -0.390 OA
ATOM     17  H   UNL     1      42.852 -34.875  -5.114  1.00  0.00     0.211 HD
ENDBRANCH   1  16
TORSDOF 2
ENDMDL
