MODEL 1
REMARK VINA RESULT:    -7.981      0.000      0.000
REMARK INTER + INTRA:          -8.163
REMARK INTER:                  -8.681
REMARK INTRA:                   0.517
REMARK UNBOUND:                 0.517
REMARK SMILES C[C@@H]1[C@H](C)CC[C@@]2(C(=O)[O-])CC[C@@]3(C)C(=CC[C@H]4[C@@]5(C)CC[C@H](O)C(C)(C)[C@H]5CC[C@]43C)[C@H]12
REMARK SMILES IDX 7 1 6 2 11 3 33 4 5 5 12 6 15 7 2 8 3 9 13 10 16 11 1 12
REMARK SMILES IDX 4 13 14 14 31 15 17 16 18 17 30 18 32 19 19 20 29 21 28 22
REMARK SMILES IDX 21 23 20 24 25 25 22 26 23 27 26 28 27 29 8 30 9 31 10 32
REMARK SMILES IDX 24 33
REMARK H PARENT 24 34
REMARK Flexibility Score: inf
ROOT
ATOM      1  C   UNL     1     -21.439  47.625  38.733  1.00  0.00     0.017 C 
ATOM      2  C   UNL     1     -20.534  46.730  39.629  1.00  0.00     0.014 C 
ATOM      3  C   UNL     1     -22.424  48.366  39.660  1.00  0.00     0.014 C 
ATOM      4  C   UNL     1     -20.537  48.683  38.007  1.00  0.00     0.030 C 
ATOM      5  C   UNL     1     -19.418  46.039  38.837  1.00  0.00     0.004 C 
ATOM      6  C   UNL     1     -23.310  49.366  38.903  1.00  0.00     0.013 C 
ATOM      7  C   UNL     1     -21.368  49.789  37.304  1.00  0.00    -0.063 C 
ATOM      8  C   UNL     1     -19.366  48.013  37.195  1.00  0.00    -0.003 C 
ATOM      9  C   UNL     1     -18.535  47.075  38.121  1.00  0.00    -0.011 C 
ATOM     10  C   UNL     1     -22.528  50.456  38.078  1.00  0.00    -0.006 C 
ATOM     11  C   UNL     1     -20.869  50.420  36.222  1.00  0.00    -0.027 C 
ATOM     12  C   UNL     1     -19.803  47.320  35.883  1.00  0.00     0.008 C 
ATOM     13  C   UNL     1     -17.373  46.385  37.390  1.00  0.00     0.008 C 
ATOM     14  C   UNL     1     -21.863  51.426  39.108  1.00  0.00     0.017 C 
ATOM     15  C   UNL     1     -23.529  51.274  37.095  1.00  0.00    -0.020 C 
ATOM     16  C   UNL     1     -21.656  51.358  35.369  1.00  0.00     0.032 C 
ATOM     17  C   UNL     1     -22.715  52.212  36.116  1.00  0.00     0.006 C 
ATOM     18  C   UNL     1     -24.381  50.301  36.216  1.00  0.00     0.008 C 
ATOM     19  C   UNL     1     -24.514  52.105  37.979  1.00  0.00     0.012 C 
ATOM     20  C   UNL     1     -23.622  53.122  35.134  1.00  0.00    -0.025 C 
ATOM     21  C   UNL     1     -24.854  50.831  34.840  1.00  0.00     0.005 C 
ATOM     22  C   UNL     1     -24.959  52.377  34.684  1.00  0.00     0.003 C 
ATOM     23  C   UNL     1     -22.804  53.631  33.883  1.00  0.00     0.010 C 
ATOM     24  C   UNL     1     -23.994  54.434  35.909  1.00  0.00     0.012 C 
ATOM     25  C   UNL     1     -25.494  52.792  33.244  1.00  0.00    -0.006 C 
ATOM     26  C   UNL     1     -22.930  52.764  32.626  1.00  0.00     0.033 C 
ATOM     27  C   UNL     1     -24.392  52.568  32.147  1.00  0.00     0.120 C 
ATOM     28  C   UNL     1     -25.999  54.268  33.258  1.00  0.00     0.014 C 
ATOM     29  C   UNL     1     -26.745  51.951  32.849  1.00  0.00     0.014 C 
ENDROOT
BRANCH   1  30
ATOM     30  C   UNL     1     -22.247  46.747  37.779  1.00  0.00     0.048 C 
ATOM     31  O   UNL     1     -22.736  47.220  36.720  1.00  0.00    -0.550 OA
ATOM     32  O   UNL     1     -22.547  45.432  38.119  1.00  0.00    -0.550 OA
ENDBRANCH   1  30
BRANCH  27  33
ATOM     33  O   UNL     1     -24.657  53.320  30.985  1.00  0.00    -0.393 OA
ATOM     34  H   UNL     1     -24.052  54.107  30.983  1.00  0.00     0.210 HD
ENDBRANCH  27  33
TORSDOF 2
ENDMDL
MODEL 2
REMARK VINA RESULT:    -7.407      4.044      5.990
REMARK INTER + INTRA:          -7.539
REMARK INTER:                  -8.056
REMARK INTRA:                   0.517
REMARK UNBOUND:                 0.517
REMARK SMILES C[C@@H]1[C@H](C)CC[C@@]2(C(=O)[O-])CC[C@@]3(C)C(=CC[C@H]4[C@@]5(C)CC[C@H](O)C(C)(C)[C@H]5CC[C@]43C)[C@H]12
REMARK SMILES IDX 7 1 6 2 11 3 33 4 5 5 12 6 15 7 2 8 3 9 13 10 16 11 1 12
REMARK SMILES IDX 4 13 14 14 31 15 17 16 18 17 30 18 32 19 19 20 29 21 28 22
REMARK SMILES IDX 21 23 20 24 25 25 22 26 23 27 26 28 27 29 8 30 9 31 10 32
REMARK SMILES IDX 24 33
REMARK H PARENT 24 34
REMARK Flexibility Score: inf
ROOT
ATOM      1  C   UNL     1     -26.957  44.779  37.849  1.00  0.00     0.017 C 
ATOM      2  C   UNL     1     -27.778  43.522  38.259  1.00  0.00     0.014 C 
ATOM      3  C   UNL     1     -26.436  45.438  39.143  1.00  0.00     0.014 C 
ATOM      4  C   UNL     1     -25.729  44.319  36.990  1.00  0.00     0.030 C 
ATOM      5  C   UNL     1     -28.240  42.700  37.051  1.00  0.00     0.004 C 
ATOM      6  C   UNL     1     -25.520  46.638  38.868  1.00  0.00     0.013 C 
ATOM      7  C   UNL     1     -24.703  45.460  36.759  1.00  0.00    -0.063 C 
ATOM      8  C   UNL     1     -26.160  43.454  35.746  1.00  0.00    -0.003 C 
ATOM      9  C   UNL     1     -27.037  42.250  36.205  1.00  0.00    -0.011 C 
ATOM     10  C   UNL     1     -24.270  46.328  37.963  1.00  0.00    -0.006 C 
ATOM     11  C   UNL     1     -23.927  45.455  35.656  1.00  0.00    -0.027 C 
ATOM     12  C   UNL     1     -26.808  44.258  34.594  1.00  0.00     0.008 C 
ATOM     13  C   UNL     1     -27.496  41.363  35.037  1.00  0.00     0.008 C 
ATOM     14  C   UNL     1     -23.295  45.445  38.807  1.00  0.00     0.017 C 
ATOM     15  C   UNL     1     -23.533  47.698  37.497  1.00  0.00    -0.020 C 
ATOM     16  C   UNL     1     -23.051  46.593  35.250  1.00  0.00     0.032 C 
ATOM     17  C   UNL     1     -22.417  47.397  36.417  1.00  0.00     0.006 C 
ATOM     18  C   UNL     1     -24.549  48.699  36.856  1.00  0.00     0.008 C 
ATOM     19  C   UNL     1     -22.921  48.381  38.761  1.00  0.00     0.012 C 
ATOM     20  C   UNL     1     -21.574  48.688  35.929  1.00  0.00    -0.025 C 
ATOM     21  C   UNL     1     -23.990  49.691  35.806  1.00  0.00     0.005 C 
ATOM     22  C   UNL     1     -22.468  50.009  35.885  1.00  0.00     0.003 C 
ATOM     23  C   UNL     1     -20.861  48.436  34.544  1.00  0.00     0.010 C 
ATOM     24  C   UNL     1     -20.391  48.895  36.939  1.00  0.00     0.012 C 
ATOM     25  C   UNL     1     -22.026  51.069  34.782  1.00  0.00    -0.006 C 
ATOM     26  C   UNL     1     -21.639  48.913  33.314  1.00  0.00     0.033 C 
ATOM     27  C   UNL     1     -22.006  50.419  33.353  1.00  0.00     0.120 C 
ATOM     28  C   UNL     1     -20.643  51.690  35.150  1.00  0.00     0.014 C 
ATOM     29  C   UNL     1     -23.006  52.280  34.748  1.00  0.00     0.014 C 
ENDROOT
BRANCH   1  30
ATOM     30  C   UNL     1     -27.867  45.777  37.136  1.00  0.00     0.048 C 
ATOM     31  O   UNL     1     -27.391  46.664  36.380  1.00  0.00    -0.550 OA
ATOM     32  O   UNL     1     -29.234  45.791  37.396  1.00  0.00    -0.550 OA
ENDBRANCH   1  30
BRANCH  27  33
ATOM     33  O   UNL     1     -21.215  51.164  32.455  1.00  0.00    -0.393 OA
ATOM     34  H   UNL     1     -20.517  51.636  32.980  1.00  0.00     0.210 HD
ENDBRANCH  27  33
TORSDOF 2
ENDMDL
MODEL 3
REMARK VINA RESULT:    -7.370      1.964      2.666
REMARK INTER + INTRA:          -7.499
REMARK INTER:                  -8.021
REMARK INTRA:                   0.522
REMARK UNBOUND:                 0.517
REMARK SMILES C[C@@H]1[C@H](C)CC[C@@]2(C(=O)[O-])CC[C@@]3(C)C(=CC[C@H]4[C@@]5(C)CC[C@H](O)C(C)(C)[C@H]5CC[C@]43C)[C@H]12
REMARK SMILES IDX 7 1 6 2 11 3 33 4 5 5 12 6 15 7 2 8 3 9 13 10 16 11 1 12
REMARK SMILES IDX 4 13 14 14 31 15 17 16 18 17 30 18 32 19 19 20 29 21 28 22
REMARK SMILES IDX 21 23 20 24 25 25 22 26 23 27 26 28 27 29 8 30 9 31 10 32
REMARK SMILES IDX 24 33
REMARK H PARENT 24 34
REMARK Flexibility Score: inf
ROOT
ATOM      1  C   UNL     1     -21.868  48.728  38.096  1.00  0.00     0.017 C 
ATOM      2  C   UNL     1     -21.109  48.388  39.412  1.00  0.00     0.014 C 
ATOM      3  C   UNL     1     -22.815  49.907  38.397  1.00  0.00     0.014 C 
ATOM      4  C   UNL     1     -20.824  49.184  37.018  1.00  0.00     0.030 C 
ATOM      5  C   UNL     1     -20.033  47.314  39.211  1.00  0.00     0.004 C 
ATOM      6  C   UNL     1     -23.551  50.409  37.147  1.00  0.00     0.013 C 
ATOM      7  C   UNL     1     -21.496  49.801  35.763  1.00  0.00    -0.063 C 
ATOM      8  C   UNL     1     -19.689  48.114  36.795  1.00  0.00    -0.003 C 
ATOM      9  C   UNL     1     -19.010  47.757  38.152  1.00  0.00    -0.011 C 
ATOM     10  C   UNL     1     -22.618  50.847  35.957  1.00  0.00    -0.006 C 
ATOM     11  C   UNL     1     -20.879  49.732  34.566  1.00  0.00    -0.027 C 
ATOM     12  C   UNL     1     -20.129  46.862  36.002  1.00  0.00     0.008 C 
ATOM     13  C   UNL     1     -17.892  46.714  38.006  1.00  0.00     0.008 C 
ATOM     14  C   UNL     1     -21.908  52.171  36.389  1.00  0.00     0.017 C 
ATOM     15  C   UNL     1     -23.476  51.083  34.598  1.00  0.00    -0.020 C 
ATOM     16  C   UNL     1     -21.519  50.124  33.276  1.00  0.00     0.032 C 
ATOM     17  C   UNL     1     -22.519  51.308  33.360  1.00  0.00     0.006 C 
ATOM     18  C   UNL     1     -24.379  49.847  34.277  1.00  0.00     0.008 C 
ATOM     19  C   UNL     1     -24.412  52.315  34.817  1.00  0.00     0.012 C 
ATOM     20  C   UNL     1     -23.273  51.617  31.963  1.00  0.00    -0.025 C 
ATOM     21  C   UNL     1     -24.724  49.598  32.787  1.00  0.00     0.005 C 
ATOM     22  C   UNL     1     -24.657  50.831  31.839  1.00  0.00     0.003 C 
ATOM     23  C   UNL     1     -22.345  51.335  30.718  1.00  0.00     0.010 C 
ATOM     24  C   UNL     1     -23.545  53.160  31.898  1.00  0.00     0.012 C 
ATOM     25  C   UNL     1     -25.071  50.455  30.348  1.00  0.00    -0.006 C 
ATOM     26  C   UNL     1     -22.497  49.944  30.093  1.00  0.00     0.033 C 
ATOM     27  C   UNL     1     -23.944  49.617  29.645  1.00  0.00     0.120 C 
ATOM     28  C   UNL     1     -25.418  51.743  29.540  1.00  0.00     0.014 C 
ATOM     29  C   UNL     1     -26.382  49.613  30.329  1.00  0.00     0.014 C 
ENDROOT
BRANCH   1  30
ATOM     30  C   UNL     1     -22.713  47.531  37.666  1.00  0.00     0.048 C 
ATOM     31  O   UNL     1     -23.077  47.391  36.469  1.00  0.00    -0.550 OA
ATOM     32  O   UNL     1     -23.187  46.629  38.613  1.00  0.00    -0.550 OA
ENDBRANCH   1  30
BRANCH  27  33
ATOM     33  O   UNL     1     -24.069  49.656  28.241  1.00  0.00    -0.393 OA
ATOM     34  H   UNL     1     -25.007  49.427  28.009  1.00  0.00     0.210 HD
ENDBRANCH  27  33
TORSDOF 2
ENDMDL
MODEL 4
REMARK VINA RESULT:    -7.361      2.848      4.148
REMARK INTER + INTRA:          -7.489
REMARK INTER:                  -8.009
REMARK INTRA:                   0.520
REMARK UNBOUND:                 0.517
REMARK SMILES C[C@@H]1[C@H](C)CC[C@@]2(C(=O)[O-])CC[C@@]3(C)C(=CC[C@H]4[C@@]5(C)CC[C@H](O)C(C)(C)[C@H]5CC[C@]43C)[C@H]12
REMARK SMILES IDX 7 1 6 2 11 3 33 4 5 5 12 6 15 7 2 8 3 9 13 10 16 11 1 12
REMARK SMILES IDX 4 13 14 14 31 15 17 16 18 17 30 18 32 19 19 20 29 21 28 22
REMARK SMILES IDX 21 23 20 24 25 25 22 26 23 27 26 28 27 29 8 30 9 31 10 32
REMARK SMILES IDX 24 33
REMARK H PARENT 24 34
REMARK Flexibility Score: inf
ROOT
ATOM      1  C   UNL     1     -22.278  49.640  37.897  1.00  0.00     0.017 C 
ATOM      2  C   UNL     1     -21.705  49.422  39.327  1.00  0.00     0.014 C 
ATOM      3  C   UNL     1     -22.040  51.118  37.521  1.00  0.00     0.014 C 
ATOM      4  C   UNL     1     -21.485  48.732  36.895  1.00  0.00     0.030 C 
ATOM      5  C   UNL     1     -21.761  47.954  39.767  1.00  0.00     0.004 C 
ATOM      6  C   UNL     1     -22.470  51.438  36.082  1.00  0.00     0.013 C 
ATOM      7  C   UNL     1     -21.793  49.072  35.412  1.00  0.00    -0.063 C 
ATOM      8  C   UNL     1     -21.502  47.216  37.321  1.00  0.00    -0.003 C 
ATOM      9  C   UNL     1     -20.987  47.061  38.783  1.00  0.00    -0.011 C 
ATOM     10  C   UNL     1     -21.790  50.554  34.972  1.00  0.00    -0.006 C 
ATOM     11  C   UNL     1     -21.683  48.119  34.466  1.00  0.00    -0.027 C 
ATOM     12  C   UNL     1     -22.850  46.493  37.084  1.00  0.00     0.008 C 
ATOM     13  C   UNL     1     -20.980  45.602  39.265  1.00  0.00     0.008 C 
ATOM     14  C   UNL     1     -20.288  50.982  34.894  1.00  0.00     0.017 C 
ATOM     15  C   UNL     1     -22.513  50.767  33.533  1.00  0.00    -0.020 C 
ATOM     16  C   UNL     1     -22.133  48.292  33.053  1.00  0.00     0.032 C 
ATOM     17  C   UNL     1     -21.975  49.723  32.473  1.00  0.00     0.006 C 
ATOM     18  C   UNL     1     -24.061  50.572  33.642  1.00  0.00     0.008 C 
ATOM     19  C   UNL     1     -22.248  52.232  33.062  1.00  0.00     0.012 C 
ATOM     20  C   UNL     1     -22.585  49.888  30.984  1.00  0.00    -0.025 C 
ATOM     21  C   UNL     1     -24.798  50.085  32.369  1.00  0.00     0.005 C 
ATOM     22  C   UNL     1     -24.105  50.374  31.006  1.00  0.00     0.003 C 
ATOM     23  C   UNL     1     -22.421  48.569  30.132  1.00  0.00     0.010 C 
ATOM     24  C   UNL     1     -21.711  50.948  30.226  1.00  0.00     0.012 C 
ATOM     25  C   UNL     1     -24.979  49.864  29.777  1.00  0.00    -0.006 C 
ATOM     26  C   UNL     1     -23.629  47.629  30.147  1.00  0.00     0.033 C 
ATOM     27  C   UNL     1     -24.946  48.297  29.675  1.00  0.00     0.120 C 
ATOM     28  C   UNL     1     -24.498  50.536  28.454  1.00  0.00     0.014 C 
ATOM     29  C   UNL     1     -26.465  50.307  29.927  1.00  0.00     0.014 C 
ENDROOT
BRANCH   1  30
ATOM     30  C   UNL     1     -23.783  49.384  37.901  1.00  0.00     0.048 C 
ATOM     31  O   UNL     1     -24.399  49.119  36.836  1.00  0.00    -0.550 OA
ATOM     32  O   UNL     1     -24.520  49.546  39.070  1.00  0.00    -0.550 OA
ENDBRANCH   1  30
BRANCH  27  33
ATOM     33  O   UNL     1     -25.315  47.854  28.388  1.00  0.00    -0.393 OA
ATOM     34  H   UNL     1     -24.497  47.827  27.826  1.00  0.00     0.210 HD
ENDBRANCH  27  33
TORSDOF 2
ENDMDL
MODEL 5
REMARK VINA RESULT:    -7.330      1.880      2.492
REMARK INTER + INTRA:          -7.456
REMARK INTER:                  -7.972
REMARK INTRA:                   0.516
REMARK UNBOUND:                 0.517
REMARK SMILES C[C@@H]1[C@H](C)CC[C@@]2(C(=O)[O-])CC[C@@]3(C)C(=CC[C@H]4[C@@]5(C)CC[C@H](O)C(C)(C)[C@H]5CC[C@]43C)[C@H]12
REMARK SMILES IDX 7 1 6 2 11 3 33 4 5 5 12 6 15 7 2 8 3 9 13 10 16 11 1 12
REMARK SMILES IDX 4 13 14 14 31 15 17 16 18 17 30 18 32 19 19 20 29 21 28 22
REMARK SMILES IDX 21 23 20 24 25 25 22 26 23 27 26 28 27 29 8 30 9 31 10 32
REMARK SMILES IDX 24 33
REMARK H PARENT 24 34
REMARK Flexibility Score: inf
ROOT
ATOM      1  C   UNL     1     -21.753  48.541  37.268  1.00  0.00     0.017 C 
ATOM      2  C   UNL     1     -20.615  47.527  37.582  1.00  0.00     0.014 C 
ATOM      3  C   UNL     1     -22.643  48.647  38.524  1.00  0.00     0.014 C 
ATOM      4  C   UNL     1     -21.112  49.944  36.987  1.00  0.00     0.030 C 
ATOM      5  C   UNL     1     -19.581  47.433  36.454  1.00  0.00     0.004 C 
ATOM      6  C   UNL     1     -23.750  49.700  38.378  1.00  0.00     0.013 C 
ATOM      7  C   UNL     1     -22.168  51.080  36.929  1.00  0.00    -0.063 C 
ATOM      8  C   UNL     1     -20.029  49.887  35.845  1.00  0.00    -0.003 C 
ATOM      9  C   UNL     1     -18.953  48.809  36.174  1.00  0.00    -0.011 C 
ATOM     10  C   UNL     1     -23.246  51.152  38.035  1.00  0.00    -0.006 C 
ATOM     11  C   UNL     1     -21.934  52.180  36.185  1.00  0.00    -0.027 C 
ATOM     12  C   UNL     1     -20.603  49.739  34.416  1.00  0.00     0.008 C 
ATOM     13  C   UNL     1     -17.864  48.699  35.096  1.00  0.00     0.008 C 
ATOM     14  C   UNL     1     -22.528  51.705  39.308  1.00  0.00     0.017 C 
ATOM     15  C   UNL     1     -24.485  52.116  37.620  1.00  0.00    -0.020 C 
ATOM     16  C   UNL     1     -22.954  53.235  35.916  1.00  0.00     0.032 C 
ATOM     17  C   UNL     1     -23.959  53.502  37.068  1.00  0.00     0.006 C 
ATOM     18  C   UNL     1     -25.360  51.465  36.500  1.00  0.00     0.008 C 
ATOM     19  C   UNL     1     -25.391  52.319  38.877  1.00  0.00     0.012 C 
ATOM     20  C   UNL     1     -25.115  54.566  36.684  1.00  0.00    -0.025 C 
ATOM     21  C   UNL     1     -26.117  52.428  35.551  1.00  0.00     0.005 C 
ATOM     22  C   UNL     1     -26.418  53.854  36.099  1.00  0.00     0.003 C 
ATOM     23  C   UNL     1     -24.585  55.682  35.702  1.00  0.00     0.010 C 
ATOM     24  C   UNL     1     -25.494  55.350  37.989  1.00  0.00     0.012 C 
ATOM     25  C   UNL     1     -27.234  54.731  35.050  1.00  0.00    -0.006 C 
ATOM     26  C   UNL     1     -24.826  55.408  34.214  1.00  0.00     0.033 C 
ATOM     27  C   UNL     1     -26.317  55.179  33.856  1.00  0.00     0.120 C 
ATOM     28  C   UNL     1     -27.890  55.955  35.760  1.00  0.00     0.014 C 
ATOM     29  C   UNL     1     -28.432  53.927  34.463  1.00  0.00     0.014 C 
ENDROOT
BRANCH   1  30
ATOM     30  C   UNL     1     -22.609  48.014  36.119  1.00  0.00     0.048 C 
ATOM     31  O   UNL     1     -23.322  48.791  35.432  1.00  0.00    -0.550 OA
ATOM     32  O   UNL     1     -22.697  46.647  35.878  1.00  0.00    -0.550 OA
ENDBRANCH   1  30
BRANCH  27  33
ATOM     33  O   UNL     1     -26.858  56.287  33.173  1.00  0.00    -0.393 OA
ATOM     34  H   UNL     1     -26.761  56.126  32.199  1.00  0.00     0.210 HD
ENDBRANCH  27  33
TORSDOF 2
ENDMDL
MODEL 6
REMARK VINA RESULT:    -7.211      2.544      7.858
REMARK INTER + INTRA:          -7.327
REMARK INTER:                  -7.858
REMARK INTRA:                   0.532
REMARK UNBOUND:                 0.517
REMARK SMILES C[C@@H]1[C@H](C)CC[C@@]2(C(=O)[O-])CC[C@@]3(C)C(=CC[C@H]4[C@@]5(C)CC[C@H](O)C(C)(C)[C@H]5CC[C@]43C)[C@H]12
REMARK SMILES IDX 7 1 6 2 11 3 33 4 5 5 12 6 15 7 2 8 3 9 13 10 16 11 1 12
REMARK SMILES IDX 4 13 14 14 31 15 17 16 18 17 30 18 32 19 19 20 29 21 28 22
REMARK SMILES IDX 21 23 20 24 25 25 22 26 23 27 26 28 27 29 8 30 9 31 10 32
REMARK SMILES IDX 24 33
REMARK H PARENT 24 34
REMARK Flexibility Score: inf
ROOT
ATOM      1  C   UNL     1     -23.501  51.272  30.859  1.00  0.00     0.017 C 
ATOM      2  C   UNL     1     -24.156  51.747  29.530  1.00  0.00     0.014 C 
ATOM      3  C   UNL     1     -23.290  52.518  31.745  1.00  0.00     0.014 C 
ATOM      4  C   UNL     1     -24.492  50.299  31.587  1.00  0.00     0.030 C 
ATOM      5  C   UNL     1     -24.542  50.580  28.613  1.00  0.00     0.004 C 
ATOM      6  C   UNL     1     -22.741  52.168  33.136  1.00  0.00     0.013 C 
ATOM      7  C   UNL     1     -24.052  49.983  33.042  1.00  0.00    -0.063 C 
ATOM      8  C   UNL     1     -24.927  49.094  30.671  1.00  0.00    -0.003 C 
ATOM      9  C   UNL     1     -25.511  49.622  29.326  1.00  0.00    -0.011 C 
ATOM     10  C   UNL     1     -23.614  51.148  33.958  1.00  0.00    -0.006 C 
ATOM     11  C   UNL     1     -24.404  48.812  33.612  1.00  0.00    -0.027 C 
ATOM     12  C   UNL     1     -23.840  48.013  30.465  1.00  0.00     0.008 C 
ATOM     13  C   UNL     1     -25.954  48.495  28.381  1.00  0.00     0.008 C 
ATOM     14  C   UNL     1     -24.924  51.890  34.376  1.00  0.00     0.017 C 
ATOM     15  C   UNL     1     -22.816  50.625  35.273  1.00  0.00    -0.020 C 
ATOM     16  C   UNL     1     -23.881  48.335  34.926  1.00  0.00     0.032 C 
ATOM     17  C   UNL     1     -23.599  49.445  35.974  1.00  0.00     0.006 C 
ATOM     18  C   UNL     1     -21.395  50.091  34.899  1.00  0.00     0.008 C 
ATOM     19  C   UNL     1     -22.631  51.833  36.247  1.00  0.00     0.012 C 
ATOM     20  C   UNL     1     -22.922  48.891  37.335  1.00  0.00    -0.025 C 
ATOM     21  C   UNL     1     -20.790  49.000  35.818  1.00  0.00     0.005 C 
ATOM     22  C   UNL     1     -21.328  48.940  37.278  1.00  0.00     0.003 C 
ATOM     23  C   UNL     1     -23.434  47.443  37.700  1.00  0.00     0.010 C 
ATOM     24  C   UNL     1     -23.428  49.788  38.519  1.00  0.00     0.012 C 
ATOM     25  C   UNL     1     -20.602  47.809  38.131  1.00  0.00    -0.006 C 
ATOM     26  C   UNL     1     -22.551  46.294  37.203  1.00  0.00     0.033 C 
ATOM     27  C   UNL     1     -21.083  46.379  37.696  1.00  0.00     0.120 C 
ATOM     28  C   UNL     1     -20.826  48.052  39.655  1.00  0.00     0.014 C 
ATOM     29  C   UNL     1     -19.056  47.876  37.945  1.00  0.00     0.014 C 
ENDROOT
BRANCH   1  30
ATOM     30  C   UNL     1     -22.135  50.655  30.568  1.00  0.00     0.048 C 
ATOM     31  O   UNL     1     -21.561  49.921  31.414  1.00  0.00    -0.550 OA
ATOM     32  O   UNL     1     -21.452  50.981  29.401  1.00  0.00    -0.550 OA
ENDBRANCH   1  30
BRANCH  27  33
ATOM     33  O   UNL     1     -20.819  45.418  38.693  1.00  0.00    -0.393 OA
ATOM     34  H   UNL     1     -21.525  44.722  38.644  1.00  0.00     0.210 HD
ENDBRANCH  27  33
TORSDOF 2
ENDMDL
MODEL 7
REMARK VINA RESULT:    -7.078      4.207      7.123
REMARK INTER + INTRA:          -7.182
REMARK INTER:                  -7.714
REMARK INTRA:                   0.532
REMARK UNBOUND:                 0.517
REMARK SMILES C[C@@H]1[C@H](C)CC[C@@]2(C(=O)[O-])CC[C@@]3(C)C(=CC[C@H]4[C@@]5(C)CC[C@H](O)C(C)(C)[C@H]5CC[C@]43C)[C@H]12
REMARK SMILES IDX 7 1 6 2 11 3 33 4 5 5 12 6 15 7 2 8 3 9 13 10 16 11 1 12
REMARK SMILES IDX 4 13 14 14 31 15 17 16 18 17 30 18 32 19 19 20 29 21 28 22
REMARK SMILES IDX 21 23 20 24 25 25 22 26 23 27 26 28 27 29 8 30 9 31 10 32
REMARK SMILES IDX 24 33
REMARK H PARENT 24 34
REMARK Flexibility Score: inf
ROOT
ATOM      1  C   UNL     1     -21.124  48.053  35.964  1.00  0.00     0.017 C 
ATOM      2  C   UNL     1     -19.618  48.356  35.715  1.00  0.00     0.014 C 
ATOM      3  C   UNL     1     -21.791  47.846  34.588  1.00  0.00     0.014 C 
ATOM      4  C   UNL     1     -21.239  46.721  36.783  1.00  0.00     0.030 C 
ATOM      5  C   UNL     1     -18.813  48.450  37.017  1.00  0.00     0.004 C 
ATOM      6  C   UNL     1     -23.266  47.436  34.701  1.00  0.00     0.013 C 
ATOM      7  C   UNL     1     -22.695  46.188  36.851  1.00  0.00    -0.063 C 
ATOM      8  C   UNL     1     -20.410  46.769  38.121  1.00  0.00    -0.003 C 
ATOM      9  C   UNL     1     -18.927  47.146  37.824  1.00  0.00    -0.011 C 
ATOM     10  C   UNL     1     -23.532  46.138  35.552  1.00  0.00    -0.006 C 
ATOM     11  C   UNL     1     -23.090  45.440  37.900  1.00  0.00    -0.027 C 
ATOM     12  C   UNL     1     -21.034  47.641  39.237  1.00  0.00     0.008 C 
ATOM     13  C   UNL     1     -18.060  47.213  39.090  1.00  0.00     0.008 C 
ATOM     14  C   UNL     1     -22.987  44.926  34.730  1.00  0.00     0.017 C 
ATOM     15  C   UNL     1     -25.118  45.952  35.851  1.00  0.00    -0.020 C 
ATOM     16  C   UNL     1     -24.506  45.039  38.151  1.00  0.00     0.032 C 
ATOM     17  C   UNL     1     -25.361  44.779  36.882  1.00  0.00     0.006 C 
ATOM     18  C   UNL     1     -25.735  47.252  36.462  1.00  0.00     0.008 C 
ATOM     19  C   UNL     1     -25.843  45.670  34.497  1.00  0.00     0.012 C 
ATOM     20  C   UNL     1     -26.915  44.465  37.203  1.00  0.00    -0.025 C 
ATOM     21  C   UNL     1     -26.966  47.077  37.387  1.00  0.00     0.005 C 
ATOM     22  C   UNL     1     -27.812  45.785  37.187  1.00  0.00     0.003 C 
ATOM     23  C   UNL     1     -27.088  43.676  38.560  1.00  0.00     0.010 C 
ATOM     24  C   UNL     1     -27.437  43.469  36.109  1.00  0.00     0.012 C 
ATOM     25  C   UNL     1     -29.068  45.743  38.164  1.00  0.00    -0.006 C 
ATOM     26  C   UNL     1     -27.369  44.546  39.789  1.00  0.00     0.033 C 
ATOM     27  C   UNL     1     -28.622  45.447  39.641  1.00  0.00     0.120 C 
ATOM     28  C   UNL     1     -30.112  44.700  37.660  1.00  0.00     0.014 C 
ATOM     29  C   UNL     1     -29.830  47.101  38.153  1.00  0.00     0.014 C 
ENDROOT
BRANCH   1  30
ATOM     30  C   UNL     1     -21.786  49.251  36.641  1.00  0.00     0.048 C 
ATOM     31  O   UNL     1     -22.817  49.109  37.348  1.00  0.00    -0.550 OA
ATOM     32  O   UNL     1     -21.320  50.539  36.401  1.00  0.00    -0.550 OA
ENDBRANCH   1  30
BRANCH  27  33
ATOM     33  O   UNL     1     -29.695  44.968  40.421  1.00  0.00    -0.393 OA
ATOM     34  H   UNL     1     -30.143  45.748  40.839  1.00  0.00     0.210 HD
ENDBRANCH  27  33
TORSDOF 2
ENDMDL
MODEL 8
REMARK VINA RESULT:    -7.046      2.718      5.030
REMARK INTER + INTRA:          -7.146
REMARK INTER:                  -7.675
REMARK INTRA:                   0.529
REMARK UNBOUND:                 0.517
REMARK SMILES C[C@@H]1[C@H](C)CC[C@@]2(C(=O)[O-])CC[C@@]3(C)C(=CC[C@H]4[C@@]5(C)CC[C@H](O)C(C)(C)[C@H]5CC[C@]43C)[C@H]12
REMARK SMILES IDX 7 1 6 2 11 3 33 4 5 5 12 6 15 7 2 8 3 9 13 10 16 11 1 12
REMARK SMILES IDX 4 13 14 14 31 15 17 16 18 17 30 18 32 19 19 20 29 21 28 22
REMARK SMILES IDX 21 23 20 24 25 25 22 26 23 27 26 28 27 29 8 30 9 31 10 32
REMARK SMILES IDX 24 33
REMARK H PARENT 24 34
REMARK Flexibility Score: inf
ROOT
ATOM      1  C   UNL     1     -21.488  49.473  34.760  1.00  0.00     0.017 C 
ATOM      2  C   UNL     1     -20.835  48.086  34.493  1.00  0.00     0.014 C 
ATOM      3  C   UNL     1     -21.312  50.323  33.485  1.00  0.00     0.014 C 
ATOM      4  C   UNL     1     -23.021  49.265  35.018  1.00  0.00     0.030 C 
ATOM      5  C   UNL     1     -21.061  47.097  35.643  1.00  0.00     0.004 C 
ATOM      6  C   UNL     1     -22.009  51.688  33.583  1.00  0.00     0.013 C 
ATOM      7  C   UNL     1     -23.810  50.602  35.026  1.00  0.00    -0.063 C 
ATOM      8  C   UNL     1     -23.297  48.240  36.181  1.00  0.00    -0.003 C 
ATOM      9  C   UNL     1     -22.564  46.894  35.900  1.00  0.00    -0.011 C 
ATOM     10  C   UNL     1     -23.550  51.627  33.898  1.00  0.00    -0.006 C 
ATOM     11  C   UNL     1     -24.944  50.709  35.746  1.00  0.00    -0.027 C 
ATOM     12  C   UNL     1     -23.018  48.785  37.602  1.00  0.00     0.008 C 
ATOM     13  C   UNL     1     -22.790  45.847  37.002  1.00  0.00     0.008 C 
ATOM     14  C   UNL     1     -24.261  51.063  32.626  1.00  0.00     0.017 C 
ATOM     15  C   UNL     1     -24.130  53.099  34.265  1.00  0.00    -0.020 C 
ATOM     16  C   UNL     1     -25.670  51.994  35.969  1.00  0.00     0.032 C 
ATOM     17  C   UNL     1     -25.618  53.004  34.791  1.00  0.00     0.006 C 
ATOM     18  C   UNL     1     -23.277  53.781  35.384  1.00  0.00     0.008 C 
ATOM     19  C   UNL     1     -24.042  53.993  32.986  1.00  0.00     0.012 C 
ATOM     20  C   UNL     1     -26.315  54.424  35.125  1.00  0.00    -0.025 C 
ATOM     21  C   UNL     1     -24.002  54.805  36.293  1.00  0.00     0.005 C 
ATOM     22  C   UNL     1     -25.273  55.485  35.704  1.00  0.00     0.003 C 
ATOM     23  C   UNL     1     -27.555  54.259  36.089  1.00  0.00     0.010 C 
ATOM     24  C   UNL     1     -26.934  54.977  33.794  1.00  0.00     0.012 C 
ATOM     25  C   UNL     1     -25.901  56.543  36.714  1.00  0.00    -0.006 C 
ATOM     26  C   UNL     1     -27.252  54.450  37.578  1.00  0.00     0.033 C 
ATOM     27  C   UNL     1     -26.614  55.822  37.914  1.00  0.00     0.120 C 
ATOM     28  C   UNL     1     -26.873  57.502  35.960  1.00  0.00     0.014 C 
ATOM     29  C   UNL     1     -24.800  57.478  37.298  1.00  0.00     0.014 C 
ENDROOT
BRANCH   1  30
ATOM     30  C   UNL     1     -20.761  50.173  35.906  1.00  0.00     0.048 C 
ATOM     31  O   UNL     1     -21.290  51.138  36.516  1.00  0.00    -0.550 OA
ATOM     32  O   UNL     1     -19.453  49.823  36.226  1.00  0.00    -0.550 OA
ENDBRANCH   1  30
BRANCH  27  33
ATOM     33  O   UNL     1     -27.535  56.674  38.557  1.00  0.00    -0.393 OA
ATOM     34  H   UNL     1     -27.573  56.419  39.515  1.00  0.00     0.210 HD
ENDBRANCH  27  33
TORSDOF 2
ENDMDL
MODEL 9
REMARK VINA RESULT:    -6.854      2.119      8.001
REMARK INTER + INTRA:          -6.938
REMARK INTER:                  -7.529
REMARK INTRA:                   0.591
REMARK UNBOUND:                 0.517
REMARK SMILES C[C@@H]1[C@H](C)CC[C@@]2(C(=O)[O-])CC[C@@]3(C)C(=CC[C@H]4[C@@]5(C)CC[C@H](O)C(C)(C)[C@H]5CC[C@]43C)[C@H]12
REMARK SMILES IDX 7 1 6 2 11 3 33 4 5 5 12 6 15 7 2 8 3 9 13 10 16 11 1 12
REMARK SMILES IDX 4 13 14 14 31 15 17 16 18 17 30 18 32 19 19 20 29 21 28 22
REMARK SMILES IDX 21 23 20 24 25 25 22 26 23 27 26 28 27 29 8 30 9 31 10 32
REMARK SMILES IDX 24 33
REMARK H PARENT 24 34
REMARK Flexibility Score: inf
ROOT
ATOM      1  C   UNL     1     -25.187  51.503  31.240  1.00  0.00     0.017 C 
ATOM      2  C   UNL     1     -25.618  52.349  30.006  1.00  0.00     0.014 C 
ATOM      3  C   UNL     1     -24.209  50.419  30.742  1.00  0.00     0.014 C 
ATOM      4  C   UNL     1     -24.434  52.436  32.250  1.00  0.00     0.030 C 
ATOM      5  C   UNL     1     -26.491  53.549  30.390  1.00  0.00     0.004 C 
ATOM      6  C   UNL     1     -23.627  49.577  31.886  1.00  0.00     0.013 C 
ATOM      7  C   UNL     1     -23.730  51.640  33.381  1.00  0.00    -0.063 C 
ATOM      8  C   UNL     1     -25.291  53.692  32.656  1.00  0.00    -0.003 C 
ATOM      9  C   UNL     1     -25.755  54.463  31.384  1.00  0.00    -0.011 C 
ATOM     10  C   UNL     1     -22.889  50.399  33.008  1.00  0.00    -0.006 C 
ATOM     11  C   UNL     1     -23.530  52.216  34.584  1.00  0.00    -0.027 C 
ATOM     12  C   UNL     1     -26.456  53.393  33.629  1.00  0.00     0.008 C 
ATOM     13  C   UNL     1     -26.601  55.704  31.709  1.00  0.00     0.008 C 
ATOM     14  C   UNL     1     -21.562  50.942  32.386  1.00  0.00     0.017 C 
ATOM     15  C   UNL     1     -22.568  49.466  34.298  1.00  0.00    -0.020 C 
ATOM     16  C   UNL     1     -23.036  51.482  35.787  1.00  0.00     0.032 C 
ATOM     17  C   UNL     1     -22.027  50.337  35.502  1.00  0.00     0.006 C 
ATOM     18  C   UNL     1     -23.851  48.723  34.794  1.00  0.00     0.008 C 
ATOM     19  C   UNL     1     -21.523  48.384  33.874  1.00  0.00     0.012 C 
ATOM     20  C   UNL     1     -21.614  49.497  36.821  1.00  0.00    -0.025 C 
ATOM     21  C   UNL     1     -23.914  48.359  36.299  1.00  0.00     0.005 C 
ATOM     22  C   UNL     1     -22.553  48.226  37.043  1.00  0.00     0.003 C 
ATOM     23  C   UNL     1     -21.573  50.407  38.110  1.00  0.00     0.010 C 
ATOM     24  C   UNL     1     -20.131  49.021  36.638  1.00  0.00     0.012 C 
ATOM     25  C   UNL     1     -22.750  47.809  38.567  1.00  0.00    -0.006 C 
ATOM     26  C   UNL     1     -22.859  50.418  38.942  1.00  0.00     0.033 C 
ATOM     27  C   UNL     1     -23.309  49.010  39.412  1.00  0.00     0.120 C 
ATOM     28  C   UNL     1     -21.413  47.265  39.158  1.00  0.00     0.014 C 
ATOM     29  C   UNL     1     -23.750  46.622  38.696  1.00  0.00     0.014 C 
ENDROOT
BRANCH   1  30
ATOM     30  C   UNL     1     -26.408  50.807  31.838  1.00  0.00     0.048 C 
ATOM     31  O   UNL     1     -27.464  50.661  31.168  1.00  0.00    -0.550 OA
ATOM     32  O   UNL     1     -26.411  50.416  33.172  1.00  0.00    -0.550 OA
ENDBRANCH   1  30
BRANCH  27  33
ATOM     33  O   UNL     1     -23.073  48.828  40.790  1.00  0.00    -0.393 OA
ATOM     34  H   UNL     1     -23.894  49.096  41.280  1.00  0.00     0.210 HD
ENDBRANCH  27  33
TORSDOF 2
ENDMDL
