MODEL 1
REMARK VINA RESULT:    -5.053      0.000      0.000
REMARK INTER + INTRA:          -8.837
REMARK INTER:                  -7.859
REMARK INTRA:                  -0.979
REMARK UNBOUND:                -0.979
REMARK SMILES COc1cc(CNC(=O)CCCCC=CC(C)C)ccc1O
REMARK SMILES IDX 11 1 12 2 13 3 14 4 15 5 16 6 17 7 18 8 10 9 8 10 9 11 7 12
REMARK SMILES IDX 6 14 5 15 4 16 19 17 3 18 20 19 21 20 2 21 1 22 22 23
REMARK H PARENT 7 13 22 24
REMARK Flexibility Score: inf
ROOT
ATOM      1  C   UNL     1       0.369  14.330  14.721  1.00  0.00     0.010 C 
ENDROOT
BRANCH   1   2
ATOM      2  C   UNL     1       0.545  15.748  15.286  1.00  0.00     0.005 C 
BRANCH   2   3
ATOM      3  C   UNL     1       1.015  15.712  16.741  1.00  0.00     0.027 C 
BRANCH   3   4
ATOM      4  C   UNL     1      -0.140  15.659  17.710  1.00  0.00    -0.031 C 
ATOM      5  C   UNL     1      -0.657  14.580  18.344  1.00  0.00    -0.028 C 
BRANCH   5   6
ATOM      6  C   UNL     1      -0.195  13.127  18.358  1.00  0.00     0.005 C 
ATOM      7  C   UNL     1      -1.019  12.270  17.393  1.00  0.00     0.012 C 
ATOM      8  C   UNL     1      -0.052  12.470  19.735  1.00  0.00     0.012 C 
ENDBRANCH   5   6
ENDBRANCH   3   4
ENDBRANCH   2   3
ENDBRANCH   1   2
BRANCH   1   9
ATOM      9  C   UNL     1       1.668  13.788  14.108  1.00  0.00     0.100 C 
BRANCH   9  10
ATOM     10  C   UNL     1       2.245  12.678  14.938  1.00  0.00     0.220 C 
ATOM     11  O   UNL     1       2.579  12.908  16.133  1.00  0.00    -0.275 OA
ATOM     12  N   UNL     1       2.469  11.384  14.359  1.00  0.00    -0.352 N 
ATOM     13  H   UNL     1       2.180  11.214  13.369  1.00  0.00     0.163 HD
BRANCH  12  14
ATOM     14  C   UNL     1       3.177  10.321  15.067  1.00  0.00     0.151 C 
BRANCH  14  15
ATOM     15  C   UNL     1       3.253   9.084  14.213  1.00  0.00    -0.025 A 
ATOM     16  C   UNL     1       2.090   8.345  13.946  1.00  0.00     0.056 A 
ATOM     17  C   UNL     1       4.483   8.649  13.698  1.00  0.00     0.009 A 
ATOM     18  C   UNL     1       2.150   7.173  13.163  1.00  0.00     0.160 A 
ATOM     19  C   UNL     1       4.548   7.491  12.921  1.00  0.00     0.050 A 
ATOM     20  C   UNL     1       3.391   6.752  12.651  1.00  0.00     0.157 A 
BRANCH  18  21
ATOM     21  O   UNL     1       1.006   6.411  12.880  1.00  0.00    -0.493 OA
ATOM     22  C   UNL     1       0.272   5.666  13.846  1.00  0.00     0.278 C 
ENDBRANCH  18  21
BRANCH  20  23
ATOM     23  O   UNL     1       3.495   5.599  11.873  1.00  0.00    -0.504 OA
ATOM     24  H   UNL     1       3.464   4.671  12.276  1.00  0.00     0.293 HD
ENDBRANCH  20  23
ENDBRANCH  14  15
ENDBRANCH  12  14
ENDBRANCH   9  10
ENDBRANCH   1   9
TORSDOF 10
ENDMDL
MODEL 2
REMARK VINA RESULT:    -4.979      1.357      1.567
REMARK INTER + INTRA:          -8.723
REMARK INTER:                  -7.550
REMARK INTRA:                  -1.173
REMARK UNBOUND:                -0.979
REMARK SMILES COc1cc(CNC(=O)CCCCC=CC(C)C)ccc1O
REMARK SMILES IDX 11 1 12 2 13 3 14 4 15 5 16 6 17 7 18 8 10 9 8 10 9 11 7 12
REMARK SMILES IDX 6 14 5 15 4 16 19 17 3 18 20 19 21 20 2 21 1 22 22 23
REMARK H PARENT 7 13 22 24
REMARK Flexibility Score: inf
ROOT
ATOM      1  C   UNL     1       1.211  13.823  14.564  1.00  0.00     0.010 C 
ENDROOT
BRANCH   1   2
ATOM      2  C   UNL     1       0.497  15.056  15.137  1.00  0.00     0.005 C 
BRANCH   2   3
ATOM      3  C   UNL     1       1.104  15.476  16.477  1.00  0.00     0.027 C 
BRANCH   3   4
ATOM      4  C   UNL     1       0.058  15.610  17.557  1.00  0.00    -0.031 C 
ATOM      5  C   UNL     1      -0.540  14.631  18.275  1.00  0.00    -0.028 C 
BRANCH   5   6
ATOM      6  C   UNL     1      -0.291  13.127  18.292  1.00  0.00     0.005 C 
ATOM      7  C   UNL     1      -1.295  12.385  17.403  1.00  0.00     0.012 C 
ATOM      8  C   UNL     1      -0.151  12.475  19.671  1.00  0.00     0.012 C 
ENDBRANCH   5   6
ENDBRANCH   3   4
ENDBRANCH   2   3
ENDBRANCH   1   2
BRANCH   1   9
ATOM      9  C   UNL     1       2.118  13.146  15.602  1.00  0.00     0.100 C 
BRANCH   9  10
ATOM     10  C   UNL     1       3.190  12.326  14.943  1.00  0.00     0.220 C 
ATOM     11  O   UNL     1       4.358  12.338  15.419  1.00  0.00    -0.275 OA
ATOM     12  N   UNL     1       2.900  11.582  13.751  1.00  0.00    -0.352 N 
ATOM     13  H   UNL     1       1.924  11.581  13.378  1.00  0.00     0.163 HD
BRANCH  12  14
ATOM     14  C   UNL     1       3.938  10.905  12.979  1.00  0.00     0.151 C 
BRANCH  14  15
ATOM     15  C   UNL     1       3.762   9.412  13.062  1.00  0.00    -0.025 A 
ATOM     16  C   UNL     1       3.320   8.695  11.940  1.00  0.00     0.056 A 
ATOM     17  C   UNL     1       4.016   8.731  14.262  1.00  0.00     0.009 A 
ATOM     18  C   UNL     1       3.132   7.299  12.010  1.00  0.00     0.160 A 
ATOM     19  C   UNL     1       3.833   7.350  14.337  1.00  0.00     0.050 A 
ATOM     20  C   UNL     1       3.394   6.631  13.220  1.00  0.00     0.157 A 
BRANCH  18  21
ATOM     21  O   UNL     1       2.688   6.554  10.906  1.00  0.00    -0.493 OA
ATOM     22  C   UNL     1       1.497   6.824  10.175  1.00  0.00     0.278 C 
ENDBRANCH  18  21
BRANCH  20  23
ATOM     23  O   UNL     1       3.221   5.251  13.333  1.00  0.00    -0.504 OA
ATOM     24  H   UNL     1       2.320   4.807  13.202  1.00  0.00     0.293 HD
ENDBRANCH  20  23
ENDBRANCH  14  15
ENDBRANCH  12  14
ENDBRANCH   9  10
ENDBRANCH   1   9
TORSDOF 10
ENDMDL
MODEL 3
REMARK VINA RESULT:    -4.934      2.710      8.058
REMARK INTER + INTRA:          -8.653
REMARK INTER:                  -7.513
REMARK INTRA:                  -1.140
REMARK UNBOUND:                -0.979
REMARK SMILES COc1cc(CNC(=O)CCCCC=CC(C)C)ccc1O
REMARK SMILES IDX 11 1 12 2 13 3 14 4 15 5 16 6 17 7 18 8 10 9 8 10 9 11 7 12
REMARK SMILES IDX 6 14 5 15 4 16 19 17 3 18 20 19 21 20 2 21 1 22 22 23
REMARK H PARENT 7 13 22 24
REMARK Flexibility Score: inf
ROOT
ATOM      1  C   UNL     1       3.434   9.677  13.315  1.00  0.00     0.010 C 
ENDROOT
BRANCH   1   2
ATOM      2  C   UNL     1       4.499   8.648  12.906  1.00  0.00     0.005 C 
BRANCH   2   3
ATOM      3  C   UNL     1       3.860   7.324  12.486  1.00  0.00     0.027 C 
BRANCH   3   4
ATOM      4  C   UNL     1       3.566   6.435  13.669  1.00  0.00    -0.031 C 
ATOM      5  C   UNL     1       2.373   6.189  14.260  1.00  0.00    -0.028 C 
BRANCH   5   6
ATOM      6  C   UNL     1       0.969   6.642  13.877  1.00  0.00     0.005 C 
ATOM      7  C   UNL     1       0.550   7.889  14.662  1.00  0.00     0.012 C 
ATOM      8  C   UNL     1      -0.121   5.565  13.882  1.00  0.00     0.012 C 
ENDBRANCH   5   6
ENDBRANCH   3   4
ENDBRANCH   2   3
ENDBRANCH   1   2
BRANCH   1   9
ATOM      9  C   UNL     1       3.590  10.121  14.776  1.00  0.00     0.100 C 
BRANCH   9  10
ATOM     10  C   UNL     1       2.928  11.446  15.020  1.00  0.00     0.220 C 
ATOM     11  O   UNL     1       3.470  12.499  14.583  1.00  0.00    -0.275 OA
ATOM     12  N   UNL     1       1.721  11.520  15.793  1.00  0.00    -0.352 N 
ATOM     13  H   UNL     1       1.286  10.636  16.141  1.00  0.00     0.163 HD
BRANCH  12  14
ATOM     14  C   UNL     1       1.128  12.791  16.201  1.00  0.00     0.151 C 
BRANCH  14  15
ATOM     15  C   UNL     1       1.265  12.979  17.688  1.00  0.00    -0.025 A 
ATOM     16  C   UNL     1       2.538  13.099  18.265  1.00  0.00     0.056 A 
ATOM     17  C   UNL     1       0.127  13.014  18.508  1.00  0.00     0.009 A 
ATOM     18  C   UNL     1       2.681  13.256  19.660  1.00  0.00     0.160 A 
ATOM     19  C   UNL     1       0.262  13.171  19.889  1.00  0.00     0.050 A 
ATOM     20  C   UNL     1       1.529  13.292  20.468  1.00  0.00     0.157 A 
BRANCH  18  21
ATOM     21  O   UNL     1       3.940  13.376  20.268  1.00  0.00    -0.493 OA
ATOM     22  C   UNL     1       4.908  12.334  20.333  1.00  0.00     0.278 C 
ENDBRANCH  18  21
BRANCH  20  23
ATOM     23  O   UNL     1       1.625  13.445  21.851  1.00  0.00    -0.504 OA
ATOM     24  H   UNL     1       1.100  12.868  22.496  1.00  0.00     0.293 HD
ENDBRANCH  20  23
ENDBRANCH  14  15
ENDBRANCH  12  14
ENDBRANCH   9  10
ENDBRANCH   1   9
TORSDOF 10
ENDMDL
MODEL 4
REMARK VINA RESULT:    -4.909      2.695      7.672
REMARK INTER + INTRA:          -8.614
REMARK INTER:                  -7.510
REMARK INTRA:                  -1.105
REMARK UNBOUND:                -0.979
REMARK SMILES COc1cc(CNC(=O)CCCCC=CC(C)C)ccc1O
REMARK SMILES IDX 11 1 12 2 13 3 14 4 15 5 16 6 17 7 18 8 10 9 8 10 9 11 7 12
REMARK SMILES IDX 6 14 5 15 4 16 19 17 3 18 20 19 21 20 2 21 1 22 22 23
REMARK H PARENT 7 13 22 24
REMARK Flexibility Score: inf
ROOT
ATOM      1  C   UNL     1       3.724   9.923  14.806  1.00  0.00     0.010 C 
ENDROOT
BRANCH   1   2
ATOM      2  C   UNL     1       4.788   8.931  14.312  1.00  0.00     0.005 C 
BRANCH   2   3
ATOM      3  C   UNL     1       4.327   7.484  14.500  1.00  0.00     0.027 C 
BRANCH   3   4
ATOM      4  C   UNL     1       3.606   6.956  13.285  1.00  0.00    -0.031 C 
ATOM      5  C   UNL     1       2.324   6.530  13.187  1.00  0.00    -0.028 C 
BRANCH   5   6
ATOM      6  C   UNL     1       1.201   6.534  14.217  1.00  0.00     0.005 C 
ATOM      7  C   UNL     1       0.081   5.564  13.826  1.00  0.00     0.012 C 
ATOM      8  C   UNL     1       0.657   7.907  14.628  1.00  0.00     0.012 C 
ENDBRANCH   5   6
ENDBRANCH   3   4
ENDBRANCH   2   3
ENDBRANCH   1   2
BRANCH   1   9
ATOM      9  C   UNL     1       3.445  11.030  13.779  1.00  0.00     0.100 C 
BRANCH   9  10
ATOM     10  C   UNL     1       3.074  12.320  14.450  1.00  0.00     0.220 C 
ATOM     11  O   UNL     1       3.957  12.967  15.080  1.00  0.00    -0.275 OA
ATOM     12  N   UNL     1       1.716  12.784  14.425  1.00  0.00    -0.352 N 
ATOM     13  H   UNL     1       1.003  12.236  13.893  1.00  0.00     0.163 HD
BRANCH  12  14
ATOM     14  C   UNL     1       1.269  13.940  15.197  1.00  0.00     0.151 C 
BRANCH  14  15
ATOM     15  C   UNL     1       0.833  13.512  16.573  1.00  0.00    -0.025 A 
ATOM     16  C   UNL     1       1.672  13.737  17.675  1.00  0.00     0.056 A 
ATOM     17  C   UNL     1      -0.399  12.869  16.762  1.00  0.00     0.009 A 
ATOM     18  C   UNL     1       1.285  13.324  18.967  1.00  0.00     0.160 A 
ATOM     19  C   UNL     1      -0.789  12.460  18.038  1.00  0.00     0.050 A 
ATOM     20  C   UNL     1       0.044  12.684  19.139  1.00  0.00     0.157 A 
BRANCH  18  21
ATOM     21  O   UNL     1       2.102  13.532  20.089  1.00  0.00    -0.493 OA
ATOM     22  C   UNL     1       3.024  12.577  20.604  1.00  0.00     0.278 C 
ENDBRANCH  18  21
BRANCH  20  23
ATOM     23  O   UNL     1      -0.378  12.259  20.399  1.00  0.00    -0.504 OA
ATOM     24  H   UNL     1      -0.853  11.375  20.541  1.00  0.00     0.293 HD
ENDBRANCH  20  23
ENDBRANCH  14  15
ENDBRANCH  12  14
ENDBRANCH   9  10
ENDBRANCH   1   9
TORSDOF 10
ENDMDL
MODEL 5
REMARK VINA RESULT:    -4.867      4.967      7.679
REMARK INTER + INTRA:          -8.548
REMARK INTER:                  -7.070
REMARK INTRA:                  -1.478
REMARK UNBOUND:                -0.979
REMARK SMILES COc1cc(CNC(=O)CCCCC=CC(C)C)ccc1O
REMARK SMILES IDX 11 1 12 2 13 3 14 4 15 5 16 6 17 7 18 8 10 9 8 10 9 11 7 12
REMARK SMILES IDX 6 14 5 15 4 16 19 17 3 18 20 19 21 20 2 21 1 22 22 23
REMARK H PARENT 7 13 22 24
REMARK Flexibility Score: inf
ROOT
ATOM      1  C   UNL     1       3.242   7.917   7.823  1.00  0.00     0.010 C 
ENDROOT
BRANCH   1   2
ATOM      2  C   UNL     1       3.736   9.046   8.741  1.00  0.00     0.005 C 
BRANCH   2   3
ATOM      3  C   UNL     1       2.665   9.443   9.758  1.00  0.00     0.027 C 
BRANCH   3   4
ATOM      4  C   UNL     1       1.287   9.483   9.145  1.00  0.00    -0.031 C 
ATOM      5  C   UNL     1       0.735  10.453   8.380  1.00  0.00    -0.028 C 
BRANCH   5   6
ATOM      6  C   UNL     1       1.339  11.739   7.827  1.00  0.00     0.005 C 
ATOM      7  C   UNL     1       1.618  12.750   8.943  1.00  0.00     0.012 C 
ATOM      8  C   UNL     1       0.612  12.378   6.639  1.00  0.00     0.012 C 
ENDBRANCH   5   6
ENDBRANCH   3   4
ENDBRANCH   2   3
ENDBRANCH   1   2
BRANCH   1   9
ATOM      9  C   UNL     1       4.102   6.651   7.951  1.00  0.00     0.100 C 
BRANCH   9  10
ATOM     10  C   UNL     1       3.931   6.005   9.295  1.00  0.00     0.220 C 
ATOM     11  O   UNL     1       2.882   5.347   9.537  1.00  0.00    -0.275 OA
ATOM     12  N   UNL     1       4.926   6.183  10.314  1.00  0.00    -0.352 N 
ATOM     13  H   UNL     1       5.790   6.726  10.091  1.00  0.00     0.163 HD
BRANCH  12  14
ATOM     14  C   UNL     1       4.734   5.718  11.686  1.00  0.00     0.151 C 
BRANCH  14  15
ATOM     15  C   UNL     1       3.993   6.753  12.489  1.00  0.00    -0.025 A 
ATOM     16  C   UNL     1       2.740   6.447  13.042  1.00  0.00     0.056 A 
ATOM     17  C   UNL     1       4.536   8.034  12.674  1.00  0.00     0.009 A 
ATOM     18  C   UNL     1       2.027   7.414  13.781  1.00  0.00     0.160 A 
ATOM     19  C   UNL     1       3.836   8.994  13.406  1.00  0.00     0.050 A 
ATOM     20  C   UNL     1       2.587   8.692  13.959  1.00  0.00     0.157 A 
BRANCH  18  21
ATOM     21  O   UNL     1       0.770   7.140  14.344  1.00  0.00    -0.493 OA
ATOM     22  C   UNL     1       0.074   5.906  14.203  1.00  0.00     0.278 C 
ENDBRANCH  18  21
BRANCH  20  23
ATOM     23  O   UNL     1       1.916   9.678  14.682  1.00  0.00    -0.504 OA
ATOM     24  H   UNL     1       1.860  10.638  14.365  1.00  0.00     0.293 HD
ENDBRANCH  20  23
ENDBRANCH  14  15
ENDBRANCH  12  14
ENDBRANCH   9  10
ENDBRANCH   1   9
TORSDOF 10
ENDMDL
MODEL 6
REMARK VINA RESULT:    -4.828      5.640      7.818
REMARK INTER + INTRA:          -8.488
REMARK INTER:                  -7.218
REMARK INTRA:                  -1.269
REMARK UNBOUND:                -0.979
REMARK SMILES COc1cc(CNC(=O)CCCCC=CC(C)C)ccc1O
REMARK SMILES IDX 11 1 12 2 13 3 14 4 15 5 16 6 17 7 18 8 10 9 8 10 9 11 7 12
REMARK SMILES IDX 6 14 5 15 4 16 19 17 3 18 20 19 21 20 2 21 1 22 22 23
REMARK H PARENT 7 13 22 24
REMARK Flexibility Score: inf
ROOT
ATOM      1  C   UNL     1       1.759  12.191   9.113  1.00  0.00     0.010 C 
ENDROOT
BRANCH   1   2
ATOM      2  C   UNL     1       2.100  13.606   8.623  1.00  0.00     0.005 C 
BRANCH   2   3
ATOM      3  C   UNL     1       1.071  14.106   7.609  1.00  0.00     0.027 C 
BRANCH   3   4
ATOM      4  C   UNL     1       1.709  14.907   6.500  1.00  0.00    -0.031 C 
ATOM      5  C   UNL     1       2.304  14.455   5.372  1.00  0.00    -0.028 C 
BRANCH   5   6
ATOM      6  C   UNL     1       2.437  13.039   4.824  1.00  0.00     0.005 C 
ATOM      7  C   UNL     1       1.065  12.402   4.584  1.00  0.00     0.012 C 
ATOM      8  C   UNL     1       3.384  12.101   5.580  1.00  0.00     0.012 C 
ENDBRANCH   5   6
ENDBRANCH   3   4
ENDBRANCH   2   3
ENDBRANCH   1   2
BRANCH   1   9
ATOM      9  C   UNL     1       0.713  11.507   8.220  1.00  0.00     0.100 C 
BRANCH   9  10
ATOM     10  C   UNL     1       0.430  10.107   8.680  1.00  0.00     0.220 C 
ATOM     11  O   UNL     1      -0.723   9.815   9.103  1.00  0.00    -0.275 OA
ATOM     12  N   UNL     1       1.476   9.124   8.693  1.00  0.00    -0.352 N 
ATOM     13  H   UNL     1       2.422   9.385   8.333  1.00  0.00     0.163 HD
BRANCH  12  14
ATOM     14  C   UNL     1       1.300   7.800   9.283  1.00  0.00     0.151 C 
BRANCH  14  15
ATOM     15  C   UNL     1       2.001   7.722  10.613  1.00  0.00    -0.025 A 
ATOM     16  C   UNL     1       1.575   6.797  11.577  1.00  0.00     0.056 A 
ATOM     17  C   UNL     1       3.068   8.585  10.906  1.00  0.00     0.009 A 
ATOM     18  C   UNL     1       2.211   6.727  12.834  1.00  0.00     0.160 A 
ATOM     19  C   UNL     1       3.703   8.520  12.147  1.00  0.00     0.050 A 
ATOM     20  C   UNL     1       3.282   7.597  13.111  1.00  0.00     0.157 A 
BRANCH  18  21
ATOM     21  O   UNL     1       1.807   5.814  13.821  1.00  0.00    -0.493 OA
ATOM     22  C   UNL     1       0.486   5.721  14.342  1.00  0.00     0.278 C 
ENDBRANCH  18  21
BRANCH  20  23
ATOM     23  O   UNL     1       3.938   7.562  14.341  1.00  0.00    -0.504 OA
ATOM     24  H   UNL     1       4.533   8.318  14.658  1.00  0.00     0.293 HD
ENDBRANCH  20  23
ENDBRANCH  14  15
ENDBRANCH  12  14
ENDBRANCH   9  10
ENDBRANCH   1   9
TORSDOF 10
ENDMDL
MODEL 7
REMARK VINA RESULT:    -4.814      1.498      2.038
REMARK INTER + INTRA:          -8.466
REMARK INTER:                  -7.211
REMARK INTRA:                  -1.254
REMARK UNBOUND:                -0.979
REMARK SMILES COc1cc(CNC(=O)CCCCC=CC(C)C)ccc1O
REMARK SMILES IDX 11 1 12 2 13 3 14 4 15 5 16 6 17 7 18 8 10 9 8 10 9 11 7 12
REMARK SMILES IDX 6 14 5 15 4 16 19 17 3 18 20 19 21 20 2 21 1 22 22 23
REMARK H PARENT 7 13 22 24
REMARK Flexibility Score: inf
ROOT
ATOM      1  C   UNL     1       2.912  12.626  17.015  1.00  0.00     0.010 C 
ENDROOT
BRANCH   1   2
ATOM      2  C   UNL     1       2.838  14.153  16.859  1.00  0.00     0.005 C 
BRANCH   2   3
ATOM      3  C   UNL     1       1.466  14.592  16.343  1.00  0.00     0.027 C 
BRANCH   3   4
ATOM      4  C   UNL     1       0.646  15.267  17.415  1.00  0.00    -0.031 C 
ATOM      5  C   UNL     1      -0.466  14.808  18.036  1.00  0.00    -0.028 C 
BRANCH   5   6
ATOM      6  C   UNL     1      -1.174  13.462  17.928  1.00  0.00     0.005 C 
ATOM      7  C   UNL     1      -0.394  12.361  18.652  1.00  0.00     0.012 C 
ATOM      8  C   UNL     1      -1.610  13.032  16.523  1.00  0.00     0.012 C 
ENDBRANCH   5   6
ENDBRANCH   3   4
ENDBRANCH   2   3
ENDBRANCH   1   2
BRANCH   1   9
ATOM      9  C   UNL     1       2.125  11.895  15.917  1.00  0.00     0.100 C 
BRANCH   9  10
ATOM     10  C   UNL     1       3.034  11.395  14.832  1.00  0.00     0.220 C 
ATOM     11  O   UNL     1       3.057  11.992  13.720  1.00  0.00    -0.275 OA
ATOM     12  N   UNL     1       3.824  10.215  15.037  1.00  0.00    -0.352 N 
ATOM     13  H   UNL     1       3.794   9.739  15.967  1.00  0.00     0.163 HD
BRANCH  12  14
ATOM     14  C   UNL     1       4.594   9.591  13.964  1.00  0.00     0.151 C 
BRANCH  14  15
ATOM     15  C   UNL     1       3.729   8.638  13.185  1.00  0.00    -0.025 A 
ATOM     16  C   UNL     1       3.035   7.617  13.851  1.00  0.00     0.056 A 
ATOM     17  C   UNL     1       3.627   8.748  11.790  1.00  0.00     0.009 A 
ATOM     18  C   UNL     1       2.236   6.705  13.130  1.00  0.00     0.160 A 
ATOM     19  C   UNL     1       2.836   7.849  11.071  1.00  0.00     0.050 A 
ATOM     20  C   UNL     1       2.142   6.831  11.732  1.00  0.00     0.157 A 
BRANCH  18  21
ATOM     21  O   UNL     1       1.531   5.671  13.767  1.00  0.00    -0.493 OA
ATOM     22  C   UNL     1       0.269   5.828  14.405  1.00  0.00     0.278 C 
ENDBRANCH  18  21
BRANCH  20  23
ATOM     23  O   UNL     1       1.363   5.950  10.981  1.00  0.00    -0.504 OA
ATOM     24  H   UNL     1       0.663   5.352  11.403  1.00  0.00     0.293 HD
ENDBRANCH  20  23
ENDBRANCH  14  15
ENDBRANCH  12  14
ENDBRANCH   9  10
ENDBRANCH   1   9
TORSDOF 10
ENDMDL
MODEL 8
REMARK VINA RESULT:    -4.744      2.961      8.113
REMARK INTER + INTRA:          -8.358
REMARK INTER:                  -7.446
REMARK INTRA:                  -0.912
REMARK UNBOUND:                -0.979
REMARK SMILES COc1cc(CNC(=O)CCCCC=CC(C)C)ccc1O
REMARK SMILES IDX 11 1 12 2 13 3 14 4 15 5 16 6 17 7 18 8 10 9 8 10 9 11 7 12
REMARK SMILES IDX 6 14 5 15 4 16 19 17 3 18 20 19 21 20 2 21 1 22 22 23
REMARK H PARENT 7 13 22 24
REMARK Flexibility Score: inf
ROOT
ATOM      1  C   UNL     1       3.984   9.259  13.698  1.00  0.00     0.010 C 
ENDROOT
BRANCH   1   2
ATOM      2  C   UNL     1       4.728   8.338  12.720  1.00  0.00     0.005 C 
BRANCH   2   3
ATOM      3  C   UNL     1       3.832   7.192  12.245  1.00  0.00     0.027 C 
BRANCH   3   4
ATOM      4  C   UNL     1       3.536   6.208  13.350  1.00  0.00    -0.031 C 
ATOM      5  C   UNL     1       2.359   5.975  13.975  1.00  0.00    -0.028 C 
BRANCH   5   6
ATOM      6  C   UNL     1       0.970   6.547  13.711  1.00  0.00     0.005 C 
ATOM      7  C   UNL     1       0.781   7.898  14.407  1.00  0.00     0.012 C 
ATOM      8  C   UNL     1      -0.213   5.604  13.953  1.00  0.00     0.012 C 
ENDBRANCH   5   6
ENDBRANCH   3   4
ENDBRANCH   2   3
ENDBRANCH   1   2
BRANCH   1   9
ATOM      9  C   UNL     1       4.787   9.508  14.982  1.00  0.00     0.100 C 
BRANCH   9  10
ATOM     10  C   UNL     1       4.621  10.918  15.469  1.00  0.00     0.220 C 
ATOM     11  O   UNL     1       4.199  11.802  14.673  1.00  0.00    -0.275 OA
ATOM     12  N   UNL     1       4.994  11.269  16.810  1.00  0.00    -0.352 N 
ATOM     13  H   UNL     1       5.335  10.520  17.454  1.00  0.00     0.163 HD
BRANCH  12  14
ATOM     14  C   UNL     1       5.010  12.651  17.282  1.00  0.00     0.151 C 
BRANCH  14  15
ATOM     15  C   UNL     1       4.131  12.799  18.495  1.00  0.00    -0.025 A 
ATOM     16  C   UNL     1       2.758  13.043  18.339  1.00  0.00     0.056 A 
ATOM     17  C   UNL     1       4.677  12.718  19.784  1.00  0.00     0.009 A 
ATOM     18  C   UNL     1       1.926  13.203  19.467  1.00  0.00     0.160 A 
ATOM     19  C   UNL     1       3.858  12.874  20.904  1.00  0.00     0.050 A 
ATOM     20  C   UNL     1       2.489  13.115  20.753  1.00  0.00     0.157 A 
BRANCH  18  21
ATOM     21  O   UNL     1       0.549  13.451  19.344  1.00  0.00    -0.493 OA
ATOM     22  C   UNL     1      -0.025  14.404  18.456  1.00  0.00     0.278 C 
ENDBRANCH  18  21
BRANCH  20  23
ATOM     23  O   UNL     1       1.702  13.268  21.895  1.00  0.00    -0.504 OA
ATOM     24  H   UNL     1       2.098  13.512  22.795  1.00  0.00     0.293 HD
ENDBRANCH  20  23
ENDBRANCH  14  15
ENDBRANCH  12  14
ENDBRANCH   9  10
ENDBRANCH   1   9
TORSDOF 10
ENDMDL
MODEL 9
REMARK VINA RESULT:    -4.722      4.293      7.918
REMARK INTER + INTRA:          -8.323
REMARK INTER:                  -7.034
REMARK INTRA:                  -1.289
REMARK UNBOUND:                -0.979
REMARK SMILES COc1cc(CNC(=O)CCCCC=CC(C)C)ccc1O
REMARK SMILES IDX 11 1 12 2 13 3 14 4 15 5 16 6 17 7 18 8 10 9 8 10 9 11 7 12
REMARK SMILES IDX 6 14 5 15 4 16 19 17 3 18 20 19 21 20 2 21 1 22 22 23
REMARK H PARENT 7 13 22 24
REMARK Flexibility Score: inf
ROOT
ATOM      1  C   UNL     1       3.370   8.474   8.026  1.00  0.00     0.010 C 
ENDROOT
BRANCH   1   2
ATOM      2  C   UNL     1       1.876   8.438   8.378  1.00  0.00     0.005 C 
BRANCH   2   3
ATOM      3  C   UNL     1       1.495   9.595   9.304  1.00  0.00     0.027 C 
BRANCH   3   4
ATOM      4  C   UNL     1       0.315  10.377   8.780  1.00  0.00    -0.031 C 
ATOM      5  C   UNL     1       0.317  11.549   8.104  1.00  0.00    -0.028 C 
BRANCH   5   6
ATOM      6  C   UNL     1       1.479  12.388   7.583  1.00  0.00     0.005 C 
ATOM      7  C   UNL     1       1.063  13.847   7.371  1.00  0.00     0.012 C 
ATOM      8  C   UNL     1       2.242  11.825   6.380  1.00  0.00     0.012 C 
ENDBRANCH   5   6
ENDBRANCH   3   4
ENDBRANCH   2   3
ENDBRANCH   1   2
BRANCH   1   9
ATOM      9  C   UNL     1       3.964   7.066   7.880  1.00  0.00     0.100 C 
BRANCH   9  10
ATOM     10  C   UNL     1       4.200   6.428   9.218  1.00  0.00     0.220 C 
ATOM     11  O   UNL     1       3.900   5.214   9.386  1.00  0.00    -0.275 OA
ATOM     12  N   UNL     1       4.708   7.207  10.310  1.00  0.00    -0.352 N 
ATOM     13  H   UNL     1       4.956   8.209  10.147  1.00  0.00     0.163 HD
BRANCH  12  14
ATOM     14  C   UNL     1       4.800   6.682  11.671  1.00  0.00     0.151 C 
BRANCH  14  15
ATOM     15  C   UNL     1       3.606   7.114  12.479  1.00  0.00    -0.025 A 
ATOM     16  C   UNL     1       3.653   8.307  13.216  1.00  0.00     0.056 A 
ATOM     17  C   UNL     1       2.450   6.321  12.521  1.00  0.00     0.009 A 
ATOM     18  C   UNL     1       2.549   8.714  13.993  1.00  0.00     0.160 A 
ATOM     19  C   UNL     1       1.353   6.718  13.287  1.00  0.00     0.050 A 
ATOM     20  C   UNL     1       1.396   7.908  14.021  1.00  0.00     0.157 A 
BRANCH  18  21
ATOM     21  O   UNL     1       2.565   9.900  14.743  1.00  0.00    -0.493 OA
ATOM     22  C   UNL     1       3.746  10.543  15.212  1.00  0.00     0.278 C 
ENDBRANCH  18  21
BRANCH  20  23
ATOM     23  O   UNL     1       0.281   8.272  14.778  1.00  0.00    -0.504 OA
ATOM     24  H   UNL     1      -0.036   7.727  15.569  1.00  0.00     0.293 HD
ENDBRANCH  20  23
ENDBRANCH  14  15
ENDBRANCH  12  14
ENDBRANCH   9  10
ENDBRANCH   1   9
TORSDOF 10
ENDMDL
