MODEL 1
REMARK VINA RESULT:    -7.637      0.000      0.000
REMARK INTER + INTRA:          -8.737
REMARK INTER:                  -8.529
REMARK INTRA:                  -0.208
REMARK UNBOUND:                -0.208
REMARK SMILES O=C([O-])c1ccccc1C(=O)[O-]
REMARK SMILES IDX 4 1 9 2 5 3 8 4 6 5 7 6 2 7 1 8 3 9 10 10 11 11 12 12
REMARK H PARENT
REMARK Flexibility Score: inf
ROOT
ATOM      1  C   UNL     1       9.864  -3.459  -1.033  1.00  0.00     0.006 A 
ATOM      2  C   UNL     1       8.984  -4.538  -1.325  1.00  0.00     0.006 A 
ATOM      3  C   UNL     1      10.675  -2.939  -2.059  1.00  0.00     0.010 A 
ATOM      4  C   UNL     1       8.995  -5.099  -2.615  1.00  0.00     0.010 A 
ATOM      5  C   UNL     1      10.652  -3.498  -3.338  1.00  0.00     0.001 A 
ATOM      6  C   UNL     1       9.823  -4.583  -3.612  1.00  0.00     0.001 A 
ENDROOT
BRANCH   1   7
ATOM      7  C   UNL     1      10.020  -2.899   0.330  1.00  0.00     0.072 C 
ATOM      8  O   UNL     1       9.349  -1.894   0.683  1.00  0.00    -0.545 OA
ATOM      9  O   UNL     1      10.952  -3.432   1.213  1.00  0.00    -0.545 OA
ENDBRANCH   1   7
BRANCH   2  10
ATOM     10  C   UNL     1       7.999  -5.060  -0.350  1.00  0.00     0.072 C 
ATOM     11  O   UNL     1       6.788  -4.721  -0.412  1.00  0.00    -0.545 OA
ATOM     12  O   UNL     1       8.391  -5.990   0.608  1.00  0.00    -0.545 OA
ENDBRANCH   2  10
TORSDOF 2
ENDMDL
MODEL 2
REMARK VINA RESULT:    -7.636      0.103      2.872
REMARK INTER + INTRA:          -8.736
REMARK INTER:                  -8.530
REMARK INTRA:                  -0.206
REMARK UNBOUND:                -0.208
REMARK SMILES O=C([O-])c1ccccc1C(=O)[O-]
REMARK SMILES IDX 4 1 9 2 5 3 8 4 6 5 7 6 2 7 1 8 3 9 10 10 11 11 12 12
REMARK H PARENT
REMARK Flexibility Score: inf
ROOT
ATOM      1  C   UNL     1       8.938  -4.562  -1.320  1.00  0.00     0.006 A 
ATOM      2  C   UNL     1       9.811  -3.486  -0.998  1.00  0.00     0.006 A 
ATOM      3  C   UNL     1       8.977  -5.110  -2.615  1.00  0.00     0.010 A 
ATOM      4  C   UNL     1      10.642  -2.956  -2.001  1.00  0.00     0.010 A 
ATOM      5  C   UNL     1       9.827  -4.583  -3.588  1.00  0.00     0.001 A 
ATOM      6  C   UNL     1      10.648  -3.501  -3.286  1.00  0.00     0.001 A 
ENDROOT
BRANCH   1   7
ATOM      7  C   UNL     1       7.932  -5.089  -0.369  1.00  0.00     0.072 C 
ATOM      8  O   UNL     1       6.749  -4.656  -0.392  1.00  0.00    -0.545 OA
ATOM      9  O   UNL     1       8.291  -6.017   0.601  1.00  0.00    -0.545 OA
ENDBRANCH   1   7
BRANCH   2  10
ATOM     10  C   UNL     1       9.939  -2.934   0.371  1.00  0.00     0.072 C 
ATOM     11  O   UNL     1       9.145  -2.049   0.786  1.00  0.00    -0.545 OA
ATOM     12  O   UNL     1      10.899  -3.441   1.240  1.00  0.00    -0.545 OA
ENDBRANCH   2  10
TORSDOF 2
ENDMDL
MODEL 3
REMARK VINA RESULT:    -6.800      1.068      1.490
REMARK INTER + INTRA:          -7.803
REMARK INTER:                  -7.635
REMARK INTRA:                  -0.167
REMARK UNBOUND:                -0.208
REMARK SMILES O=C([O-])c1ccccc1C(=O)[O-]
REMARK SMILES IDX 4 1 9 2 5 3 8 4 6 5 7 6 2 7 1 8 3 9 10 10 11 11 12 12
REMARK H PARENT
REMARK Flexibility Score: inf
ROOT
ATOM      1  C   UNL     1       9.189  -3.213  -0.118  1.00  0.00     0.006 A 
ATOM      2  C   UNL     1       8.507  -4.324  -0.689  1.00  0.00     0.006 A 
ATOM      3  C   UNL     1      10.192  -2.568  -0.865  1.00  0.00     0.010 A 
ATOM      4  C   UNL     1       8.899  -4.788  -1.958  1.00  0.00     0.010 A 
ATOM      5  C   UNL     1      10.548  -3.032  -2.132  1.00  0.00     0.001 A 
ATOM      6  C   UNL     1       9.911  -4.147  -2.672  1.00  0.00     0.001 A 
ENDROOT
BRANCH   1   7
ATOM      7  C   UNL     1       8.940  -2.746   1.265  1.00  0.00     0.072 C 
ATOM      8  O   UNL     1       9.316  -3.440   2.246  1.00  0.00    -0.545 OA
ATOM      9  O   UNL     1       8.233  -1.572   1.501  1.00  0.00    -0.545 OA
ENDBRANCH   1   7
BRANCH   2  10
ATOM     10  C   UNL     1       7.350  -4.980  -0.038  1.00  0.00     0.072 C 
ATOM     11  O   UNL     1       6.171  -4.681  -0.365  1.00  0.00    -0.545 OA
ATOM     12  O   UNL     1       7.555  -5.988   0.898  1.00  0.00    -0.545 OA
ENDBRANCH   2  10
TORSDOF 2
ENDMDL
MODEL 4
REMARK VINA RESULT:    -6.598      1.312      1.707
REMARK INTER + INTRA:          -7.577
REMARK INTER:                  -7.367
REMARK INTRA:                  -0.210
REMARK UNBOUND:                -0.208
REMARK SMILES O=C([O-])c1ccccc1C(=O)[O-]
REMARK SMILES IDX 4 1 9 2 5 3 8 4 6 5 7 6 2 7 1 8 3 9 10 10 11 11 12 12
REMARK H PARENT
REMARK Flexibility Score: inf
ROOT
ATOM      1  C   UNL     1       9.706  -2.874  -0.263  1.00  0.00     0.006 A 
ATOM      2  C   UNL     1       8.714  -3.883  -0.112  1.00  0.00     0.006 A 
ATOM      3  C   UNL     1      10.410  -2.784  -1.478  1.00  0.00     0.010 A 
ATOM      4  C   UNL     1       8.510  -4.803  -1.156  1.00  0.00     0.010 A 
ATOM      5  C   UNL     1      10.175  -3.694  -2.509  1.00  0.00     0.001 A 
ATOM      6  C   UNL     1       9.236  -4.709  -2.343  1.00  0.00     0.001 A 
ENDROOT
BRANCH   1   7
ATOM      7  C   UNL     1      10.084  -1.952   0.833  1.00  0.00     0.072 C 
ATOM      8  O   UNL     1       9.733  -0.744   0.795  1.00  0.00    -0.545 OA
ATOM      9  O   UNL     1      10.884  -2.390   1.883  1.00  0.00    -0.545 OA
ENDBRANCH   1   7
BRANCH   2  10
ATOM     10  C   UNL     1       7.829  -3.971   1.073  1.00  0.00     0.072 C 
ATOM     11  O   UNL     1       8.042  -4.825   1.974  1.00  0.00    -0.545 OA
ATOM     12  O   UNL     1       6.791  -3.061   1.238  1.00  0.00    -0.545 OA
ENDBRANCH   2  10
TORSDOF 2
ENDMDL
MODEL 5
REMARK VINA RESULT:    -6.035     14.207     15.281
REMARK INTER + INTRA:          -6.949
REMARK INTER:                  -7.434
REMARK INTRA:                   0.486
REMARK UNBOUND:                -0.208
REMARK SMILES O=C([O-])c1ccccc1C(=O)[O-]
REMARK SMILES IDX 4 1 9 2 5 3 8 4 6 5 7 6 2 7 1 8 3 9 10 10 11 11 12 12
REMARK H PARENT
REMARK Flexibility Score: inf
ROOT
ATOM      1  C   UNL     1      -4.552   2.777  -0.947  1.00  0.00     0.006 A 
ATOM      2  C   UNL     1      -4.127   1.769  -0.038  1.00  0.00     0.006 A 
ATOM      3  C   UNL     1      -5.341   2.411  -2.054  1.00  0.00     0.010 A 
ATOM      4  C   UNL     1      -4.451   0.426  -0.305  1.00  0.00     0.010 A 
ATOM      5  C   UNL     1      -5.669   1.075  -2.286  1.00  0.00     0.001 A 
ATOM      6  C   UNL     1      -5.215   0.084  -1.421  1.00  0.00     0.001 A 
ENDROOT
BRANCH   1   7
ATOM      7  C   UNL     1      -4.141   4.194  -0.821  1.00  0.00     0.072 C 
ATOM      8  O   UNL     1      -4.995   5.081  -0.557  1.00  0.00    -0.545 OA
ATOM      9  O   UNL     1      -2.824   4.574  -1.055  1.00  0.00    -0.545 OA
ENDBRANCH   1   7
BRANCH   2  10
ATOM     10  C   UNL     1      -3.412   2.072   1.224  1.00  0.00     0.072 C 
ATOM     11  O   UNL     1      -3.387   3.243   1.685  1.00  0.00    -0.545 OA
ATOM     12  O   UNL     1      -2.817   1.047   1.952  1.00  0.00    -0.545 OA
ENDBRANCH   2  10
TORSDOF 2
ENDMDL
MODEL 6
REMARK VINA RESULT:    -6.022      2.121      3.648
REMARK INTER + INTRA:          -6.934
REMARK INTER:                  -6.721
REMARK INTRA:                  -0.214
REMARK UNBOUND:                -0.208
REMARK SMILES O=C([O-])c1ccccc1C(=O)[O-]
REMARK SMILES IDX 4 1 9 2 5 3 8 4 6 5 7 6 2 7 1 8 3 9 10 10 11 11 12 12
REMARK H PARENT
REMARK Flexibility Score: inf
ROOT
ATOM      1  C   UNL     1       8.273  -3.931   0.132  1.00  0.00     0.006 A 
ATOM      2  C   UNL     1       8.203  -2.799   0.992  1.00  0.00     0.006 A 
ATOM      3  C   UNL     1       9.325  -4.019  -0.799  1.00  0.00     0.010 A 
ATOM      4  C   UNL     1       9.148  -1.768   0.844  1.00  0.00     0.010 A 
ATOM      5  C   UNL     1      10.265  -2.994  -0.912  1.00  0.00     0.001 A 
ATOM      6  C   UNL     1      10.169  -1.866  -0.102  1.00  0.00     0.001 A 
ENDROOT
BRANCH   1   7
ATOM      7  C   UNL     1       7.242  -4.995   0.123  1.00  0.00     0.072 C 
ATOM      8  O   UNL     1       6.177  -4.840  -0.531  1.00  0.00    -0.545 OA
ATOM      9  O   UNL     1       7.405  -6.146   0.884  1.00  0.00    -0.545 OA
ENDBRANCH   1   7
BRANCH   2  10
ATOM     10  C   UNL     1       7.216  -2.683   2.091  1.00  0.00     0.072 C 
ATOM     11  O   UNL     1       6.213  -1.931   1.979  1.00  0.00    -0.545 OA
ATOM     12  O   UNL     1       7.353  -3.461   3.236  1.00  0.00    -0.545 OA
ENDBRANCH   2  10
TORSDOF 2
ENDMDL
MODEL 7
REMARK VINA RESULT:    -5.993     14.787     15.648
REMARK INTER + INTRA:          -6.901
REMARK INTER:                  -6.753
REMARK INTRA:                  -0.148
REMARK UNBOUND:                -0.208
REMARK SMILES O=C([O-])c1ccccc1C(=O)[O-]
REMARK SMILES IDX 4 1 9 2 5 3 8 4 6 5 7 6 2 7 1 8 3 9 10 10 11 11 12 12
REMARK H PARENT
REMARK Flexibility Score: inf
ROOT
ATOM      1  C   UNL     1      -4.351   2.509  -0.591  1.00  0.00     0.006 A 
ATOM      2  C   UNL     1      -4.855   1.490  -1.447  1.00  0.00     0.006 A 
ATOM      3  C   UNL     1      -3.810   2.148   0.657  1.00  0.00     0.010 A 
ATOM      4  C   UNL     1      -4.860   0.158  -0.996  1.00  0.00     0.010 A 
ATOM      5  C   UNL     1      -3.805   0.816   1.074  1.00  0.00     0.001 A 
ATOM      6  C   UNL     1      -4.340  -0.175   0.255  1.00  0.00     0.001 A 
ENDROOT
BRANCH   1   7
ATOM      7  C   UNL     1      -4.434   3.949  -0.926  1.00  0.00     0.072 C 
ATOM      8  O   UNL     1      -3.385   4.640  -1.017  1.00  0.00    -0.545 OA
ATOM      9  O   UNL     1      -5.668   4.571  -1.078  1.00  0.00    -0.545 OA
ENDBRANCH   1   7
BRANCH   2  10
ATOM     10  C   UNL     1      -5.318   1.755  -2.829  1.00  0.00     0.072 C 
ATOM     11  O   UNL     1      -4.517   1.696  -3.799  1.00  0.00    -0.545 OA
ATOM     12  O   UNL     1      -6.662   2.007  -3.079  1.00  0.00    -0.545 OA
ENDBRANCH   2  10
TORSDOF 2
ENDMDL
MODEL 8
REMARK VINA RESULT:    -5.958     14.762     15.822
REMARK INTER + INTRA:          -6.862
REMARK INTER:                  -6.752
REMARK INTRA:                  -0.110
REMARK UNBOUND:                -0.208
REMARK SMILES O=C([O-])c1ccccc1C(=O)[O-]
REMARK SMILES IDX 4 1 9 2 5 3 8 4 6 5 7 6 2 7 1 8 3 9 10 10 11 11 12 12
REMARK H PARENT
REMARK Flexibility Score: inf
ROOT
ATOM      1  C   UNL     1      -4.903   1.432  -1.496  1.00  0.00     0.006 A 
ATOM      2  C   UNL     1      -4.381   2.454  -0.655  1.00  0.00     0.006 A 
ATOM      3  C   UNL     1      -4.894   0.100  -1.041  1.00  0.00     0.010 A 
ATOM      4  C   UNL     1      -3.811   2.099   0.581  1.00  0.00     0.010 A 
ATOM      5  C   UNL     1      -4.344  -0.226   0.200  1.00  0.00     0.001 A 
ATOM      6  C   UNL     1      -3.793   0.769   1.003  1.00  0.00     0.001 A 
ENDROOT
BRANCH   1   7
ATOM      7  C   UNL     1      -5.393   1.696  -2.869  1.00  0.00     0.072 C 
ATOM      8  O   UNL     1      -6.619   1.893  -3.077  1.00  0.00    -0.545 OA
ATOM      9  O   UNL     1      -4.521   1.667  -3.951  1.00  0.00    -0.545 OA
ENDBRANCH   1   7
BRANCH   2  10
ATOM     10  C   UNL     1      -4.470   3.895  -0.989  1.00  0.00     0.072 C 
ATOM     11  O   UNL     1      -5.589   4.460  -1.110  1.00  0.00    -0.545 OA
ATOM     12  O   UNL     1      -3.313   4.657  -1.104  1.00  0.00    -0.545 OA
ENDBRANCH   2  10
TORSDOF 2
ENDMDL
