MODEL 1
REMARK VINA RESULT:    -3.524      0.000      0.000
REMARK INTER + INTRA:          -5.260
REMARK INTER:                  -4.760
REMARK INTRA:                  -0.500
REMARK UNBOUND:                -0.500
REMARK SMILES CCCCCCCC(=O)[O-]
REMARK SMILES IDX 5 1 6 2 7 3 8 4 9 5 10 6 4 7 3 8 2 9 1 10
REMARK H PARENT
REMARK Flexibility Score: inf
ROOT
ATOM      1  C   UNL     1      98.882   2.269 -26.237  1.00  0.00     0.000 C 
ENDROOT
BRANCH   1   2
ATOM      2  C   UNL     1      99.786   1.703 -27.342  1.00  0.00     0.006 C 
BRANCH   2   3
ATOM      3  C   UNL     1      98.998   0.774 -28.271  1.00  0.00     0.053 C 
BRANCH   3   4
ATOM      4  C   UNL     1      99.129   1.222 -29.692  1.00  0.00     0.041 C 
ATOM      5  O   UNL     1     100.116   0.856 -30.384  1.00  0.00    -0.550 OA
ATOM      6  O   UNL     1      98.187   2.083 -30.241  1.00  0.00    -0.550 OA
ENDBRANCH   3   4
ENDBRANCH   2   3
ENDBRANCH   1   2
BRANCH   1   7
ATOM      7  C   UNL     1      98.748   3.799 -26.307  1.00  0.00     0.000 C 
BRANCH   7   8
ATOM      8  C   UNL     1      97.876   4.262 -27.488  1.00  0.00    -0.000 C 
BRANCH   8   9
ATOM      9  C   UNL     1      98.603   5.266 -28.397  1.00  0.00    -0.003 C 
ATOM     10  C   UNL     1     100.124   5.160 -28.296  1.00  0.00     0.004 C 
ENDBRANCH   8   9
ENDBRANCH   7   8
ENDBRANCH   1   7
TORSDOF 6
ENDMDL
MODEL 2
REMARK VINA RESULT:    -3.457      1.468      3.439
REMARK INTER + INTRA:          -5.169
REMARK INTER:                  -4.741
REMARK INTRA:                  -0.428
REMARK UNBOUND:                -0.500
REMARK SMILES CCCCCCCC(=O)[O-]
REMARK SMILES IDX 5 1 6 2 7 3 8 4 9 5 10 6 4 7 3 8 2 9 1 10
REMARK H PARENT
REMARK Flexibility Score: inf
ROOT
ATOM      1  C   UNL     1      98.031   3.989 -26.537  1.00  0.00     0.000 C 
ENDROOT
BRANCH   1   2
ATOM      2  C   UNL     1      99.061   4.851 -27.280  1.00  0.00     0.006 C 
BRANCH   2   3
ATOM      3  C   UNL     1      98.550   5.236 -28.673  1.00  0.00     0.053 C 
BRANCH   3   4
ATOM      4  C   UNL     1      98.414   4.021 -29.534  1.00  0.00     0.041 C 
ATOM      5  O   UNL     1      97.279   3.647 -29.929  1.00  0.00    -0.550 OA
ATOM      6  O   UNL     1      99.537   3.271 -29.863  1.00  0.00    -0.550 OA
ENDBRANCH   3   4
ENDBRANCH   2   3
ENDBRANCH   1   2
BRANCH   1   7
ATOM      7  C   UNL     1      98.603   3.353 -25.260  1.00  0.00     0.000 C 
BRANCH   7   8
ATOM      8  C   UNL     1      98.684   1.818 -25.348  1.00  0.00    -0.000 C 
BRANCH   8   9
ATOM      9  C   UNL     1      99.723   1.343 -26.375  1.00  0.00    -0.003 C 
ATOM     10  C   UNL     1      99.097   0.563 -27.531  1.00  0.00     0.004 C 
ENDBRANCH   8   9
ENDBRANCH   7   8
ENDBRANCH   1   7
TORSDOF 6
ENDMDL
MODEL 3
REMARK VINA RESULT:    -3.418      1.875      3.868
REMARK INTER + INTRA:          -5.117
REMARK INTER:                  -4.677
REMARK INTRA:                  -0.440
REMARK UNBOUND:                -0.500
REMARK SMILES CCCCCCCC(=O)[O-]
REMARK SMILES IDX 5 1 6 2 7 3 8 4 9 5 10 6 4 7 3 8 2 9 1 10
REMARK H PARENT
REMARK Flexibility Score: inf
ROOT
ATOM      1  C   UNL     1      98.185   3.363 -25.061  1.00  0.00     0.000 C 
ENDROOT
BRANCH   1   2
ATOM      2  C   UNL     1      98.724   4.159 -26.258  1.00  0.00     0.006 C 
BRANCH   2   3
ATOM      3  C   UNL     1      97.666   4.274 -27.361  1.00  0.00     0.053 C 
BRANCH   3   4
ATOM      4  C   UNL     1      98.279   4.794 -28.622  1.00  0.00     0.041 C 
ATOM      5  O   UNL     1      97.907   4.347 -29.739  1.00  0.00    -0.550 OA
ATOM      6  O   UNL     1      99.296   5.739 -28.563  1.00  0.00    -0.550 OA
ENDBRANCH   3   4
ENDBRANCH   2   3
ENDBRANCH   1   2
BRANCH   1   7
ATOM      7  C   UNL     1      98.993   2.085 -24.787  1.00  0.00     0.000 C 
BRANCH   7   8
ATOM      8  C   UNL     1      98.319   0.824 -25.357  1.00  0.00    -0.000 C 
BRANCH   8   9
ATOM      9  C   UNL     1      99.184   0.121 -26.414  1.00  0.00    -0.003 C 
ATOM     10  C   UNL     1      99.005   0.711 -27.812  1.00  0.00     0.004 C 
ENDBRANCH   8   9
ENDBRANCH   7   8
ENDBRANCH   1   7
TORSDOF 6
ENDMDL
MODEL 4
REMARK VINA RESULT:    -3.391      1.406      2.848
REMARK INTER + INTRA:          -5.080
REMARK INTER:                  -4.697
REMARK INTRA:                  -0.383
REMARK UNBOUND:                -0.500
REMARK SMILES CCCCCCCC(=O)[O-]
REMARK SMILES IDX 5 1 6 2 7 3 8 4 9 5 10 6 4 7 3 8 2 9 1 10
REMARK H PARENT
REMARK Flexibility Score: inf
ROOT
ATOM      1  C   UNL     1      98.730   5.086 -28.619  1.00  0.00     0.000 C 
ENDROOT
BRANCH   1   2
ATOM      2  C   UNL     1      98.112   3.965 -29.467  1.00  0.00     0.006 C 
BRANCH   2   3
ATOM      3  C   UNL     1      99.173   2.937 -29.872  1.00  0.00     0.053 C 
BRANCH   3   4
ATOM      4  C   UNL     1      98.690   1.548 -29.594  1.00  0.00     0.041 C 
ATOM      5  O   UNL     1      98.310   0.808 -30.539  1.00  0.00    -0.550 OA
ATOM      6  O   UNL     1      98.613   1.088 -28.286  1.00  0.00    -0.550 OA
ENDBRANCH   3   4
ENDBRANCH   2   3
ENDBRANCH   1   2
BRANCH   1   7
ATOM      7  C   UNL     1      99.173   4.601 -27.229  1.00  0.00     0.000 C 
BRANCH   7   8
ATOM      8  C   UNL     1      98.006   4.031 -26.402  1.00  0.00    -0.000 C 
BRANCH   8   9
ATOM      9  C   UNL     1      98.440   3.598 -24.994  1.00  0.00    -0.003 C 
ATOM     10  C   UNL     1      98.903   2.142 -24.940  1.00  0.00     0.004 C 
ENDBRANCH   8   9
ENDBRANCH   7   8
ENDBRANCH   1   7
TORSDOF 6
ENDMDL
MODEL 5
REMARK VINA RESULT:    -3.355      2.080      3.012
REMARK INTER + INTRA:          -5.031
REMARK INTER:                  -4.408
REMARK INTRA:                  -0.623
REMARK UNBOUND:                -0.500
REMARK SMILES CCCCCCCC(=O)[O-]
REMARK SMILES IDX 5 1 6 2 7 3 8 4 9 5 10 6 4 7 3 8 2 9 1 10
REMARK H PARENT
REMARK Flexibility Score: inf
ROOT
ATOM      1  C   UNL     1      98.337   4.502 -26.874  1.00  0.00     0.000 C 
ENDROOT
BRANCH   1   2
ATOM      2  C   UNL     1      98.598   3.472 -25.765  1.00  0.00     0.006 C 
BRANCH   2   3
ATOM      3  C   UNL     1      97.960   2.122 -26.110  1.00  0.00     0.053 C 
BRANCH   3   4
ATOM      4  C   UNL     1      99.014   1.116 -26.448  1.00  0.00     0.041 C 
ATOM      5  O   UNL     1     100.092   1.483 -26.984  1.00  0.00    -0.550 OA
ATOM      6  O   UNL     1      98.786  -0.235 -26.215  1.00  0.00    -0.550 OA
ENDBRANCH   3   4
ENDBRANCH   2   3
ENDBRANCH   1   2
BRANCH   1   7
ATOM      7  C   UNL     1      99.614   4.881 -27.641  1.00  0.00     0.000 C 
BRANCH   7   8
ATOM      8  C   UNL     1      99.536   4.515 -29.134  1.00  0.00    -0.000 C 
BRANCH   8   9
ATOM      9  C   UNL     1      98.199   3.859 -29.511  1.00  0.00    -0.003 C 
ATOM     10  C   UNL     1      98.352   2.387 -29.895  1.00  0.00     0.004 C 
ENDBRANCH   8   9
ENDBRANCH   7   8
ENDBRANCH   1   7
TORSDOF 6
ENDMDL
MODEL 6
REMARK VINA RESULT:    -3.316      3.531      4.196
REMARK INTER + INTRA:          -4.980
REMARK INTER:                  -4.562
REMARK INTRA:                  -0.418
REMARK UNBOUND:                -0.500
REMARK SMILES CCCCCCCC(=O)[O-]
REMARK SMILES IDX 5 1 6 2 7 3 8 4 9 5 10 6 4 7 3 8 2 9 1 10
REMARK H PARENT
REMARK Flexibility Score: inf
ROOT
ATOM      1  C   UNL     1      98.500   3.775 -25.580  1.00  0.00     0.000 C 
ENDROOT
BRANCH   1   2
ATOM      2  C   UNL     1      97.138   3.079 -25.441  1.00  0.00     0.006 C 
BRANCH   2   3
ATOM      3  C   UNL     1      96.137   3.627 -26.464  1.00  0.00     0.053 C 
BRANCH   3   4
ATOM      4  C   UNL     1      94.747   3.196 -26.117  1.00  0.00     0.041 C 
ATOM      5  O   UNL     1      94.558   2.280 -25.274  1.00  0.00    -0.550 OA
ATOM      6  O   UNL     1      93.659   3.773 -26.761  1.00  0.00    -0.550 OA
ENDBRANCH   3   4
ENDBRANCH   2   3
ENDBRANCH   1   2
BRANCH   1   7
ATOM      7  C   UNL     1      99.120   3.588 -26.974  1.00  0.00     0.000 C 
BRANCH   7   8
ATOM      8  C   UNL     1      99.560   4.919 -27.609  1.00  0.00    -0.000 C 
BRANCH   8   9
ATOM      9  C   UNL     1      98.599   5.390 -28.711  1.00  0.00    -0.003 C 
ATOM     10  C   UNL     1      98.045   4.235 -29.545  1.00  0.00     0.004 C 
ENDBRANCH   8   9
ENDBRANCH   7   8
ENDBRANCH   1   7
TORSDOF 6
ENDMDL
MODEL 7
REMARK VINA RESULT:    -3.286      2.348      2.884
REMARK INTER + INTRA:          -4.938
REMARK INTER:                  -4.558
REMARK INTRA:                  -0.380
REMARK UNBOUND:                -0.500
REMARK SMILES CCCCCCCC(=O)[O-]
REMARK SMILES IDX 5 1 6 2 7 3 8 4 9 5 10 6 4 7 3 8 2 9 1 10
REMARK H PARENT
REMARK Flexibility Score: inf
ROOT
ATOM      1  C   UNL     1      97.514   2.792 -24.983  1.00  0.00     0.000 C 
ENDROOT
BRANCH   1   2
ATOM      2  C   UNL     1      98.181   1.532 -24.411  1.00  0.00     0.006 C 
BRANCH   2   3
ATOM      3  C   UNL     1      99.450   1.181 -25.195  1.00  0.00     0.053 C 
BRANCH   3   4
ATOM      4  C   UNL     1      99.170   0.097 -26.187  1.00  0.00     0.041 C 
ATOM      5  O   UNL     1      99.160   0.352 -27.419  1.00  0.00    -0.550 OA
ATOM      6  O   UNL     1      98.872  -1.187 -25.748  1.00  0.00    -0.550 OA
ENDBRANCH   3   4
ENDBRANCH   2   3
ENDBRANCH   1   2
BRANCH   1   7
ATOM      7  C   UNL     1      98.533   3.805 -25.528  1.00  0.00     0.000 C 
BRANCH   7   8
ATOM      8  C   UNL     1      98.225   4.235 -26.973  1.00  0.00    -0.000 C 
BRANCH   8   9
ATOM      9  C   UNL     1      99.443   4.096 -27.900  1.00  0.00    -0.003 C 
ATOM     10  C   UNL     1      99.835   5.418 -28.561  1.00  0.00     0.004 C 
ENDBRANCH   8   9
ENDBRANCH   7   8
ENDBRANCH   1   7
TORSDOF 6
ENDMDL
MODEL 8
REMARK VINA RESULT:    -3.272      2.657      4.172
REMARK INTER + INTRA:          -4.919
REMARK INTER:                  -4.396
REMARK INTRA:                  -0.523
REMARK UNBOUND:                -0.500
REMARK SMILES CCCCCCCC(=O)[O-]
REMARK SMILES IDX 5 1 6 2 7 3 8 4 9 5 10 6 4 7 3 8 2 9 1 10
REMARK H PARENT
REMARK Flexibility Score: inf
ROOT
ATOM      1  C   UNL     1      98.581   5.250 -28.377  1.00  0.00     0.000 C 
ENDROOT
BRANCH   1   2
ATOM      2  C   UNL     1      97.745   4.549 -27.296  1.00  0.00     0.006 C 
BRANCH   2   3
ATOM      3  C   UNL     1      98.626   4.115 -26.119  1.00  0.00     0.053 C 
BRANCH   3   4
ATOM      4  C   UNL     1      97.960   3.024 -25.342  1.00  0.00     0.041 C 
ATOM      5  O   UNL     1      98.650   2.142 -24.769  1.00  0.00    -0.550 OA
ATOM      6  O   UNL     1      96.573   2.954 -25.290  1.00  0.00    -0.550 OA
ENDBRANCH   3   4
ENDBRANCH   2   3
ENDBRANCH   1   2
BRANCH   1   7
ATOM      7  C   UNL     1      99.975   4.625 -28.544  1.00  0.00     0.000 C 
BRANCH   7   8
ATOM      8  C   UNL     1      99.996   3.496 -29.591  1.00  0.00    -0.000 C 
BRANCH   8   9
ATOM      9  C   UNL     1     100.122   2.105 -28.953  1.00  0.00    -0.003 C 
ATOM     10  C   UNL     1      98.776   1.393 -28.817  1.00  0.00     0.004 C 
ENDBRANCH   8   9
ENDBRANCH   7   8
ENDBRANCH   1   7
TORSDOF 6
ENDMDL
MODEL 9
REMARK VINA RESULT:    -3.209      3.407      4.090
REMARK INTER + INTRA:          -4.834
REMARK INTER:                  -4.401
REMARK INTRA:                  -0.433
REMARK UNBOUND:                -0.500
REMARK SMILES CCCCCCCC(=O)[O-]
REMARK SMILES IDX 5 1 6 2 7 3 8 4 9 5 10 6 4 7 3 8 2 9 1 10
REMARK H PARENT
REMARK Flexibility Score: inf
ROOT
ATOM      1  C   UNL     1      98.396   3.674 -25.853  1.00  0.00     0.000 C 
ENDROOT
BRANCH   1   2
ATOM      2  C   UNL     1      98.252   2.169 -26.122  1.00  0.00     0.006 C 
BRANCH   2   3
ATOM      3  C   UNL     1      99.400   1.385 -25.478  1.00  0.00     0.053 C 
BRANCH   3   4
ATOM      4  C   UNL     1      99.170   1.234 -24.007  1.00  0.00     0.041 C 
ATOM      5  O   UNL     1      98.094   0.739 -23.582  1.00  0.00    -0.550 OA
ATOM      6  O   UNL     1     100.125   1.685 -23.104  1.00  0.00    -0.550 OA
ENDBRANCH   3   4
ENDBRANCH   2   3
ENDBRANCH   1   2
BRANCH   1   7
ATOM      7  C   UNL     1      98.354   4.512 -27.140  1.00  0.00     0.000 C 
BRANCH   7   8
ATOM      8  C   UNL     1      99.759   4.889 -27.646  1.00  0.00    -0.000 C 
BRANCH   8   9
ATOM      9  C   UNL     1     100.088   4.246 -29.001  1.00  0.00    -0.003 C 
ATOM     10  C   UNL     1      98.930   3.419 -29.559  1.00  0.00     0.004 C 
ENDBRANCH   8   9
ENDBRANCH   7   8
ENDBRANCH   1   7
TORSDOF 6
ENDMDL
