MODEL 1
REMARK VINA RESULT:    -3.529      0.000      0.000
REMARK INTER + INTRA:          -3.529
REMARK INTER:                  -3.529
REMARK INTRA:                   0.000
REMARK UNBOUND:                 0.000
REMARK SMILES CC1(C)O[C@]2(C)CC[C@H]1CC2
REMARK SMILES IDX 1 1 2 2 9 3 10 4 11 5 5 6 4 7 7 8 8 9 6 10 3 11
REMARK H PARENT
REMARK Flexibility Score: inf
ROOT
ATOM      1  C   UNL     1     166.374 158.249 171.084  1.00  0.00     0.042 C 
ATOM      2  C   UNL     1     167.748 157.772 170.566  1.00  0.00     0.066 C 
ATOM      3  C   UNL     1     168.775 158.969 170.522  1.00  0.00     0.021 C 
ATOM      4  C   UNL     1     170.113 158.446 169.949  1.00  0.00     0.009 C 
ATOM      5  C   UNL     1     169.841 157.710 168.614  1.00  0.00     0.035 C 
ATOM      6  C   UNL     1     168.333 157.820 168.250  1.00  0.00     0.066 C 
ATOM      7  O   UNL     1     167.557 157.187 169.269  1.00  0.00    -0.369 OA
ATOM      8  C   UNL     1     167.940 159.323 168.168  1.00  0.00     0.035 C 
ATOM      9  C   UNL     1     168.257 160.021 169.513  1.00  0.00     0.009 C 
ATOM     10  C   UNL     1     168.055 157.123 166.913  1.00  0.00     0.042 C 
ATOM     11  C   UNL     1     168.240 156.665 171.523  1.00  0.00     0.042 C 
ENDROOT
TORSDOF 0
ENDMDL
MODEL 2
REMARK VINA RESULT:    -3.511     14.547     16.188
REMARK INTER + INTRA:          -3.511
REMARK INTER:                  -3.511
REMARK INTRA:                   0.000
REMARK UNBOUND:                 0.000
REMARK SMILES CC1(C)O[C@]2(C)CC[C@H]1CC2
REMARK SMILES IDX 1 1 2 2 9 3 10 4 11 5 5 6 4 7 7 8 8 9 6 10 3 11
REMARK H PARENT
REMARK Flexibility Score: inf
ROOT
ATOM      1  C   UNL     1     164.867 173.041 170.960  1.00  0.00     0.042 C 
ATOM      2  C   UNL     1     163.471 173.479 170.467  1.00  0.00     0.066 C 
ATOM      3  C   UNL     1     162.487 172.247 170.410  1.00  0.00     0.021 C 
ATOM      4  C   UNL     1     161.124 172.733 169.863  1.00  0.00     0.009 C 
ATOM      5  C   UNL     1     161.354 173.506 168.542  1.00  0.00     0.035 C 
ATOM      6  C   UNL     1     162.861 173.458 168.158  1.00  0.00     0.066 C 
ATOM      7  O   UNL     1     163.626 174.097 169.181  1.00  0.00    -0.369 OA
ATOM      8  C   UNL     1     163.305 171.972 168.040  1.00  0.00     0.035 C 
ATOM      9  C   UNL     1     163.030 171.235 169.372  1.00  0.00     0.009 C 
ATOM     10  C   UNL     1     163.097 174.192 166.834  1.00  0.00     0.042 C 
ATOM     11  C   UNL     1     162.951 174.547 171.453  1.00  0.00     0.042 C 
ENDROOT
TORSDOF 0
ENDMDL
MODEL 3
REMARK VINA RESULT:    -3.250      0.979      3.295
REMARK INTER + INTRA:          -3.250
REMARK INTER:                  -3.250
REMARK INTRA:                   0.000
REMARK UNBOUND:                 0.000
REMARK SMILES CC1(C)O[C@]2(C)CC[C@H]1CC2
REMARK SMILES IDX 1 1 2 2 9 3 10 4 11 5 5 6 4 7 7 8 8 9 6 10 3 11
REMARK H PARENT
REMARK Flexibility Score: inf
ROOT
ATOM      1  C   UNL     1     169.807 156.551 168.127  1.00  0.00     0.042 C 
ATOM      2  C   UNL     1     168.696 157.558 168.491  1.00  0.00     0.066 C 
ATOM      3  C   UNL     1     169.317 158.934 168.951  1.00  0.00     0.021 C 
ATOM      4  C   UNL     1     168.163 159.884 169.352  1.00  0.00     0.009 C 
ATOM      5  C   UNL     1     167.239 159.162 170.362  1.00  0.00     0.035 C 
ATOM      6  C   UNL     1     167.826 157.763 170.707  1.00  0.00     0.066 C 
ATOM      7  O   UNL     1     167.882 156.972 169.519  1.00  0.00    -0.369 OA
ATOM      8  C   UNL     1     169.265 157.942 171.270  1.00  0.00     0.035 C 
ATOM      9  C   UNL     1     170.141 158.693 170.238  1.00  0.00     0.009 C 
ATOM     10  C   UNL     1     166.938 157.050 171.732  1.00  0.00     0.042 C 
ATOM     11  C   UNL     1     167.818 157.749 167.235  1.00  0.00     0.042 C 
ENDROOT
TORSDOF 0
ENDMDL
MODEL 4
REMARK VINA RESULT:    -3.240     14.667     16.402
REMARK INTER + INTRA:          -3.240
REMARK INTER:                  -3.240
REMARK INTRA:                   0.000
REMARK UNBOUND:                 0.000
REMARK SMILES CC1(C)O[C@]2(C)CC[C@H]1CC2
REMARK SMILES IDX 1 1 2 2 9 3 10 4 11 5 5 6 4 7 7 8 8 9 6 10 3 11
REMARK H PARENT
REMARK Flexibility Score: inf
ROOT
ATOM      1  C   UNL     1     161.389 174.687 168.113  1.00  0.00     0.042 C 
ATOM      2  C   UNL     1     162.496 173.669 168.460  1.00  0.00     0.066 C 
ATOM      3  C   UNL     1     161.870 172.292 168.910  1.00  0.00     0.021 C 
ATOM      4  C   UNL     1     163.020 171.332 169.293  1.00  0.00     0.009 C 
ATOM      5  C   UNL     1     163.956 172.038 170.304  1.00  0.00     0.035 C 
ATOM      6  C   UNL     1     163.380 173.437 170.667  1.00  0.00     0.066 C 
ATOM      7  O   UNL     1     163.321 174.239 169.487  1.00  0.00    -0.369 OA
ATOM      8  C   UNL     1     161.944 173.261 171.238  1.00  0.00     0.035 C 
ATOM      9  C   UNL     1     161.056 172.526 170.205  1.00  0.00     0.009 C 
ATOM     10  C   UNL     1     164.280 174.134 171.693  1.00  0.00     0.042 C 
ATOM     11  C   UNL     1     163.364 173.486 167.195  1.00  0.00     0.042 C 
ENDROOT
TORSDOF 0
ENDMDL
MODEL 5
REMARK VINA RESULT:    -3.183     14.783     16.279
REMARK INTER + INTRA:          -3.183
REMARK INTER:                  -3.183
REMARK INTRA:                   0.000
REMARK UNBOUND:                 0.000
REMARK SMILES CC1(C)O[C@]2(C)CC[C@H]1CC2
REMARK SMILES IDX 1 1 2 2 9 3 10 4 11 5 5 6 4 7 7 8 8 9 6 10 3 11
REMARK H PARENT
REMARK Flexibility Score: inf
ROOT
ATOM      1  C   UNL     1     159.592 173.790 170.317  1.00  0.00     0.042 C 
ATOM      2  C   UNL     1     160.482 172.747 169.608  1.00  0.00     0.066 C 
ATOM      3  C   UNL     1     161.589 172.198 170.590  1.00  0.00     0.021 C 
ATOM      4  C   UNL     1     162.480 171.199 169.814  1.00  0.00     0.009 C 
ATOM      5  C   UNL     1     162.974 171.866 168.508  1.00  0.00     0.035 C 
ATOM      6  C   UNL     1     162.487 173.343 168.454  1.00  0.00     0.066 C 
ATOM      7  O   UNL     1     161.059 173.367 168.449  1.00  0.00    -0.369 OA
ATOM      8  C   UNL     1     163.006 174.093 169.715  1.00  0.00     0.035 C 
ATOM      9  C   UNL     1     162.512 173.373 170.993  1.00  0.00     0.009 C 
ATOM     10  C   UNL     1     162.997 174.027 167.181  1.00  0.00     0.042 C 
ATOM     11  C   UNL     1     159.560 171.604 169.132  1.00  0.00     0.042 C 
ENDROOT
TORSDOF 0
ENDMDL
MODEL 6
REMARK VINA RESULT:    -3.174      1.424      3.099
REMARK INTER + INTRA:          -3.174
REMARK INTER:                  -3.174
REMARK INTRA:                   0.000
REMARK UNBOUND:                 0.000
REMARK SMILES CC1(C)O[C@]2(C)CC[C@H]1CC2
REMARK SMILES IDX 1 1 2 2 9 3 10 4 11 5 5 6 4 7 7 8 8 9 6 10 3 11
REMARK H PARENT
REMARK Flexibility Score: inf
ROOT
ATOM      1  C   UNL     1     167.716 159.175 167.523  1.00  0.00     0.042 C 
ATOM      2  C   UNL     1     168.517 158.347 168.551  1.00  0.00     0.066 C 
ATOM      3  C   UNL     1     167.658 158.085 169.848  1.00  0.00     0.021 C 
ATOM      4  C   UNL     1     168.524 157.300 170.860  1.00  0.00     0.009 C 
ATOM      5  C   UNL     1     169.874 158.034 171.052  1.00  0.00     0.035 C 
ATOM      6  C   UNL     1     169.872 159.360 170.237  1.00  0.00     0.066 C 
ATOM      7  O   UNL     1     169.728 159.057 168.849  1.00  0.00    -0.369 OA
ATOM      8  C   UNL     1     168.670 160.235 170.697  1.00  0.00     0.035 C 
ATOM      9  C   UNL     1     167.350 159.448 170.514  1.00  0.00     0.009 C 
ATOM     10  C   UNL     1     171.190 160.114 170.445  1.00  0.00     0.042 C 
ATOM     11  C   UNL     1     168.898 157.014 167.870  1.00  0.00     0.042 C 
ENDROOT
TORSDOF 0
ENDMDL
MODEL 7
REMARK VINA RESULT:    -3.156      1.368      2.976
REMARK INTER + INTRA:          -3.156
REMARK INTER:                  -3.156
REMARK INTRA:                   0.000
REMARK UNBOUND:                 0.000
REMARK SMILES CC1(C)O[C@]2(C)CC[C@H]1CC2
REMARK SMILES IDX 1 1 2 2 9 3 10 4 11 5 5 6 4 7 7 8 8 9 6 10 3 11
REMARK H PARENT
REMARK Flexibility Score: inf
ROOT
ATOM      1  C   UNL     1     171.613 157.519 170.633  1.00  0.00     0.042 C 
ATOM      2  C   UNL     1     170.745 158.518 169.840  1.00  0.00     0.066 C 
ATOM      3  C   UNL     1     169.568 159.070 170.735  1.00  0.00     0.021 C 
ATOM      4  C   UNL     1     168.703 160.023 169.876  1.00  0.00     0.009 C 
ATOM      5  C   UNL     1     168.306 159.304 168.564  1.00  0.00     0.035 C 
ATOM      6  C   UNL     1     168.828 157.839 168.587  1.00  0.00     0.066 C 
ATOM      7  O   UNL     1     170.254 157.850 168.668  1.00  0.00    -0.369 OA
ATOM      8  C   UNL     1     168.250 157.115 169.837  1.00  0.00     0.035 C 
ATOM      9  C   UNL     1     168.649 157.885 171.119  1.00  0.00     0.009 C 
ATOM     10  C   UNL     1     168.412 157.105 167.307  1.00  0.00     0.042 C 
ATOM     11  C   UNL     1     171.669 159.668 169.384  1.00  0.00     0.042 C 
ENDROOT
TORSDOF 0
ENDMDL
MODEL 8
REMARK VINA RESULT:    -3.059      1.433      3.112
REMARK INTER + INTRA:          -3.059
REMARK INTER:                  -3.059
REMARK INTRA:                   0.000
REMARK UNBOUND:                 0.000
REMARK SMILES CC1(C)O[C@]2(C)CC[C@H]1CC2
REMARK SMILES IDX 1 1 2 2 9 3 10 4 11 5 5 6 4 7 7 8 8 9 6 10 3 11
REMARK H PARENT
REMARK Flexibility Score: inf
ROOT
ATOM      1  C   UNL     1     170.536 160.260 171.219  1.00  0.00     0.042 C 
ATOM      2  C   UNL     1     170.060 159.305 170.104  1.00  0.00     0.066 C 
ATOM      3  C   UNL     1     168.707 159.814 169.472  1.00  0.00     0.021 C 
ATOM      4  C   UNL     1     168.252 158.795 168.400  1.00  0.00     0.009 C 
ATOM      5  C   UNL     1     168.244 157.376 169.019  1.00  0.00     0.035 C 
ATOM      6  C   UNL     1     168.607 157.458 170.530  1.00  0.00     0.066 C 
ATOM      7  O   UNL     1     169.924 157.993 170.668  1.00  0.00    -0.369 OA
ATOM      8  C   UNL     1     167.595 158.401 171.242  1.00  0.00     0.035 C 
ATOM      9  C   UNL     1     167.617 159.796 170.571  1.00  0.00     0.009 C 
ATOM     10  C   UNL     1     168.571 156.063 171.163  1.00  0.00     0.042 C 
ATOM     11  C   UNL     1     171.175 159.254 169.036  1.00  0.00     0.042 C 
ENDROOT
TORSDOF 0
ENDMDL
MODEL 9
REMARK VINA RESULT:    -3.051     14.513     15.995
REMARK INTER + INTRA:          -3.051
REMARK INTER:                  -3.051
REMARK INTRA:                   0.000
REMARK UNBOUND:                 0.000
REMARK SMILES CC1(C)O[C@]2(C)CC[C@H]1CC2
REMARK SMILES IDX 1 1 2 2 9 3 10 4 11 5 5 6 4 7 7 8 8 9 6 10 3 11
REMARK H PARENT
REMARK Flexibility Score: inf
ROOT
ATOM      1  C   UNL     1     160.785 170.908 171.243  1.00  0.00     0.042 C 
ATOM      2  C   UNL     1     161.203 171.880 170.119  1.00  0.00     0.066 C 
ATOM      3  C   UNL     1     162.545 171.405 169.439  1.00  0.00     0.021 C 
ATOM      4  C   UNL     1     162.942 172.440 168.359  1.00  0.00     0.009 C 
ATOM      5  C   UNL     1     162.939 173.855 168.987  1.00  0.00     0.035 C 
ATOM      6  C   UNL     1     162.630 173.756 170.509  1.00  0.00     0.066 C 
ATOM      7  O   UNL     1     161.330 173.192 170.688  1.00  0.00    -0.369 OA
ATOM      8  C   UNL     1     163.685 172.830 171.180  1.00  0.00     0.035 C 
ATOM      9  C   UNL     1     163.670 171.440 170.501  1.00  0.00     0.009 C 
ATOM     10  C   UNL     1     162.657 175.147 171.150  1.00  0.00     0.042 C 
ATOM     11  C   UNL     1     160.052 171.914 169.089  1.00  0.00     0.042 C 
ENDROOT
TORSDOF 0
ENDMDL
