MODEL 1
REMARK VINA RESULT:    -4.491      0.000      0.000
REMARK INTER + INTRA:          -5.473
REMARK INTER:                  -5.148
REMARK INTRA:                  -0.325
REMARK UNBOUND:                -0.325
REMARK SMILES COc1ccc(C(C)=O)c(O)c1
REMARK SMILES IDX 6 1 10 2 12 3 3 4 4 5 5 6 7 7 8 8 9 9 11 10 2 12 1 13
REMARK H PARENT 11 11
REMARK Flexibility Score: inf
ROOT
ATOM      1  C   UNL     1      -0.200 -27.225  -8.225  1.00  0.00     0.059 A 
ATOM      2  C   UNL     1       0.545 -26.631  -9.270  1.00  0.00     0.130 A 
ATOM      3  C   UNL     1       0.195 -25.356  -9.741  1.00  0.00     0.093 A 
ATOM      4  C   UNL     1      -0.873 -24.650  -9.182  1.00  0.00     0.122 A 
ATOM      5  C   UNL     1      -1.602 -25.231  -8.131  1.00  0.00     0.047 A 
ATOM      6  C   UNL     1      -1.266 -26.501  -7.658  1.00  0.00     0.019 A 
ENDROOT
BRANCH   1   7
ATOM      7  C   UNL     1       0.109 -28.579  -7.691  1.00  0.00     0.163 C 
ATOM      8  C   UNL     1      -0.957 -29.517  -7.210  1.00  0.00     0.093 C 
ATOM      9  O   UNL     1       1.309 -28.963  -7.635  1.00  0.00    -0.294 OA
ENDBRANCH   1   7
BRANCH   2  10
ATOM     10  O   UNL     1       1.642 -27.285  -9.828  1.00  0.00    -0.507 OA
ATOM     11  H   UNL     1       1.622 -27.651 -10.772  1.00  0.00     0.293 HD
ENDBRANCH   2  10
BRANCH   4  12
ATOM     12  O   UNL     1      -1.174 -23.379  -9.694  1.00  0.00    -0.497 OA
ATOM     13  C   UNL     1      -0.441 -22.735 -10.729  1.00  0.00     0.278 C 
ENDBRANCH   4  12
TORSDOF 3
ENDMDL
MODEL 2
REMARK VINA RESULT:    -4.442      1.357      4.444
REMARK INTER + INTRA:          -5.417
REMARK INTER:                  -5.077
REMARK INTRA:                  -0.340
REMARK UNBOUND:                -0.325
REMARK SMILES COc1ccc(C(C)=O)c(O)c1
REMARK SMILES IDX 6 1 10 2 12 3 3 4 4 5 5 6 7 7 8 8 9 9 11 10 2 12 1 13
REMARK H PARENT 11 11
REMARK Flexibility Score: inf
ROOT
ATOM      1  C   UNL     1      -0.222 -25.680  -9.048  1.00  0.00     0.059 A 
ATOM      2  C   UNL     1       0.531 -26.877  -9.051  1.00  0.00     0.130 A 
ATOM      3  C   UNL     1       0.094 -27.980  -8.300  1.00  0.00     0.093 A 
ATOM      4  C   UNL     1      -1.089 -27.922  -7.557  1.00  0.00     0.122 A 
ATOM      5  C   UNL     1      -1.847 -26.739  -7.569  1.00  0.00     0.047 A 
ATOM      6  C   UNL     1      -1.418 -25.635  -8.308  1.00  0.00     0.019 A 
ENDROOT
BRANCH   1   7
ATOM      7  C   UNL     1       0.195 -24.471  -9.809  1.00  0.00     0.163 C 
ATOM      8  C   UNL     1      -0.731 -23.746 -10.738  1.00  0.00     0.093 C 
ATOM      9  O   UNL     1       1.370 -24.032  -9.676  1.00  0.00    -0.294 OA
ENDBRANCH   1   7
BRANCH   2  10
ATOM     10  O   UNL     1       1.694 -26.989  -9.810  1.00  0.00    -0.507 OA
ATOM     11  H   UNL     1       2.097 -26.194 -10.291  1.00  0.00     0.293 HD
ENDBRANCH   2  10
BRANCH   4  12
ATOM     12  O   UNL     1      -1.475 -29.056  -6.828  1.00  0.00    -0.497 OA
ATOM     13  C   UNL     1      -1.327 -30.395  -7.286  1.00  0.00     0.278 C 
ENDBRANCH   4  12
TORSDOF 3
ENDMDL
MODEL 3
REMARK VINA RESULT:    -4.424      1.477      1.604
REMARK INTER + INTRA:          -5.396
REMARK INTER:                  -5.059
REMARK INTRA:                  -0.337
REMARK UNBOUND:                -0.325
REMARK SMILES COc1ccc(C(C)=O)c(O)c1
REMARK SMILES IDX 6 1 10 2 12 3 3 4 4 5 5 6 7 7 8 8 9 9 11 10 2 12 1 13
REMARK H PARENT 11 11
REMARK Flexibility Score: inf
ROOT
ATOM      1  C   UNL     1      -0.525 -26.445  -8.694  1.00  0.00     0.059 A 
ATOM      2  C   UNL     1       0.676 -26.241  -9.412  1.00  0.00     0.130 A 
ATOM      3  C   UNL     1       1.026 -24.950  -9.838  1.00  0.00     0.093 A 
ATOM      4  C   UNL     1       0.212 -23.852  -9.549  1.00  0.00     0.122 A 
ATOM      5  C   UNL     1      -0.972 -24.051  -8.820  1.00  0.00     0.047 A 
ATOM      6  C   UNL     1      -1.332 -25.332  -8.396  1.00  0.00     0.019 A 
ENDROOT
BRANCH   1   7
ATOM      7  C   UNL     1      -0.961 -27.790  -8.228  1.00  0.00     0.163 C 
ATOM      8  C   UNL     1      -1.355 -28.061  -6.808  1.00  0.00     0.093 C 
ATOM      9  O   UNL     1      -1.001 -28.746  -9.051  1.00  0.00    -0.294 OA
ENDBRANCH   1   7
BRANCH   2  10
ATOM     10  O   UNL     1       1.536 -27.304  -9.685  1.00  0.00    -0.507 OA
ATOM     11  H   UNL     1       2.287 -27.559  -9.055  1.00  0.00     0.293 HD
ENDBRANCH   2  10
BRANCH   4  12
ATOM     12  O   UNL     1       0.614 -22.587 -10.001  1.00  0.00    -0.497 OA
ATOM     13  C   UNL     1       1.895 -22.016  -9.757  1.00  0.00     0.278 C 
ENDBRANCH   4  12
TORSDOF 3
ENDMDL
MODEL 4
REMARK VINA RESULT:    -4.301      2.093      5.476
REMARK INTER + INTRA:          -5.254
REMARK INTER:                  -4.911
REMARK INTRA:                  -0.344
REMARK UNBOUND:                -0.325
REMARK SMILES COc1ccc(C(C)=O)c(O)c1
REMARK SMILES IDX 6 1 10 2 12 3 3 4 4 5 5 6 7 7 8 8 9 9 11 10 2 12 1 13
REMARK H PARENT 11 11
REMARK Flexibility Score: inf
ROOT
ATOM      1  C   UNL     1       0.214 -23.008 -10.881  1.00  0.00     0.059 A 
ATOM      2  C   UNL     1       1.109 -23.689 -10.024  1.00  0.00     0.130 A 
ATOM      3  C   UNL     1       0.778 -24.963  -9.535  1.00  0.00     0.093 A 
ATOM      4  C   UNL     1      -0.422 -25.582  -9.897  1.00  0.00     0.122 A 
ATOM      5  C   UNL     1      -1.303 -24.915 -10.764  1.00  0.00     0.047 A 
ATOM      6  C   UNL     1      -0.985 -23.645 -11.251  1.00  0.00     0.019 A 
ENDROOT
BRANCH   1   7
ATOM      7  C   UNL     1       0.498 -21.650 -11.419  1.00  0.00     0.163 C 
ATOM      8  C   UNL     1      -0.503 -20.536 -11.362  1.00  0.00     0.093 C 
ATOM      9  O   UNL     1       1.620 -21.417 -11.948  1.00  0.00    -0.294 OA
ENDBRANCH   1   7
BRANCH   2  10
ATOM     10  O   UNL     1       2.333 -23.122  -9.671  1.00  0.00    -0.507 OA
ATOM     11  H   UNL     1       2.481 -22.120  -9.683  1.00  0.00     0.293 HD
ENDBRANCH   2  10
BRANCH   4  12
ATOM     12  O   UNL     1      -0.697 -26.856  -9.378  1.00  0.00    -0.497 OA
ATOM     13  C   UNL     1       0.210 -27.616  -8.587  1.00  0.00     0.278 C 
ENDBRANCH   4  12
TORSDOF 3
ENDMDL
MODEL 5
REMARK VINA RESULT:    -4.209      1.650      4.860
REMARK INTER + INTRA:          -5.150
REMARK INTER:                  -4.814
REMARK INTRA:                  -0.335
REMARK UNBOUND:                -0.325
REMARK SMILES COc1ccc(C(C)=O)c(O)c1
REMARK SMILES IDX 6 1 10 2 12 3 3 4 4 5 5 6 7 7 8 8 9 9 11 10 2 12 1 13
REMARK H PARENT 11 11
REMARK Flexibility Score: inf
ROOT
ATOM      1  C   UNL     1      -0.364 -23.759  -9.223  1.00  0.00     0.059 A 
ATOM      2  C   UNL     1       0.847 -24.234  -9.780  1.00  0.00     0.130 A 
ATOM      3  C   UNL     1       1.144 -25.605  -9.740  1.00  0.00     0.093 A 
ATOM      4  C   UNL     1       0.253 -26.519  -9.170  1.00  0.00     0.122 A 
ATOM      5  C   UNL     1      -0.957 -26.051  -8.634  1.00  0.00     0.047 A 
ATOM      6  C   UNL     1      -1.261 -24.688  -8.664  1.00  0.00     0.019 A 
ENDROOT
BRANCH   1   7
ATOM      7  C   UNL     1      -0.731 -22.317  -9.218  1.00  0.00     0.163 C 
ATOM      8  C   UNL     1      -1.241 -21.621  -7.993  1.00  0.00     0.093 C 
ATOM      9  O   UNL     1      -0.614 -21.646 -10.280  1.00  0.00    -0.294 OA
ENDBRANCH   1   7
BRANCH   2  10
ATOM     10  O   UNL     1       1.744 -23.361 -10.393  1.00  0.00    -0.507 OA
ATOM     11  H   UNL     1       1.812 -23.287 -11.401  1.00  0.00     0.293 HD
ENDBRANCH   2  10
BRANCH   4  12
ATOM     12  O   UNL     1       0.605 -27.877  -9.161  1.00  0.00    -0.497 OA
ATOM     13  C   UNL     1       0.930 -28.615  -7.989  1.00  0.00     0.278 C 
ENDBRANCH   4  12
TORSDOF 3
ENDMDL
MODEL 6
REMARK VINA RESULT:    -4.203      2.935      4.413
REMARK INTER + INTRA:          -5.142
REMARK INTER:                  -4.848
REMARK INTRA:                  -0.295
REMARK UNBOUND:                -0.325
REMARK SMILES COc1ccc(C(C)=O)c(O)c1
REMARK SMILES IDX 6 1 10 2 12 3 3 4 4 5 5 6 7 7 8 8 9 9 11 10 2 12 1 13
REMARK H PARENT 11 11
REMARK Flexibility Score: inf
ROOT
ATOM      1  C   UNL     1       0.273 -23.241  -9.358  1.00  0.00     0.059 A 
ATOM      2  C   UNL     1       1.307 -22.285  -9.486  1.00  0.00     0.130 A 
ATOM      3  C   UNL     1       1.081 -20.954  -9.100  1.00  0.00     0.093 A 
ATOM      4  C   UNL     1      -0.151 -20.557  -8.573  1.00  0.00     0.122 A 
ATOM      5  C   UNL     1      -1.173 -21.511  -8.428  1.00  0.00     0.047 A 
ATOM      6  C   UNL     1      -0.960 -22.836  -8.814  1.00  0.00     0.019 A 
ENDROOT
BRANCH   1   7
ATOM      7  C   UNL     1       0.443 -24.663  -9.764  1.00  0.00     0.163 C 
ATOM      8  C   UNL     1      -0.712 -25.527 -10.170  1.00  0.00     0.093 C 
ATOM      9  O   UNL     1       1.598 -25.170  -9.768  1.00  0.00    -0.294 OA
ENDBRANCH   1   7
BRANCH   2  10
ATOM     10  O   UNL     1       2.562 -22.648  -9.971  1.00  0.00    -0.507 OA
ATOM     11  H   UNL     1       3.017 -23.507  -9.684  1.00  0.00     0.293 HD
ENDBRANCH   2  10
BRANCH   4  12
ATOM     12  O   UNL     1      -0.317 -19.215  -8.204  1.00  0.00    -0.497 OA
ATOM     13  C   UNL     1      -0.870 -18.211  -9.049  1.00  0.00     0.278 C 
ENDBRANCH   4  12
TORSDOF 3
ENDMDL
MODEL 7
REMARK VINA RESULT:    -4.150      1.504      5.050
REMARK INTER + INTRA:          -5.081
REMARK INTER:                  -4.772
REMARK INTRA:                  -0.309
REMARK UNBOUND:                -0.325
REMARK SMILES COc1ccc(C(C)=O)c(O)c1
REMARK SMILES IDX 6 1 10 2 12 3 3 4 4 5 5 6 7 7 8 8 9 9 11 10 2 12 1 13
REMARK H PARENT 11 11
REMARK Flexibility Score: inf
ROOT
ATOM      1  C   UNL     1       0.105 -24.442  -9.590  1.00  0.00     0.059 A 
ATOM      2  C   UNL     1      -1.020 -24.427  -8.732  1.00  0.00     0.130 A 
ATOM      3  C   UNL     1      -1.415 -25.603  -8.076  1.00  0.00     0.093 A 
ATOM      4  C   UNL     1      -0.703 -26.795  -8.243  1.00  0.00     0.122 A 
ATOM      5  C   UNL     1       0.425 -26.806  -9.080  1.00  0.00     0.047 A 
ATOM      6  C   UNL     1       0.823 -25.642  -9.742  1.00  0.00     0.019 A 
ENDROOT
BRANCH   1   7
ATOM      7  C   UNL     1       0.565 -23.234 -10.327  1.00  0.00     0.163 C 
ATOM      8  C   UNL     1       1.901 -22.601 -10.078  1.00  0.00     0.093 C 
ATOM      9  O   UNL     1      -0.189 -22.714 -11.193  1.00  0.00    -0.294 OA
ENDBRANCH   1   7
BRANCH   2  10
ATOM     10  O   UNL     1      -1.733 -23.251  -8.508  1.00  0.00    -0.507 OA
ATOM     11  H   UNL     1      -2.392 -22.888  -9.186  1.00  0.00     0.293 HD
ENDBRANCH   2  10
BRANCH   4  12
ATOM     12  O   UNL     1      -1.145 -27.937  -7.560  1.00  0.00    -0.497 OA
ATOM     13  C   UNL     1      -0.295 -28.988  -7.116  1.00  0.00     0.278 C 
ENDBRANCH   4  12
TORSDOF 3
ENDMDL
MODEL 8
REMARK VINA RESULT:    -4.144     15.250     16.707
REMARK INTER + INTRA:          -5.074
REMARK INTER:                  -4.739
REMARK INTRA:                  -0.335
REMARK UNBOUND:                -0.325
REMARK SMILES COc1ccc(C(C)=O)c(O)c1
REMARK SMILES IDX 6 1 10 2 12 3 3 4 4 5 5 6 7 7 8 8 9 9 11 10 2 12 1 13
REMARK H PARENT 11 11
REMARK Flexibility Score: inf
ROOT
ATOM      1  C   UNL     1      12.518 -34.847 -12.635  1.00  0.00     0.059 A 
ATOM      2  C   UNL     1      12.913 -33.491 -12.705  1.00  0.00     0.130 A 
ATOM      3  C   UNL     1      14.001 -33.119 -13.510  1.00  0.00     0.093 A 
ATOM      4  C   UNL     1      14.697 -34.070 -14.262  1.00  0.00     0.122 A 
ATOM      5  C   UNL     1      14.294 -35.414 -14.208  1.00  0.00     0.047 A 
ATOM      6  C   UNL     1      13.216 -35.795 -13.406  1.00  0.00     0.019 A 
ENDROOT
BRANCH   1   7
ATOM      7  C   UNL     1      11.384 -35.308 -11.789  1.00  0.00     0.163 C 
ATOM      8  C   UNL     1      10.251 -36.122 -12.336  1.00  0.00     0.093 C 
ATOM      9  O   UNL     1      11.364 -35.006 -10.564  1.00  0.00    -0.294 OA
ENDBRANCH   1   7
BRANCH   2  10
ATOM     10  O   UNL     1      12.220 -32.507 -12.001  1.00  0.00    -0.507 OA
ATOM     11  H   UNL     1      12.700 -31.743 -11.540  1.00  0.00     0.293 HD
ENDBRANCH   2  10
BRANCH   4  12
ATOM     12  O   UNL     1      15.775 -33.638 -15.048  1.00  0.00    -0.497 OA
ATOM     13  C   UNL     1      17.054 -34.263 -15.073  1.00  0.00     0.278 C 
ENDBRANCH   4  12
TORSDOF 3
ENDMDL
MODEL 9
REMARK VINA RESULT:    -4.101      1.904      4.739
REMARK INTER + INTRA:          -5.025
REMARK INTER:                  -4.700
REMARK INTRA:                  -0.325
REMARK UNBOUND:                -0.325
REMARK SMILES COc1ccc(C(C)=O)c(O)c1
REMARK SMILES IDX 6 1 10 2 12 3 3 4 4 5 5 6 7 7 8 8 9 9 11 10 2 12 1 13
REMARK H PARENT 11 11
REMARK Flexibility Score: inf
ROOT
ATOM      1  C   UNL     1      -0.460 -27.172  -8.709  1.00  0.00     0.059 A 
ATOM      2  C   UNL     1       0.809 -27.350  -9.306  1.00  0.00     0.130 A 
ATOM      3  C   UNL     1       1.270 -28.644  -9.596  1.00  0.00     0.093 A 
ATOM      4  C   UNL     1       0.485 -29.767  -9.318  1.00  0.00     0.122 A 
ATOM      5  C   UNL     1      -0.784 -29.589  -8.742  1.00  0.00     0.047 A 
ATOM      6  C   UNL     1      -1.249 -28.306  -8.445  1.00  0.00     0.019 A 
ENDROOT
BRANCH   1   7
ATOM      7  C   UNL     1      -0.999 -25.829  -8.362  1.00  0.00     0.163 C 
ATOM      8  C   UNL     1      -1.839 -25.589  -7.143  1.00  0.00     0.093 C 
ATOM      9  O   UNL     1      -0.749 -24.848  -9.115  1.00  0.00    -0.294 OA
ENDBRANCH   1   7
BRANCH   2  10
ATOM     10  O   UNL     1       1.606 -26.255  -9.636  1.00  0.00    -0.507 OA
ATOM     11  H   UNL     1       2.528 -26.368 -10.040  1.00  0.00     0.293 HD
ENDBRANCH   2  10
BRANCH   4  12
ATOM     12  O   UNL     1       0.999 -31.034  -9.632  1.00  0.00    -0.497 OA
ATOM     13  C   UNL     1       0.219 -32.222  -9.707  1.00  0.00     0.278 C 
ENDBRANCH   4  12
TORSDOF 3
ENDMDL
