MODEL 1
REMARK VINA RESULT:    -5.119      0.000      0.000
REMARK INTER + INTRA:          -6.250
REMARK INTER:                  -6.017
REMARK INTRA:                  -0.233
REMARK UNBOUND:                -0.233
REMARK SMILES O=c1c(O)c(-c2ccc(O)cc2)oc2cc(O)cc(O)c12
REMARK SMILES IDX 5 1 3 2 2 3 1 4 21 5 19 6 18 7 16 8 15 9 14 10 13 11 6 12
REMARK SMILES IDX 7 13 8 14 9 15 12 16 11 17 10 18 4 20 20 22 17 24
REMARK H PARENT 10 19 4 21 20 23 17 25
REMARK Flexibility Score: inf
ROOT
ATOM      1  C   UNL     1       4.457   6.703   2.223  1.00  0.00     0.180 A 
ATOM      2  C   UNL     1       4.902   7.258   1.011  1.00  0.00     0.208 A 
ATOM      3  C   UNL     1       6.209   6.987   0.577  1.00  0.00     0.238 A 
ATOM      4  O   UNL     1       6.585   7.444  -0.535  1.00  0.00    -0.285 OA
ATOM      5  C   UNL     1       7.060   6.178   1.367  1.00  0.00     0.111 A 
ATOM      6  C   UNL     1       8.417   5.871   1.045  1.00  0.00     0.134 A 
ATOM      7  C   UNL     1       9.123   4.954   1.832  1.00  0.00     0.093 A 
ATOM      8  C   UNL     1       8.547   4.384   2.966  1.00  0.00     0.123 A 
ATOM      9  C   UNL     1       7.241   4.723   3.324  1.00  0.00     0.094 A 
ATOM     10  C   UNL     1       6.499   5.606   2.539  1.00  0.00     0.146 A 
ATOM     11  O   UNL     1       5.257   5.894   2.908  1.00  0.00    -0.452 OA
ENDROOT
BRANCH   1  12
ATOM     12  C   UNL     1       3.101   6.964   2.759  1.00  0.00     0.021 A 
ATOM     13  C   UNL     1       1.999   6.284   2.215  1.00  0.00     0.016 A 
ATOM     14  C   UNL     1       0.713   6.499   2.720  1.00  0.00     0.047 A 
ATOM     15  C   UNL     1       0.515   7.383   3.784  1.00  0.00     0.115 A 
ATOM     16  C   UNL     1       2.898   7.838   3.843  1.00  0.00     0.016 A 
ATOM     17  C   UNL     1       1.611   8.049   4.347  1.00  0.00     0.047 A 
BRANCH  15  18
ATOM     18  O   UNL     1      -0.772   7.588   4.278  1.00  0.00    -0.508 OA
ATOM     19  H   UNL     1      -1.087   8.506   4.568  1.00  0.00     0.293 HD
ENDBRANCH  15  18
ENDBRANCH   1  12
BRANCH   2  20
ATOM     20  O   UNL     1       4.039   8.038   0.236  1.00  0.00    -0.502 OA
ATOM     21  H   UNL     1       4.373   8.672  -0.480  1.00  0.00     0.293 HD
ENDBRANCH   2  20
BRANCH   6  22
ATOM     22  O   UNL     1       9.118   6.455  -0.014  1.00  0.00    -0.507 OA
ATOM     23  H   UNL     1       8.907   6.314  -0.990  1.00  0.00     0.293 HD
ENDBRANCH   6  22
BRANCH   8  24
ATOM     24  O   UNL     1       9.285   3.486   3.736  1.00  0.00    -0.508 OA
ATOM     25  H   UNL     1       8.995   3.228   4.672  1.00  0.00     0.293 HD
ENDBRANCH   8  24
TORSDOF 5
ENDMDL
MODEL 2
REMARK VINA RESULT:    -5.110      1.778      6.583
REMARK INTER + INTRA:          -6.239
REMARK INTER:                  -5.950
REMARK INTRA:                  -0.289
REMARK UNBOUND:                -0.233
REMARK SMILES O=c1c(O)c(-c2ccc(O)cc2)oc2cc(O)cc(O)c12
REMARK SMILES IDX 5 1 3 2 2 3 1 4 21 5 19 6 18 7 16 8 15 9 14 10 13 11 6 12
REMARK SMILES IDX 7 13 8 14 9 15 12 16 11 17 10 18 4 20 20 22 17 24
REMARK H PARENT 10 19 4 21 20 23 17 25
REMARK Flexibility Score: inf
ROOT
ATOM      1  C   UNL     1       4.931   6.395   2.648  1.00  0.00     0.180 A 
ATOM      2  C   UNL     1       4.414   6.137   1.368  1.00  0.00     0.208 A 
ATOM      3  C   UNL     1       3.118   6.578   1.056  1.00  0.00     0.238 A 
ATOM      4  O   UNL     1       2.680   6.392  -0.110  1.00  0.00    -0.285 OA
ATOM      5  C   UNL     1       2.350   7.256   2.033  1.00  0.00     0.111 A 
ATOM      6  C   UNL     1       1.011   7.711   1.839  1.00  0.00     0.134 A 
ATOM      7  C   UNL     1       0.395   8.485   2.829  1.00  0.00     0.093 A 
ATOM      8  C   UNL     1       1.042   8.765   4.032  1.00  0.00     0.123 A 
ATOM      9  C   UNL     1       2.330   8.274   4.256  1.00  0.00     0.094 A 
ATOM     10  C   UNL     1       2.984   7.530   3.273  1.00  0.00     0.146 A 
ATOM     11  O   UNL     1       4.212   7.091   3.521  1.00  0.00    -0.452 OA
ENDROOT
BRANCH   1  12
ATOM     12  C   UNL     1       6.279   5.939   3.061  1.00  0.00     0.021 A 
ATOM     13  C   UNL     1       6.442   4.648   3.588  1.00  0.00     0.016 A 
ATOM     14  C   UNL     1       7.709   4.190   3.964  1.00  0.00     0.047 A 
ATOM     15  C   UNL     1       8.829   5.010   3.803  1.00  0.00     0.115 A 
ATOM     16  C   UNL     1       7.414   6.753   2.883  1.00  0.00     0.016 A 
ATOM     17  C   UNL     1       8.679   6.292   3.258  1.00  0.00     0.047 A 
BRANCH  15  18
ATOM     18  O   UNL     1      10.085   4.541   4.182  1.00  0.00    -0.508 OA
ATOM     19  H   UNL     1      10.347   3.570   4.059  1.00  0.00     0.293 HD
ENDBRANCH  15  18
ENDBRANCH   1  12
BRANCH   2  20
ATOM     20  O   UNL     1       5.196   5.485   0.411  1.00  0.00    -0.502 OA
ATOM     21  H   UNL     1       4.828   5.190  -0.485  1.00  0.00     0.293 HD
ENDBRANCH   2  20
BRANCH   6  22
ATOM     22  O   UNL     1       0.240   7.410   0.712  1.00  0.00    -0.507 OA
ATOM     23  H   UNL     1      -0.760   7.271   0.720  1.00  0.00     0.293 HD
ENDBRANCH   6  22
BRANCH   8  24
ATOM     24  O   UNL     1       0.393   9.526   5.002  1.00  0.00    -0.508 OA
ATOM     25  H   UNL     1       0.909  10.106   5.653  1.00  0.00     0.293 HD
ENDBRANCH   8  24
TORSDOF 5
ENDMDL
MODEL 3
REMARK VINA RESULT:    -4.623      4.595      7.395
REMARK INTER + INTRA:          -5.667
REMARK INTER:                  -5.406
REMARK INTRA:                  -0.261
REMARK UNBOUND:                -0.233
REMARK SMILES O=c1c(O)c(-c2ccc(O)cc2)oc2cc(O)cc(O)c12
REMARK SMILES IDX 5 1 3 2 2 3 1 4 21 5 19 6 18 7 16 8 15 9 14 10 13 11 6 12
REMARK SMILES IDX 7 13 8 14 9 15 12 16 11 17 10 18 4 20 20 22 17 24
REMARK H PARENT 10 19 4 21 20 23 17 25
REMARK Flexibility Score: inf
ROOT
ATOM      1  C   UNL     1       1.241   7.884   4.707  1.00  0.00     0.180 A 
ATOM      2  C   UNL     1       0.313   8.879   5.058  1.00  0.00     0.208 A 
ATOM      3  C   UNL     1       0.135   9.196   6.413  1.00  0.00     0.238 A 
ATOM      4  O   UNL     1      -0.659  10.125   6.718  1.00  0.00    -0.285 OA
ATOM      5  C   UNL     1       0.874   8.504   7.402  1.00  0.00     0.111 A 
ATOM      6  C   UNL     1       0.744   8.715   8.808  1.00  0.00     0.134 A 
ATOM      7  C   UNL     1       1.620   8.067   9.687  1.00  0.00     0.093 A 
ATOM      8  C   UNL     1       2.575   7.167   9.219  1.00  0.00     0.123 A 
ATOM      9  C   UNL     1       2.672   6.908   7.851  1.00  0.00     0.094 A 
ATOM     10  C   UNL     1       1.837   7.566   6.946  1.00  0.00     0.146 A 
ATOM     11  O   UNL     1       1.967   7.299   5.653  1.00  0.00    -0.452 OA
ENDROOT
BRANCH   1  12
ATOM     12  C   UNL     1       1.467   7.476   3.301  1.00  0.00     0.021 A 
ATOM     13  C   UNL     1       0.807   6.344   2.795  1.00  0.00     0.016 A 
ATOM     14  C   UNL     1       0.989   5.954   1.464  1.00  0.00     0.047 A 
ATOM     15  C   UNL     1       1.819   6.696   0.620  1.00  0.00     0.115 A 
ATOM     16  C   UNL     1       2.287   8.231   2.441  1.00  0.00     0.016 A 
ATOM     17  C   UNL     1       2.465   7.838   1.111  1.00  0.00     0.047 A 
BRANCH  15  18
ATOM     18  O   UNL     1       1.991   6.295  -0.702  1.00  0.00    -0.508 OA
ATOM     19  H   UNL     1       2.214   5.336  -0.940  1.00  0.00     0.293 HD
ENDBRANCH  15  18
ENDBRANCH   1  12
BRANCH   2  20
ATOM     20  O   UNL     1      -0.391   9.565   4.064  1.00  0.00    -0.502 OA
ATOM     21  H   UNL     1       0.033  10.287   3.496  1.00  0.00     0.293 HD
ENDBRANCH   2  20
BRANCH   6  22
ATOM     22  O   UNL     1      -0.238   9.524   9.388  1.00  0.00    -0.507 OA
ATOM     23  H   UNL     1      -0.959   9.195  10.011  1.00  0.00     0.293 HD
ENDBRANCH   6  22
BRANCH   8  24
ATOM     24  O   UNL     1       3.421   6.528  10.125  1.00  0.00    -0.508 OA
ATOM     25  H   UNL     1       4.421   6.692  10.123  1.00  0.00     0.293 HD
ENDBRANCH   8  24
TORSDOF 5
ENDMDL
MODEL 4
REMARK VINA RESULT:    -4.582      1.681      6.770
REMARK INTER + INTRA:          -5.619
REMARK INTER:                  -5.435
REMARK INTRA:                  -0.183
REMARK UNBOUND:                -0.233
REMARK SMILES O=c1c(O)c(-c2ccc(O)cc2)oc2cc(O)cc(O)c12
REMARK SMILES IDX 5 1 3 2 2 3 1 4 21 5 19 6 18 7 16 8 15 9 14 10 13 11 6 12
REMARK SMILES IDX 7 13 8 14 9 15 12 16 11 17 10 18 4 20 20 22 17 24
REMARK H PARENT 10 19 4 21 20 23 17 25
REMARK Flexibility Score: inf
ROOT
ATOM      1  C   UNL     1       4.252   6.665   2.530  1.00  0.00     0.180 A 
ATOM      2  C   UNL     1       3.071   6.397   1.818  1.00  0.00     0.208 A 
ATOM      3  C   UNL     1       1.837   6.740   2.393  1.00  0.00     0.238 A 
ATOM      4  O   UNL     1       0.785   6.546   1.728  1.00  0.00    -0.285 OA
ATOM      5  C   UNL     1       1.799   7.332   3.678  1.00  0.00     0.111 A 
ATOM      6  C   UNL     1       0.602   7.684   4.373  1.00  0.00     0.134 A 
ATOM      7  C   UNL     1       0.687   8.384   5.583  1.00  0.00     0.093 A 
ATOM      8  C   UNL     1       1.922   8.686   6.155  1.00  0.00     0.123 A 
ATOM      9  C   UNL     1       3.097   8.294   5.513  1.00  0.00     0.094 A 
ATOM     10  C   UNL     1       3.046   7.627   4.288  1.00  0.00     0.146 A 
ATOM     11  O   UNL     1       4.187   7.281   3.705  1.00  0.00    -0.452 OA
ENDROOT
BRANCH   1  12
ATOM     12  C   UNL     1       5.589   6.309   2.002  1.00  0.00     0.021 A 
ATOM     13  C   UNL     1       6.294   5.234   2.570  1.00  0.00     0.016 A 
ATOM     14  C   UNL     1       7.548   4.867   2.073  1.00  0.00     0.047 A 
ATOM     15  C   UNL     1       8.107   5.558   0.994  1.00  0.00     0.115 A 
ATOM     16  C   UNL     1       6.149   6.989   0.904  1.00  0.00     0.016 A 
ATOM     17  C   UNL     1       7.403   6.618   0.408  1.00  0.00     0.047 A 
BRANCH  15  18
ATOM     18  O   UNL     1       9.358   5.182   0.510  1.00  0.00    -0.508 OA
ATOM     19  H   UNL     1       9.524   4.255   0.137  1.00  0.00     0.293 HD
ENDBRANCH  15  18
ENDBRANCH   1  12
BRANCH   2  20
ATOM     20  O   UNL     1       3.132   5.831   0.542  1.00  0.00    -0.502 OA
ATOM     21  H   UNL     1       2.741   6.284  -0.274  1.00  0.00     0.293 HD
ENDBRANCH   2  20
BRANCH   6  22
ATOM     22  O   UNL     1      -0.682   7.349   3.935  1.00  0.00    -0.507 OA
ATOM     23  H   UNL     1      -1.511   7.373   4.510  1.00  0.00     0.293 HD
ENDBRANCH   6  22
BRANCH   8  24
ATOM     24  O   UNL     1       1.968   9.370   7.368  1.00  0.00    -0.508 OA
ATOM     25  H   UNL     1       2.450  10.258   7.458  1.00  0.00     0.293 HD
ENDBRANCH   8  24
TORSDOF 5
ENDMDL
MODEL 5
REMARK VINA RESULT:    -4.531      1.949      2.788
REMARK INTER + INTRA:          -5.559
REMARK INTER:                  -5.325
REMARK INTRA:                  -0.233
REMARK UNBOUND:                -0.233
REMARK SMILES O=c1c(O)c(-c2ccc(O)cc2)oc2cc(O)cc(O)c12
REMARK SMILES IDX 5 1 3 2 2 3 1 4 21 5 19 6 18 7 16 8 15 9 14 10 13 11 6 12
REMARK SMILES IDX 7 13 8 14 9 15 12 16 11 17 10 18 4 20 20 22 17 24
REMARK H PARENT 10 19 4 21 20 23 17 25
REMARK Flexibility Score: inf
ROOT
ATOM      1  C   UNL     1       2.837   7.498   3.445  1.00  0.00     0.180 A 
ATOM      2  C   UNL     1       2.547   6.927   2.194  1.00  0.00     0.208 A 
ATOM      3  C   UNL     1       3.579   6.309   1.472  1.00  0.00     0.238 A 
ATOM      4  O   UNL     1       3.303   5.753   0.377  1.00  0.00    -0.285 OA
ATOM      5  C   UNL     1       4.892   6.283   2.001  1.00  0.00     0.111 A 
ATOM      6  C   UNL     1       6.023   5.720   1.337  1.00  0.00     0.134 A 
ATOM      7  C   UNL     1       7.247   5.633   2.012  1.00  0.00     0.093 A 
ATOM      8  C   UNL     1       7.399   6.148   3.298  1.00  0.00     0.123 A 
ATOM      9  C   UNL     1       6.314   6.755   3.934  1.00  0.00     0.094 A 
ATOM     10  C   UNL     1       5.072   6.824   3.301  1.00  0.00     0.146 A 
ATOM     11  O   UNL     1       4.063   7.400   3.944  1.00  0.00    -0.452 OA
ENDROOT
BRANCH   1  12
ATOM     12  C   UNL     1       1.807   8.190   4.254  1.00  0.00     0.021 A 
ATOM     13  C   UNL     1       1.341   7.594   5.437  1.00  0.00     0.016 A 
ATOM     14  C   UNL     1       0.385   8.239   6.227  1.00  0.00     0.047 A 
ATOM     15  C   UNL     1      -0.106   9.494   5.854  1.00  0.00     0.115 A 
ATOM     16  C   UNL     1       1.324   9.462   3.893  1.00  0.00     0.016 A 
ATOM     17  C   UNL     1       0.369  10.105   4.687  1.00  0.00     0.047 A 
BRANCH  15  18
ATOM     18  O   UNL     1      -1.058  10.125   6.651  1.00  0.00    -0.508 OA
ATOM     19  H   UNL     1      -1.279  11.107   6.534  1.00  0.00     0.293 HD
ENDBRANCH  15  18
ENDBRANCH   1  12
BRANCH   2  20
ATOM     20  O   UNL     1       1.240   6.945   1.699  1.00  0.00    -0.502 OA
ATOM     21  H   UNL     1       1.032   6.903   0.709  1.00  0.00     0.293 HD
ENDBRANCH   2  20
BRANCH   6  22
ATOM     22  O   UNL     1       6.003   5.258   0.018  1.00  0.00    -0.507 OA
ATOM     23  H   UNL     1       5.169   5.141  -0.537  1.00  0.00     0.293 HD
ENDBRANCH   6  22
BRANCH   8  24
ATOM     24  O   UNL     1       8.636   6.058   3.934  1.00  0.00    -0.508 OA
ATOM     25  H   UNL     1       9.444   5.665   3.466  1.00  0.00     0.293 HD
ENDBRANCH   8  24
TORSDOF 5
ENDMDL
MODEL 6
REMARK VINA RESULT:    -4.508      2.270      6.623
REMARK INTER + INTRA:          -5.532
REMARK INTER:                  -5.237
REMARK INTRA:                  -0.294
REMARK UNBOUND:                -0.233
REMARK SMILES O=c1c(O)c(-c2ccc(O)cc2)oc2cc(O)cc(O)c12
REMARK SMILES IDX 5 1 3 2 2 3 1 4 21 5 19 6 18 7 16 8 15 9 14 10 13 11 6 12
REMARK SMILES IDX 7 13 8 14 9 15 12 16 11 17 10 18 4 20 20 22 17 24
REMARK H PARENT 10 19 4 21 20 23 17 25
REMARK Flexibility Score: inf
ROOT
ATOM      1  C   UNL     1       5.117   6.536   3.291  1.00  0.00     0.180 A 
ATOM      2  C   UNL     1       4.555   7.595   4.024  1.00  0.00     0.208 A 
ATOM      3  C   UNL     1       3.315   8.117   3.623  1.00  0.00     0.238 A 
ATOM      4  O   UNL     1       2.791   9.029   4.314  1.00  0.00    -0.285 OA
ATOM      5  C   UNL     1       2.661   7.586   2.485  1.00  0.00     0.111 A 
ATOM      6  C   UNL     1       1.421   8.066   1.965  1.00  0.00     0.134 A 
ATOM      7  C   UNL     1       0.802   7.379   0.913  1.00  0.00     0.093 A 
ATOM      8  C   UNL     1       1.408   6.273   0.320  1.00  0.00     0.123 A 
ATOM      9  C   UNL     1       2.649   5.831   0.782  1.00  0.00     0.094 A 
ATOM     10  C   UNL     1       3.274   6.473   1.852  1.00  0.00     0.146 A 
ATOM     11  O   UNL     1       4.448   6.015   2.268  1.00  0.00    -0.452 OA
ENDROOT
BRANCH   1  12
ATOM     12  C   UNL     1       6.432   5.949   3.636  1.00  0.00     0.021 A 
ATOM     13  C   UNL     1       6.486   4.770   4.397  1.00  0.00     0.016 A 
ATOM     14  C   UNL     1       7.716   4.187   4.717  1.00  0.00     0.047 A 
ATOM     15  C   UNL     1       8.906   4.765   4.267  1.00  0.00     0.115 A 
ATOM     16  C   UNL     1       7.633   6.516   3.169  1.00  0.00     0.016 A 
ATOM     17  C   UNL     1       8.862   5.929   3.489  1.00  0.00     0.047 A 
BRANCH  15  18
ATOM     18  O   UNL     1      10.125   4.174   4.592  1.00  0.00    -0.508 OA
ATOM     19  H   UNL     1      10.400   4.026   5.556  1.00  0.00     0.293 HD
ENDBRANCH  15  18
ENDBRANCH   1  12
BRANCH   2  20
ATOM     20  O   UNL     1       5.207   8.091   5.156  1.00  0.00    -0.502 OA
ATOM     21  H   UNL     1       5.821   8.895   5.122  1.00  0.00     0.293 HD
ENDBRANCH   2  20
BRANCH   6  22
ATOM     22  O   UNL     1       0.775   9.217   2.425  1.00  0.00    -0.507 OA
ATOM     23  H   UNL     1      -0.086   9.221   2.951  1.00  0.00     0.293 HD
ENDBRANCH   6  22
BRANCH   8  24
ATOM     24  O   UNL     1       0.770   5.623  -0.736  1.00  0.00    -0.508 OA
ATOM     25  H   UNL     1       1.136   4.762  -1.126  1.00  0.00     0.293 HD
ENDBRANCH   8  24
TORSDOF 5
ENDMDL
MODEL 7
REMARK VINA RESULT:    -4.395      3.203      5.445
REMARK INTER + INTRA:          -5.400
REMARK INTER:                  -5.391
REMARK INTRA:                  -0.009
REMARK UNBOUND:                -0.233
REMARK SMILES O=c1c(O)c(-c2ccc(O)cc2)oc2cc(O)cc(O)c12
REMARK SMILES IDX 5 1 3 2 2 3 1 4 21 5 19 6 18 7 16 8 15 9 14 10 13 11 6 12
REMARK SMILES IDX 7 13 8 14 9 15 12 16 11 17 10 18 4 20 20 22 17 24
REMARK H PARENT 10 19 4 21 20 23 17 25
REMARK Flexibility Score: inf
ROOT
ATOM      1  C   UNL     1       1.871   7.957   5.052  1.00  0.00     0.180 A 
ATOM      2  C   UNL     1       3.249   8.179   4.890  1.00  0.00     0.208 A 
ATOM      3  C   UNL     1       3.873   7.756   3.706  1.00  0.00     0.238 A 
ATOM      4  O   UNL     1       5.097   8.004   3.544  1.00  0.00    -0.285 OA
ATOM      5  C   UNL     1       3.115   7.102   2.706  1.00  0.00     0.111 A 
ATOM      6  C   UNL     1       3.651   6.594   1.484  1.00  0.00     0.134 A 
ATOM      7  C   UNL     1       2.786   6.083   0.509  1.00  0.00     0.093 A 
ATOM      8  C   UNL     1       1.413   5.999   0.738  1.00  0.00     0.123 A 
ATOM      9  C   UNL     1       0.885   6.437   1.953  1.00  0.00     0.094 A 
ATOM     10  C   UNL     1       1.718   6.986   2.929  1.00  0.00     0.146 A 
ATOM     11  O   UNL     1       1.175   7.401   4.067  1.00  0.00    -0.452 OA
ENDROOT
BRANCH   1  12
ATOM     12  C   UNL     1       1.148   8.352   6.282  1.00  0.00     0.021 A 
ATOM     13  C   UNL     1      -0.053   9.073   6.178  1.00  0.00     0.016 A 
ATOM     14  C   UNL     1      -0.763   9.438   7.326  1.00  0.00     0.047 A 
ATOM     15  C   UNL     1      -0.292   9.073   8.590  1.00  0.00     0.115 A 
ATOM     16  C   UNL     1       1.608   7.971   7.557  1.00  0.00     0.016 A 
ATOM     17  C   UNL     1       0.894   8.336   8.703  1.00  0.00     0.047 A 
BRANCH  15  18
ATOM     18  O   UNL     1      -1.010   9.443   9.725  1.00  0.00    -0.508 OA
ATOM     19  H   UNL     1      -0.547   9.624  10.608  1.00  0.00     0.293 HD
ENDBRANCH  15  18
ENDBRANCH   1  12
BRANCH   2  20
ATOM     20  O   UNL     1       3.975   8.845   5.881  1.00  0.00    -0.502 OA
ATOM     21  H   UNL     1       4.255   8.397   6.745  1.00  0.00     0.293 HD
ENDBRANCH   2  20
BRANCH   6  22
ATOM     22  O   UNL     1       5.018   6.546   1.192  1.00  0.00    -0.507 OA
ATOM     23  H   UNL     1       5.475   5.790   0.704  1.00  0.00     0.293 HD
ENDBRANCH   6  22
BRANCH   8  24
ATOM     24  O   UNL     1       0.583   5.469  -0.249  1.00  0.00    -0.508 OA
ATOM     25  H   UNL     1      -0.427   5.498  -0.163  1.00  0.00     0.293 HD
ENDBRANCH   8  24
TORSDOF 5
ENDMDL
MODEL 8
REMARK VINA RESULT:    -4.387      7.445      8.882
REMARK INTER + INTRA:          -5.390
REMARK INTER:                  -5.107
REMARK INTRA:                  -0.283
REMARK UNBOUND:                -0.233
REMARK SMILES O=c1c(O)c(-c2ccc(O)cc2)oc2cc(O)cc(O)c12
REMARK SMILES IDX 5 1 3 2 2 3 1 4 21 5 19 6 18 7 16 8 15 9 14 10 13 11 6 12
REMARK SMILES IDX 7 13 8 14 9 15 12 16 11 17 10 18 4 20 20 22 17 24
REMARK H PARENT 10 19 4 21 20 23 17 25
REMARK Flexibility Score: inf
ROOT
ATOM      1  C   UNL     1       6.910   4.663  -5.591  1.00  0.00     0.180 A 
ATOM      2  C   UNL     1       7.385   5.506  -4.572  1.00  0.00     0.208 A 
ATOM      3  C   UNL     1       8.319   5.003  -3.652  1.00  0.00     0.238 A 
ATOM      4  O   UNL     1       8.781   5.778  -2.775  1.00  0.00    -0.285 OA
ATOM      5  C   UNL     1       8.752   3.659  -3.752  1.00  0.00     0.111 A 
ATOM      6  C   UNL     1       9.665   3.032  -2.850  1.00  0.00     0.134 A 
ATOM      7  C   UNL     1      10.125   1.738  -3.122  1.00  0.00     0.093 A 
ATOM      8  C   UNL     1       9.656   1.024  -4.223  1.00  0.00     0.123 A 
ATOM      9  C   UNL     1       8.719   1.605  -5.079  1.00  0.00     0.094 A 
ATOM     10  C   UNL     1       8.269   2.907  -4.855  1.00  0.00     0.146 A 
ATOM     11  O   UNL     1       7.385   3.427  -5.698  1.00  0.00    -0.452 OA
ENDROOT
BRANCH   1  12
ATOM     12  C   UNL     1       5.906   5.112  -6.582  1.00  0.00     0.021 A 
ATOM     13  C   UNL     1       4.540   4.902  -6.329  1.00  0.00     0.016 A 
ATOM     14  C   UNL     1       3.574   5.337  -7.242  1.00  0.00     0.047 A 
ATOM     15  C   UNL     1       3.959   6.001  -8.409  1.00  0.00     0.115 A 
ATOM     16  C   UNL     1       6.286   5.799  -7.750  1.00  0.00     0.016 A 
ATOM     17  C   UNL     1       5.317   6.235  -8.660  1.00  0.00     0.047 A 
BRANCH  15  18
ATOM     18  O   UNL     1       2.986   6.430  -9.310  1.00  0.00    -0.508 OA
ATOM     19  H   UNL     1       2.358   7.193  -9.087  1.00  0.00     0.293 HD
ENDBRANCH  15  18
ENDBRANCH   1  12
BRANCH   2  20
ATOM     20  O   UNL     1       6.960   6.835  -4.504  1.00  0.00    -0.502 OA
ATOM     21  H   UNL     1       6.178   7.185  -5.043  1.00  0.00     0.293 HD
ENDBRANCH   2  20
BRANCH   6  22
ATOM     22  O   UNL     1      10.125   3.623  -1.670  1.00  0.00    -0.507 OA
ATOM     23  H   UNL     1       9.644   4.354  -1.167  1.00  0.00     0.293 HD
ENDBRANCH   6  22
BRANCH   8  24
ATOM     24  O   UNL     1      10.124  -0.269  -4.454  1.00  0.00    -0.508 OA
ATOM     25  H   UNL     1       9.578  -1.083  -4.200  1.00  0.00     0.293 HD
ENDBRANCH   8  24
TORSDOF 5
ENDMDL
MODEL 9
REMARK VINA RESULT:    -4.248      2.194      6.342
REMARK INTER + INTRA:          -5.226
REMARK INTER:                  -4.939
REMARK INTRA:                  -0.287
REMARK UNBOUND:                -0.233
REMARK SMILES O=c1c(O)c(-c2ccc(O)cc2)oc2cc(O)cc(O)c12
REMARK SMILES IDX 5 1 3 2 2 3 1 4 21 5 19 6 18 7 16 8 15 9 14 10 13 11 6 12
REMARK SMILES IDX 7 13 8 14 9 15 12 16 11 17 10 18 4 20 20 22 17 24
REMARK H PARENT 10 19 4 21 20 23 17 25
REMARK Flexibility Score: inf
ROOT
ATOM      1  C   UNL     1       6.152   5.686   3.821  1.00  0.00     0.180 A 
ATOM      2  C   UNL     1       6.143   5.336   2.460  1.00  0.00     0.208 A 
ATOM      3  C   UNL     1       5.176   5.906   1.617  1.00  0.00     0.238 A 
ATOM      4  O   UNL     1       5.205   5.630   0.389  1.00  0.00    -0.285 OA
ATOM      5  C   UNL     1       4.221   6.805   2.148  1.00  0.00     0.111 A 
ATOM      6  C   UNL     1       3.170   7.411   1.394  1.00  0.00     0.134 A 
ATOM      7  C   UNL     1       2.365   8.387   1.993  1.00  0.00     0.093 A 
ATOM      8  C   UNL     1       2.526   8.730   3.334  1.00  0.00     0.123 A 
ATOM      9  C   UNL     1       3.511   8.101   4.097  1.00  0.00     0.094 A 
ATOM     10  C   UNL     1       4.354   7.151   3.518  1.00  0.00     0.146 A 
ATOM     11  O   UNL     1       5.285   6.583   4.275  1.00  0.00    -0.452 OA
ENDROOT
BRANCH   1  12
ATOM     12  C   UNL     1       7.124   5.108   4.777  1.00  0.00     0.021 A 
ATOM     13  C   UNL     1       6.839   3.880   5.396  1.00  0.00     0.016 A 
ATOM     14  C   UNL     1       7.752   3.306   6.286  1.00  0.00     0.047 A 
ATOM     15  C   UNL     1       8.967   3.942   6.557  1.00  0.00     0.115 A 
ATOM     16  C   UNL     1       8.357   5.735   5.038  1.00  0.00     0.016 A 
ATOM     17  C   UNL     1       9.269   5.157   5.928  1.00  0.00     0.047 A 
BRANCH  15  18
ATOM     18  O   UNL     1       9.867   3.359   7.445  1.00  0.00    -0.508 OA
ATOM     19  H   UNL     1      10.609   2.750   7.123  1.00  0.00     0.293 HD
ENDBRANCH  15  18
ENDBRANCH   1  12
BRANCH   2  20
ATOM     20  O   UNL     1       7.108   4.462   1.952  1.00  0.00    -0.502 OA
ATOM     21  H   UNL     1       7.586   3.782   2.531  1.00  0.00     0.293 HD
ENDBRANCH   2  20
BRANCH   6  22
ATOM     22  O   UNL     1       2.864   7.074   0.072  1.00  0.00    -0.507 OA
ATOM     23  H   UNL     1       1.955   7.181  -0.352  1.00  0.00     0.293 HD
ENDBRANCH   6  22
BRANCH   8  24
ATOM     24  O   UNL     1       1.695   9.695   3.902  1.00  0.00    -0.508 OA
ATOM     25  H   UNL     1       0.794   9.451   4.297  1.00  0.00     0.293 HD
ENDBRANCH   8  24
TORSDOF 5
ENDMDL
