MODEL 1
REMARK VINA RESULT:    -2.678      0.000      0.000
REMARK INTER + INTRA:          -2.678
REMARK INTER:                  -2.678
REMARK INTRA:                   0.000
REMARK UNBOUND:                 0.000
REMARK SMILES CC(=O)[O-]
REMARK SMILES IDX 1 1 2 2 3 3 4 4
REMARK H PARENT
REMARK Flexibility Score: inf
ROOT
ATOM      1  C   UNL     1      -7.805 -10.123   5.729  1.00  0.00     0.063 C 
ATOM      2  C   UNL     1      -8.384  -8.751   5.654  1.00  0.00     0.038 C 
ATOM      3  O   UNL     1      -9.478  -8.557   5.061  1.00  0.00    -0.550 OA
ATOM      4  O   UNL     1      -7.692  -7.674   6.192  1.00  0.00    -0.550 OA
ENDROOT
TORSDOF 0
ENDMDL
MODEL 2
REMARK VINA RESULT:    -2.295     23.590     24.186
REMARK INTER + INTRA:          -2.295
REMARK INTER:                  -2.295
REMARK INTRA:                   0.000
REMARK UNBOUND:                 0.000
REMARK SMILES CC(=O)[O-]
REMARK SMILES IDX 1 1 2 2 3 3 4 4
REMARK H PARENT
REMARK Flexibility Score: inf
ROOT
ATOM      1  C   UNL     1       7.888  10.124   5.087  1.00  0.00     0.063 C 
ATOM      2  C   UNL     1       8.250   8.681   4.987  1.00  0.00     0.038 C 
ATOM      3  O   UNL     1       9.070   8.294   4.114  1.00  0.00    -0.550 OA
ATOM      4  O   UNL     1       7.643   7.753   5.823  1.00  0.00    -0.550 OA
ENDROOT
TORSDOF 0
ENDMDL
MODEL 3
REMARK VINA RESULT:    -2.149     23.851     24.441
REMARK INTER + INTRA:          -2.149
REMARK INTER:                  -2.149
REMARK INTRA:                   0.000
REMARK UNBOUND:                 0.000
REMARK SMILES CC(=O)[O-]
REMARK SMILES IDX 1 1 2 2 3 3 4 4
REMARK H PARENT
REMARK Flexibility Score: inf
ROOT
ATOM      1  C   UNL     1       8.938   8.576   1.891  1.00  0.00     0.063 C 
ATOM      2  C   UNL     1       9.070   8.102   3.298  1.00  0.00     0.038 C 
ATOM      3  O   UNL     1       8.615   6.976   3.631  1.00  0.00    -0.550 OA
ATOM      4  O   UNL     1       9.648   8.922   4.258  1.00  0.00    -0.550 OA
ENDROOT
TORSDOF 0
ENDMDL
MODEL 4
REMARK VINA RESULT:    -2.046      2.144      2.697
REMARK INTER + INTRA:          -2.046
REMARK INTER:                  -2.046
REMARK INTRA:                   0.000
REMARK UNBOUND:                 0.000
REMARK SMILES CC(=O)[O-]
REMARK SMILES IDX 1 1 2 2 3 3 4 4
REMARK H PARENT
REMARK Flexibility Score: inf
ROOT
ATOM      1  C   UNL     1      -8.947  -8.217   2.613  1.00  0.00     0.063 C 
ATOM      2  C   UNL     1      -8.996  -7.818   4.049  1.00  0.00     0.038 C 
ATOM      3  O   UNL     1      -8.494  -6.723   4.418  1.00  0.00    -0.550 OA
ATOM      4  O   UNL     1      -9.549  -8.675   4.991  1.00  0.00    -0.550 OA
ENDROOT
TORSDOF 0
ENDMDL
MODEL 5
REMARK VINA RESULT:    -2.021      4.087      4.736
REMARK INTER + INTRA:          -2.021
REMARK INTER:                  -2.021
REMARK INTRA:                   0.000
REMARK UNBOUND:                 0.000
REMARK SMILES CC(=O)[O-]
REMARK SMILES IDX 1 1 2 2 3 3 4 4
REMARK H PARENT
REMARK Flexibility Score: inf
ROOT
ATOM      1  C   UNL     1      -6.082  -4.899   8.659  1.00  0.00     0.063 C 
ATOM      2  C   UNL     1      -7.291  -5.047   7.798  1.00  0.00     0.038 C 
ATOM      3  O   UNL     1      -8.243  -4.229   7.899  1.00  0.00    -0.550 OA
ATOM      4  O   UNL     1      -7.393  -6.118   6.920  1.00  0.00    -0.550 OA
ENDROOT
TORSDOF 0
ENDMDL
MODEL 6
REMARK VINA RESULT:    -1.999      6.813      7.160
REMARK INTER + INTRA:          -1.999
REMARK INTER:                  -1.999
REMARK INTRA:                   0.000
REMARK UNBOUND:                 0.000
REMARK SMILES CC(=O)[O-]
REMARK SMILES IDX 1 1 2 2 3 3 4 4
REMARK H PARENT
REMARK Flexibility Score: inf
ROOT
ATOM      1  C   UNL     1      -4.171  -4.852   9.511  1.00  0.00     0.063 C 
ATOM      2  C   UNL     1      -3.211  -4.851   8.371  1.00  0.00     0.038 C 
ATOM      3  O   UNL     1      -3.606  -4.559   7.211  1.00  0.00    -0.550 OA
ATOM      4  O   UNL     1      -1.889  -5.225   8.574  1.00  0.00    -0.550 OA
ENDROOT
TORSDOF 0
ENDMDL
MODEL 7
REMARK VINA RESULT:    -1.984      6.829      7.302
REMARK INTER + INTRA:          -1.984
REMARK INTER:                  -1.984
REMARK INTRA:                   0.000
REMARK UNBOUND:                 0.000
REMARK SMILES CC(=O)[O-]
REMARK SMILES IDX 1 1 2 2 3 3 4 4
REMARK H PARENT
REMARK Flexibility Score: inf
ROOT
ATOM      1  C   UNL     1      -4.168  -4.845   9.506  1.00  0.00     0.063 C 
ATOM      2  C   UNL     1      -3.189  -4.845   8.381  1.00  0.00     0.038 C 
ATOM      3  O   UNL     1      -1.982  -5.135   8.594  1.00  0.00    -0.550 OA
ATOM      4  O   UNL     1      -3.594  -4.475   7.106  1.00  0.00    -0.550 OA
ENDROOT
TORSDOF 0
ENDMDL
MODEL 8
REMARK VINA RESULT:    -1.974     20.930     21.187
REMARK INTER + INTRA:          -1.974
REMARK INTER:                  -1.974
REMARK INTRA:                   0.000
REMARK UNBOUND:                 0.000
REMARK SMILES CC(=O)[O-]
REMARK SMILES IDX 1 1 2 2 3 3 4 4
REMARK H PARENT
REMARK Flexibility Score: inf
ROOT
ATOM      1  C   UNL     1       5.985   5.302   8.311  1.00  0.00     0.063 C 
ATOM      2  C   UNL     1       7.288   5.282   7.586  1.00  0.00     0.038 C 
ATOM      3  O   UNL     1       8.259   4.626   8.047  1.00  0.00    -0.550 OA
ATOM      4  O   UNL     1       7.451   6.031   6.428  1.00  0.00    -0.550 OA
ENDROOT
TORSDOF 0
ENDMDL
MODEL 9
REMARK VINA RESULT:    -1.963     18.146     18.461
REMARK INTER + INTRA:          -1.963
REMARK INTER:                  -1.963
REMARK INTRA:                   0.000
REMARK UNBOUND:                 0.000
REMARK SMILES CC(=O)[O-]
REMARK SMILES IDX 1 1 2 2 3 3 4 4
REMARK H PARENT
REMARK Flexibility Score: inf
ROOT
ATOM      1  C   UNL     1       4.124   5.431   9.141  1.00  0.00     0.063 C 
ATOM      2  C   UNL     1       3.225   5.289   7.960  1.00  0.00     0.038 C 
ATOM      3  O   UNL     1       3.676   4.843   6.872  1.00  0.00    -0.550 OA
ATOM      4  O   UNL     1       1.900   5.698   8.040  1.00  0.00    -0.550 OA
ENDROOT
TORSDOF 0
ENDMDL
