MODEL 1
REMARK VINA RESULT:    -5.375      0.000      0.000
REMARK INTER + INTRA:         -12.952
REMARK INTER:                 -10.088
REMARK INTRA:                  -2.864
REMARK UNBOUND:                -2.864
REMARK SMILES CCCCCCCCC=CCCCCCCCC(=O)[O-]
REMARK SMILES IDX 10 1 9 2 11 3 12 4 13 5 14 6 15 7 16 8 17 9 18 10 19 11
REMARK SMILES IDX 20 12 8 13 7 14 6 15 5 16 4 17 3 18 2 19 1 20
REMARK H PARENT
REMARK Flexibility Score: inf
ROOT
ATOM      1  C   UNL     1      23.852   6.975  24.271  1.00  0.00    -0.031 C 
ATOM      2  C   UNL     1      22.898   6.115  23.870  1.00  0.00    -0.031 C 
ENDROOT
BRANCH   1   3
ATOM      3  C   UNL     1      25.146   6.573  24.936  1.00  0.00     0.027 C 
BRANCH   3   4
ATOM      4  C   UNL     1      26.372   6.933  24.081  1.00  0.00     0.004 C 
BRANCH   4   5
ATOM      5  C   UNL     1      26.029   7.440  22.668  1.00  0.00     0.000 C 
BRANCH   5   6
ATOM      6  C   UNL     1      26.747   8.754  22.315  1.00  0.00     0.000 C 
BRANCH   6   7
ATOM      7  C   UNL     1      25.777   9.862  21.880  1.00  0.00     0.000 C 
BRANCH   7   8
ATOM      8  C   UNL     1      24.393   9.319  21.494  1.00  0.00     0.006 C 
BRANCH   8   9
ATOM      9  C   UNL     1      23.288  10.027  22.285  1.00  0.00     0.053 C 
BRANCH   9  10
ATOM     10  C   UNL     1      21.955   9.414  21.993  1.00  0.00     0.041 C 
ATOM     11  O   UNL     1      21.196   9.070  22.937  1.00  0.00    -0.550 OA
ATOM     12  O   UNL     1      21.570   9.181  20.677  1.00  0.00    -0.550 OA
ENDBRANCH   9  10
ENDBRANCH   8   9
ENDBRANCH   7   8
ENDBRANCH   6   7
ENDBRANCH   5   6
ENDBRANCH   4   5
ENDBRANCH   3   4
ENDBRANCH   1   3
BRANCH   2  13
ATOM     13  C   UNL     1      22.930   4.627  24.110  1.00  0.00     0.027 C 
BRANCH  13  14
ATOM     14  C   UNL     1      23.196   3.872  22.801  1.00  0.00     0.004 C 
BRANCH  14  15
ATOM     15  C   UNL     1      24.697   3.723  22.493  1.00  0.00     0.000 C 
BRANCH  15  16
ATOM     16  C   UNL     1      25.115   4.137  21.067  1.00  0.00     0.000 C 
BRANCH  16  17
ATOM     17  C   UNL     1      24.284   5.274  20.446  1.00  0.00    -0.000 C 
BRANCH  17  18
ATOM     18  C   UNL     1      24.670   5.566  18.987  1.00  0.00    -0.000 C 
BRANCH  18  19
ATOM     19  C   UNL     1      25.601   6.783  18.855  1.00  0.00    -0.003 C 
ATOM     20  C   UNL     1      27.075   6.426  19.052  1.00  0.00     0.004 C 
ENDBRANCH  18  19
ENDBRANCH  17  18
ENDBRANCH  16  17
ENDBRANCH  15  16
ENDBRANCH  14  15
ENDBRANCH  13  14
ENDBRANCH   2  13
TORSDOF 15
ENDMDL
MODEL 2
REMARK VINA RESULT:    -5.238      1.612      3.850
REMARK INTER + INTRA:         -12.696
REMARK INTER:                  -9.953
REMARK INTRA:                  -2.743
REMARK UNBOUND:                -2.864
REMARK SMILES CCCCCCCCC=CCCCCCCCC(=O)[O-]
REMARK SMILES IDX 10 1 9 2 11 3 12 4 13 5 14 6 15 7 16 8 17 9 18 10 19 11
REMARK SMILES IDX 20 12 8 13 7 14 6 15 5 16 4 17 3 18 2 19 1 20
REMARK H PARENT
REMARK Flexibility Score: inf
ROOT
ATOM      1  C   UNL     1      26.228   3.350  22.266  1.00  0.00    -0.031 C 
ATOM      2  C   UNL     1      25.417   2.628  21.472  1.00  0.00    -0.031 C 
ENDROOT
BRANCH   1   3
ATOM      3  C   UNL     1      26.185   4.853  22.399  1.00  0.00     0.027 C 
BRANCH   3   4
ATOM      4  C   UNL     1      27.420   5.525  21.776  1.00  0.00     0.004 C 
BRANCH   4   5
ATOM      5  C   UNL     1      27.089   6.633  20.760  1.00  0.00     0.000 C 
BRANCH   5   6
ATOM      6  C   UNL     1      26.674   6.078  19.387  1.00  0.00     0.000 C 
BRANCH   6   7
ATOM      7  C   UNL     1      25.223   6.426  19.020  1.00  0.00     0.000 C 
BRANCH   7   8
ATOM      8  C   UNL     1      24.765   7.763  19.622  1.00  0.00     0.006 C 
BRANCH   8   9
ATOM      9  C   UNL     1      23.402   7.618  20.305  1.00  0.00     0.053 C 
BRANCH   9  10
ATOM     10  C   UNL     1      22.956   8.927  20.875  1.00  0.00     0.041 C 
ATOM     11  O   UNL     1      21.780   9.335  20.679  1.00  0.00    -0.550 OA
ATOM     12  O   UNL     1      23.852   9.718  21.586  1.00  0.00    -0.550 OA
ENDBRANCH   9  10
ENDBRANCH   8   9
ENDBRANCH   7   8
ENDBRANCH   6   7
ENDBRANCH   5   6
ENDBRANCH   4   5
ENDBRANCH   3   4
ENDBRANCH   1   3
BRANCH   2  13
ATOM     13  C   UNL     1      24.406   3.215  20.520  1.00  0.00     0.027 C 
BRANCH  13  14
ATOM     14  C   UNL     1      22.981   3.027  21.058  1.00  0.00     0.004 C 
BRANCH  14  15
ATOM     15  C   UNL     1      22.534   4.182  21.973  1.00  0.00     0.000 C 
BRANCH  15  16
ATOM     16  C   UNL     1      22.363   3.808  23.459  1.00  0.00     0.000 C 
BRANCH  16  17
ATOM     17  C   UNL     1      22.826   4.881  24.461  1.00  0.00    -0.000 C 
BRANCH  17  18
ATOM     18  C   UNL     1      22.744   6.306  23.888  1.00  0.00    -0.000 C 
BRANCH  18  19
ATOM     19  C   UNL     1      24.071   7.071  24.017  1.00  0.00    -0.003 C 
ATOM     20  C   UNL     1      24.853   6.694  25.277  1.00  0.00     0.004 C 
ENDBRANCH  18  19
ENDBRANCH  17  18
ENDBRANCH  16  17
ENDBRANCH  15  16
ENDBRANCH  14  15
ENDBRANCH  13  14
ENDBRANCH   2  13
TORSDOF 15
ENDMDL
MODEL 3
REMARK VINA RESULT:    -5.179      2.533      4.958
REMARK INTER + INTRA:         -12.585
REMARK INTER:                 -10.082
REMARK INTRA:                  -2.503
REMARK UNBOUND:                -2.864
REMARK SMILES CCCCCCCCC=CCCCCCCCC(=O)[O-]
REMARK SMILES IDX 10 1 9 2 11 3 12 4 13 5 14 6 15 7 16 8 17 9 18 10 19 11
REMARK SMILES IDX 20 12 8 13 7 14 6 15 5 16 4 17 3 18 2 19 1 20
REMARK H PARENT
REMARK Flexibility Score: inf
ROOT
ATOM      1  C   UNL     1      23.097   9.707  22.127  1.00  0.00    -0.031 C 
ATOM      2  C   UNL     1      24.344  10.161  21.902  1.00  0.00    -0.031 C 
ENDROOT
BRANCH   1   3
ATOM      3  C   UNL     1      22.665   8.270  21.972  1.00  0.00     0.027 C 
BRANCH   3   4
ATOM      4  C   UNL     1      22.536   7.555  23.328  1.00  0.00     0.004 C 
BRANCH   4   5
ATOM      5  C   UNL     1      23.867   7.019  23.886  1.00  0.00     0.000 C 
BRANCH   5   6
ATOM      6  C   UNL     1      23.669   5.978  25.002  1.00  0.00     0.000 C 
BRANCH   6   7
ATOM      7  C   UNL     1      23.006   4.687  24.498  1.00  0.00     0.000 C 
BRANCH   7   8
ATOM      8  C   UNL     1      23.614   4.185  23.180  1.00  0.00     0.006 C 
BRANCH   8   9
ATOM      9  C   UNL     1      22.537   3.575  22.278  1.00  0.00     0.053 C 
BRANCH   9  10
ATOM     10  C   UNL     1      23.161   2.795  21.165  1.00  0.00     0.041 C 
ATOM     11  O   UNL     1      24.411   2.646  21.119  1.00  0.00    -0.550 OA
ATOM     12  O   UNL     1      22.366   2.269  20.152  1.00  0.00    -0.550 OA
ENDBRANCH   9  10
ENDBRANCH   8   9
ENDBRANCH   7   8
ENDBRANCH   6   7
ENDBRANCH   5   6
ENDBRANCH   4   5
ENDBRANCH   3   4
ENDBRANCH   1   3
BRANCH   2  13
ATOM     13  C   UNL     1      25.476   9.321  21.367  1.00  0.00     0.027 C 
BRANCH  13  14
ATOM     14  C   UNL     1      26.672   9.346  22.329  1.00  0.00     0.004 C 
BRANCH  14  15
ATOM     15  C   UNL     1      27.211   7.939  22.644  1.00  0.00     0.000 C 
BRANCH  15  16
ATOM     16  C   UNL     1      27.376   7.015  21.420  1.00  0.00     0.000 C 
BRANCH  16  17
ATOM     17  C   UNL     1      26.435   5.797  21.389  1.00  0.00    -0.000 C 
BRANCH  17  18
ATOM     18  C   UNL     1      25.513   5.788  20.159  1.00  0.00    -0.000 C 
BRANCH  18  19
ATOM     19  C   UNL     1      26.138   6.497  18.947  1.00  0.00    -0.003 C 
ATOM     20  C   UNL     1      25.117   7.295  18.133  1.00  0.00     0.004 C 
ENDBRANCH  18  19
ENDBRANCH  17  18
ENDBRANCH  16  17
ENDBRANCH  15  16
ENDBRANCH  14  15
ENDBRANCH  13  14
ENDBRANCH   2  13
TORSDOF 15
ENDMDL
MODEL 4
REMARK VINA RESULT:    -5.179      2.717      4.672
REMARK INTER + INTRA:         -12.585
REMARK INTER:                 -10.040
REMARK INTRA:                  -2.544
REMARK UNBOUND:                -2.864
REMARK SMILES CCCCCCCCC=CCCCCCCCC(=O)[O-]
REMARK SMILES IDX 10 1 9 2 11 3 12 4 13 5 14 6 15 7 16 8 17 9 18 10 19 11
REMARK SMILES IDX 20 12 8 13 7 14 6 15 5 16 4 17 3 18 2 19 1 20
REMARK H PARENT
REMARK Flexibility Score: inf
ROOT
ATOM      1  C   UNL     1      24.195   6.392  25.218  1.00  0.00    -0.031 C 
ATOM      2  C   UNL     1      23.276   5.432  25.010  1.00  0.00    -0.031 C 
ENDROOT
BRANCH   1   3
ATOM      3  C   UNL     1      25.159   6.900  24.174  1.00  0.00     0.027 C 
BRANCH   3   4
ATOM      4  C   UNL     1      26.619   6.566  24.523  1.00  0.00     0.004 C 
BRANCH   4   5
ATOM      5  C   UNL     1      27.401   5.892  23.380  1.00  0.00     0.000 C 
BRANCH   5   6
ATOM      6  C   UNL     1      26.482   5.210  22.351  1.00  0.00     0.000 C 
BRANCH   6   7
ATOM      7  C   UNL     1      26.639   3.682  22.337  1.00  0.00     0.000 C 
BRANCH   7   8
ATOM      8  C   UNL     1      25.422   2.968  21.730  1.00  0.00     0.006 C 
BRANCH   8   9
ATOM      9  C   UNL     1      24.961   3.668  20.448  1.00  0.00     0.053 C 
BRANCH   9  10
ATOM     10  C   UNL     1      23.759   2.984  19.877  1.00  0.00     0.041 C 
ATOM     11  O   UNL     1      23.595   2.929  18.629  1.00  0.00    -0.550 OA
ATOM     12  O   UNL     1      22.797   2.445  20.724  1.00  0.00    -0.550 OA
ENDBRANCH   9  10
ENDBRANCH   8   9
ENDBRANCH   7   8
ENDBRANCH   6   7
ENDBRANCH   5   6
ENDBRANCH   4   5
ENDBRANCH   3   4
ENDBRANCH   1   3
BRANCH   2  13
ATOM     13  C   UNL     1      23.131   4.649  23.730  1.00  0.00     0.027 C 
BRANCH  13  14
ATOM     14  C   UNL     1      22.343   5.454  22.687  1.00  0.00     0.004 C 
BRANCH  14  15
ATOM     15  C   UNL     1      21.251   6.337  23.319  1.00  0.00     0.000 C 
BRANCH  15  16
ATOM     16  C   UNL     1      21.353   7.839  22.985  1.00  0.00     0.000 C 
BRANCH  16  17
ATOM     17  C   UNL     1      22.455   8.211  21.976  1.00  0.00    -0.000 C 
BRANCH  17  18
ATOM     18  C   UNL     1      23.018   9.624  22.202  1.00  0.00    -0.000 C 
BRANCH  18  19
ATOM     19  C   UNL     1      24.512   9.727  21.852  1.00  0.00    -0.003 C 
ATOM     20  C   UNL     1      25.007   8.548  21.013  1.00  0.00     0.004 C 
ENDBRANCH  18  19
ENDBRANCH  17  18
ENDBRANCH  16  17
ENDBRANCH  15  16
ENDBRANCH  14  15
ENDBRANCH  13  14
ENDBRANCH   2  13
TORSDOF 15
ENDMDL
MODEL 5
REMARK VINA RESULT:    -5.094      2.561      5.653
REMARK INTER + INTRA:         -12.425
REMARK INTER:                  -9.686
REMARK INTRA:                  -2.739
REMARK UNBOUND:                -2.864
REMARK SMILES CCCCCCCCC=CCCCCCCCC(=O)[O-]
REMARK SMILES IDX 10 1 9 2 11 3 12 4 13 5 14 6 15 7 16 8 17 9 18 10 19 11
REMARK SMILES IDX 20 12 8 13 7 14 6 15 5 16 4 17 3 18 2 19 1 20
REMARK H PARENT
REMARK Flexibility Score: inf
ROOT
ATOM      1  C   UNL     1      25.291   5.797  19.236  1.00  0.00    -0.031 C 
ATOM      2  C   UNL     1      24.106   6.432  19.182  1.00  0.00    -0.031 C 
ENDROOT
BRANCH   1   3
ATOM      3  C   UNL     1      26.627   6.447  18.973  1.00  0.00     0.027 C 
BRANCH   3   4
ATOM      4  C   UNL     1      27.558   6.371  20.195  1.00  0.00     0.004 C 
BRANCH   4   5
ATOM      5  C   UNL     1      27.045   7.141  21.426  1.00  0.00     0.000 C 
BRANCH   5   6
ATOM      6  C   UNL     1      26.817   6.231  22.646  1.00  0.00     0.000 C 
BRANCH   6   7
ATOM      7  C   UNL     1      26.964   4.739  22.309  1.00  0.00     0.000 C 
BRANCH   7   8
ATOM      8  C   UNL     1      25.664   3.952  22.532  1.00  0.00     0.006 C 
BRANCH   8   9
ATOM      9  C   UNL     1      25.525   2.823  21.507  1.00  0.00     0.053 C 
BRANCH   9  10
ATOM     10  C   UNL     1      24.123   2.750  20.989  1.00  0.00     0.041 C 
ATOM     11  O   UNL     1      23.155   3.043  21.739  1.00  0.00    -0.550 OA
ATOM     12  O   UNL     1      23.883   2.314  19.690  1.00  0.00    -0.550 OA
ENDBRANCH   9  10
ENDBRANCH   8   9
ENDBRANCH   7   8
ENDBRANCH   6   7
ENDBRANCH   5   6
ENDBRANCH   4   5
ENDBRANCH   3   4
ENDBRANCH   1   3
BRANCH   2  13
ATOM     13  C   UNL     1      23.923   7.867  18.758  1.00  0.00     0.027 C 
BRANCH  13  14
ATOM     14  C   UNL     1      23.029   8.618  19.755  1.00  0.00     0.004 C 
BRANCH  14  15
ATOM     15  C   UNL     1      23.724   8.867  21.106  1.00  0.00     0.000 C 
BRANCH  15  16
ATOM     16  C   UNL     1      22.771   9.136  22.289  1.00  0.00     0.000 C 
BRANCH  16  17
ATOM     17  C   UNL     1      22.236   7.877  22.996  1.00  0.00    -0.000 C 
BRANCH  17  18
ATOM     18  C   UNL     1      23.274   6.745  23.066  1.00  0.00    -0.000 C 
BRANCH  18  19
ATOM     19  C   UNL     1      23.521   6.259  24.503  1.00  0.00    -0.003 C 
ATOM     20  C   UNL     1      22.800   4.946  24.817  1.00  0.00     0.004 C 
ENDBRANCH  18  19
ENDBRANCH  17  18
ENDBRANCH  16  17
ENDBRANCH  15  16
ENDBRANCH  14  15
ENDBRANCH  13  14
ENDBRANCH   2  13
TORSDOF 15
ENDMDL
MODEL 6
REMARK VINA RESULT:    -5.090      2.800      5.691
REMARK INTER + INTRA:         -12.418
REMARK INTER:                  -9.665
REMARK INTRA:                  -2.752
REMARK UNBOUND:                -2.864
REMARK SMILES CCCCCCCCC=CCCCCCCCC(=O)[O-]
REMARK SMILES IDX 10 1 9 2 11 3 12 4 13 5 14 6 15 7 16 8 17 9 18 10 19 11
REMARK SMILES IDX 20 12 8 13 7 14 6 15 5 16 4 17 3 18 2 19 1 20
REMARK H PARENT
REMARK Flexibility Score: inf
ROOT
ATOM      1  C   UNL     1      27.754   6.528  20.856  1.00  0.00    -0.031 C 
ATOM      2  C   UNL     1      27.306   6.376  19.596  1.00  0.00    -0.031 C 
ENDROOT
BRANCH   1   3
ATOM      3  C   UNL     1      27.011   6.081  22.091  1.00  0.00     0.027 C 
BRANCH   3   4
ATOM      4  C   UNL     1      27.713   4.908  22.795  1.00  0.00     0.004 C 
BRANCH   4   5
ATOM      5  C   UNL     1      27.000   3.554  22.625  1.00  0.00     0.000 C 
BRANCH   5   6
ATOM      6  C   UNL     1      25.471   3.694  22.522  1.00  0.00     0.000 C 
BRANCH   6   7
ATOM      7  C   UNL     1      24.897   3.019  21.267  1.00  0.00     0.000 C 
BRANCH   7   8
ATOM      8  C   UNL     1      23.499   3.543  20.902  1.00  0.00     0.006 C 
BRANCH   8   9
ATOM      9  C   UNL     1      22.660   2.445  20.240  1.00  0.00     0.053 C 
BRANCH   9  10
ATOM     10  C   UNL     1      22.417   2.765  18.799  1.00  0.00     0.041 C 
ATOM     11  O   UNL     1      21.479   2.202  18.175  1.00  0.00    -0.550 OA
ATOM     12  O   UNL     1      23.255   3.652  18.132  1.00  0.00    -0.550 OA
ENDBRANCH   9  10
ENDBRANCH   8   9
ENDBRANCH   7   8
ENDBRANCH   6   7
ENDBRANCH   5   6
ENDBRANCH   4   5
ENDBRANCH   3   4
ENDBRANCH   1   3
BRANCH   2  13
ATOM     13  C   UNL     1      25.951   5.825  19.230  1.00  0.00     0.027 C 
BRANCH  13  14
ATOM     14  C   UNL     1      25.154   6.846  18.406  1.00  0.00     0.004 C 
BRANCH  14  15
ATOM     15  C   UNL     1      24.404   7.864  19.284  1.00  0.00     0.000 C 
BRANCH  15  16
ATOM     16  C   UNL     1      23.474   7.246  20.348  1.00  0.00     0.000 C 
BRANCH  16  17
ATOM     17  C   UNL     1      23.614   7.839  21.762  1.00  0.00    -0.000 C 
BRANCH  17  18
ATOM     18  C   UNL     1      23.327   6.812  22.870  1.00  0.00    -0.000 C 
BRANCH  18  19
ATOM     19  C   UNL     1      24.255   6.979  24.084  1.00  0.00    -0.003 C 
ATOM     20  C   UNL     1      23.926   6.008  25.220  1.00  0.00     0.004 C 
ENDBRANCH  18  19
ENDBRANCH  17  18
ENDBRANCH  16  17
ENDBRANCH  15  16
ENDBRANCH  14  15
ENDBRANCH  13  14
ENDBRANCH   2  13
TORSDOF 15
ENDMDL
MODEL 7
REMARK VINA RESULT:    -5.081      2.086      4.907
REMARK INTER + INTRA:         -12.401
REMARK INTER:                  -9.485
REMARK INTRA:                  -2.916
REMARK UNBOUND:                -2.864
REMARK SMILES CCCCCCCCC=CCCCCCCCC(=O)[O-]
REMARK SMILES IDX 10 1 9 2 11 3 12 4 13 5 14 6 15 7 16 8 17 9 18 10 19 11
REMARK SMILES IDX 20 12 8 13 7 14 6 15 5 16 4 17 3 18 2 19 1 20
REMARK H PARENT
REMARK Flexibility Score: inf
ROOT
ATOM      1  C   UNL     1      25.377   6.944  25.464  1.00  0.00    -0.031 C 
ATOM      2  C   UNL     1      26.602   7.034  24.913  1.00  0.00    -0.031 C 
ENDROOT
BRANCH   1   3
ATOM      3  C   UNL     1      24.336   5.921  25.080  1.00  0.00     0.027 C 
BRANCH   3   4
ATOM      4  C   UNL     1      23.320   6.482  24.070  1.00  0.00     0.004 C 
BRANCH   4   5
ATOM      5  C   UNL     1      23.233   5.685  22.756  1.00  0.00     0.000 C 
BRANCH   5   6
ATOM      6  C   UNL     1      23.583   4.197  22.937  1.00  0.00     0.000 C 
BRANCH   6   7
ATOM      7  C   UNL     1      24.886   3.803  22.225  1.00  0.00     0.000 C 
BRANCH   7   8
ATOM      8  C   UNL     1      24.672   3.466  20.742  1.00  0.00     0.006 C 
BRANCH   8   9
ATOM      9  C   UNL     1      25.131   4.620  19.847  1.00  0.00     0.053 C 
BRANCH   9  10
ATOM     10  C   UNL     1      24.070   4.969  18.851  1.00  0.00     0.041 C 
ATOM     11  O   UNL     1      24.123   6.062  18.227  1.00  0.00    -0.550 OA
ATOM     12  O   UNL     1      22.999   4.107  18.644  1.00  0.00    -0.550 OA
ENDBRANCH   9  10
ENDBRANCH   8   9
ENDBRANCH   7   8
ENDBRANCH   6   7
ENDBRANCH   5   6
ENDBRANCH   4   5
ENDBRANCH   3   4
ENDBRANCH   1   3
BRANCH   2  13
ATOM     13  C   UNL     1      27.087   6.191  23.762  1.00  0.00     0.027 C 
BRANCH  13  14
ATOM     14  C   UNL     1      26.787   6.877  22.422  1.00  0.00     0.004 C 
BRANCH  14  15
ATOM     15  C   UNL     1      26.801   8.413  22.524  1.00  0.00     0.000 C 
BRANCH  15  16
ATOM     16  C   UNL     1      25.553   9.117  21.953  1.00  0.00     0.000 C 
BRANCH  16  17
ATOM     17  C   UNL     1      24.859   8.378  20.794  1.00  0.00    -0.000 C 
BRANCH  17  18
ATOM     18  C   UNL     1      23.378   8.761  20.645  1.00  0.00    -0.000 C 
BRANCH  18  19
ATOM     19  C   UNL     1      22.923   9.783  21.701  1.00  0.00    -0.003 C 
ATOM     20  C   UNL     1      21.655   9.349  22.438  1.00  0.00     0.004 C 
ENDBRANCH  18  19
ENDBRANCH  17  18
ENDBRANCH  16  17
ENDBRANCH  15  16
ENDBRANCH  14  15
ENDBRANCH  13  14
ENDBRANCH   2  13
TORSDOF 15
ENDMDL
MODEL 8
REMARK VINA RESULT:    -5.074      2.592      5.043
REMARK INTER + INTRA:         -12.388
REMARK INTER:                  -9.570
REMARK INTRA:                  -2.818
REMARK UNBOUND:                -2.864
REMARK SMILES CCCCCCCCC=CCCCCCCCC(=O)[O-]
REMARK SMILES IDX 10 1 9 2 11 3 12 4 13 5 14 6 15 7 16 8 17 9 18 10 19 11
REMARK SMILES IDX 20 12 8 13 7 14 6 15 5 16 4 17 3 18 2 19 1 20
REMARK H PARENT
REMARK Flexibility Score: inf
ROOT
ATOM      1  C   UNL     1      23.479   8.895  22.099  1.00  0.00    -0.031 C 
ATOM      2  C   UNL     1      23.747   9.024  20.787  1.00  0.00    -0.031 C 
ENDROOT
BRANCH   1   3
ATOM      3  C   UNL     1      22.249   8.225  22.662  1.00  0.00     0.027 C 
BRANCH   3   4
ATOM      4  C   UNL     1      22.598   6.981  23.496  1.00  0.00     0.004 C 
BRANCH   4   5
ATOM      5  C   UNL     1      24.105   6.799  23.755  1.00  0.00     0.000 C 
BRANCH   5   6
ATOM      6  C   UNL     1      24.610   5.397  23.373  1.00  0.00     0.000 C 
BRANCH   6   7
ATOM      7  C   UNL     1      23.761   4.739  22.274  1.00  0.00     0.000 C 
BRANCH   7   8
ATOM      8  C   UNL     1      24.290   3.356  21.866  1.00  0.00     0.006 C 
BRANCH   8   9
ATOM      9  C   UNL     1      24.786   3.366  20.417  1.00  0.00     0.053 C 
BRANCH   9  10
ATOM     10  C   UNL     1      23.691   2.958  19.483  1.00  0.00     0.041 C 
ATOM     11  O   UNL     1      23.539   3.557  18.385  1.00  0.00    -0.550 OA
ATOM     12  O   UNL     1      22.809   1.946  19.844  1.00  0.00    -0.550 OA
ENDBRANCH   9  10
ENDBRANCH   8   9
ENDBRANCH   7   8
ENDBRANCH   6   7
ENDBRANCH   5   6
ENDBRANCH   4   5
ENDBRANCH   3   4
ENDBRANCH   1   3
BRANCH   2  13
ATOM     13  C   UNL     1      22.816   8.607  19.678  1.00  0.00     0.027 C 
BRANCH  13  14
ATOM     14  C   UNL     1      23.584   7.870  18.572  1.00  0.00     0.004 C 
BRANCH  14  15
ATOM     15  C   UNL     1      24.552   6.808  19.127  1.00  0.00     0.000 C 
BRANCH  15  16
ATOM     16  C   UNL     1      25.875   6.662  18.348  1.00  0.00     0.000 C 
BRANCH  16  17
ATOM     17  C   UNL     1      27.114   6.370  19.214  1.00  0.00    -0.000 C 
BRANCH  17  18
ATOM     18  C   UNL     1      26.797   6.343  20.719  1.00  0.00    -0.000 C 
BRANCH  18  19
ATOM     19  C   UNL     1      27.811   7.144  21.551  1.00  0.00    -0.003 C 
ATOM     20  C   UNL     1      27.181   8.345  22.258  1.00  0.00     0.004 C 
ENDBRANCH  18  19
ENDBRANCH  17  18
ENDBRANCH  16  17
ENDBRANCH  15  16
ENDBRANCH  14  15
ENDBRANCH  13  14
ENDBRANCH   2  13
TORSDOF 15
ENDMDL
MODEL 9
REMARK VINA RESULT:    -5.057      1.476      2.016
REMARK INTER + INTRA:         -12.356
REMARK INTER:                  -9.492
REMARK INTRA:                  -2.864
REMARK UNBOUND:                -2.864
REMARK SMILES CCCCCCCCC=CCCCCCCCC(=O)[O-]
REMARK SMILES IDX 10 1 9 2 11 3 12 4 13 5 14 6 15 7 16 8 17 9 18 10 19 11
REMARK SMILES IDX 20 12 8 13 7 14 6 15 5 16 4 17 3 18 2 19 1 20
REMARK H PARENT
REMARK Flexibility Score: inf
ROOT
ATOM      1  C   UNL     1      24.822   6.862  24.851  1.00  0.00    -0.031 C 
ATOM      2  C   UNL     1      23.628   6.243  24.809  1.00  0.00    -0.031 C 
ENDROOT
BRANCH   1   3
ATOM      3  C   UNL     1      26.065   6.381  24.143  1.00  0.00     0.027 C 
BRANCH   3   4
ATOM      4  C   UNL     1      26.763   7.511  23.369  1.00  0.00     0.004 C 
BRANCH   4   5
ATOM      5  C   UNL     1      26.690   7.365  21.838  1.00  0.00     0.000 C 
BRANCH   5   6
ATOM      6  C   UNL     1      25.626   8.277  21.202  1.00  0.00     0.000 C 
BRANCH   6   7
ATOM      7  C   UNL     1      25.479   9.619  21.936  1.00  0.00     0.000 C 
BRANCH   7   8
ATOM      8  C   UNL     1      24.033  10.136  21.940  1.00  0.00     0.006 C 
BRANCH   8   9
ATOM      9  C   UNL     1      23.037   8.973  21.994  1.00  0.00     0.053 C 
BRANCH   9  10
ATOM     10  C   UNL     1      21.992   9.125  20.934  1.00  0.00     0.041 C 
ATOM     11  O   UNL     1      20.786   9.298  21.255  1.00  0.00    -0.550 OA
ATOM     12  O   UNL     1      22.343   9.030  19.592  1.00  0.00    -0.550 OA
ENDBRANCH   9  10
ENDBRANCH   8   9
ENDBRANCH   7   8
ENDBRANCH   6   7
ENDBRANCH   5   6
ENDBRANCH   4   5
ENDBRANCH   3   4
ENDBRANCH   1   3
BRANCH   2  13
ATOM     13  C   UNL     1      23.372   4.923  24.127  1.00  0.00     0.027 C 
BRANCH  13  14
ATOM     14  C   UNL     1      21.915   4.832  23.652  1.00  0.00     0.004 C 
BRANCH  14  15
ATOM     15  C   UNL     1      21.740   5.261  22.184  1.00  0.00     0.000 C 
BRANCH  15  16
ATOM     16  C   UNL     1      23.034   5.260  21.345  1.00  0.00     0.000 C 
BRANCH  16  17
ATOM     17  C   UNL     1      23.111   4.168  20.263  1.00  0.00    -0.000 C 
BRANCH  17  18
ATOM     18  C   UNL     1      24.478   3.465  20.222  1.00  0.00    -0.000 C 
BRANCH  18  19
ATOM     19  C   UNL     1      25.499   4.103  21.180  1.00  0.00    -0.003 C 
ATOM     20  C   UNL     1      26.033   3.116  22.220  1.00  0.00     0.004 C 
ENDBRANCH  18  19
ENDBRANCH  17  18
ENDBRANCH  16  17
ENDBRANCH  15  16
ENDBRANCH  14  15
ENDBRANCH  13  14
ENDBRANCH   2  13
TORSDOF 15
ENDMDL
