MODEL 1
REMARK VINA RESULT:    -6.874      0.000      0.000
REMARK INTER + INTRA:         -13.390
REMARK INTER:                 -11.897
REMARK INTRA:                  -1.493
REMARK UNBOUND:                -1.493
REMARK SMILES OC[C@@H]1O[C@@H](O[C@@H]2[C@H](O)[C@@H](O)[C@H](O[C@@H]3[C@H](O)[C@@H](O)[C@H](O)O[C@H]3CO)O[C@@H]2CO)[C@H](O)[C@@H](O)[C@@H]1O
REMARK SMILES IDX 7 1 26 2 25 3 12 4 10 5 8 6 6 7 5 8 3 9 33 10 4 11 31 12
REMARK SMILES IDX 29 13 2 14 1 15 34 17 32 19 30 21 27 23 28 24 9 26 11 28
REMARK SMILES IDX 13 30 14 31 22 32 15 33 21 34 17 35 19 36 23 37 24 38 16 40
REMARK SMILES IDX 18 42 20 44
REMARK H PARENT 1 16 34 18 32 20 30 22 28 25 9 27 11 29 24 39 16 41 18 43
REMARK H PARENT 20 45
REMARK Flexibility Score: inf
ROOT
ATOM      1  C   UNL     1      15.251  -9.929  14.921  1.00  0.00     0.184 C 
ATOM      2  C   UNL     1      15.765  -8.779  14.003  1.00  0.00     0.178 C 
ATOM      3  O   UNL     1      16.473  -7.802  14.755  1.00  0.00    -0.341 OA
ATOM      4  C   UNL     1      17.662  -8.349  15.303  1.00  0.00     0.282 C 
ATOM      5  C   UNL     1      17.307  -9.387  16.382  1.00  0.00     0.202 C 
ATOM      6  C   UNL     1      16.400 -10.502  15.794  1.00  0.00     0.180 C 
ENDROOT
BRANCH   1   7
ATOM      7  O   UNL     1      14.024  -9.738  15.632  1.00  0.00    -0.341 OA
BRANCH   7   8
ATOM      8  C   UNL     1      12.809 -10.012  14.944  1.00  0.00     0.282 C 
ATOM      9  C   UNL     1      10.793  -9.014  14.179  1.00  0.00     0.178 C 
ATOM     10  C   UNL     1      10.169 -10.462  14.132  1.00  0.00     0.177 C 
ATOM     11  O   UNL     1      12.042  -8.832  14.842  1.00  0.00    -0.341 OA
ATOM     12  C   UNL     1      10.815 -11.532  15.059  1.00  0.00     0.179 C 
ATOM     13  C   UNL     1      12.031 -11.000  15.818  1.00  0.00     0.202 C 
BRANCH   9  14
ATOM     14  C   UNL     1      10.831  -8.313  12.809  1.00  0.00     0.191 C 
BRANCH  14  15
ATOM     15  O   UNL     1      11.331  -7.010  12.941  1.00  0.00    -0.394 OA
ATOM     16  H   UNL     1      11.037  -6.694  13.840  1.00  0.00     0.210 HD
ENDBRANCH  14  15
ENDBRANCH   9  14
BRANCH  10  17
ATOM     17  O   UNL     1      10.186 -10.959  12.813  1.00  0.00    -0.387 OA
ATOM     18  H   UNL     1      11.091 -10.772  12.445  1.00  0.00     0.211 HD
ENDBRANCH  10  17
BRANCH  12  19
ATOM     19  O   UNL     1       9.875 -12.024  15.977  1.00  0.00    -0.387 OA
ATOM     20  H   UNL     1      10.306 -12.789  16.440  1.00  0.00     0.211 HD
ENDBRANCH  12  19
BRANCH  13  21
ATOM     21  O   UNL     1      12.834 -12.061  16.275  1.00  0.00    -0.385 OA
ATOM     22  H   UNL     1      12.914 -11.990  17.263  1.00  0.00     0.211 HD
ENDBRANCH  13  21
ENDBRANCH   7   8
ENDBRANCH   1   7
BRANCH   2  23
ATOM     23  C   UNL     1      14.670  -8.142  13.106  1.00  0.00     0.191 C 
BRANCH  23  24
ATOM     24  O   UNL     1      14.267  -6.872  13.566  1.00  0.00    -0.394 OA
ATOM     25  H   UNL     1      14.862  -6.641  14.317  1.00  0.00     0.210 HD
ENDBRANCH  23  24
ENDBRANCH   2  23
BRANCH   6  26
ATOM     26  O   UNL     1      15.906 -11.359  16.791  1.00  0.00    -0.387 OA
ATOM     27  H   UNL     1      16.310 -11.103  17.660  1.00  0.00     0.211 HD
ENDBRANCH   6  26
BRANCH   5  28
ATOM     28  O   UNL     1      18.470  -9.935  16.937  1.00  0.00    -0.385 OA
ATOM     29  H   UNL     1      18.303 -10.111  17.905  1.00  0.00     0.211 HD
ENDBRANCH   5  28
BRANCH   4  30
ATOM     30  O   UNL     1      18.412  -7.307  15.912  1.00  0.00    -0.341 OA
BRANCH  30  31
ATOM     31  C   UNL     1      19.378  -6.754  15.022  1.00  0.00     0.184 C 
ATOM     32  C   UNL     1      19.362  -5.209  15.127  1.00  0.00     0.178 C 
ATOM     33  C   UNL     1      20.763  -7.287  15.390  1.00  0.00     0.180 C 
ATOM     34  O   UNL     1      19.692  -4.789  16.439  1.00  0.00    -0.342 OA
ATOM     35  C   UNL     1      21.215  -6.732  16.756  1.00  0.00     0.201 C 
ATOM     36  C   UNL     1      20.997  -5.200  16.852  1.00  0.00     0.279 C 
BRANCH  32  37
ATOM     37  C   UNL     1      20.196  -4.516  14.027  1.00  0.00     0.191 C 
BRANCH  37  38
ATOM     38  O   UNL     1      20.327  -3.147  14.301  1.00  0.00    -0.394 OA
ATOM     39  H   UNL     1      19.673  -2.935  15.019  1.00  0.00     0.210 HD
ENDBRANCH  37  38
ENDBRANCH  32  37
BRANCH  33  40
ATOM     40  O   UNL     1      20.706  -8.694  15.432  1.00  0.00    -0.387 OA
ATOM     41  H   UNL     1      20.513  -9.006  14.507  1.00  0.00     0.211 HD
ENDBRANCH  33  40
BRANCH  35  42
ATOM     42  O   UNL     1      22.585  -7.008  16.940  1.00  0.00    -0.385 OA
ATOM     43  H   UNL     1      22.840  -6.629  17.822  1.00  0.00     0.211 HD
ENDBRANCH  35  42
BRANCH  36  44
ATOM     44  O   UNL     1      21.202  -4.786  18.183  1.00  0.00    -0.366 OA
ATOM     45  H   UNL     1      22.115  -5.098  18.441  1.00  0.00     0.213 HD
ENDBRANCH  36  44
ENDBRANCH  30  31
ENDBRANCH   4  30
TORSDOF 18
ENDMDL
MODEL 2
REMARK VINA RESULT:    -6.173      2.119      4.685
REMARK INTER + INTRA:         -12.177
REMARK INTER:                 -11.219
REMARK INTRA:                  -0.957
REMARK UNBOUND:                -1.493
REMARK SMILES OC[C@@H]1O[C@@H](O[C@@H]2[C@H](O)[C@@H](O)[C@H](O[C@@H]3[C@H](O)[C@@H](O)[C@H](O)O[C@H]3CO)O[C@@H]2CO)[C@H](O)[C@@H](O)[C@@H]1O
REMARK SMILES IDX 7 1 26 2 25 3 12 4 10 5 8 6 6 7 5 8 3 9 33 10 4 11 31 12
REMARK SMILES IDX 29 13 2 14 1 15 34 17 32 19 30 21 27 23 28 24 9 26 11 28
REMARK SMILES IDX 13 30 14 31 22 32 15 33 21 34 17 35 19 36 23 37 24 38 16 40
REMARK SMILES IDX 18 42 20 44
REMARK H PARENT 1 16 34 18 32 20 30 22 28 25 9 27 11 29 24 39 16 41 18 43
REMARK H PARENT 20 45
REMARK Flexibility Score: inf
ROOT
ATOM      1  C   UNL     1      17.912  -7.132  15.377  1.00  0.00     0.184 C 
ATOM      2  C   UNL     1      19.085  -7.972  15.968  1.00  0.00     0.178 C 
ATOM      3  O   UNL     1      20.269  -7.809  15.198  1.00  0.00    -0.341 OA
ATOM      4  C   UNL     1      20.742  -6.473  15.276  1.00  0.00     0.282 C 
ATOM      5  C   UNL     1      19.761  -5.532  14.556  1.00  0.00     0.202 C 
ATOM      6  C   UNL     1      18.336  -5.655  15.163  1.00  0.00     0.180 C 
ENDROOT
BRANCH   1   7
ATOM      7  O   UNL     1      17.158  -7.681  14.292  1.00  0.00    -0.341 OA
BRANCH   7   8
ATOM      8  C   UNL     1      15.969  -8.397  14.605  1.00  0.00     0.282 C 
ATOM      9  C   UNL     1      14.957 -10.543  14.490  1.00  0.00     0.178 C 
ATOM     10  C   UNL     1      13.561  -9.823  14.622  1.00  0.00     0.177 C 
ATOM     11  O   UNL     1      16.112  -9.749  14.229  1.00  0.00    -0.341 OA
ATOM     12  C   UNL     1      13.497  -8.335  14.172  1.00  0.00     0.179 C 
ATOM     13  C   UNL     1      14.858  -7.788  13.743  1.00  0.00     0.202 C 
BRANCH   9  14
ATOM     14  C   UNL     1      15.257 -11.524  15.639  1.00  0.00     0.191 C 
BRANCH  14  15
ATOM     15  O   UNL     1      15.574 -10.823  16.810  1.00  0.00    -0.394 OA
ATOM     16  H   UNL     1      16.345 -10.234  16.577  1.00  0.00     0.210 HD
ENDBRANCH  14  15
ENDBRANCH   9  14
BRANCH  10  17
ATOM     17  O   UNL     1      13.096  -9.898  15.950  1.00  0.00    -0.387 OA
ATOM     18  H   UNL     1      13.492 -10.717  16.351  1.00  0.00     0.211 HD
ENDBRANCH  10  17
BRANCH  12  19
ATOM     19  O   UNL     1      12.582  -8.174  13.121  1.00  0.00    -0.387 OA
ATOM     20  H   UNL     1      11.686  -8.083  13.537  1.00  0.00     0.211 HD
ENDBRANCH  12  19
BRANCH  13  21
ATOM     21  O   UNL     1      14.862  -6.382  13.776  1.00  0.00    -0.385 OA
ATOM     22  H   UNL     1      14.580  -6.046  12.885  1.00  0.00     0.211 HD
ENDBRANCH  13  21
ENDBRANCH   7   8
ENDBRANCH   1   7
BRANCH   2  23
ATOM     23  C   UNL     1      18.744  -9.469  16.199  1.00  0.00     0.191 C 
BRANCH  23  24
ATOM     24  O   UNL     1      18.881 -10.242  15.028  1.00  0.00    -0.394 OA
ATOM     25  H   UNL     1      19.803 -10.105  14.705  1.00  0.00     0.210 HD
ENDBRANCH  23  24
ENDBRANCH   2  23
BRANCH   6  26
ATOM     26  O   UNL     1      17.381  -4.953  14.411  1.00  0.00    -0.387 OA
ATOM     27  H   UNL     1      17.634  -3.993  14.391  1.00  0.00     0.211 HD
ENDBRANCH   6  26
BRANCH   5  28
ATOM     28  O   UNL     1      20.214  -4.209  14.620  1.00  0.00    -0.385 OA
ATOM     29  H   UNL     1      19.501  -3.614  14.253  1.00  0.00     0.211 HD
ENDBRANCH   5  28
BRANCH   4  30
ATOM     30  O   UNL     1      22.002  -6.391  14.625  1.00  0.00    -0.341 OA
BRANCH  30  31
ATOM     31  C   UNL     1      22.718  -5.215  14.992  1.00  0.00     0.184 C 
ATOM     32  C   UNL     1      22.542  -4.945  16.506  1.00  0.00     0.178 C 
ATOM     33  C   UNL     1      24.200  -5.407  14.665  1.00  0.00     0.180 C 
ATOM     34  O   UNL     1      23.055  -6.021  17.273  1.00  0.00    -0.342 OA
ATOM     35  C   UNL     1      24.826  -6.475  15.584  1.00  0.00     0.201 C 
ATOM     36  C   UNL     1      24.453  -6.242  17.070  1.00  0.00     0.279 C 
BRANCH  32  37
ATOM     37  C   UNL     1      23.075  -3.564  16.944  1.00  0.00     0.191 C 
BRANCH  37  38
ATOM     38  O   UNL     1      22.175  -2.552  16.578  1.00  0.00    -0.394 OA
ATOM     39  H   UNL     1      22.197  -2.495  15.586  1.00  0.00     0.210 HD
ENDBRANCH  37  38
ENDBRANCH  32  37
BRANCH  33  40
ATOM     40  O   UNL     1      24.315  -5.797  13.316  1.00  0.00    -0.387 OA
ATOM     41  H   UNL     1      23.392  -5.865  12.951  1.00  0.00     0.211 HD
ENDBRANCH  33  40
BRANCH  35  42
ATOM     42  O   UNL     1      26.229  -6.434  15.456  1.00  0.00    -0.385 OA
ATOM     43  H   UNL     1      26.547  -7.374  15.453  1.00  0.00     0.211 HD
ENDBRANCH  35  42
BRANCH  36  44
ATOM     44  O   UNL     1      24.848  -7.363  17.827  1.00  0.00    -0.366 OA
ATOM     45  H   UNL     1      24.945  -8.121  17.184  1.00  0.00     0.213 HD
ENDBRANCH  36  44
ENDBRANCH  30  31
ENDBRANCH   4  30
TORSDOF 18
ENDMDL
MODEL 3
REMARK VINA RESULT:    -5.975      2.745     10.104
REMARK INTER + INTRA:         -11.834
REMARK INTER:                 -10.805
REMARK INTRA:                  -1.029
REMARK UNBOUND:                -1.493
REMARK SMILES OC[C@@H]1O[C@@H](O[C@@H]2[C@H](O)[C@@H](O)[C@H](O[C@@H]3[C@H](O)[C@@H](O)[C@H](O)O[C@H]3CO)O[C@@H]2CO)[C@H](O)[C@@H](O)[C@@H]1O
REMARK SMILES IDX 7 1 26 2 25 3 12 4 10 5 8 6 6 7 5 8 3 9 33 10 4 11 31 12
REMARK SMILES IDX 29 13 2 14 1 15 34 17 32 19 30 21 27 23 28 24 9 26 11 28
REMARK SMILES IDX 13 30 14 31 22 32 15 33 21 34 17 35 19 36 23 37 24 38 16 40
REMARK SMILES IDX 18 42 20 44
REMARK H PARENT 1 16 34 18 32 20 30 22 28 25 9 27 11 29 24 39 16 41 18 43
REMARK H PARENT 20 45
REMARK Flexibility Score: inf
ROOT
ATOM      1  C   UNL     1      20.746  -4.674  16.040  1.00  0.00     0.184 C 
ATOM      2  C   UNL     1      19.622  -4.837  14.973  1.00  0.00     0.178 C 
ATOM      3  O   UNL     1      19.365  -6.209  14.706  1.00  0.00    -0.341 OA
ATOM      4  C   UNL     1      18.835  -6.857  15.852  1.00  0.00     0.282 C 
ATOM      5  C   UNL     1      19.913  -6.940  16.947  1.00  0.00     0.202 C 
ATOM      6  C   UNL     1      20.446  -5.525  17.303  1.00  0.00     0.180 C 
ENDROOT
BRANCH   1   7
ATOM      7  O   UNL     1      22.110  -4.738  15.610  1.00  0.00    -0.341 OA
BRANCH   7   8
ATOM      8  C   UNL     1      23.113  -4.296  16.518  1.00  0.00     0.282 C 
ATOM      9  C   UNL     1      24.665  -2.544  16.927  1.00  0.00     0.178 C 
ATOM     10  C   UNL     1      25.461  -3.549  17.846  1.00  0.00     0.177 C 
ATOM     11  O   UNL     1      23.636  -3.059  16.085  1.00  0.00    -0.341 OA
ATOM     12  C   UNL     1      25.265  -5.065  17.556  1.00  0.00     0.179 C 
ATOM     13  C   UNL     1      24.242  -5.329  16.451  1.00  0.00     0.202 C 
BRANCH   9  14
ATOM     14  C   UNL     1      24.143  -1.304  17.676  1.00  0.00     0.191 C 
BRANCH  14  15
ATOM     15  O   UNL     1      25.167  -0.729  18.442  1.00  0.00    -0.394 OA
ATOM     16  H   UNL     1      24.735  -0.012  18.983  1.00  0.00     0.210 HD
ENDBRANCH  14  15
ENDBRANCH   9  14
BRANCH  10  17
ATOM     17  O   UNL     1      25.152  -3.320  19.202  1.00  0.00    -0.387 OA
ATOM     18  H   UNL     1      24.230  -3.661  19.352  1.00  0.00     0.211 HD
ENDBRANCH  10  17
BRANCH  12  19
ATOM     19  O   UNL     1      26.485  -5.665  17.210  1.00  0.00    -0.387 OA
ATOM     20  H   UNL     1      26.268  -6.569  16.864  1.00  0.00     0.211 HD
ENDBRANCH  12  19
BRANCH  13  21
ATOM     21  O   UNL     1      23.766  -6.651  16.520  1.00  0.00    -0.385 OA
ATOM     22  H   UNL     1      23.054  -6.692  17.210  1.00  0.00     0.211 HD
ENDBRANCH  13  21
ENDBRANCH   7   8
ENDBRANCH   1   7
BRANCH   2  23
ATOM     23  C   UNL     1      19.857  -4.025  13.670  1.00  0.00     0.191 C 
BRANCH  23  24
ATOM     24  O   UNL     1      20.945  -3.136  13.778  1.00  0.00    -0.394 OA
ATOM     25  H   UNL     1      20.700  -2.470  14.463  1.00  0.00     0.210 HD
ENDBRANCH  23  24
ENDBRANCH   2  23
BRANCH   6  26
ATOM     26  O   UNL     1      21.557  -5.580  18.159  1.00  0.00    -0.387 OA
ATOM     27  H   UNL     1      21.846  -4.654  18.367  1.00  0.00     0.211 HD
ENDBRANCH   6  26
BRANCH   5  28
ATOM     28  O   UNL     1      19.407  -7.580  18.086  1.00  0.00    -0.385 OA
ATOM     29  H   UNL     1      18.963  -8.427  17.799  1.00  0.00     0.211 HD
ENDBRANCH   5  28
BRANCH   4  30
ATOM     30  O   UNL     1      18.450  -8.178  15.500  1.00  0.00    -0.341 OA
BRANCH  30  31
ATOM     31  C   UNL     1      17.053  -8.393  15.678  1.00  0.00     0.184 C 
ATOM     32  C   UNL     1      16.378  -8.621  14.304  1.00  0.00     0.178 C 
ATOM     33  C   UNL     1      16.844  -9.617  16.571  1.00  0.00     0.180 C 
ATOM     34  O   UNL     1      16.913  -9.766  13.662  1.00  0.00    -0.342 OA
ATOM     35  C   UNL     1      17.286 -10.904  15.845  1.00  0.00     0.201 C 
ATOM     36  C   UNL     1      16.718 -10.972  14.404  1.00  0.00     0.279 C 
BRANCH  32  37
ATOM     37  C   UNL     1      14.835  -8.617  14.375  1.00  0.00     0.191 C 
BRANCH  37  38
ATOM     38  O   UNL     1      14.292  -8.076  13.200  1.00  0.00    -0.394 OA
ATOM     39  H   UNL     1      15.058  -7.838  12.614  1.00  0.00     0.210 HD
ENDBRANCH  37  38
ENDBRANCH  32  37
BRANCH  33  40
ATOM     40  O   UNL     1      17.591  -9.444  17.752  1.00  0.00    -0.387 OA
ATOM     41  H   UNL     1      17.152  -9.988  18.460  1.00  0.00     0.211 HD
ENDBRANCH  33  40
BRANCH  35  42
ATOM     42  O   UNL     1      16.831 -12.026  16.566  1.00  0.00    -0.385 OA
ATOM     43  H   UNL     1      16.813 -11.766  17.523  1.00  0.00     0.211 HD
ENDBRANCH  35  42
BRANCH  36  44
ATOM     44  O   UNL     1      17.335 -12.033  13.713  1.00  0.00    -0.366 OA
ATOM     45  H   UNL     1      16.785 -12.847  13.891  1.00  0.00     0.213 HD
ENDBRANCH  36  44
ENDBRANCH  30  31
ENDBRANCH   4  30
TORSDOF 18
ENDMDL
MODEL 4
REMARK VINA RESULT:    -5.940      2.859      6.451
REMARK INTER + INTRA:         -11.774
REMARK INTER:                 -11.174
REMARK INTRA:                  -0.600
REMARK UNBOUND:                -1.493
REMARK SMILES OC[C@@H]1O[C@@H](O[C@@H]2[C@H](O)[C@@H](O)[C@H](O[C@@H]3[C@H](O)[C@@H](O)[C@H](O)O[C@H]3CO)O[C@@H]2CO)[C@H](O)[C@@H](O)[C@@H]1O
REMARK SMILES IDX 7 1 26 2 25 3 12 4 10 5 8 6 6 7 5 8 3 9 33 10 4 11 31 12
REMARK SMILES IDX 29 13 2 14 1 15 34 17 32 19 30 21 27 23 28 24 9 26 11 28
REMARK SMILES IDX 13 30 14 31 22 32 15 33 21 34 17 35 19 36 23 37 24 38 16 40
REMARK SMILES IDX 18 42 20 44
REMARK H PARENT 1 16 34 18 32 20 30 22 28 25 9 27 11 29 24 39 16 41 18 43
REMARK H PARENT 20 45
REMARK Flexibility Score: inf
ROOT
ATOM      1  C   UNL     1      18.851  -5.833  16.064  1.00  0.00     0.184 C 
ATOM      2  C   UNL     1      19.968  -6.365  17.012  1.00  0.00     0.178 C 
ATOM      3  O   UNL     1      21.259  -6.114  16.473  1.00  0.00    -0.341 OA
ATOM      4  C   UNL     1      21.516  -4.719  16.404  1.00  0.00     0.282 C 
ATOM      5  C   UNL     1      20.598  -4.074  15.351  1.00  0.00     0.202 C 
ATOM      6  C   UNL     1      19.105  -4.351  15.678  1.00  0.00     0.180 C 
ENDROOT
BRANCH   1   7
ATOM      7  O   UNL     1      18.439  -6.653  14.967  1.00  0.00    -0.341 OA
BRANCH   7   8
ATOM      8  C   UNL     1      17.634  -7.791  15.255  1.00  0.00     0.282 C 
ATOM      9  C   UNL     1      17.623 -10.166  15.229  1.00  0.00     0.178 C 
ATOM     10  C   UNL     1      16.048 -10.097  15.221  1.00  0.00     0.177 C 
ATOM     11  O   UNL     1      18.360  -8.970  14.985  1.00  0.00    -0.341 OA
ATOM     12  C   UNL     1      15.409  -8.793  14.663  1.00  0.00     0.179 C 
ATOM     13  C   UNL     1      16.450  -7.739  14.283  1.00  0.00     0.202 C 
BRANCH   9  14
ATOM     14  C   UNL     1      18.204 -10.885  16.461  1.00  0.00     0.191 C 
BRANCH  14  15
ATOM     15  O   UNL     1      19.512 -11.319  16.202  1.00  0.00    -0.394 OA
ATOM     16  H   UNL     1      19.822 -11.767  17.037  1.00  0.00     0.210 HD
ENDBRANCH  14  15
ENDBRANCH   9  14
BRANCH  10  17
ATOM     17  O   UNL     1      15.543 -10.310  16.519  1.00  0.00    -0.387 OA
ATOM     18  H   UNL     1      15.831 -11.220  16.797  1.00  0.00     0.211 HD
ENDBRANCH  10  17
BRANCH  12  19
ATOM     19  O   UNL     1      14.605  -9.072  13.548  1.00  0.00    -0.387 OA
ATOM     20  H   UNL     1      15.022  -8.610  12.775  1.00  0.00     0.211 HD
ENDBRANCH  12  19
BRANCH  13  21
ATOM     21  O   UNL     1      15.864  -6.463  14.216  1.00  0.00    -0.385 OA
ATOM     22  H   UNL     1      15.654  -6.263  13.266  1.00  0.00     0.211 HD
ENDBRANCH  13  21
ENDBRANCH   7   8
ENDBRANCH   1   7
BRANCH   2  23
ATOM     23  C   UNL     1      19.793  -7.849  17.434  1.00  0.00     0.191 C 
BRANCH  23  24
ATOM     24  O   UNL     1      18.819  -8.012  18.440  1.00  0.00    -0.394 OA
ATOM     25  H   UNL     1      18.017  -7.524  18.139  1.00  0.00     0.210 HD
ENDBRANCH  23  24
ENDBRANCH   2  23
BRANCH   6  26
ATOM     26  O   UNL     1      18.253  -3.939  14.642  1.00  0.00    -0.387 OA
ATOM     27  H   UNL     1      18.494  -3.012  14.380  1.00  0.00     0.211 HD
ENDBRANCH   6  26
BRANCH   5  28
ATOM     28  O   UNL     1      20.840  -2.697  15.266  1.00  0.00    -0.385 OA
ATOM     29  H   UNL     1      20.849  -2.322  16.191  1.00  0.00     0.211 HD
ENDBRANCH   5  28
BRANCH   4  30
ATOM     30  O   UNL     1      22.865  -4.517  16.008  1.00  0.00    -0.341 OA
BRANCH  30  31
ATOM     31  C   UNL     1      23.783  -4.895  17.030  1.00  0.00     0.184 C 
ATOM     32  C   UNL     1      24.649  -6.082  16.544  1.00  0.00     0.178 C 
ATOM     33  C   UNL     1      24.678  -3.700  17.367  1.00  0.00     0.180 C 
ATOM     34  O   UNL     1      25.401  -5.722  15.398  1.00  0.00    -0.342 OA
ATOM     35  C   UNL     1      25.614  -3.371  16.187  1.00  0.00     0.201 C 
ATOM     36  C   UNL     1      26.308  -4.642  15.633  1.00  0.00     0.279 C 
BRANCH  32  37
ATOM     37  C   UNL     1      25.499  -6.716  17.667  1.00  0.00     0.191 C 
BRANCH  37  38
ATOM     38  O   UNL     1      24.758  -7.689  18.353  1.00  0.00    -0.394 OA
ATOM     39  H   UNL     1      24.183  -8.139  17.678  1.00  0.00     0.210 HD
ENDBRANCH  37  38
ENDBRANCH  32  37
BRANCH  33  40
ATOM     40  O   UNL     1      23.857  -2.594  17.661  1.00  0.00    -0.387 OA
ATOM     41  H   UNL     1      24.441  -1.789  17.670  1.00  0.00     0.211 HD
ENDBRANCH  33  40
BRANCH  35  42
ATOM     42  O   UNL     1      26.603  -2.464  16.616  1.00  0.00    -0.385 OA
ATOM     43  H   UNL     1      26.977  -2.824  17.462  1.00  0.00     0.211 HD
ENDBRANCH  35  42
BRANCH  36  44
ATOM     44  O   UNL     1      26.958  -4.325  14.425  1.00  0.00    -0.366 OA
ATOM     45  H   UNL     1      26.329  -4.575  13.690  1.00  0.00     0.213 HD
ENDBRANCH  36  44
ENDBRANCH  30  31
ENDBRANCH   4  30
TORSDOF 18
ENDMDL
MODEL 5
REMARK VINA RESULT:    -5.821      1.479      9.106
REMARK INTER + INTRA:         -11.567
REMARK INTER:                  -9.762
REMARK INTRA:                  -1.806
REMARK UNBOUND:                -1.493
REMARK SMILES OC[C@@H]1O[C@@H](O[C@@H]2[C@H](O)[C@@H](O)[C@H](O[C@@H]3[C@H](O)[C@@H](O)[C@H](O)O[C@H]3CO)O[C@@H]2CO)[C@H](O)[C@@H](O)[C@@H]1O
REMARK SMILES IDX 7 1 26 2 25 3 12 4 10 5 8 6 6 7 5 8 3 9 33 10 4 11 31 12
REMARK SMILES IDX 29 13 2 14 1 15 34 17 32 19 30 21 27 23 28 24 9 26 11 28
REMARK SMILES IDX 13 30 14 31 22 32 15 33 21 34 17 35 19 36 23 37 24 38 16 40
REMARK SMILES IDX 18 42 20 44
REMARK H PARENT 1 16 34 18 32 20 30 22 28 25 9 27 11 29 24 39 16 41 18 43
REMARK H PARENT 20 45
REMARK Flexibility Score: inf
ROOT
ATOM      1  C   UNL     1      17.324  -7.859  14.984  1.00  0.00     0.184 C 
ATOM      2  C   UNL     1      16.736  -9.302  15.032  1.00  0.00     0.178 C 
ATOM      3  O   UNL     1      15.372  -9.286  15.428  1.00  0.00    -0.341 OA
ATOM      4  C   UNL     1      14.570  -8.630  14.457  1.00  0.00     0.282 C 
ATOM      5  C   UNL     1      14.913  -7.131  14.428  1.00  0.00     0.202 C 
ATOM      6  C   UNL     1      16.425  -6.917  14.140  1.00  0.00     0.180 C 
ENDROOT
BRANCH   1   7
ATOM      7  O   UNL     1      17.792  -7.272  16.203  1.00  0.00    -0.341 OA
BRANCH   7   8
ATOM      8  C   UNL     1      18.964  -6.467  16.143  1.00  0.00     0.282 C 
ATOM      9  C   UNL     1      20.566  -5.552  14.646  1.00  0.00     0.178 C 
ATOM     10  C   UNL     1      21.539  -5.402  15.879  1.00  0.00     0.177 C 
ATOM     11  O   UNL     1      19.384  -6.332  14.803  1.00  0.00    -0.341 OA
ATOM     12  C   UNL     1      21.288  -6.349  17.086  1.00  0.00     0.179 C 
ATOM     13  C   UNL     1      20.055  -7.234  16.898  1.00  0.00     0.202 C 
BRANCH   9  14
ATOM     14  C   UNL     1      20.214  -4.214  13.971  1.00  0.00     0.191 C 
BRANCH  14  15
ATOM     15  O   UNL     1      19.143  -3.599  14.635  1.00  0.00    -0.394 OA
ATOM     16  H   UNL     1      18.575  -4.340  14.984  1.00  0.00     0.210 HD
ENDBRANCH  14  15
ENDBRANCH   9  14
BRANCH  10  17
ATOM     17  O   UNL     1      21.524  -4.075  16.354  1.00  0.00    -0.387 OA
ATOM     18  H   UNL     1      20.955  -4.065  17.170  1.00  0.00     0.211 HD
ENDBRANCH  10  17
BRANCH  12  19
ATOM     19  O   UNL     1      22.408  -7.161  17.321  1.00  0.00    -0.387 OA
ATOM     20  H   UNL     1      22.690  -6.991  18.256  1.00  0.00     0.211 HD
ENDBRANCH  12  19
BRANCH  13  21
ATOM     21  O   UNL     1      19.605  -7.729  18.135  1.00  0.00    -0.385 OA
ATOM     22  H   UNL     1      20.366  -8.176  18.590  1.00  0.00     0.211 HD
ENDBRANCH  13  21
ENDBRANCH   7   8
ENDBRANCH   1   7
BRANCH   2  23
ATOM     23  C   UNL     1      17.574 -10.304  15.871  1.00  0.00     0.191 C 
BRANCH  23  24
ATOM     24  O   UNL     1      17.646  -9.940  17.232  1.00  0.00    -0.394 OA
ATOM     25  H   UNL     1      17.304  -9.018  17.296  1.00  0.00     0.210 HD
ENDBRANCH  23  24
ENDBRANCH   2  23
BRANCH   6  26
ATOM     26  O   UNL     1      16.805  -5.574  14.292  1.00  0.00    -0.387 OA
ATOM     27  H   UNL     1      17.440  -5.339  13.566  1.00  0.00     0.211 HD
ENDBRANCH   6  26
BRANCH   5  28
ATOM     28  O   UNL     1      14.129  -6.466  13.476  1.00  0.00    -0.385 OA
ATOM     29  H   UNL     1      14.197  -6.961  12.612  1.00  0.00     0.211 HD
ENDBRANCH   5  28
BRANCH   4  30
ATOM     30  O   UNL     1      13.203  -8.771  14.814  1.00  0.00    -0.341 OA
BRANCH  30  31
ATOM     31  C   UNL     1      12.501  -9.623  13.913  1.00  0.00     0.184 C 
ATOM     32  C   UNL     1      12.049 -10.907  14.650  1.00  0.00     0.178 C 
ATOM     33  C   UNL     1      11.281  -8.878  13.367  1.00  0.00     0.180 C 
ATOM     34  O   UNL     1      11.174 -10.594  15.720  1.00  0.00    -0.342 OA
ATOM     35  C   UNL     1      10.241  -8.646  14.482  1.00  0.00     0.201 C 
ATOM     36  C   UNL     1       9.976  -9.938  15.297  1.00  0.00     0.279 C 
BRANCH  32  37
ATOM     37  C   UNL     1      11.499 -11.993  13.700  1.00  0.00     0.191 C 
BRANCH  37  38
ATOM     38  O   UNL     1      11.919 -11.752  12.383  1.00  0.00    -0.394 OA
ATOM     39  H   UNL     1      12.476 -12.530  12.114  1.00  0.00     0.210 HD
ENDBRANCH  37  38
ENDBRANCH  32  37
BRANCH  33  40
ATOM     40  O   UNL     1      11.708  -7.646  12.836  1.00  0.00    -0.387 OA
ATOM     41  H   UNL     1      11.047  -7.380  12.142  1.00  0.00     0.211 HD
ENDBRANCH  33  40
BRANCH  35  42
ATOM     42  O   UNL     1       9.028  -8.217  13.905  1.00  0.00    -0.385 OA
ATOM     43  H   UNL     1       9.091  -7.232  13.801  1.00  0.00     0.211 HD
ENDBRANCH  35  42
BRANCH  36  44
ATOM     44  O   UNL     1       9.209  -9.619  16.434  1.00  0.00    -0.366 OA
ATOM     45  H   UNL     1       9.555 -10.187  17.179  1.00  0.00     0.213 HD
ENDBRANCH  36  44
ENDBRANCH  30  31
ENDBRANCH   4  30
TORSDOF 18
ENDMDL
MODEL 6
REMARK VINA RESULT:    -5.662      5.750      9.433
REMARK INTER + INTRA:         -11.293
REMARK INTER:                 -10.796
REMARK INTRA:                  -0.497
REMARK UNBOUND:                -1.493
REMARK SMILES OC[C@@H]1O[C@@H](O[C@@H]2[C@H](O)[C@@H](O)[C@H](O[C@@H]3[C@H](O)[C@@H](O)[C@H](O)O[C@H]3CO)O[C@@H]2CO)[C@H](O)[C@@H](O)[C@@H]1O
REMARK SMILES IDX 7 1 26 2 25 3 12 4 10 5 8 6 6 7 5 8 3 9 33 10 4 11 31 12
REMARK SMILES IDX 29 13 2 14 1 15 34 17 32 19 30 21 27 23 28 24 9 26 11 28
REMARK SMILES IDX 13 30 14 31 22 32 15 33 21 34 17 35 19 36 23 37 24 38 16 40
REMARK SMILES IDX 18 42 20 44
REMARK H PARENT 1 16 34 18 32 20 30 22 28 25 9 27 11 29 24 39 16 41 18 43
REMARK H PARENT 20 45
REMARK Flexibility Score: inf
ROOT
ATOM      1  C   UNL     1      24.152  -6.731  16.561  1.00  0.00     0.184 C 
ATOM      2  C   UNL     1      24.575  -5.700  15.472  1.00  0.00     0.178 C 
ATOM      3  O   UNL     1      24.978  -4.471  16.060  1.00  0.00    -0.341 OA
ATOM      4  C   UNL     1      26.157  -4.643  16.833  1.00  0.00     0.282 C 
ATOM      5  C   UNL     1      25.844  -5.503  18.070  1.00  0.00     0.202 C 
ATOM      6  C   UNL     1      25.248  -6.874  17.650  1.00  0.00     0.180 C 
ENDROOT
BRANCH   1   7
ATOM      7  O   UNL     1      22.821  -6.664  17.084  1.00  0.00    -0.341 OA
BRANCH   7   8
ATOM      8  C   UNL     1      21.848  -5.949  16.331  1.00  0.00     0.282 C 
ATOM      9  C   UNL     1      20.396  -4.070  16.404  1.00  0.00     0.178 C 
ATOM     10  C   UNL     1      19.550  -4.759  15.265  1.00  0.00     0.177 C 
ATOM     11  O   UNL     1      21.391  -4.840  17.074  1.00  0.00    -0.341 OA
ATOM     12  C   UNL     1      19.661  -6.307  15.151  1.00  0.00     0.179 C 
ATOM     13  C   UNL     1      20.663  -6.902  16.140  1.00  0.00     0.202 C 
BRANCH   9  14
ATOM     14  C   UNL     1      20.987  -2.708  15.996  1.00  0.00     0.191 C 
BRANCH  14  15
ATOM     15  O   UNL     1      19.989  -1.724  15.992  1.00  0.00    -0.394 OA
ATOM     16  H   UNL     1      19.121  -2.214  16.013  1.00  0.00     0.210 HD
ENDBRANCH  14  15
ENDBRANCH   9  14
BRANCH  10  17
ATOM     17  O   UNL     1      19.876  -4.205  14.011  1.00  0.00    -0.387 OA
ATOM     18  H   UNL     1      19.502  -3.284  13.994  1.00  0.00     0.211 HD
ENDBRANCH  10  17
BRANCH  12  19
ATOM     19  O   UNL     1      18.409  -6.909  15.343  1.00  0.00    -0.387 OA
ATOM     20  H   UNL     1      18.576  -7.881  15.454  1.00  0.00     0.211 HD
ENDBRANCH  12  19
BRANCH  13  21
ATOM     21  O   UNL     1      21.067  -8.185  15.728  1.00  0.00    -0.385 OA
ATOM     22  H   UNL     1      22.037  -8.155  15.515  1.00  0.00     0.211 HD
ENDBRANCH  13  21
ENDBRANCH   7   8
ENDBRANCH   1   7
BRANCH   2  23
ATOM     23  C   UNL     1      23.522  -5.489  14.349  1.00  0.00     0.191 C 
BRANCH  23  24
ATOM     24  O   UNL     1      23.949  -6.000  13.107  1.00  0.00    -0.394 OA
ATOM     25  H   UNL     1      24.407  -5.262  12.640  1.00  0.00     0.210 HD
ENDBRANCH  23  24
ENDBRANCH   2  23
BRANCH   6  26
ATOM     26  O   UNL     1      24.780  -7.605  18.754  1.00  0.00    -0.387 OA
ATOM     27  H   UNL     1      25.226  -8.492  18.762  1.00  0.00     0.211 HD
ENDBRANCH   6  26
BRANCH   5  28
ATOM     28  O   UNL     1      26.996  -5.681  18.848  1.00  0.00    -0.385 OA
ATOM     29  H   UNL     1      27.412  -6.553  18.598  1.00  0.00     0.211 HD
ENDBRANCH   5  28
BRANCH   4  30
ATOM     30  O   UNL     1      26.610  -3.371  17.274  1.00  0.00    -0.341 OA
BRANCH  30  31
ATOM     31  C   UNL     1      25.807  -2.311  16.761  1.00  0.00     0.184 C 
ATOM     32  C   UNL     1      24.937  -1.717  17.895  1.00  0.00     0.178 C 
ATOM     33  C   UNL     1      26.718  -1.227  16.181  1.00  0.00     0.180 C 
ATOM     34  O   UNL     1      25.748  -1.184  18.928  1.00  0.00    -0.342 OA
ATOM     35  C   UNL     1      27.514  -0.527  17.301  1.00  0.00     0.201 C 
ATOM     36  C   UNL     1      26.601  -0.125  18.487  1.00  0.00     0.279 C 
BRANCH  32  37
ATOM     37  C   UNL     1      23.861  -0.733  17.385  1.00  0.00     0.191 C 
BRANCH  37  38
ATOM     38  O   UNL     1      23.567   0.224  18.367  1.00  0.00    -0.394 OA
ATOM     39  H   UNL     1      22.789   0.746  18.033  1.00  0.00     0.210 HD
ENDBRANCH  37  38
ENDBRANCH  32  37
BRANCH  33  40
ATOM     40  O   UNL     1      27.598  -1.828  15.260  1.00  0.00    -0.387 OA
ATOM     41  H   UNL     1      27.041  -2.317  14.597  1.00  0.00     0.211 HD
ENDBRANCH  33  40
BRANCH  35  42
ATOM     42  O   UNL     1      28.124   0.633  16.783  1.00  0.00    -0.385 OA
ATOM     43  H   UNL     1      27.502   1.008  16.107  1.00  0.00     0.211 HD
ENDBRANCH  35  42
BRANCH  36  44
ATOM     44  O   UNL     1      27.402   0.291  19.568  1.00  0.00    -0.366 OA
ATOM     45  H   UNL     1      26.984   1.122  19.929  1.00  0.00     0.213 HD
ENDBRANCH  36  44
ENDBRANCH  30  31
ENDBRANCH   4  30
TORSDOF 18
ENDMDL
MODEL 7
REMARK VINA RESULT:    -5.567      1.451      8.783
REMARK INTER + INTRA:         -11.128
REMARK INTER:                  -9.693
REMARK INTRA:                  -1.435
REMARK UNBOUND:                -1.493
REMARK SMILES OC[C@@H]1O[C@@H](O[C@@H]2[C@H](O)[C@@H](O)[C@H](O[C@@H]3[C@H](O)[C@@H](O)[C@H](O)O[C@H]3CO)O[C@@H]2CO)[C@H](O)[C@@H](O)[C@@H]1O
REMARK SMILES IDX 7 1 26 2 25 3 12 4 10 5 8 6 6 7 5 8 3 9 33 10 4 11 31 12
REMARK SMILES IDX 29 13 2 14 1 15 34 17 32 19 30 21 27 23 28 24 9 26 11 28
REMARK SMILES IDX 13 30 14 31 22 32 15 33 21 34 17 35 19 36 23 37 24 38 16 40
REMARK SMILES IDX 18 42 20 44
REMARK H PARENT 1 16 34 18 32 20 30 22 28 25 9 27 11 29 24 39 16 41 18 43
REMARK H PARENT 20 45
REMARK Flexibility Score: inf
ROOT
ATOM      1  C   UNL     1      17.217  -8.346  14.824  1.00  0.00     0.184 C 
ATOM      2  C   UNL     1      17.068  -9.898  14.816  1.00  0.00     0.178 C 
ATOM      3  O   UNL     1      15.746 -10.286  15.163  1.00  0.00    -0.341 OA
ATOM      4  C   UNL     1      14.818  -9.856  14.179  1.00  0.00     0.282 C 
ATOM      5  C   UNL     1      14.716  -8.322  14.197  1.00  0.00     0.202 C 
ATOM      6  C   UNL     1      16.109  -7.674  13.969  1.00  0.00     0.180 C 
ENDROOT
BRANCH   1   7
ATOM      7  O   UNL     1      17.463  -7.690  16.071  1.00  0.00    -0.341 OA
BRANCH   7   8
ATOM      8  C   UNL     1      18.496  -6.713  16.115  1.00  0.00     0.282 C 
ATOM      9  C   UNL     1      20.042  -5.521  14.760  1.00  0.00     0.178 C 
ATOM     10  C   UNL     1      20.887  -5.258  16.065  1.00  0.00     0.177 C 
ATOM     11  O   UNL     1      18.986  -6.478  14.813  1.00  0.00    -0.341 OA
ATOM     12  C   UNL     1      20.699  -6.266  17.234  1.00  0.00     0.179 C 
ATOM     13  C   UNL     1      19.635  -7.324  16.938  1.00  0.00     0.202 C 
BRANCH   9  14
ATOM     14  C   UNL     1      19.536  -4.235  14.081  1.00  0.00     0.191 C 
BRANCH  14  15
ATOM     15  O   UNL     1      20.612  -3.501  13.561  1.00  0.00    -0.394 OA
ATOM     16  H   UNL     1      20.795  -2.777  14.222  1.00  0.00     0.210 HD
ENDBRANCH  14  15
ENDBRANCH   9  14
BRANCH  10  17
ATOM     17  O   UNL     1      20.631  -3.963  16.559  1.00  0.00    -0.387 OA
ATOM     18  H   UNL     1      20.305  -3.419  15.794  1.00  0.00     0.211 HD
ENDBRANCH  10  17
BRANCH  12  19
ATOM     19  O   UNL     1      21.911  -6.903  17.540  1.00  0.00    -0.387 OA
ATOM     20  H   UNL     1      21.679  -7.804  17.883  1.00  0.00     0.211 HD
ENDBRANCH  12  19
BRANCH  13  21
ATOM     21  O   UNL     1      19.178  -7.917  18.129  1.00  0.00    -0.385 OA
ATOM     22  H   UNL     1      19.255  -7.250  18.861  1.00  0.00     0.211 HD
ENDBRANCH  13  21
ENDBRANCH   7   8
ENDBRANCH   1   7
BRANCH   2  23
ATOM     23  C   UNL     1      18.135 -10.645  15.662  1.00  0.00     0.191 C 
BRANCH  23  24
ATOM     24  O   UNL     1      18.039 -10.345  17.037  1.00  0.00    -0.394 OA
ATOM     25  H   UNL     1      18.935 -10.050  17.324  1.00  0.00     0.210 HD
ENDBRANCH  23  24
ENDBRANCH   2  23
BRANCH   6  26
ATOM     26  O   UNL     1      16.083  -6.285  14.166  1.00  0.00    -0.387 OA
ATOM     27  H   UNL     1      15.212  -5.933  13.845  1.00  0.00     0.211 HD
ENDBRANCH   6  26
BRANCH   5  28
ATOM     28  O   UNL     1      13.800  -7.879  13.233  1.00  0.00    -0.385 OA
ATOM     29  H   UNL     1      13.779  -6.881  13.254  1.00  0.00     0.211 HD
ENDBRANCH   5  28
BRANCH   4  30
ATOM     30  O   UNL     1      13.539 -10.395  14.483  1.00  0.00    -0.341 OA
BRANCH  30  31
ATOM     31  C   UNL     1      12.835  -9.598  15.431  1.00  0.00     0.184 C 
ATOM     32  C   UNL     1      11.496  -9.119  14.821  1.00  0.00     0.178 C 
ATOM     33  C   UNL     1      12.568 -10.430  16.687  1.00  0.00     0.180 C 
ATOM     34  O   UNL     1      10.671 -10.221  14.485  1.00  0.00    -0.342 OA
ATOM     35  C   UNL     1      11.559 -11.557  16.388  1.00  0.00     0.201 C 
ATOM     36  C   UNL     1      10.325 -11.031  15.612  1.00  0.00     0.279 C 
BRANCH  32  37
ATOM     37  C   UNL     1      10.783  -8.051  15.680  1.00  0.00     0.191 C 
BRANCH  37  38
ATOM     38  O   UNL     1       9.621  -7.600  15.037  1.00  0.00    -0.394 OA
ATOM     39  H   UNL     1       9.401  -8.273  14.339  1.00  0.00     0.210 HD
ENDBRANCH  37  38
ENDBRANCH  32  37
BRANCH  33  40
ATOM     40  O   UNL     1      13.789 -10.974  17.132  1.00  0.00    -0.387 OA
ATOM     41  H   UNL     1      13.988 -11.759  16.554  1.00  0.00     0.211 HD
ENDBRANCH  33  40
BRANCH  35  42
ATOM     42  O   UNL     1      11.123 -12.125  17.602  1.00  0.00    -0.385 OA
ATOM     43  H   UNL     1      11.901 -12.125  18.217  1.00  0.00     0.211 HD
ENDBRANCH  35  42
BRANCH  36  44
ATOM     44  O   UNL     1       9.559 -12.125  15.164  1.00  0.00    -0.366 OA
ATOM     45  H   UNL     1       9.598 -12.814  15.885  1.00  0.00     0.213 HD
ENDBRANCH  36  44
ENDBRANCH  30  31
ENDBRANCH   4  30
TORSDOF 18
ENDMDL
MODEL 8
REMARK VINA RESULT:    -5.480      3.570      6.841
REMARK INTER + INTRA:         -10.978
REMARK INTER:                 -10.212
REMARK INTRA:                  -0.766
REMARK UNBOUND:                -1.493
REMARK SMILES OC[C@@H]1O[C@@H](O[C@@H]2[C@H](O)[C@@H](O)[C@H](O[C@@H]3[C@H](O)[C@@H](O)[C@H](O)O[C@H]3CO)O[C@@H]2CO)[C@H](O)[C@@H](O)[C@@H]1O
REMARK SMILES IDX 7 1 26 2 25 3 12 4 10 5 8 6 6 7 5 8 3 9 33 10 4 11 31 12
REMARK SMILES IDX 29 13 2 14 1 15 34 17 32 19 30 21 27 23 28 24 9 26 11 28
REMARK SMILES IDX 13 30 14 31 22 32 15 33 21 34 17 35 19 36 23 37 24 38 16 40
REMARK SMILES IDX 18 42 20 44
REMARK H PARENT 1 16 34 18 32 20 30 22 28 25 9 27 11 29 24 39 16 41 18 43
REMARK H PARENT 20 45
REMARK Flexibility Score: inf
ROOT
ATOM      1  C   UNL     1      20.139  -5.032  15.034  1.00  0.00     0.184 C 
ATOM      2  C   UNL     1      20.574  -3.547  15.219  1.00  0.00     0.178 C 
ATOM      3  O   UNL     1      21.527  -3.420  16.265  1.00  0.00    -0.341 OA
ATOM      4  C   UNL     1      22.737  -4.083  15.930  1.00  0.00     0.282 C 
ATOM      5  C   UNL     1      22.503  -5.603  15.894  1.00  0.00     0.202 C 
ATOM      6  C   UNL     1      21.374  -5.962  14.889  1.00  0.00     0.180 C 
ENDROOT
BRANCH   1   7
ATOM      7  O   UNL     1      19.118  -5.556  15.888  1.00  0.00    -0.341 OA
BRANCH   7   8
ATOM      8  C   UNL     1      18.666  -6.884  15.645  1.00  0.00     0.282 C 
ATOM      9  C   UNL     1      16.771  -8.152  14.978  1.00  0.00     0.178 C 
ATOM     10  C   UNL     1      17.446  -9.402  15.663  1.00  0.00     0.177 C 
ATOM     11  O   UNL     1      17.318  -6.860  15.229  1.00  0.00    -0.341 OA
ATOM     12  C   UNL     1      18.477  -9.110  16.790  1.00  0.00     0.179 C 
ATOM     13  C   UNL     1      18.726  -7.614  16.990  1.00  0.00     0.202 C 
BRANCH   9  14
ATOM     14  C   UNL     1      16.539  -8.327  13.465  1.00  0.00     0.191 C 
BRANCH  14  15
ATOM     15  O   UNL     1      15.742  -9.454  13.221  1.00  0.00    -0.394 OA
ATOM     16  H   UNL     1      15.882 -10.063  13.998  1.00  0.00     0.210 HD
ENDBRANCH  14  15
ENDBRANCH   9  14
BRANCH  10  17
ATOM     17  O   UNL     1      18.075 -10.210  14.694  1.00  0.00    -0.387 OA
ATOM     18  H   UNL     1      18.605  -9.604  14.110  1.00  0.00     0.211 HD
ENDBRANCH  10  17
BRANCH  12  19
ATOM     19  O   UNL     1      18.058  -9.675  18.004  1.00  0.00    -0.387 OA
ATOM     20  H   UNL     1      17.625 -10.539  17.780  1.00  0.00     0.211 HD
ENDBRANCH  12  19
BRANCH  13  21
ATOM     21  O   UNL     1      19.941  -7.399  17.665  1.00  0.00    -0.385 OA
ATOM     22  H   UNL     1      20.186  -6.441  17.572  1.00  0.00     0.211 HD
ENDBRANCH  13  21
ENDBRANCH   7   8
ENDBRANCH   1   7
BRANCH   2  23
ATOM     23  C   UNL     1      19.392  -2.553  15.385  1.00  0.00     0.191 C 
BRANCH  23  24
ATOM     24  O   UNL     1      18.143  -3.150  15.117  1.00  0.00    -0.394 OA
ATOM     25  H   UNL     1      17.623  -2.494  14.596  1.00  0.00     0.210 HD
ENDBRANCH  23  24
ENDBRANCH   2  23
BRANCH   6  26
ATOM     26  O   UNL     1      21.008  -7.315  14.969  1.00  0.00    -0.387 OA
ATOM     27  H   UNL     1      20.613  -7.590  14.102  1.00  0.00     0.211 HD
ENDBRANCH   6  26
BRANCH   5  28
ATOM     28  O   UNL     1      23.688  -6.274  15.568  1.00  0.00    -0.385 OA
ATOM     29  H   UNL     1      24.350  -5.602  15.240  1.00  0.00     0.211 HD
ENDBRANCH   5  28
BRANCH   4  30
ATOM     30  O   UNL     1      23.709  -3.801  16.927  1.00  0.00    -0.341 OA
BRANCH  30  31
ATOM     31  C   UNL     1      24.688  -2.871  16.472  1.00  0.00     0.184 C 
ATOM     32  C   UNL     1      24.765  -1.672  17.448  1.00  0.00     0.178 C 
ATOM     33  C   UNL     1      26.047  -3.570  16.395  1.00  0.00     0.180 C 
ATOM     34  O   UNL     1      25.145  -2.100  18.745  1.00  0.00    -0.342 OA
ATOM     35  C   UNL     1      26.558  -3.923  17.806  1.00  0.00     0.201 C 
ATOM     36  C   UNL     1      26.432  -2.722  18.779  1.00  0.00     0.279 C 
BRANCH  32  37
ATOM     37  C   UNL     1      25.616  -0.502  16.909  1.00  0.00     0.191 C 
BRANCH  37  38
ATOM     38  O   UNL     1      25.655   0.547  17.840  1.00  0.00    -0.394 OA
ATOM     39  H   UNL     1      26.568   0.547  18.233  1.00  0.00     0.210 HD
ENDBRANCH  37  38
ENDBRANCH  32  37
BRANCH  33  40
ATOM     40  O   UNL     1      25.907  -4.738  15.621  1.00  0.00    -0.387 OA
ATOM     41  H   UNL     1      25.465  -5.419  16.195  1.00  0.00     0.211 HD
ENDBRANCH  33  40
BRANCH  35  42
ATOM     42  O   UNL     1      27.912  -4.304  17.729  1.00  0.00    -0.385 OA
ATOM     43  H   UNL     1      28.033  -5.069  18.350  1.00  0.00     0.211 HD
ENDBRANCH  35  42
BRANCH  36  44
ATOM     44  O   UNL     1      26.687  -3.162  20.092  1.00  0.00    -0.366 OA
ATOM     45  H   UNL     1      27.598  -3.573  20.083  1.00  0.00     0.213 HD
ENDBRANCH  36  44
ENDBRANCH  30  31
ENDBRANCH   4  30
TORSDOF 18
ENDMDL
MODEL 9
REMARK VINA RESULT:    -5.309      3.002      6.137
REMARK INTER + INTRA:         -10.681
REMARK INTER:                 -10.771
REMARK INTRA:                   0.090
REMARK UNBOUND:                -1.493
REMARK SMILES OC[C@@H]1O[C@@H](O[C@@H]2[C@H](O)[C@@H](O)[C@H](O[C@@H]3[C@H](O)[C@@H](O)[C@H](O)O[C@H]3CO)O[C@@H]2CO)[C@H](O)[C@@H](O)[C@@H]1O
REMARK SMILES IDX 7 1 26 2 25 3 12 4 10 5 8 6 6 7 5 8 3 9 33 10 4 11 31 12
REMARK SMILES IDX 29 13 2 14 1 15 34 17 32 19 30 21 27 23 28 24 9 26 11 28
REMARK SMILES IDX 13 30 14 31 22 32 15 33 21 34 17 35 19 36 23 37 24 38 16 40
REMARK SMILES IDX 18 42 20 44
REMARK H PARENT 1 16 34 18 32 20 30 22 28 25 9 27 11 29 24 39 16 41 18 43
REMARK H PARENT 20 45
REMARK Flexibility Score: inf
ROOT
ATOM      1  C   UNL     1      19.821  -6.464  15.217  1.00  0.00     0.184 C 
ATOM      2  C   UNL     1      20.337  -5.061  14.772  1.00  0.00     0.178 C 
ATOM      3  O   UNL     1      21.056  -4.425  15.819  1.00  0.00    -0.341 OA
ATOM      4  C   UNL     1      22.246  -5.138  16.122  1.00  0.00     0.282 C 
ATOM      5  C   UNL     1      21.891  -6.494  16.756  1.00  0.00     0.202 C 
ATOM      6  C   UNL     1      20.972  -7.318  15.813  1.00  0.00     0.180 C 
ENDROOT
BRANCH   1   7
ATOM      7  O   UNL     1      18.601  -6.537  15.960  1.00  0.00    -0.341 OA
BRANCH   7   8
ATOM      8  C   UNL     1      17.750  -7.655  15.728  1.00  0.00     0.282 C 
ATOM      9  C   UNL     1      17.757  -9.964  15.172  1.00  0.00     0.178 C 
ATOM     10  C   UNL     1      16.262  -9.791  14.701  1.00  0.00     0.177 C 
ATOM     11  O   UNL     1      18.528  -8.795  15.436  1.00  0.00    -0.341 OA
ATOM     12  C   UNL     1      15.823  -8.359  14.281  1.00  0.00     0.179 C 
ATOM     13  C   UNL     1      16.927  -7.320  14.480  1.00  0.00     0.202 C 
BRANCH   9  14
ATOM     14  C   UNL     1      17.929 -10.966  16.329  1.00  0.00     0.191 C 
BRANCH  14  15
ATOM     15  O   UNL     1      19.284 -11.275  16.510  1.00  0.00    -0.394 OA
ATOM     16  H   UNL     1      19.701 -11.221  15.605  1.00  0.00     0.210 HD
ENDBRANCH  14  15
ENDBRANCH   9  14
BRANCH  10  17
ATOM     17  O   UNL     1      15.379 -10.242  15.703  1.00  0.00    -0.387 OA
ATOM     18  H   UNL     1      15.913 -10.345  16.536  1.00  0.00     0.211 HD
ENDBRANCH  10  17
BRANCH  12  19
ATOM     19  O   UNL     1      15.407  -8.341  12.942  1.00  0.00    -0.387 OA
ATOM     20  H   UNL     1      14.791  -9.110  12.826  1.00  0.00     0.211 HD
ENDBRANCH  12  19
BRANCH  13  21
ATOM     21  O   UNL     1      16.386  -6.023  14.525  1.00  0.00    -0.385 OA
ATOM     22  H   UNL     1      15.903  -5.914  15.386  1.00  0.00     0.211 HD
ENDBRANCH  13  21
ENDBRANCH   7   8
ENDBRANCH   1   7
BRANCH   2  23
ATOM     23  C   UNL     1      19.240  -4.139  14.175  1.00  0.00     0.191 C 
BRANCH  23  24
ATOM     24  O   UNL     1      18.226  -3.833  15.106  1.00  0.00    -0.394 OA
ATOM     25  H   UNL     1      18.335  -2.882  15.340  1.00  0.00     0.210 HD
ENDBRANCH  23  24
ENDBRANCH   2  23
BRANCH   6  26
ATOM     26  O   UNL     1      20.479  -8.475  16.437  1.00  0.00    -0.387 OA
ATOM     27  H   UNL     1      19.572  -8.667  16.082  1.00  0.00     0.211 HD
ENDBRANCH   6  26
BRANCH   5  28
ATOM     28  O   UNL     1      23.054  -7.210  17.065  1.00  0.00    -0.385 OA
ATOM     29  H   UNL     1      23.842  -6.627  16.878  1.00  0.00     0.211 HD
ENDBRANCH   5  28
BRANCH   4  30
ATOM     30  O   UNL     1      23.007  -4.389  17.059  1.00  0.00    -0.341 OA
BRANCH  30  31
ATOM     31  C   UNL     1      24.023  -3.616  16.426  1.00  0.00     0.184 C 
ATOM     32  C   UNL     1      24.580  -2.569  17.420  1.00  0.00     0.178 C 
ATOM     33  C   UNL     1      25.147  -4.546  15.965  1.00  0.00     0.180 C 
ATOM     34  O   UNL     1      25.158  -3.201  18.550  1.00  0.00    -0.342 OA
ATOM     35  C   UNL     1      25.891  -5.143  17.176  1.00  0.00     0.201 C 
ATOM     36  C   UNL     1      26.256  -4.055  18.218  1.00  0.00     0.279 C 
BRANCH  32  37
ATOM     37  C   UNL     1      25.506  -1.528  16.754  1.00  0.00     0.191 C 
BRANCH  37  38
ATOM     38  O   UNL     1      25.426  -0.299  17.425  1.00  0.00    -0.394 OA
ATOM     39  H   UNL     1      24.571   0.124  17.146  1.00  0.00     0.210 HD
ENDBRANCH  37  38
ENDBRANCH  32  37
BRANCH  33  40
ATOM     40  O   UNL     1      24.585  -5.575  15.183  1.00  0.00    -0.387 OA
ATOM     41  H   UNL     1      25.030  -5.543  14.294  1.00  0.00     0.211 HD
ENDBRANCH  33  40
BRANCH  35  42
ATOM     42  O   UNL     1      27.078  -5.763  16.734  1.00  0.00    -0.385 OA
ATOM     43  H   UNL     1      27.693  -5.796  17.511  1.00  0.00     0.211 HD
ENDBRANCH  35  42
BRANCH  36  44
ATOM     44  O   UNL     1      26.716  -4.677  19.395  1.00  0.00    -0.366 OA
ATOM     45  H   UNL     1      27.696  -4.826  19.273  1.00  0.00     0.213 HD
ENDBRANCH  36  44
ENDBRANCH  30  31
ENDBRANCH   4  30
TORSDOF 18
ENDMDL
