MODEL 1
REMARK VINA RESULT:    -3.670      0.000      0.000
REMARK INTER + INTRA:          -4.707
REMARK INTER:                  -4.421
REMARK INTRA:                  -0.286
REMARK UNBOUND:                -0.286
REMARK SMILES NC(=O)C[C@H]([NH3+])C(=O)[O-]
REMARK SMILES IDX 4 1 5 2 6 3 7 7 8 8 9 9 2 10 3 11 1 12
REMARK H PARENT 6 4 6 5 6 6 1 13 1 14
REMARK Flexibility Score: inf
ROOT
ATOM      1  C   UNL     1     169.851 170.272 163.460  1.00  0.00     0.171 C 
ENDROOT
BRANCH   1   2
ATOM      2  C   UNL     1     169.634 168.745 163.435  1.00  0.00     0.237 C 
BRANCH   2   3
ATOM      3  N   UNL     1     170.645 168.044 164.241  1.00  0.00    -0.350 N 
ATOM      4  H   UNL     1     170.209 167.266 164.787  1.00  0.00     0.345 HD
ATOM      5  H   UNL     1     171.098 168.715 164.902  1.00  0.00     0.345 HD
ATOM      6  H   UNL     1     171.389 167.654 163.620  1.00  0.00     0.345 HD
ENDBRANCH   2   3
BRANCH   2   7
ATOM      7  C   UNL     1     169.664 168.248 162.015  1.00  0.00     0.100 C 
ATOM      8  O   UNL     1     169.816 167.021 161.770  1.00  0.00    -0.544 OA
ATOM      9  O   UNL     1     169.542 169.146 160.962  1.00  0.00    -0.544 OA
ENDBRANCH   2   7
ENDBRANCH   1   2
BRANCH   1  10
ATOM     10  C   UNL     1     170.556 170.712 164.709  1.00  0.00     0.223 C 
ATOM     11  O   UNL     1     171.809 170.836 164.710  1.00  0.00    -0.275 OA
ATOM     12  N   UNL     1     169.815 171.024 165.889  1.00  0.00    -0.369 N 
ATOM     13  H   UNL     1     170.308 171.341 166.753  1.00  0.00     0.159 HD
ATOM     14  H   UNL     1     168.773 170.950 165.900  1.00  0.00     0.159 HD
ENDBRANCH   1  10
TORSDOF 4
ENDMDL
MODEL 2
REMARK VINA RESULT:    -3.614      2.279      3.202
REMARK INTER + INTRA:          -4.640
REMARK INTER:                  -4.178
REMARK INTRA:                  -0.461
REMARK UNBOUND:                -0.286
REMARK SMILES NC(=O)C[C@H]([NH3+])C(=O)[O-]
REMARK SMILES IDX 4 1 5 2 6 3 7 7 8 8 9 9 2 10 3 11 1 12
REMARK H PARENT 6 4 6 5 6 6 1 13 1 14
REMARK Flexibility Score: inf
ROOT
ATOM      1  C   UNL     1     169.211 171.725 163.618  1.00  0.00     0.171 C 
ENDROOT
BRANCH   1   2
ATOM      2  C   UNL     1     169.483 170.577 164.611  1.00  0.00     0.237 C 
BRANCH   2   3
ATOM      3  N   UNL     1     169.711 171.084 165.972  1.00  0.00    -0.350 N 
ATOM      4  H   UNL     1     170.734 171.201 166.158  1.00  0.00     0.345 HD
ATOM      5  H   UNL     1     169.311 170.417 166.671  1.00  0.00     0.345 HD
ATOM      6  H   UNL     1     169.231 172.004 166.096  1.00  0.00     0.345 HD
ENDBRANCH   2   3
BRANCH   2   7
ATOM      7  C   UNL     1     170.670 169.773 164.150  1.00  0.00     0.100 C 
ATOM      8  O   UNL     1     171.803 170.313 164.036  1.00  0.00    -0.544 OA
ATOM      9  O   UNL     1     170.516 168.430 163.828  1.00  0.00    -0.544 OA
ENDBRANCH   2   7
ENDBRANCH   1   2
BRANCH   1  10
ATOM     10  C   UNL     1     169.740 173.034 164.125  1.00  0.00     0.223 C 
ATOM     11  O   UNL     1     168.969 173.832 164.722  1.00  0.00    -0.275 OA
ATOM     12  N   UNL     1     171.118 173.370 163.966  1.00  0.00    -0.369 N 
ATOM     13  H   UNL     1     171.485 174.278 164.329  1.00  0.00     0.159 HD
ATOM     14  H   UNL     1     171.777 172.712 163.495  1.00  0.00     0.159 HD
ENDBRANCH   1  10
TORSDOF 4
ENDMDL
MODEL 3
REMARK VINA RESULT:    -3.499      2.877      4.021
REMARK INTER + INTRA:          -4.501
REMARK INTER:                  -4.242
REMARK INTRA:                  -0.260
REMARK UNBOUND:                -0.286
REMARK SMILES NC(=O)C[C@H]([NH3+])C(=O)[O-]
REMARK SMILES IDX 4 1 5 2 6 3 7 7 8 8 9 9 2 10 3 11 1 12
REMARK H PARENT 6 4 6 5 6 6 1 13 1 14
REMARK Flexibility Score: inf
ROOT
ATOM      1  C   UNL     1     169.565 171.143 164.655  1.00  0.00     0.171 C 
ENDROOT
BRANCH   1   2
ATOM      2  C   UNL     1     169.565 172.356 163.702  1.00  0.00     0.237 C 
BRANCH   2   3
ATOM      3  N   UNL     1     170.348 173.473 164.250  1.00  0.00    -0.350 N 
ATOM      4  H   UNL     1     170.101 174.369 163.770  1.00  0.00     0.345 HD
ATOM      5  H   UNL     1     171.369 173.285 164.122  1.00  0.00     0.345 HD
ATOM      6  H   UNL     1     170.166 173.569 165.274  1.00  0.00     0.345 HD
ENDBRANCH   2   3
BRANCH   2   7
ATOM      7  C   UNL     1     168.150 172.795 163.434  1.00  0.00     0.100 C 
ATOM      8  O   UNL     1     167.311 171.989 162.950  1.00  0.00    -0.544 OA
ATOM      9  O   UNL     1     167.766 174.103 163.703  1.00  0.00    -0.544 OA
ENDBRANCH   2   7
ENDBRANCH   1   2
BRANCH   1  10
ATOM     10  C   UNL     1     170.844 170.364 164.561  1.00  0.00     0.223 C 
ATOM     11  O   UNL     1     171.947 170.950 164.721  1.00  0.00    -0.275 OA
ATOM     12  N   UNL     1     170.820 168.957 164.322  1.00  0.00    -0.369 N 
ATOM     13  H   UNL     1     171.712 168.416 164.268  1.00  0.00     0.159 HD
ATOM     14  H   UNL     1     169.914 168.449 164.210  1.00  0.00     0.159 HD
ENDBRANCH   1  10
TORSDOF 4
ENDMDL
MODEL 4
REMARK VINA RESULT:    -3.486      3.032      4.596
REMARK INTER + INTRA:          -4.486
REMARK INTER:                  -3.999
REMARK INTRA:                  -0.487
REMARK UNBOUND:                -0.286
REMARK SMILES NC(=O)C[C@H]([NH3+])C(=O)[O-]
REMARK SMILES IDX 4 1 5 2 6 3 7 7 8 8 9 9 2 10 3 11 1 12
REMARK H PARENT 6 4 6 5 6 6 1 13 1 14
REMARK Flexibility Score: inf
ROOT
ATOM      1  C   UNL     1     170.152 171.650 163.276  1.00  0.00     0.171 C 
ENDROOT
BRANCH   1   2
ATOM      2  C   UNL     1     170.656 173.105 163.177  1.00  0.00     0.237 C 
BRANCH   2   3
ATOM      3  N   UNL     1     171.812 173.335 164.056  1.00  0.00    -0.350 N 
ATOM      4  H   UNL     1     171.934 172.540 164.725  1.00  0.00     0.345 HD
ATOM      5  H   UNL     1     171.676 174.220 164.596  1.00  0.00     0.345 HD
ATOM      6  H   UNL     1     172.681 173.439 163.484  1.00  0.00     0.345 HD
ENDBRANCH   2   3
BRANCH   2   7
ATOM      7  C   UNL     1     169.542 174.057 163.522  1.00  0.00     0.100 C 
ATOM      8  O   UNL     1     169.248 175.005 162.747  1.00  0.00    -0.544 OA
ATOM      9  O   UNL     1     168.843 173.904 164.713  1.00  0.00    -0.544 OA
ENDBRANCH   2   7
ENDBRANCH   1   2
BRANCH   1  10
ATOM     10  C   UNL     1     170.621 170.985 164.535  1.00  0.00     0.223 C 
ATOM     11  O   UNL     1     171.770 170.471 164.582  1.00  0.00    -0.275 OA
ATOM     12  N   UNL     1     169.787 170.956 165.694  1.00  0.00    -0.369 N 
ATOM     13  H   UNL     1     170.122 170.501 166.573  1.00  0.00     0.159 HD
ATOM     14  H   UNL     1     168.841 171.397 165.682  1.00  0.00     0.159 HD
ENDBRANCH   1  10
TORSDOF 4
ENDMDL
MODEL 5
REMARK VINA RESULT:    -3.473      2.227      3.946
REMARK INTER + INTRA:          -4.470
REMARK INTER:                  -4.147
REMARK INTRA:                  -0.323
REMARK UNBOUND:                -0.286
REMARK SMILES NC(=O)C[C@H]([NH3+])C(=O)[O-]
REMARK SMILES IDX 4 1 5 2 6 3 7 7 8 8 9 9 2 10 3 11 1 12
REMARK H PARENT 6 4 6 5 6 6 1 13 1 14
REMARK Flexibility Score: inf
ROOT
ATOM      1  C   UNL     1     170.664 170.490 163.377  1.00  0.00     0.171 C 
ENDROOT
BRANCH   1   2
ATOM      2  C   UNL     1     170.381 171.569 164.442  1.00  0.00     0.237 C 
BRANCH   2   3
ATOM      3  N   UNL     1     169.819 170.982 165.667  1.00  0.00    -0.350 N 
ATOM      4  H   UNL     1     170.447 170.233 166.042  1.00  0.00     0.345 HD
ATOM      5  H   UNL     1     168.879 170.572 165.465  1.00  0.00     0.345 HD
ATOM      6  H   UNL     1     169.696 171.722 166.394  1.00  0.00     0.345 HD
ENDBRANCH   2   3
BRANCH   2   7
ATOM      7  C   UNL     1     169.443 172.606 163.884  1.00  0.00     0.100 C 
ATOM      8  O   UNL     1     168.964 172.477 162.726  1.00  0.00    -0.544 OA
ATOM      9  O   UNL     1     169.115 173.724 164.640  1.00  0.00    -0.544 OA
ENDBRANCH   2   7
ENDBRANCH   1   2
BRANCH   1  10
ATOM     10  C   UNL     1     169.967 169.200 163.695  1.00  0.00     0.223 C 
ATOM     11  O   UNL     1     168.731 169.087 163.481  1.00  0.00    -0.275 OA
ATOM     12  N   UNL     1     170.700 168.087 164.207  1.00  0.00    -0.369 N 
ATOM     13  H   UNL     1     170.213 167.187 164.417  1.00  0.00     0.159 HD
ATOM     14  H   UNL     1     171.729 168.154 164.368  1.00  0.00     0.159 HD
ENDBRANCH   1  10
TORSDOF 4
ENDMDL
MODEL 6
REMARK VINA RESULT:    -3.452      2.020      2.329
REMARK INTER + INTRA:          -4.445
REMARK INTER:                  -4.112
REMARK INTRA:                  -0.333
REMARK UNBOUND:                -0.286
REMARK SMILES NC(=O)C[C@H]([NH3+])C(=O)[O-]
REMARK SMILES IDX 4 1 5 2 6 3 7 7 8 8 9 9 2 10 3 11 1 12
REMARK H PARENT 6 4 6 5 6 6 1 13 1 14
REMARK Flexibility Score: inf
ROOT
ATOM      1  C   UNL     1     168.913 171.407 163.975  1.00  0.00     0.171 C 
ENDROOT
BRANCH   1   2
ATOM      2  C   UNL     1     169.767 170.284 164.598  1.00  0.00     0.237 C 
BRANCH   2   3
ATOM      3  N   UNL     1     171.075 170.787 165.045  1.00  0.00    -0.350 N 
ATOM      4  H   UNL     1     170.957 171.559 165.741  1.00  0.00     0.345 HD
ATOM      5  H   UNL     1     171.616 171.144 164.225  1.00  0.00     0.345 HD
ATOM      6  H   UNL     1     171.625 170.013 165.480  1.00  0.00     0.345 HD
ENDBRANCH   2   3
BRANCH   2   7
ATOM      7  C   UNL     1     169.949 169.168 163.605  1.00  0.00     0.100 C 
ATOM      8  O   UNL     1     170.488 168.084 163.953  1.00  0.00    -0.544 OA
ATOM      9  O   UNL     1     169.540 169.337 162.288  1.00  0.00    -0.544 OA
ENDBRANCH   2   7
ENDBRANCH   1   2
BRANCH   1  10
ATOM     10  C   UNL     1     169.654 172.710 163.934  1.00  0.00     0.223 C 
ATOM     11  O   UNL     1     170.577 172.879 163.093  1.00  0.00    -0.275 OA
ATOM     12  N   UNL     1     169.301 173.774 164.817  1.00  0.00    -0.369 N 
ATOM     13  H   UNL     1     169.812 174.684 164.778  1.00  0.00     0.159 HD
ATOM     14  H   UNL     1     168.523 173.661 165.504  1.00  0.00     0.159 HD
ENDBRANCH   1  10
TORSDOF 4
ENDMDL
MODEL 7
REMARK VINA RESULT:    -3.440      2.681      3.521
REMARK INTER + INTRA:          -4.431
REMARK INTER:                  -4.057
REMARK INTRA:                  -0.373
REMARK UNBOUND:                -0.286
REMARK SMILES NC(=O)C[C@H]([NH3+])C(=O)[O-]
REMARK SMILES IDX 4 1 5 2 6 3 7 7 8 8 9 9 2 10 3 11 1 12
REMARK H PARENT 6 4 6 5 6 6 1 13 1 14
REMARK Flexibility Score: inf
ROOT
ATOM      1  C   UNL     1     171.843 171.416 164.260  1.00  0.00     0.171 C 
ENDROOT
BRANCH   1   2
ATOM      2  C   UNL     1     171.239 172.581 163.449  1.00  0.00     0.237 C 
BRANCH   2   3
ATOM      3  N   UNL     1     170.317 173.384 164.266  1.00  0.00    -0.350 N 
ATOM      4  H   UNL     1     169.401 173.511 163.775  1.00  0.00     0.345 HD
ATOM      5  H   UNL     1     170.737 174.323 164.455  1.00  0.00     0.345 HD
ATOM      6  H   UNL     1     170.153 172.916 165.185  1.00  0.00     0.345 HD
ENDBRANCH   2   3
BRANCH   2   7
ATOM      7  C   UNL     1     170.527 172.044 162.236  1.00  0.00     0.100 C 
ATOM      8  O   UNL     1     171.172 171.470 161.318  1.00  0.00    -0.544 OA
ATOM      9  O   UNL     1     169.152 172.199 162.113  1.00  0.00    -0.544 OA
ENDBRANCH   2   7
ENDBRANCH   1   2
BRANCH   1  10
ATOM     10  C   UNL     1     170.790 170.444 164.704  1.00  0.00     0.223 C 
ATOM     11  O   UNL     1     169.823 170.845 165.405  1.00  0.00    -0.275 OA
ATOM     12  N   UNL     1     170.856 169.073 164.312  1.00  0.00    -0.369 N 
ATOM     13  H   UNL     1     170.116 168.402 164.614  1.00  0.00     0.159 HD
ATOM     14  H   UNL     1     171.637 168.726 163.711  1.00  0.00     0.159 HD
ENDBRANCH   1  10
TORSDOF 4
ENDMDL
MODEL 8
REMARK VINA RESULT:    -3.387      2.239      2.645
REMARK INTER + INTRA:          -4.366
REMARK INTER:                  -4.032
REMARK INTRA:                  -0.335
REMARK UNBOUND:                -0.286
REMARK SMILES NC(=O)C[C@H]([NH3+])C(=O)[O-]
REMARK SMILES IDX 4 1 5 2 6 3 7 7 8 8 9 9 2 10 3 11 1 12
REMARK H PARENT 6 4 6 5 6 6 1 13 1 14
REMARK Flexibility Score: inf
ROOT
ATOM      1  C   UNL     1     169.872 171.972 164.218  1.00  0.00     0.171 C 
ENDROOT
BRANCH   1   2
ATOM      2  C   UNL     1     169.936 170.482 164.610  1.00  0.00     0.237 C 
BRANCH   2   3
ATOM      3  N   UNL     1     171.321 169.990 164.636  1.00  0.00    -0.350 N 
ATOM      4  H   UNL     1     171.393 169.056 164.169  1.00  0.00     0.345 HD
ATOM      5  H   UNL     1     171.648 169.904 165.625  1.00  0.00     0.345 HD
ATOM      6  H   UNL     1     171.950 170.667 164.148  1.00  0.00     0.345 HD
ENDBRANCH   2   3
BRANCH   2   7
ATOM      7  C   UNL     1     169.112 169.665 163.650  1.00  0.00     0.100 C 
ATOM      8  O   UNL     1     168.062 170.141 163.142  1.00  0.00    -0.544 OA
ATOM      9  O   UNL     1     169.498 168.368 163.334  1.00  0.00    -0.544 OA
ENDBRANCH   2   7
ENDBRANCH   1   2
BRANCH   1  10
ATOM     10  C   UNL     1     171.129 172.421 163.534  1.00  0.00     0.223 C 
ATOM     11  O   UNL     1     171.420 171.965 162.396  1.00  0.00    -0.275 OA
ATOM     12  N   UNL     1     171.985 173.384 164.148  1.00  0.00    -0.369 N 
ATOM     13  H   UNL     1     172.854 173.702 163.665  1.00  0.00     0.159 HD
ATOM     14  H   UNL     1     171.748 173.791 165.081  1.00  0.00     0.159 HD
ENDBRANCH   1  10
TORSDOF 4
ENDMDL
MODEL 9
REMARK VINA RESULT:    -3.278      2.874      4.081
REMARK INTER + INTRA:          -4.235
REMARK INTER:                  -3.994
REMARK INTRA:                  -0.241
REMARK UNBOUND:                -0.286
REMARK SMILES NC(=O)C[C@H]([NH3+])C(=O)[O-]
REMARK SMILES IDX 4 1 5 2 6 3 7 7 8 8 9 9 2 10 3 11 1 12
REMARK H PARENT 6 4 6 5 6 6 1 13 1 14
REMARK Flexibility Score: inf
ROOT
ATOM      1  C   UNL     1     171.039 170.912 163.209  1.00  0.00     0.171 C 
ENDROOT
BRANCH   1   2
ATOM      2  C   UNL     1     172.235 171.772 163.667  1.00  0.00     0.237 C 
BRANCH   2   3
ATOM      3  N   UNL     1     171.790 172.998 164.345  1.00  0.00    -0.350 N 
ATOM      4  H   UNL     1     172.138 173.847 163.843  1.00  0.00     0.345 HD
ATOM      5  H   UNL     1     172.147 173.009 165.327  1.00  0.00     0.345 HD
ATOM      6  H   UNL     1     170.746 173.026 164.384  1.00  0.00     0.345 HD
ENDBRANCH   2   3
BRANCH   2   7
ATOM      7  C   UNL     1     173.100 172.116 162.483  1.00  0.00     0.100 C 
ATOM      8  O   UNL     1     174.290 171.707 162.420  1.00  0.00    -0.544 OA
ATOM      9  O   UNL     1     172.593 172.908 161.460  1.00  0.00    -0.544 OA
ENDBRANCH   2   7
ENDBRANCH   1   2
BRANCH   1  10
ATOM     10  C   UNL     1     170.464 170.114 164.341  1.00  0.00     0.223 C 
ATOM     11  O   UNL     1     169.834 170.699 165.263  1.00  0.00    -0.275 OA
ATOM     12  N   UNL     1     170.596 168.693 164.368  1.00  0.00    -0.369 N 
ATOM     13  H   UNL     1     170.185 168.140 165.153  1.00  0.00     0.159 HD
ATOM     14  H   UNL     1     171.094 168.188 163.602  1.00  0.00     0.159 HD
ENDBRANCH   1  10
TORSDOF 4
ENDMDL
