MODEL 1
REMARK VINA RESULT:    -3.023      0.000      0.000
REMARK INTER + INTRA:          -4.134
REMARK INTER:                  -3.730
REMARK INTRA:                  -0.403
REMARK UNBOUND:                -0.403
REMARK SMILES CCCCC=CC(C)=O
REMARK SMILES IDX 4 1 3 2 2 3 1 4 5 5 6 6 7 7 9 8 8 9
REMARK H PARENT
REMARK Flexibility Score: inf
ROOT
ATOM      1  C   UNL     1     135.554  51.754  23.383  1.00  0.00     0.027 C 
ENDROOT
BRANCH   1   2
ATOM      2  C   UNL     1     134.794  52.147  24.657  1.00  0.00     0.004 C 
BRANCH   2   3
ATOM      3  C   UNL     1     133.892  53.360  24.404  1.00  0.00    -0.003 C 
ATOM      4  C   UNL     1     134.230  54.031  23.076  1.00  0.00     0.004 C 
ENDBRANCH   2   3
ENDBRANCH   1   2
BRANCH   1   5
ATOM      5  C   UNL     1     134.934  50.549  22.727  1.00  0.00    -0.023 C 
ATOM      6  C   UNL     1     134.671  50.412  21.417  1.00  0.00     0.042 C 
BRANCH   6   7
ATOM      7  C   UNL     1     134.975  51.394  20.350  1.00  0.00     0.152 C 
ATOM      8  O   UNL     1     136.122  51.482  19.838  1.00  0.00    -0.295 OA
ATOM      9  C   UNL     1     133.875  52.256  19.818  1.00  0.00     0.093 C 
ENDBRANCH   6   7
ENDBRANCH   1   5
TORSDOF 4
ENDMDL
MODEL 2
REMARK VINA RESULT:    -2.966      2.079      3.861
REMARK INTER + INTRA:          -4.063
REMARK INTER:                  -3.596
REMARK INTRA:                  -0.467
REMARK UNBOUND:                -0.403
REMARK SMILES CCCCC=CC(C)=O
REMARK SMILES IDX 4 1 3 2 2 3 1 4 5 5 6 6 7 7 9 8 8 9
REMARK H PARENT
REMARK Flexibility Score: inf
ROOT
ATOM      1  C   UNL     1     134.592  50.362  22.540  1.00  0.00     0.027 C 
ENDROOT
BRANCH   1   2
ATOM      2  C   UNL     1     134.947  50.116  21.068  1.00  0.00     0.004 C 
BRANCH   2   3
ATOM      3  C   UNL     1     135.280  51.433  20.358  1.00  0.00    -0.003 C 
ATOM      4  C   UNL     1     134.011  52.174  19.948  1.00  0.00     0.004 C 
ENDBRANCH   2   3
ENDBRANCH   1   2
BRANCH   1   5
ATOM      5  C   UNL     1     135.746  50.977  23.285  1.00  0.00    -0.023 C 
ATOM      6  C   UNL     1     135.724  52.145  23.949  1.00  0.00     0.042 C 
BRANCH   6   7
ATOM      7  C   UNL     1     134.555  53.040  24.118  1.00  0.00     0.152 C 
ATOM      8  O   UNL     1     133.875  53.047  25.178  1.00  0.00    -0.295 OA
ATOM      9  C   UNL     1     134.214  54.008  23.032  1.00  0.00     0.093 C 
ENDBRANCH   6   7
ENDBRANCH   1   5
TORSDOF 4
ENDMDL
MODEL 3
REMARK VINA RESULT:    -2.901      1.432      2.410
REMARK INTER + INTRA:          -3.983
REMARK INTER:                  -3.481
REMARK INTRA:                  -0.502
REMARK UNBOUND:                -0.403
REMARK SMILES CCCCC=CC(C)=O
REMARK SMILES IDX 4 1 3 2 2 3 1 4 5 5 6 6 7 7 9 8 8 9
REMARK H PARENT
REMARK Flexibility Score: inf
ROOT
ATOM      1  C   UNL     1     134.949  53.018  23.538  1.00  0.00     0.027 C 
ENDROOT
BRANCH   1   2
ATOM      2  C   UNL     1     134.075  52.562  24.713  1.00  0.00     0.004 C 
BRANCH   2   3
ATOM      3  C   UNL     1     134.185  51.047  24.921  1.00  0.00    -0.003 C 
ATOM      4  C   UNL     1     135.451  50.493  24.276  1.00  0.00     0.004 C 
ENDBRANCH   2   3
ENDBRANCH   1   2
BRANCH   1   5
ATOM      5  C   UNL     1     134.109  53.526  22.396  1.00  0.00    -0.023 C 
ATOM      6  C   UNL     1     133.927  52.911  21.216  1.00  0.00     0.042 C 
BRANCH   6   7
ATOM      7  C   UNL     1     134.476  51.595  20.815  1.00  0.00     0.152 C 
ATOM      8  O   UNL     1     133.893  50.517  21.106  1.00  0.00    -0.295 OA
ATOM      9  C   UNL     1     135.717  51.545  19.983  1.00  0.00     0.093 C 
ENDBRANCH   6   7
ENDBRANCH   1   5
TORSDOF 4
ENDMDL
MODEL 4
REMARK VINA RESULT:    -2.639      2.098      4.374
REMARK INTER + INTRA:          -3.659
REMARK INTER:                  -3.455
REMARK INTRA:                  -0.204
REMARK UNBOUND:                -0.403
REMARK SMILES CCCCC=CC(C)=O
REMARK SMILES IDX 4 1 3 2 2 3 1 4 5 5 6 6 7 7 9 8 8 9
REMARK H PARENT
REMARK Flexibility Score: inf
ROOT
ATOM      1  C   UNL     1     134.039  52.192  22.420  1.00  0.00     0.027 C 
ENDROOT
BRANCH   1   2
ATOM      2  C   UNL     1     133.941  53.003  21.122  1.00  0.00     0.004 C 
BRANCH   2   3
ATOM      3  C   UNL     1     134.247  52.125  19.903  1.00  0.00    -0.003 C 
ATOM      4  C   UNL     1     135.622  51.474  20.023  1.00  0.00     0.004 C 
ENDBRANCH   2   3
ENDBRANCH   1   2
BRANCH   1   5
ATOM      5  C   UNL     1     134.666  53.000  23.524  1.00  0.00    -0.023 C 
ATOM      6  C   UNL     1     135.061  52.531  24.719  1.00  0.00     0.042 C 
BRANCH   6   7
ATOM      7  C   UNL     1     135.003  51.123  25.176  1.00  0.00     0.152 C 
ATOM      8  O   UNL     1     135.737  50.232  24.672  1.00  0.00    -0.295 OA
ATOM      9  C   UNL     1     134.099  50.761  26.310  1.00  0.00     0.093 C 
ENDBRANCH   6   7
ENDBRANCH   1   5
TORSDOF 4
ENDMDL
MODEL 5
REMARK VINA RESULT:    -2.603     10.848     12.582
REMARK INTER + INTRA:          -3.615
REMARK INTER:                  -3.427
REMARK INTRA:                  -0.188
REMARK UNBOUND:                -0.403
REMARK SMILES CCCCC=CC(C)=O
REMARK SMILES IDX 4 1 3 2 2 3 1 4 5 5 6 6 7 7 9 8 8 9
REMARK H PARENT
REMARK Flexibility Score: inf
ROOT
ATOM      1  C   UNL     1     134.048  61.111  13.267  1.00  0.00     0.027 C 
ENDROOT
BRANCH   1   2
ATOM      2  C   UNL     1     134.768  62.460  13.389  1.00  0.00     0.004 C 
BRANCH   2   3
ATOM      3  C   UNL     1     133.878  63.603  12.888  1.00  0.00    -0.003 C 
ATOM      4  C   UNL     1     134.629  64.931  12.899  1.00  0.00     0.004 C 
ENDBRANCH   2   3
ENDBRANCH   1   2
BRANCH   1   5
ATOM      5  C   UNL     1     134.171  60.309  14.535  1.00  0.00    -0.023 C 
ATOM      6  C   UNL     1     134.585  59.034  14.625  1.00  0.00     0.042 C 
BRANCH   6   7
ATOM      7  C   UNL     1     135.043  58.175  13.508  1.00  0.00     0.152 C 
ATOM      8  O   UNL     1     136.240  58.183  13.115  1.00  0.00    -0.295 OA
ATOM      9  C   UNL     1     134.078  57.225  12.875  1.00  0.00     0.093 C 
ENDBRANCH   6   7
ENDBRANCH   1   5
TORSDOF 4
ENDMDL
MODEL 6
REMARK VINA RESULT:    -2.538      2.553      4.722
REMARK INTER + INTRA:          -3.534
REMARK INTER:                  -3.391
REMARK INTRA:                  -0.143
REMARK UNBOUND:                -0.403
REMARK SMILES CCCCC=CC(C)=O
REMARK SMILES IDX 4 1 3 2 2 3 1 4 5 5 6 6 7 7 9 8 8 9
REMARK H PARENT
REMARK Flexibility Score: inf
ROOT
ATOM      1  C   UNL     1     135.531  51.442  23.223  1.00  0.00     0.027 C 
ENDROOT
BRANCH   1   2
ATOM      2  C   UNL     1     135.002  50.840  21.915  1.00  0.00     0.004 C 
BRANCH   2   3
ATOM      3  C   UNL     1     134.507  51.938  20.967  1.00  0.00    -0.003 C 
ATOM      4  C   UNL     1     135.365  52.005  19.707  1.00  0.00     0.004 C 
ENDBRANCH   2   3
ENDBRANCH   1   2
BRANCH   1   5
ATOM      5  C   UNL     1     134.700  52.620  23.657  1.00  0.00    -0.023 C 
ATOM      6  C   UNL     1     134.371  52.930  24.923  1.00  0.00     0.042 C 
BRANCH   6   7
ATOM      7  C   UNL     1     134.793  52.206  26.145  1.00  0.00     0.152 C 
ATOM      8  O   UNL     1     134.574  50.975  26.294  1.00  0.00    -0.295 OA
ATOM      9  C   UNL     1     135.558  52.940  27.199  1.00  0.00     0.093 C 
ENDBRANCH   6   7
ENDBRANCH   1   5
TORSDOF 4
ENDMDL
MODEL 7
REMARK VINA RESULT:    -2.439      4.997      7.169
REMARK INTER + INTRA:          -3.412
REMARK INTER:                  -3.188
REMARK INTRA:                  -0.224
REMARK UNBOUND:                -0.403
REMARK SMILES CCCCC=CC(C)=O
REMARK SMILES IDX 4 1 3 2 2 3 1 4 5 5 6 6 7 7 9 8 8 9
REMARK H PARENT
REMARK Flexibility Score: inf
ROOT
ATOM      1  C   UNL     1     134.390  52.841  27.286  1.00  0.00     0.027 C 
ENDROOT
BRANCH   1   2
ATOM      2  C   UNL     1     134.426  51.949  26.038  1.00  0.00     0.004 C 
BRANCH   2   3
ATOM      3  C   UNL     1     134.989  52.713  24.834  1.00  0.00    -0.003 C 
ATOM      4  C   UNL     1     135.486  51.754  23.756  1.00  0.00     0.004 C 
ENDBRANCH   2   3
ENDBRANCH   1   2
BRANCH   1   5
ATOM      5  C   UNL     1     135.778  53.227  27.721  1.00  0.00    -0.023 C 
ATOM      6  C   UNL     1     136.086  54.124  28.674  1.00  0.00     0.042 C 
BRANCH   6   7
ATOM      7  C   UNL     1     135.128  54.877  29.516  1.00  0.00     0.152 C 
ATOM      8  O   UNL     1     134.429  55.815  29.048  1.00  0.00    -0.295 OA
ATOM      9  C   UNL     1     134.935  54.472  30.942  1.00  0.00     0.093 C 
ENDBRANCH   6   7
ENDBRANCH   1   5
TORSDOF 4
ENDMDL
MODEL 8
REMARK VINA RESULT:    -2.378      1.656      2.604
REMARK INTER + INTRA:          -3.337
REMARK INTER:                  -3.166
REMARK INTRA:                  -0.171
REMARK UNBOUND:                -0.403
REMARK SMILES CCCCC=CC(C)=O
REMARK SMILES IDX 4 1 3 2 2 3 1 4 5 5 6 6 7 7 9 8 8 9
REMARK H PARENT
REMARK Flexibility Score: inf
ROOT
ATOM      1  C   UNL     1     134.099  51.022  23.453  1.00  0.00     0.027 C 
ENDROOT
BRANCH   1   2
ATOM      2  C   UNL     1     134.543  50.668  24.878  1.00  0.00     0.004 C 
BRANCH   2   3
ATOM      3  C   UNL     1     134.931  49.188  24.979  1.00  0.00    -0.003 C 
ATOM      4  C   UNL     1     136.295  49.020  25.642  1.00  0.00     0.004 C 
ENDBRANCH   2   3
ENDBRANCH   1   2
BRANCH   1   5
ATOM      5  C   UNL     1     134.344  49.880  22.504  1.00  0.00    -0.023 C 
ATOM      6  C   UNL     1     134.710  49.989  21.216  1.00  0.00     0.042 C 
BRANCH   6   7
ATOM      7  C   UNL     1     134.990  51.245  20.483  1.00  0.00     0.152 C 
ATOM      8  O   UNL     1     136.127  51.494  20.004  1.00  0.00    -0.295 OA
ATOM      9  C   UNL     1     133.876  52.213  20.245  1.00  0.00     0.093 C 
ENDBRANCH   6   7
ENDBRANCH   1   5
TORSDOF 4
ENDMDL
MODEL 9
REMARK VINA RESULT:    -1.676      1.495      2.019
REMARK INTER + INTRA:          -2.472
REMARK INTER:                  -2.204
REMARK INTRA:                  -0.268
REMARK UNBOUND:                -0.403
REMARK SMILES CCCCC=CC(C)=O
REMARK SMILES IDX 4 1 3 2 2 3 1 4 5 5 6 6 7 7 9 8 8 9
REMARK H PARENT
REMARK Flexibility Score: inf
ROOT
ATOM      1  C   UNL     1     135.739  51.488  23.593  1.00  0.00     0.027 C 
ENDROOT
BRANCH   1   2
ATOM      2  C   UNL     1     134.965  52.439  24.514  1.00  0.00     0.004 C 
BRANCH   2   3
ATOM      3  C   UNL     1     134.837  51.852  25.925  1.00  0.00    -0.003 C 
ATOM      4  C   UNL     1     135.268  52.862  26.983  1.00  0.00     0.004 C 
ENDBRANCH   2   3
ENDBRANCH   1   2
BRANCH   1   5
ATOM      5  C   UNL     1     134.808  50.577  22.840  1.00  0.00    -0.023 C 
ATOM      6  C   UNL     1     134.228  50.843  21.658  1.00  0.00     0.042 C 
BRANCH   6   7
ATOM      7  C   UNL     1     134.419  52.061  20.837  1.00  0.00     0.152 C 
ATOM      8  O   UNL     1     133.875  53.156  21.139  1.00  0.00    -0.295 OA
ATOM      9  C   UNL     1     135.337  52.009  19.658  1.00  0.00     0.093 C 
ENDBRANCH   6   7
ENDBRANCH   1   5
TORSDOF 4
ENDMDL
