MODEL 1
REMARK VINA RESULT:    -5.625      0.000      0.000
REMARK INTER + INTRA:          -6.218
REMARK INTER:                  -6.118
REMARK INTRA:                  -0.100
REMARK UNBOUND:                -0.100
REMARK SMILES Cc1ccc(C(C)C)cc1O
REMARK SMILES IDX 1 1 2 2 10 3 9 4 5 5 4 6 3 7 11 8 6 10 7 11 8 12
REMARK H PARENT 11 9
REMARK Flexibility Score: inf
ROOT
ATOM      1  C   UNL     1       2.543   6.020   9.662  1.00  0.00     0.048 C 
ATOM      2  C   UNL     1       2.947   5.297  10.916  1.00  0.00    -0.009 A 
ATOM      3  C   UNL     1       1.985   4.618  11.683  1.00  0.00     0.118 A 
ATOM      4  C   UNL     1       2.368   3.945  12.852  1.00  0.00     0.050 A 
ATOM      5  C   UNL     1       3.709   3.939  13.270  1.00  0.00    -0.042 A 
ATOM      6  C   UNL     1       4.665   4.621  12.496  1.00  0.00     0.004 A 
ATOM      7  C   UNL     1       4.287   5.293  11.331  1.00  0.00     0.007 A 
ENDROOT
BRANCH   3   8
ATOM      8  O   UNL     1       0.649   4.614  11.282  1.00  0.00    -0.508 OA
ATOM      9  H   UNL     1       0.317   5.211  10.532  1.00  0.00     0.293 HD
ENDBRANCH   3   8
BRANCH   5  10
ATOM     10  C   UNL     1       4.107   3.206  14.538  1.00  0.00     0.013 C 
ATOM     11  C   UNL     1       4.095   1.688  14.326  1.00  0.00     0.012 C 
ATOM     12  C   UNL     1       3.208   3.608  15.714  1.00  0.00     0.012 C 
ENDBRANCH   5  10
TORSDOF 2
ENDMDL
MODEL 2
REMARK VINA RESULT:    -5.407     15.016     15.979
REMARK INTER + INTRA:          -5.982
REMARK INTER:                  -5.870
REMARK INTRA:                  -0.112
REMARK UNBOUND:                -0.100
REMARK SMILES Cc1ccc(C(C)C)cc1O
REMARK SMILES IDX 1 1 2 2 10 3 9 4 5 5 4 6 3 7 11 8 6 10 7 11 8 12
REMARK H PARENT 11 9
REMARK Flexibility Score: inf
ROOT
ATOM      1  C   UNL     1      -6.248  -4.064  12.391  1.00  0.00     0.048 C 
ATOM      2  C   UNL     1      -7.191  -5.093  12.948  1.00  0.00    -0.009 A 
ATOM      3  C   UNL     1      -8.491  -4.725  13.336  1.00  0.00     0.118 A 
ATOM      4  C   UNL     1      -9.367  -5.689  13.856  1.00  0.00     0.050 A 
ATOM      5  C   UNL     1      -8.961  -7.027  13.994  1.00  0.00    -0.042 A 
ATOM      6  C   UNL     1      -7.658  -7.386  13.603  1.00  0.00     0.004 A 
ATOM      7  C   UNL     1      -6.783  -6.428  13.085  1.00  0.00     0.007 A 
ENDROOT
BRANCH   3   8
ATOM      8  O   UNL     1      -8.910  -3.401  13.206  1.00  0.00    -0.508 OA
ATOM      9  H   UNL     1      -9.844  -3.109  13.472  1.00  0.00     0.293 HD
ENDBRANCH   3   8
BRANCH   5  10
ATOM     10  C   UNL     1      -9.920  -8.059  14.558  1.00  0.00     0.013 C 
ATOM     11  C   UNL     1     -10.373  -9.044  13.475  1.00  0.00     0.012 C 
ATOM     12  C   UNL     1     -11.123  -7.384  15.231  1.00  0.00     0.012 C 
ENDBRANCH   5  10
TORSDOF 2
ENDMDL
MODEL 3
REMARK VINA RESULT:    -5.277     12.574     14.401
REMARK INTER + INTRA:          -5.840
REMARK INTER:                  -5.716
REMARK INTRA:                  -0.124
REMARK UNBOUND:                -0.100
REMARK SMILES Cc1ccc(C(C)C)cc1O
REMARK SMILES IDX 1 1 2 2 10 3 9 4 5 5 4 6 3 7 11 8 6 10 7 11 8 12
REMARK H PARENT 11 9
REMARK Flexibility Score: inf
ROOT
ATOM      1  C   UNL     1      -0.891  -9.928  18.901  1.00  0.00     0.048 C 
ATOM      2  C   UNL     1      -0.882  -8.538  19.473  1.00  0.00    -0.009 A 
ATOM      3  C   UNL     1       0.328  -7.947  19.877  1.00  0.00     0.118 A 
ATOM      4  C   UNL     1       0.330  -6.650  20.410  1.00  0.00     0.050 A 
ATOM      5  C   UNL     1      -0.867  -5.927  20.546  1.00  0.00    -0.042 A 
ATOM      6  C   UNL     1      -2.073  -6.528  20.139  1.00  0.00     0.004 A 
ATOM      7  C   UNL     1      -2.079  -7.820  19.608  1.00  0.00     0.007 A 
ENDROOT
BRANCH   3   8
ATOM      8  O   UNL     1       1.525  -8.650  19.748  1.00  0.00    -0.508 OA
ATOM      9  H   UNL     1       2.185  -8.447  19.004  1.00  0.00     0.293 HD
ENDBRANCH   3   8
BRANCH   5  10
ATOM     10  C   UNL     1      -0.847  -4.525  21.125  1.00  0.00     0.013 C 
ATOM     11  C   UNL     1      -1.818  -3.604  20.377  1.00  0.00     0.012 C 
ATOM     12  C   UNL     1       0.574  -3.947  21.125  1.00  0.00     0.012 C 
ENDBRANCH   5  10
TORSDOF 2
ENDMDL
MODEL 4
REMARK VINA RESULT:    -5.234     16.560     17.680
REMARK INTER + INTRA:          -5.794
REMARK INTER:                  -5.690
REMARK INTRA:                  -0.104
REMARK UNBOUND:                -0.100
REMARK SMILES Cc1ccc(C(C)C)cc1O
REMARK SMILES IDX 1 1 2 2 10 3 9 4 5 5 4 6 3 7 11 8 6 10 7 11 8 12
REMARK H PARENT 11 9
REMARK Flexibility Score: inf
ROOT
ATOM      1  C   UNL     1     -11.125  -7.443  15.124  1.00  0.00     0.048 C 
ATOM      2  C   UNL     1     -10.107  -7.987  14.162  1.00  0.00    -0.009 A 
ATOM      3  C   UNL     1      -9.289  -7.111  13.426  1.00  0.00     0.118 A 
ATOM      4  C   UNL     1      -8.342  -7.624  12.529  1.00  0.00     0.050 A 
ATOM      5  C   UNL     1      -8.195  -9.011  12.354  1.00  0.00    -0.042 A 
ATOM      6  C   UNL     1      -9.019  -9.879  13.095  1.00  0.00     0.004 A 
ATOM      7  C   UNL     1      -9.964  -9.371  13.989  1.00  0.00     0.007 A 
ENDROOT
BRANCH   3   8
ATOM      8  O   UNL     1      -9.421  -5.732  13.588  1.00  0.00    -0.508 OA
ATOM      9  H   UNL     1     -10.328  -5.296  13.717  1.00  0.00     0.293 HD
ENDBRANCH   3   8
BRANCH   5  10
ATOM     10  C   UNL     1      -7.165  -9.550  11.380  1.00  0.00     0.013 C 
ATOM     11  C   UNL     1      -5.807  -9.747  12.063  1.00  0.00     0.012 C 
ATOM     12  C   UNL     1      -7.039  -8.641  10.151  1.00  0.00     0.012 C 
ENDBRANCH   5  10
TORSDOF 2
ENDMDL
MODEL 5
REMARK VINA RESULT:    -5.223     10.556     11.848
REMARK INTER + INTRA:          -5.781
REMARK INTER:                  -5.656
REMARK INTRA:                  -0.126
REMARK UNBOUND:                -0.100
REMARK SMILES Cc1ccc(C(C)C)cc1O
REMARK SMILES IDX 1 1 2 2 10 3 9 4 5 5 4 6 3 7 11 8 6 10 7 11 8 12
REMARK H PARENT 11 9
REMARK Flexibility Score: inf
ROOT
ATOM      1  C   UNL     1      -0.358   8.248   3.843  1.00  0.00     0.048 C 
ATOM      2  C   UNL     1      -0.976   7.042   3.194  1.00  0.00    -0.009 A 
ATOM      3  C   UNL     1      -0.230   6.260   2.295  1.00  0.00     0.118 A 
ATOM      4  C   UNL     1      -0.813   5.136   1.693  1.00  0.00     0.050 A 
ATOM      5  C   UNL     1      -2.142   4.778   1.976  1.00  0.00    -0.042 A 
ATOM      6  C   UNL     1      -2.882   5.568   2.876  1.00  0.00     0.004 A 
ATOM      7  C   UNL     1      -2.304   6.688   3.478  1.00  0.00     0.007 A 
ENDROOT
BRANCH   3   8
ATOM      8  O   UNL     1       1.090   6.601   2.004  1.00  0.00    -0.508 OA
ATOM      9  H   UNL     1       1.867   6.230   2.541  1.00  0.00     0.293 HD
ENDBRANCH   3   8
BRANCH   5  10
ATOM     10  C   UNL     1      -2.759   3.559   1.315  1.00  0.00     0.013 C 
ATOM     11  C   UNL     1      -3.787   2.892   2.235  1.00  0.00     0.012 C 
ATOM     12  C   UNL     1      -1.678   2.562   0.878  1.00  0.00     0.012 C 
ENDBRANCH   5  10
TORSDOF 2
ENDMDL
MODEL 6
REMARK VINA RESULT:    -5.120     16.280     17.416
REMARK INTER + INTRA:          -5.669
REMARK INTER:                  -5.544
REMARK INTRA:                  -0.125
REMARK UNBOUND:                -0.100
REMARK SMILES Cc1ccc(C(C)C)cc1O
REMARK SMILES IDX 1 1 2 2 10 3 9 4 5 5 4 6 3 7 11 8 6 10 7 11 8 12
REMARK H PARENT 11 9
REMARK Flexibility Score: inf
ROOT
ATOM      1  C   UNL     1      -5.125  -9.860   3.833  1.00  0.00     0.048 C 
ATOM      2  C   UNL     1      -4.712  -8.607   3.115  1.00  0.00    -0.009 A 
ATOM      3  C   UNL     1      -5.664  -7.844   2.416  1.00  0.00     0.118 A 
ATOM      4  C   UNL     1      -5.271  -6.676   1.747  1.00  0.00     0.050 A 
ATOM      5  C   UNL     1      -3.931  -6.253   1.767  1.00  0.00    -0.042 A 
ATOM      6  C   UNL     1      -2.986  -7.023   2.469  1.00  0.00     0.004 A 
ATOM      7  C   UNL     1      -3.373  -8.188   3.136  1.00  0.00     0.007 A 
ENDROOT
BRANCH   3   8
ATOM      8  O   UNL     1      -6.997  -8.250   2.387  1.00  0.00    -0.508 OA
ATOM      9  H   UNL     1      -7.731  -7.699   2.819  1.00  0.00     0.293 HD
ENDBRANCH   3   8
BRANCH   5  10
ATOM     10  C   UNL     1      -3.523  -4.986   1.038  1.00  0.00     0.013 C 
ATOM     11  C   UNL     1      -2.354  -4.292   1.747  1.00  0.00     0.012 C 
ATOM     12  C   UNL     1      -4.715  -4.034   0.875  1.00  0.00     0.012 C 
ENDBRANCH   5  10
TORSDOF 2
ENDMDL
MODEL 7
REMARK VINA RESULT:    -5.054     14.788     15.817
REMARK INTER + INTRA:          -5.598
REMARK INTER:                  -5.471
REMARK INTRA:                  -0.126
REMARK UNBOUND:                -0.100
REMARK SMILES Cc1ccc(C(C)C)cc1O
REMARK SMILES IDX 1 1 2 2 10 3 9 4 5 5 4 6 3 7 11 8 6 10 7 11 8 12
REMARK H PARENT 11 9
REMARK Flexibility Score: inf
ROOT
ATOM      1  C   UNL     1      -6.446  -3.468  13.280  1.00  0.00     0.048 C 
ATOM      2  C   UNL     1      -7.163  -4.785  13.202  1.00  0.00    -0.009 A 
ATOM      3  C   UNL     1      -8.556  -4.846  13.388  1.00  0.00     0.118 A 
ATOM      4  C   UNL     1      -9.220  -6.078  13.314  1.00  0.00     0.050 A 
ATOM      5  C   UNL     1      -8.509  -7.263  13.055  1.00  0.00    -0.042 A 
ATOM      6  C   UNL     1      -7.116  -7.192  12.871  1.00  0.00     0.004 A 
ATOM      7  C   UNL     1      -6.451  -5.966  12.944  1.00  0.00     0.007 A 
ENDROOT
BRANCH   3   8
ATOM      8  O   UNL     1      -9.276  -3.680  13.645  1.00  0.00    -0.508 OA
ATOM      9  H   UNL     1      -9.944  -3.624  14.407  1.00  0.00     0.293 HD
ENDBRANCH   3   8
BRANCH   5  10
ATOM     10  C   UNL     1      -9.243  -8.589  12.979  1.00  0.00     0.013 C 
ATOM     11  C   UNL     1      -9.987  -8.885  14.286  1.00  0.00     0.012 C 
ATOM     12  C   UNL     1      -8.284  -9.730  12.617  1.00  0.00     0.012 C 
ENDBRANCH   5  10
TORSDOF 2
ENDMDL
MODEL 8
REMARK VINA RESULT:    -4.969     16.581     17.793
REMARK INTER + INTRA:          -5.505
REMARK INTER:                  -5.380
REMARK INTRA:                  -0.125
REMARK UNBOUND:                -0.100
REMARK SMILES Cc1ccc(C(C)C)cc1O
REMARK SMILES IDX 1 1 2 2 10 3 9 4 5 5 4 6 3 7 11 8 6 10 7 11 8 12
REMARK H PARENT 11 9
REMARK Flexibility Score: inf
ROOT
ATOM      1  C   UNL     1     -10.969  -7.471  15.158  1.00  0.00     0.048 C 
ATOM      2  C   UNL     1      -9.905  -7.953  14.213  1.00  0.00    -0.009 A 
ATOM      3  C   UNL     1     -10.019  -9.215  13.603  1.00  0.00     0.118 A 
ATOM      4  C   UNL     1      -9.023  -9.660  12.722  1.00  0.00     0.050 A 
ATOM      5  C   UNL     1      -7.905  -8.858  12.438  1.00  0.00    -0.042 A 
ATOM      6  C   UNL     1      -7.799  -7.597  13.054  1.00  0.00     0.004 A 
ATOM      7  C   UNL     1      -8.790  -7.151  13.932  1.00  0.00     0.007 A 
ENDROOT
BRANCH   3   8
ATOM      8  O   UNL     1     -11.123 -10.023  13.874  1.00  0.00    -0.508 OA
ATOM      9  H   UNL     1     -11.144 -10.644  14.676  1.00  0.00     0.293 HD
ENDBRANCH   3   8
BRANCH   5  10
ATOM     10  C   UNL     1      -6.835  -9.355  11.483  1.00  0.00     0.013 C 
ATOM     11  C   UNL     1      -5.435  -9.182  12.082  1.00  0.00     0.012 C 
ATOM     12  C   UNL     1      -6.944  -8.658  10.121  1.00  0.00     0.012 C 
ENDBRANCH   5  10
TORSDOF 2
ENDMDL
MODEL 9
REMARK VINA RESULT:    -4.946     16.035     17.282
REMARK INTER + INTRA:          -5.480
REMARK INTER:                  -5.354
REMARK INTRA:                  -0.126
REMARK UNBOUND:                -0.100
REMARK SMILES Cc1ccc(C(C)C)cc1O
REMARK SMILES IDX 1 1 2 2 10 3 9 4 5 5 4 6 3 7 11 8 6 10 7 11 8 12
REMARK H PARENT 11 9
REMARK Flexibility Score: inf
ROOT
ATOM      1  C   UNL     1     -11.125 -10.098  13.946  1.00  0.00     0.048 C 
ATOM      2  C   UNL     1      -9.996  -9.138  13.699  1.00  0.00    -0.009 A 
ATOM      3  C   UNL     1      -9.987  -7.879  14.325  1.00  0.00     0.118 A 
ATOM      4  C   UNL     1      -8.931  -6.987  14.090  1.00  0.00     0.050 A 
ATOM      5  C   UNL     1      -7.873  -7.336  13.233  1.00  0.00    -0.042 A 
ATOM      6  C   UNL     1      -7.891  -8.599  12.611  1.00  0.00     0.004 A 
ATOM      7  C   UNL     1      -8.942  -9.489  12.843  1.00  0.00     0.007 A 
ENDROOT
BRANCH   3   8
ATOM      8  O   UNL     1     -11.029  -7.517  15.178  1.00  0.00    -0.508 OA
ATOM      9  H   UNL     1     -11.754  -8.176  15.442  1.00  0.00     0.293 HD
ENDBRANCH   3   8
BRANCH   5  10
ATOM     10  C   UNL     1      -6.738  -6.360  12.989  1.00  0.00     0.013 C 
ATOM     11  C   UNL     1      -7.255  -5.053  12.377  1.00  0.00     0.012 C 
ATOM     12  C   UNL     1      -5.648  -6.988  12.111  1.00  0.00     0.012 C 
ENDBRANCH   5  10
TORSDOF 2
ENDMDL
