MODEL 1
REMARK VINA RESULT:    -5.428      0.000      0.000
REMARK INTER + INTRA:         -11.796
REMARK INTER:                 -10.189
REMARK INTRA:                  -1.608
REMARK UNBOUND:                -1.608
REMARK SMILES CCCCCCCCC=CCCCCCCCC(=O)[O-]
REMARK SMILES IDX 10 1 9 2 11 3 12 4 13 5 14 6 15 7 16 8 17 9 18 10 19 11
REMARK SMILES IDX 20 12 8 13 7 14 6 15 5 16 4 17 3 18 2 19 1 20
REMARK H PARENT
REMARK Flexibility Score: inf
ROOT
ATOM      1  C   UNL     1       4.637 -10.293 -20.280  1.00  0.00    -0.031 C 
ATOM      2  C   UNL     1       5.715  -9.976 -21.015  1.00  0.00    -0.031 C 
ENDROOT
BRANCH   1   3
ATOM      3  C   UNL     1       4.699 -11.125 -19.020  1.00  0.00     0.027 C 
BRANCH   3   4
ATOM      4  C   UNL     1       3.373 -11.103 -18.242  1.00  0.00     0.004 C 
BRANCH   4   5
ATOM      5  C   UNL     1       2.821  -9.685 -17.975  1.00  0.00     0.000 C 
BRANCH   5   6
ATOM      6  C   UNL     1       2.936  -9.205 -16.516  1.00  0.00     0.000 C 
BRANCH   6   7
ATOM      7  C   UNL     1       4.326  -9.389 -15.877  1.00  0.00     0.000 C 
BRANCH   7   8
ATOM      8  C   UNL     1       4.317 -10.270 -14.609  1.00  0.00     0.006 C 
BRANCH   8   9
ATOM      9  C   UNL     1       3.046 -11.120 -14.491  1.00  0.00     0.053 C 
BRANCH   9  10
ATOM     10  C   UNL     1       3.302 -12.509 -14.987  1.00  0.00     0.041 C 
ATOM     11  O   UNL     1       2.357 -13.335 -15.071  1.00  0.00    -0.550 OA
ATOM     12  O   UNL     1       4.574 -12.874 -15.406  1.00  0.00    -0.550 OA
ENDBRANCH   9  10
ENDBRANCH   8   9
ENDBRANCH   7   8
ENDBRANCH   6   7
ENDBRANCH   5   6
ENDBRANCH   4   5
ENDBRANCH   3   4
ENDBRANCH   1   3
BRANCH   2  13
ATOM     13  C   UNL     1       7.132 -10.332 -20.646  1.00  0.00     0.027 C 
BRANCH  13  14
ATOM     14  C   UNL     1       8.128  -9.536 -21.503  1.00  0.00     0.004 C 
BRANCH  14  15
ATOM     15  C   UNL     1       7.634  -8.115 -21.815  1.00  0.00     0.000 C 
BRANCH  15  16
ATOM     16  C   UNL     1       7.692  -7.788 -23.314  1.00  0.00     0.000 C 
BRANCH  16  17
ATOM     17  C   UNL     1       6.401  -7.101 -23.777  1.00  0.00    -0.000 C 
BRANCH  17  18
ATOM     18  C   UNL     1       5.593  -6.508 -22.613  1.00  0.00    -0.000 C 
BRANCH  18  19
ATOM     19  C   UNL     1       4.168  -7.074 -22.533  1.00  0.00    -0.003 C 
ATOM     20  C   UNL     1       3.181  -6.184 -23.281  1.00  0.00     0.004 C 
ENDBRANCH  18  19
ENDBRANCH  17  18
ENDBRANCH  16  17
ENDBRANCH  15  16
ENDBRANCH  14  15
ENDBRANCH  13  14
ENDBRANCH   2  13
TORSDOF 15
ENDMDL
MODEL 2
REMARK VINA RESULT:    -5.368      3.597      8.069
REMARK INTER + INTRA:         -11.684
REMARK INTER:                 -10.048
REMARK INTRA:                  -1.636
REMARK UNBOUND:                -1.608
REMARK SMILES CCCCCCCCC=CCCCCCCCC(=O)[O-]
REMARK SMILES IDX 10 1 9 2 11 3 12 4 13 5 14 6 15 7 16 8 17 9 18 10 19 11
REMARK SMILES IDX 20 12 8 13 7 14 6 15 5 16 4 17 3 18 2 19 1 20
REMARK H PARENT
REMARK Flexibility Score: inf
ROOT
ATOM      1  C   UNL     1       6.123 -10.769 -17.722  1.00  0.00    -0.031 C 
ATOM      2  C   UNL     1       5.335  -9.990 -16.965  1.00  0.00    -0.031 C 
ENDROOT
BRANCH   1   3
ATOM      3  C   UNL     1       5.640 -11.512 -18.946  1.00  0.00     0.027 C 
BRANCH   3   4
ATOM      4  C   UNL     1       5.877 -10.717 -20.240  1.00  0.00     0.004 C 
BRANCH   4   5
ATOM      5  C   UNL     1       4.664  -9.879 -20.699  1.00  0.00     0.000 C 
BRANCH   5   6
ATOM      6  C   UNL     1       4.967  -8.837 -21.792  1.00  0.00     0.000 C 
BRANCH   6   7
ATOM      7  C   UNL     1       3.930  -7.702 -21.915  1.00  0.00     0.000 C 
BRANCH   7   8
ATOM      8  C   UNL     1       4.516  -6.381 -22.457  1.00  0.00     0.006 C 
BRANCH   8   9
ATOM      9  C   UNL     1       5.291  -6.572 -23.766  1.00  0.00     0.053 C 
BRANCH   9  10
ATOM     10  C   UNL     1       6.738  -6.825 -23.482  1.00  0.00     0.041 C 
ATOM     11  O   UNL     1       7.269  -6.364 -22.438  1.00  0.00    -0.550 OA
ATOM     12  O   UNL     1       7.488  -7.614 -24.344  1.00  0.00    -0.550 OA
ENDBRANCH   9  10
ENDBRANCH   8   9
ENDBRANCH   7   8
ENDBRANCH   6   7
ENDBRANCH   5   6
ENDBRANCH   4   5
ENDBRANCH   3   4
ENDBRANCH   1   3
BRANCH   2  13
ATOM     13  C   UNL     1       3.892  -9.684 -17.274  1.00  0.00     0.027 C 
BRANCH  13  14
ATOM     14  C   UNL     1       3.150  -9.246 -16.002  1.00  0.00     0.004 C 
BRANCH  14  15
ATOM     15  C   UNL     1       3.799  -9.793 -14.723  1.00  0.00     0.000 C 
BRANCH  15  16
ATOM     16  C   UNL     1       3.152 -11.102 -14.247  1.00  0.00     0.000 C 
BRANCH  16  17
ATOM     17  C   UNL     1       4.163 -12.257 -14.278  1.00  0.00    -0.000 C 
BRANCH  17  18
ATOM     18  C   UNL     1       4.120 -13.049 -15.593  1.00  0.00    -0.000 C 
BRANCH  18  19
ATOM     19  C   UNL     1       2.695 -13.207 -16.142  1.00  0.00    -0.003 C 
ATOM     20  C   UNL     1       2.671 -13.058 -17.660  1.00  0.00     0.004 C 
ENDBRANCH  18  19
ENDBRANCH  17  18
ENDBRANCH  16  17
ENDBRANCH  15  16
ENDBRANCH  14  15
ENDBRANCH  13  14
ENDBRANCH   2  13
TORSDOF 15
ENDMDL
MODEL 3
REMARK VINA RESULT:    -5.258      2.932      7.757
REMARK INTER + INTRA:         -11.477
REMARK INTER:                  -9.813
REMARK INTRA:                  -1.664
REMARK UNBOUND:                -1.608
REMARK SMILES CCCCCCCCC=CCCCCCCCC(=O)[O-]
REMARK SMILES IDX 10 1 9 2 11 3 12 4 13 5 14 6 15 7 16 8 17 9 18 10 19 11
REMARK SMILES IDX 20 12 8 13 7 14 6 15 5 16 4 17 3 18 2 19 1 20
REMARK H PARENT
REMARK Flexibility Score: inf
ROOT
ATOM      1  C   UNL     1       6.498 -10.760 -19.128  1.00  0.00    -0.031 C 
ATOM      2  C   UNL     1       5.424 -11.274 -18.507  1.00  0.00    -0.031 C 
ENDROOT
BRANCH   1   3
ATOM      3  C   UNL     1       6.546 -10.458 -20.607  1.00  0.00     0.027 C 
BRANCH   3   4
ATOM      4  C   UNL     1       7.933  -9.971 -21.058  1.00  0.00     0.004 C 
BRANCH   4   5
ATOM      5  C   UNL     1       7.950  -8.525 -21.600  1.00  0.00     0.000 C 
BRANCH   5   6
ATOM      6  C   UNL     1       8.281  -8.395 -23.099  1.00  0.00     0.000 C 
BRANCH   6   7
ATOM      7  C   UNL     1       7.460  -7.334 -23.857  1.00  0.00     0.000 C 
BRANCH   7   8
ATOM      8  C   UNL     1       6.455  -6.571 -22.967  1.00  0.00     0.006 C 
BRANCH   8   9
ATOM      9  C   UNL     1       5.052  -6.506 -23.582  1.00  0.00     0.053 C 
BRANCH   9  10
ATOM     10  C   UNL     1       4.022  -6.900 -22.570  1.00  0.00     0.041 C 
ATOM     11  O   UNL     1       2.999  -6.189 -22.398  1.00  0.00    -0.550 OA
ATOM     12  O   UNL     1       4.167  -8.081 -21.854  1.00  0.00    -0.550 OA
ENDBRANCH   9  10
ENDBRANCH   8   9
ENDBRANCH   7   8
ENDBRANCH   6   7
ENDBRANCH   5   6
ENDBRANCH   4   5
ENDBRANCH   3   4
ENDBRANCH   1   3
BRANCH   2  13
ATOM     13  C   UNL     1       4.102 -11.543 -19.178  1.00  0.00     0.027 C 
BRANCH  13  14
ATOM     14  C   UNL     1       2.950 -10.949 -18.355  1.00  0.00     0.004 C 
BRANCH  14  15
ATOM     15  C   UNL     1       3.154  -9.458 -18.046  1.00  0.00     0.000 C 
BRANCH  15  16
ATOM     16  C   UNL     1       2.972  -9.136 -16.556  1.00  0.00     0.000 C 
BRANCH  16  17
ATOM     17  C   UNL     1       4.181  -9.613 -15.739  1.00  0.00    -0.000 C 
BRANCH  17  18
ATOM     18  C   UNL     1       3.791 -10.581 -14.612  1.00  0.00    -0.000 C 
BRANCH  18  19
ATOM     19  C   UNL     1       4.247 -12.021 -14.886  1.00  0.00    -0.003 C 
ATOM     20  C   UNL     1       3.087 -12.880 -15.380  1.00  0.00     0.004 C 
ENDBRANCH  18  19
ENDBRANCH  17  18
ENDBRANCH  16  17
ENDBRANCH  15  16
ENDBRANCH  14  15
ENDBRANCH  13  14
ENDBRANCH   2  13
TORSDOF 15
ENDMDL
MODEL 4
REMARK VINA RESULT:    -5.247      1.626      3.017
REMARK INTER + INTRA:         -11.456
REMARK INTER:                  -9.939
REMARK INTRA:                  -1.517
REMARK UNBOUND:                -1.608
REMARK SMILES CCCCCCCCC=CCCCCCCCC(=O)[O-]
REMARK SMILES IDX 10 1 9 2 11 3 12 4 13 5 14 6 15 7 16 8 17 9 18 10 19 11
REMARK SMILES IDX 20 12 8 13 7 14 6 15 5 16 4 17 3 18 2 19 1 20
REMARK H PARENT
REMARK Flexibility Score: inf
ROOT
ATOM      1  C   UNL     1       5.319 -10.073 -17.200  1.00  0.00    -0.031 C 
ATOM      2  C   UNL     1       6.088 -10.785 -18.039  1.00  0.00    -0.031 C 
ENDROOT
BRANCH   1   3
ATOM      3  C   UNL     1       3.882  -9.706 -17.489  1.00  0.00     0.027 C 
BRANCH   3   4
ATOM      4  C   UNL     1       3.095  -9.381 -16.210  1.00  0.00     0.004 C 
BRANCH   4   5
ATOM      5  C   UNL     1       3.810  -9.796 -14.905  1.00  0.00     0.000 C 
BRANCH   5   6
ATOM      6  C   UNL     1       3.256 -11.066 -14.234  1.00  0.00     0.000 C 
BRANCH   6   7
ATOM      7  C   UNL     1       4.082 -12.345 -14.477  1.00  0.00     0.000 C 
BRANCH   7   8
ATOM      8  C   UNL     1       3.858 -12.976 -15.867  1.00  0.00     0.006 C 
BRANCH   8   9
ATOM      9  C   UNL     1       2.421 -13.471 -16.066  1.00  0.00     0.053 C 
BRANCH   9  10
ATOM     10  C   UNL     1       2.150 -13.715 -17.517  1.00  0.00     0.041 C 
ATOM     11  O   UNL     1       1.515 -14.739 -17.879  1.00  0.00    -0.550 OA
ATOM     12  O   UNL     1       2.554 -12.784 -18.465  1.00  0.00    -0.550 OA
ENDBRANCH   9  10
ENDBRANCH   8   9
ENDBRANCH   7   8
ENDBRANCH   6   7
ENDBRANCH   5   6
ENDBRANCH   4   5
ENDBRANCH   3   4
ENDBRANCH   1   3
BRANCH   2  13
ATOM     13  C   UNL     1       5.607 -11.382 -19.336  1.00  0.00     0.027 C 
BRANCH  13  14
ATOM     14  C   UNL     1       5.841 -10.405 -20.498  1.00  0.00     0.004 C 
BRANCH  14  15
ATOM     15  C   UNL     1       4.608  -9.539 -20.798  1.00  0.00     0.000 C 
BRANCH  15  16
ATOM     16  C   UNL     1       4.653  -8.917 -22.201  1.00  0.00     0.000 C 
BRANCH  16  17
ATOM     17  C   UNL     1       4.378  -7.408 -22.142  1.00  0.00    -0.000 C 
BRANCH  17  18
ATOM     18  C   UNL     1       5.611  -6.565 -22.502  1.00  0.00    -0.000 C 
BRANCH  18  19
ATOM     19  C   UNL     1       6.100  -6.817 -23.935  1.00  0.00    -0.003 C 
ATOM     20  C   UNL     1       7.551  -7.289 -23.945  1.00  0.00     0.004 C 
ENDBRANCH  18  19
ENDBRANCH  17  18
ENDBRANCH  16  17
ENDBRANCH  15  16
ENDBRANCH  14  15
ENDBRANCH  13  14
ENDBRANCH   2  13
TORSDOF 15
ENDMDL
MODEL 5
REMARK VINA RESULT:    -5.156      3.245      7.943
REMARK INTER + INTRA:         -11.286
REMARK INTER:                  -9.418
REMARK INTRA:                  -1.868
REMARK UNBOUND:                -1.608
REMARK SMILES CCCCCCCCC=CCCCCCCCC(=O)[O-]
REMARK SMILES IDX 10 1 9 2 11 3 12 4 13 5 14 6 15 7 16 8 17 9 18 10 19 11
REMARK SMILES IDX 20 12 8 13 7 14 6 15 5 16 4 17 3 18 2 19 1 20
REMARK H PARENT
REMARK Flexibility Score: inf
ROOT
ATOM      1  C   UNL     1       4.510 -11.444 -19.129  1.00  0.00    -0.031 C 
ATOM      2  C   UNL     1       3.365 -10.824 -18.804  1.00  0.00    -0.031 C 
ENDROOT
BRANCH   1   3
ATOM      3  C   UNL     1       5.865 -10.776 -19.085  1.00  0.00     0.027 C 
BRANCH   3   4
ATOM      4  C   UNL     1       6.572 -10.803 -20.450  1.00  0.00     0.004 C 
BRANCH   4   5
ATOM      5  C   UNL     1       6.295  -9.565 -21.330  1.00  0.00     0.000 C 
BRANCH   5   6
ATOM      6  C   UNL     1       7.544  -8.758 -21.733  1.00  0.00     0.000 C 
BRANCH   6   7
ATOM      7  C   UNL     1       7.361  -7.846 -22.962  1.00  0.00     0.000 C 
BRANCH   7   8
ATOM      8  C   UNL     1       6.410  -6.655 -22.717  1.00  0.00     0.006 C 
BRANCH   8   9
ATOM      9  C   UNL     1       5.252  -6.608 -23.720  1.00  0.00     0.053 C 
BRANCH   9  10
ATOM     10  C   UNL     1       3.945  -6.490 -23.002  1.00  0.00     0.041 C 
ATOM     11  O   UNL     1       3.903  -6.565 -21.746  1.00  0.00    -0.550 OA
ATOM     12  O   UNL     1       2.779  -6.245 -23.715  1.00  0.00    -0.550 OA
ENDBRANCH   9  10
ENDBRANCH   8   9
ENDBRANCH   7   8
ENDBRANCH   6   7
ENDBRANCH   5   6
ENDBRANCH   4   5
ENDBRANCH   3   4
ENDBRANCH   1   3
BRANCH   2  13
ATOM     13  C   UNL     1       3.279  -9.415 -18.275  1.00  0.00     0.027 C 
BRANCH  13  14
ATOM     14  C   UNL     1       2.619  -9.400 -16.888  1.00  0.00     0.004 C 
BRANCH  14  15
ATOM     15  C   UNL     1       3.520  -8.774 -15.813  1.00  0.00     0.000 C 
BRANCH  15  16
ATOM     16  C   UNL     1       4.629  -9.728 -15.346  1.00  0.00     0.000 C 
BRANCH  16  17
ATOM     17  C   UNL     1       4.036 -10.966 -14.660  1.00  0.00    -0.000 C 
BRANCH  17  18
ATOM     18  C   UNL     1       4.411 -12.275 -15.370  1.00  0.00    -0.000 C 
BRANCH  18  19
ATOM     19  C   UNL     1       3.196 -12.983 -15.985  1.00  0.00    -0.003 C 
ATOM     20  C   UNL     1       2.149 -13.301 -14.923  1.00  0.00     0.004 C 
ENDBRANCH  18  19
ENDBRANCH  17  18
ENDBRANCH  16  17
ENDBRANCH  15  16
ENDBRANCH  14  15
ENDBRANCH  13  14
ENDBRANCH   2  13
TORSDOF 15
ENDMDL
MODEL 6
REMARK VINA RESULT:    -5.059      1.721      2.676
REMARK INTER + INTRA:         -11.103
REMARK INTER:                 -10.325
REMARK INTRA:                  -0.778
REMARK UNBOUND:                -1.608
REMARK SMILES CCCCCCCCC=CCCCCCCCC(=O)[O-]
REMARK SMILES IDX 10 1 9 2 11 3 12 4 13 5 14 6 15 7 16 8 17 9 18 10 19 11
REMARK SMILES IDX 20 12 8 13 7 14 6 15 5 16 4 17 3 18 2 19 1 20
REMARK H PARENT
REMARK Flexibility Score: inf
ROOT
ATOM      1  C   UNL     1       5.949 -11.262 -17.692  1.00  0.00    -0.031 C 
ATOM      2  C   UNL     1       5.535 -11.405 -18.961  1.00  0.00    -0.031 C 
ENDROOT
BRANCH   1   3
ATOM      3  C   UNL     1       5.758  -9.997 -16.887  1.00  0.00     0.027 C 
BRANCH   3   4
ATOM      4  C   UNL     1       4.290  -9.777 -16.487  1.00  0.00     0.004 C 
BRANCH   4   5
ATOM      5  C   UNL     1       4.045  -9.765 -14.962  1.00  0.00     0.000 C 
BRANCH   5   6
ATOM      6  C   UNL     1       3.133 -10.890 -14.439  1.00  0.00     0.000 C 
BRANCH   6   7
ATOM      7  C   UNL     1       3.757 -12.300 -14.464  1.00  0.00     0.000 C 
BRANCH   7   8
ATOM      8  C   UNL     1       3.678 -12.991 -15.842  1.00  0.00     0.006 C 
BRANCH   8   9
ATOM      9  C   UNL     1       2.335 -13.694 -16.074  1.00  0.00     0.053 C 
BRANCH   9  10
ATOM     10  C   UNL     1       2.058 -13.815 -17.539  1.00  0.00     0.041 C 
ATOM     11  O   UNL     1       1.421 -14.805 -17.983  1.00  0.00    -0.550 OA
ATOM     12  O   UNL     1       2.459 -12.809 -18.408  1.00  0.00    -0.550 OA
ENDBRANCH   9  10
ENDBRANCH   8   9
ENDBRANCH   7   8
ENDBRANCH   6   7
ENDBRANCH   5   6
ENDBRANCH   4   5
ENDBRANCH   3   4
ENDBRANCH   1   3
BRANCH   2  13
ATOM     13  C   UNL     1       4.759 -10.364 -19.726  1.00  0.00     0.027 C 
BRANCH  13  14
ATOM     14  C   UNL     1       5.457 -10.042 -21.056  1.00  0.00     0.004 C 
BRANCH  14  15
ATOM     15  C   UNL     1       4.928  -8.752 -21.702  1.00  0.00     0.000 C 
BRANCH  15  16
ATOM     16  C   UNL     1       6.021  -7.980 -22.455  1.00  0.00     0.000 C 
BRANCH  16  17
ATOM     17  C   UNL     1       5.496  -6.625 -22.948  1.00  0.00    -0.000 C 
BRANCH  17  18
ATOM     18  C   UNL     1       4.282  -6.132 -22.147  1.00  0.00    -0.000 C 
BRANCH  18  19
ATOM     19  C   UNL     1       2.962  -6.300 -22.912  1.00  0.00    -0.003 C 
ATOM     20  C   UNL     1       3.120  -5.901 -24.375  1.00  0.00     0.004 C 
ENDBRANCH  18  19
ENDBRANCH  17  18
ENDBRANCH  16  17
ENDBRANCH  15  16
ENDBRANCH  14  15
ENDBRANCH  13  14
ENDBRANCH   2  13
TORSDOF 15
ENDMDL
MODEL 7
REMARK VINA RESULT:    -5.043      1.566      2.315
REMARK INTER + INTRA:         -11.073
REMARK INTER:                  -9.608
REMARK INTRA:                  -1.465
REMARK UNBOUND:                -1.608
REMARK SMILES CCCCCCCCC=CCCCCCCCC(=O)[O-]
REMARK SMILES IDX 10 1 9 2 11 3 12 4 13 5 14 6 15 7 16 8 17 9 18 10 19 11
REMARK SMILES IDX 20 12 8 13 7 14 6 15 5 16 4 17 3 18 2 19 1 20
REMARK H PARENT
REMARK Flexibility Score: inf
ROOT
ATOM      1  C   UNL     1       5.351 -10.942 -18.600  1.00  0.00    -0.031 C 
ATOM      2  C   UNL     1       6.511 -10.893 -19.275  1.00  0.00    -0.031 C 
ENDROOT
BRANCH   1   3
ATOM      3  C   UNL     1       4.048 -10.395 -19.136  1.00  0.00     0.027 C 
BRANCH   3   4
ATOM      4  C   UNL     1       2.826 -11.063 -18.485  1.00  0.00     0.004 C 
BRANCH   4   5
ATOM      5  C   UNL     1       2.947 -12.595 -18.335  1.00  0.00     0.000 C 
BRANCH   5   6
ATOM      6  C   UNL     1       2.774 -13.126 -16.900  1.00  0.00     0.000 C 
BRANCH   6   7
ATOM      7  C   UNL     1       3.758 -12.543 -15.866  1.00  0.00     0.000 C 
BRANCH   7   8
ATOM      8  C   UNL     1       3.073 -11.757 -14.728  1.00  0.00     0.006 C 
BRANCH   8   9
ATOM      9  C   UNL     1       3.938 -10.607 -14.200  1.00  0.00     0.053 C 
BRANCH   9  10
ATOM     10  C   UNL     1       4.153  -9.584 -15.271  1.00  0.00     0.041 C 
ATOM     11  O   UNL     1       5.320  -9.258 -15.610  1.00  0.00    -0.550 OA
ATOM     12  O   UNL     1       3.064  -9.028 -15.929  1.00  0.00    -0.550 OA
ENDBRANCH   9  10
ENDBRANCH   8   9
ENDBRANCH   7   8
ENDBRANCH   6   7
ENDBRANCH   5   6
ENDBRANCH   4   5
ENDBRANCH   3   4
ENDBRANCH   1   3
BRANCH   2  13
ATOM     13  C   UNL     1       6.658 -10.367 -20.679  1.00  0.00     0.027 C 
BRANCH  13  14
ATOM     14  C   UNL     1       8.106  -9.927 -20.941  1.00  0.00     0.004 C 
BRANCH  14  15
ATOM     15  C   UNL     1       8.206  -8.841 -22.023  1.00  0.00     0.000 C 
BRANCH  15  16
ATOM     16  C   UNL     1       6.973  -7.927 -22.057  1.00  0.00     0.000 C 
BRANCH  16  17
ATOM     17  C   UNL     1       6.821  -7.260 -23.430  1.00  0.00    -0.000 C 
BRANCH  17  18
ATOM     18  C   UNL     1       5.446  -6.602 -23.622  1.00  0.00    -0.000 C 
BRANCH  18  19
ATOM     19  C   UNL     1       4.414  -7.078 -22.590  1.00  0.00    -0.003 C 
ATOM     20  C   UNL     1       3.273  -6.075 -22.451  1.00  0.00     0.004 C 
ENDBRANCH  18  19
ENDBRANCH  17  18
ENDBRANCH  16  17
ENDBRANCH  15  16
ENDBRANCH  14  15
ENDBRANCH  13  14
ENDBRANCH   2  13
TORSDOF 15
ENDMDL
MODEL 8
REMARK VINA RESULT:    -4.932      0.880      2.261
REMARK INTER + INTRA:         -10.864
REMARK INTER:                  -9.507
REMARK INTRA:                  -1.357
REMARK UNBOUND:                -1.608
REMARK SMILES CCCCCCCCC=CCCCCCCCC(=O)[O-]
REMARK SMILES IDX 10 1 9 2 11 3 12 4 13 5 14 6 15 7 16 8 17 9 18 10 19 11
REMARK SMILES IDX 20 12 8 13 7 14 6 15 5 16 4 17 3 18 2 19 1 20
REMARK H PARENT
REMARK Flexibility Score: inf
ROOT
ATOM      1  C   UNL     1       5.176 -11.024 -18.606  1.00  0.00    -0.031 C 
ATOM      2  C   UNL     1       5.729 -10.459 -19.691  1.00  0.00    -0.031 C 
ENDROOT
BRANCH   1   3
ATOM      3  C   UNL     1       3.792 -11.630 -18.590  1.00  0.00     0.027 C 
BRANCH   3   4
ATOM      4  C   UNL     1       2.690 -10.562 -18.501  1.00  0.00     0.004 C 
BRANCH   4   5
ATOM      5  C   UNL     1       3.136  -9.248 -17.824  1.00  0.00     0.000 C 
BRANCH   5   6
ATOM      6  C   UNL     1       2.952  -9.206 -16.295  1.00  0.00     0.000 C 
BRANCH   6   7
ATOM      7  C   UNL     1       4.261  -9.231 -15.481  1.00  0.00     0.000 C 
BRANCH   7   8
ATOM      8  C   UNL     1       4.307 -10.343 -14.411  1.00  0.00     0.006 C 
BRANCH   8   9
ATOM      9  C   UNL     1       3.101 -11.287 -14.488  1.00  0.00     0.053 C 
BRANCH   9  10
ATOM     10  C   UNL     1       3.487 -12.569 -15.156  1.00  0.00     0.041 C 
ATOM     11  O   UNL     1       4.697 -12.829 -15.378  1.00  0.00    -0.550 OA
ATOM     12  O   UNL     1       2.511 -13.501 -15.486  1.00  0.00    -0.550 OA
ENDBRANCH   9  10
ENDBRANCH   8   9
ENDBRANCH   7   8
ENDBRANCH   6   7
ENDBRANCH   5   6
ENDBRANCH   4   5
ENDBRANCH   3   4
ENDBRANCH   1   3
BRANCH   2  13
ATOM     13  C   UNL     1       5.086 -10.424 -21.054  1.00  0.00     0.027 C 
BRANCH  13  14
ATOM     14  C   UNL     1       5.251  -9.037 -21.691  1.00  0.00     0.004 C 
BRANCH  14  15
ATOM     15  C   UNL     1       4.016  -8.145 -21.491  1.00  0.00     0.000 C 
BRANCH  15  16
ATOM     16  C   UNL     1       3.993  -6.947 -22.450  1.00  0.00     0.000 C 
BRANCH  16  17
ATOM     17  C   UNL     1       5.411  -6.414 -22.698  1.00  0.00    -0.000 C 
BRANCH  17  18
ATOM     18  C   UNL     1       5.948  -6.779 -24.090  1.00  0.00    -0.000 C 
BRANCH  18  19
ATOM     19  C   UNL     1       7.420  -7.213 -24.061  1.00  0.00    -0.003 C 
ATOM     20  C   UNL     1       7.860  -7.570 -22.644  1.00  0.00     0.004 C 
ENDBRANCH  18  19
ENDBRANCH  17  18
ENDBRANCH  16  17
ENDBRANCH  15  16
ENDBRANCH  14  15
ENDBRANCH  13  14
ENDBRANCH   2  13
TORSDOF 15
ENDMDL
MODEL 9
REMARK VINA RESULT:    -4.677      4.538      8.426
REMARK INTER + INTRA:         -10.386
REMARK INTER:                  -8.809
REMARK INTRA:                  -1.576
REMARK UNBOUND:                -1.608
REMARK SMILES CCCCCCCCC=CCCCCCCCC(=O)[O-]
REMARK SMILES IDX 10 1 9 2 11 3 12 4 13 5 14 6 15 7 16 8 17 9 18 10 19 11
REMARK SMILES IDX 20 12 8 13 7 14 6 15 5 16 4 17 3 18 2 19 1 20
REMARK H PARENT
REMARK Flexibility Score: inf
ROOT
ATOM      1  C   UNL     1       2.748 -12.586 -14.589  1.00  0.00    -0.031 C 
ATOM      2  C   UNL     1       2.250 -13.398 -15.535  1.00  0.00    -0.031 C 
ENDROOT
BRANCH   1   3
ATOM      3  C   UNL     1       4.044 -11.824 -14.737  1.00  0.00     0.027 C 
BRANCH   3   4
ATOM      4  C   UNL     1       3.885 -10.334 -14.392  1.00  0.00     0.004 C 
BRANCH   4   5
ATOM      5  C   UNL     1       4.487  -9.375 -15.443  1.00  0.00     0.000 C 
BRANCH   5   6
ATOM      6  C   UNL     1       4.772 -10.008 -16.817  1.00  0.00     0.000 C 
BRANCH   6   7
ATOM      7  C   UNL     1       3.596  -9.960 -17.813  1.00  0.00     0.000 C 
BRANCH   7   8
ATOM      8  C   UNL     1       3.788 -10.869 -19.046  1.00  0.00     0.006 C 
BRANCH   8   9
ATOM      9  C   UNL     1       5.250 -11.281 -19.254  1.00  0.00     0.053 C 
BRANCH   9  10
ATOM     10  C   UNL     1       5.849 -10.517 -20.392  1.00  0.00     0.041 C 
ATOM     11  O   UNL     1       5.115  -9.830 -21.149  1.00  0.00    -0.550 OA
ATOM     12  O   UNL     1       7.224 -10.522 -20.585  1.00  0.00    -0.550 OA
ENDBRANCH   9  10
ENDBRANCH   8   9
ENDBRANCH   7   8
ENDBRANCH   6   7
ENDBRANCH   5   6
ENDBRANCH   4   5
ENDBRANCH   3   4
ENDBRANCH   1   3
BRANCH   2  13
ATOM     13  C   UNL     1       2.866 -13.597 -16.896  1.00  0.00     0.027 C 
BRANCH  13  14
ATOM     14  C   UNL     1       1.780 -13.901 -17.939  1.00  0.00     0.004 C 
BRANCH  14  15
ATOM     15  C   UNL     1       1.230 -15.330 -17.819  1.00  0.00     0.000 C 
BRANCH  15  16
ATOM     16  C   UNL     1      -0.219 -15.447 -18.313  1.00  0.00     0.000 C 
BRANCH  16  17
ATOM     17  C   UNL     1      -0.525 -16.874 -18.786  1.00  0.00    -0.000 C 
BRANCH  17  18
ATOM     18  C   UNL     1       0.555 -17.883 -18.367  1.00  0.00    -0.000 C 
BRANCH  18  19
ATOM     19  C   UNL     1       0.351 -19.266 -19.002  1.00  0.00    -0.003 C 
ATOM     20  C   UNL     1      -0.935 -19.310 -19.822  1.00  0.00     0.004 C 
ENDBRANCH  18  19
ENDBRANCH  17  18
ENDBRANCH  16  17
ENDBRANCH  15  16
ENDBRANCH  14  15
ENDBRANCH  13  14
ENDBRANCH   2  13
TORSDOF 15
ENDMDL
