MODEL 1
REMARK VINA RESULT:    -5.124      0.000      0.000
REMARK INTER + INTRA:          -5.717
REMARK INTER:                  -5.424
REMARK INTRA:                  -0.293
REMARK UNBOUND:                -0.293
REMARK SMILES CC1=CC[C@@]23[C@@H]([C@@H](C(C)C)CC[C@H]2C)[C@H]13
REMARK SMILES IDX 14 1 13 2 12 3 11 4 7 5 6 6 5 7 15 8 2 9 3 10 4 11 1 12 8 13
REMARK SMILES IDX 9 14 10 15
REMARK H PARENT
REMARK Flexibility Score: inf
ROOT
ATOM      1  C   UNL     1      31.996   6.253  36.380  1.00  0.00     0.008 C 
ATOM      2  C   UNL     1      30.783   7.120  36.000  1.00  0.00    -0.007 C 
ATOM      3  C   UNL     1      30.341   6.822  34.550  1.00  0.00     0.004 C 
ATOM      4  C   UNL     1      31.236   7.519  33.526  1.00  0.00     0.004 C 
ATOM      5  C   UNL     1      31.093   9.053  33.620  1.00  0.00    -0.004 C 
ATOM      6  C   UNL     1      31.305   9.574  35.066  1.00  0.00     0.007 C 
ATOM      7  C   UNL     1      31.092   8.622  36.253  1.00  0.00    -0.013 C 
ATOM      8  C   UNL     1      30.001   9.623  35.875  1.00  0.00     0.025 C 
ATOM      9  C   UNL     1      29.974  10.592  37.007  1.00  0.00    -0.073 C 
ATOM     10  C   UNL     1      30.855  10.300  37.953  1.00  0.00    -0.027 C 
ATOM     11  C   UNL     1      31.626   9.069  37.628  1.00  0.00     0.035 C 
ATOM     12  C   UNL     1      29.080  11.793  37.032  1.00  0.00     0.039 C 
ENDROOT
BRANCH   5  13
ATOM     13  C   UNL     1      32.023   9.815  32.628  1.00  0.00    -0.014 C 
ATOM     14  C   UNL     1      33.125  10.601  33.355  1.00  0.00     0.007 C 
ATOM     15  C   UNL     1      31.265  10.738  31.658  1.00  0.00     0.007 C 
ENDBRANCH   5  13
TORSDOF 1
ENDMDL
MODEL 2
REMARK VINA RESULT:    -5.075      2.690      5.095
REMARK INTER + INTRA:          -5.665
REMARK INTER:                  -5.375
REMARK INTRA:                  -0.289
REMARK UNBOUND:                -0.293
REMARK SMILES CC1=CC[C@@]23[C@@H]([C@@H](C(C)C)CC[C@H]2C)[C@H]13
REMARK SMILES IDX 14 1 13 2 12 3 11 4 7 5 6 6 5 7 15 8 2 9 3 10 4 11 1 12 8 13
REMARK SMILES IDX 9 14 10 15
REMARK H PARENT
REMARK Flexibility Score: inf
ROOT
ATOM      1  C   UNL     1      33.125  10.741  33.383  1.00  0.00     0.008 C 
ATOM      2  C   UNL     1      31.603  10.517  33.346  1.00  0.00    -0.007 C 
ATOM      3  C   UNL     1      31.247   9.141  33.952  1.00  0.00     0.004 C 
ATOM      4  C   UNL     1      31.499   8.002  32.965  1.00  0.00     0.004 C 
ATOM      5  C   UNL     1      30.548   8.100  31.752  1.00  0.00    -0.004 C 
ATOM      6  C   UNL     1      30.591   9.500  31.085  1.00  0.00     0.007 C 
ATOM      7  C   UNL     1      31.062  10.714  31.902  1.00  0.00    -0.013 C 
ATOM      8  C   UNL     1      29.569  10.474  31.688  1.00  0.00     0.025 C 
ATOM      9  C   UNL     1      29.133  11.590  30.802  1.00  0.00    -0.073 C 
ATOM     10  C   UNL     1      30.125  12.414  30.492  1.00  0.00    -0.027 C 
ATOM     11  C   UNL     1      31.405  12.002  31.129  1.00  0.00     0.035 C 
ATOM     12  C   UNL     1      27.736  11.723  30.281  1.00  0.00     0.039 C 
ENDROOT
BRANCH   5  13
ATOM     13  C   UNL     1      30.798   6.987  30.689  1.00  0.00    -0.014 C 
ATOM     14  C   UNL     1      30.968   7.564  29.275  1.00  0.00     0.007 C 
ATOM     15  C   UNL     1      29.723   5.886  30.687  1.00  0.00     0.007 C 
ENDBRANCH   5  13
TORSDOF 1
ENDMDL
MODEL 3
REMARK VINA RESULT:    -5.049      2.817      5.154
REMARK INTER + INTRA:          -5.637
REMARK INTER:                  -5.344
REMARK INTRA:                  -0.293
REMARK UNBOUND:                -0.293
REMARK SMILES CC1=CC[C@@]23[C@@H]([C@@H](C(C)C)CC[C@H]2C)[C@H]13
REMARK SMILES IDX 14 1 13 2 12 3 11 4 7 5 6 6 5 7 15 8 2 9 3 10 4 11 1 12 8 13
REMARK SMILES IDX 9 14 10 15
REMARK H PARENT
REMARK Flexibility Score: inf
ROOT
ATOM      1  C   UNL     1      29.755   8.235  29.113  1.00  0.00     0.008 C 
ATOM      2  C   UNL     1      30.947   8.074  30.072  1.00  0.00    -0.007 C 
ATOM      3  C   UNL     1      31.122   6.591  30.468  1.00  0.00     0.004 C 
ATOM      4  C   UNL     1      30.122   6.167  31.543  1.00  0.00     0.004 C 
ATOM      5  C   UNL     1      30.388   6.910  32.870  1.00  0.00    -0.004 C 
ATOM      6  C   UNL     1      30.454   8.448  32.677  1.00  0.00     0.007 C 
ATOM      7  C   UNL     1      30.791   9.024  31.292  1.00  0.00    -0.013 C 
ATOM      8  C   UNL     1      31.873   8.945  32.368  1.00  0.00     0.025 C 
ATOM      9  C   UNL     1      32.156  10.366  32.720  1.00  0.00    -0.073 C 
ATOM     10  C   UNL     1      31.424  11.222  32.020  1.00  0.00    -0.027 C 
ATOM     11  C   UNL     1      30.524  10.524  31.061  1.00  0.00     0.035 C 
ATOM     12  C   UNL     1      33.125  10.766  33.788  1.00  0.00     0.039 C 
ENDROOT
BRANCH   5  13
ATOM     13  C   UNL     1      29.363   6.549  33.988  1.00  0.00    -0.014 C 
ATOM     14  C   UNL     1      28.530   7.764  34.425  1.00  0.00     0.007 C 
ATOM     15  C   UNL     1      30.002   5.875  35.215  1.00  0.00     0.007 C 
ENDBRANCH   5  13
TORSDOF 1
ENDMDL
MODEL 4
REMARK VINA RESULT:    -5.022      2.138      4.940
REMARK INTER + INTRA:          -5.609
REMARK INTER:                  -5.312
REMARK INTRA:                  -0.297
REMARK UNBOUND:                -0.293
REMARK SMILES CC1=CC[C@@]23[C@@H]([C@@H](C(C)C)CC[C@H]2C)[C@H]13
REMARK SMILES IDX 14 1 13 2 12 3 11 4 7 5 6 6 5 7 15 8 2 9 3 10 4 11 1 12 8 13
REMARK SMILES IDX 9 14 10 15
REMARK H PARENT
REMARK Flexibility Score: inf
ROOT
ATOM      1  C   UNL     1      31.630   9.993  35.111  1.00  0.00     0.008 C 
ATOM      2  C   UNL     1      32.163   9.554  33.736  1.00  0.00    -0.007 C 
ATOM      3  C   UNL     1      32.817  10.748  33.005  1.00  0.00     0.004 C 
ATOM      4  C   UNL     1      31.775  11.670  32.374  1.00  0.00     0.004 C 
ATOM      5  C   UNL     1      31.014  10.950  31.240  1.00  0.00    -0.004 C 
ATOM      6  C   UNL     1      30.421   9.592  31.702  1.00  0.00     0.007 C 
ATOM      7  C   UNL     1      31.036   8.870  32.912  1.00  0.00    -0.013 C 
ATOM      8  C   UNL     1      31.394   8.421  31.496  1.00  0.00     0.025 C 
ATOM      9  C   UNL     1      30.770   7.074  31.362  1.00  0.00    -0.073 C 
ATOM     10  C   UNL     1      30.134   6.692  32.460  1.00  0.00    -0.027 C 
ATOM     11  C   UNL     1      30.229   7.716  33.537  1.00  0.00     0.035 C 
ATOM     12  C   UNL     1      30.819   6.274  30.097  1.00  0.00     0.039 C 
ENDROOT
BRANCH   5  13
ATOM     13  C   UNL     1      29.902  11.832  30.594  1.00  0.00    -0.014 C 
ATOM     14  C   UNL     1      28.544  11.654  31.289  1.00  0.00     0.007 C 
ATOM     15  C   UNL     1      29.754  11.621  29.077  1.00  0.00     0.007 C 
ENDBRANCH   5  13
TORSDOF 1
ENDMDL
MODEL 5
REMARK VINA RESULT:    -4.838      6.106      9.978
REMARK INTER + INTRA:          -5.414
REMARK INTER:                  -5.094
REMARK INTRA:                  -0.320
REMARK UNBOUND:                -0.293
REMARK SMILES CC1=CC[C@@]23[C@@H]([C@@H](C(C)C)CC[C@H]2C)[C@H]13
REMARK SMILES IDX 14 1 13 2 12 3 11 4 7 5 6 6 5 7 15 8 2 9 3 10 4 11 1 12 8 13
REMARK SMILES IDX 9 14 10 15
REMARK H PARENT
REMARK Flexibility Score: inf
ROOT
ATOM      1  C   UNL     1      30.380  12.039  26.974  1.00  0.00     0.008 C 
ATOM      2  C   UNL     1      29.458  10.899  26.506  1.00  0.00    -0.007 C 
ATOM      3  C   UNL     1      28.577  10.406  27.675  1.00  0.00     0.004 C 
ATOM      4  C   UNL     1      29.345   9.479  28.617  1.00  0.00     0.004 C 
ATOM      5  C   UNL     1      29.736   8.167  27.904  1.00  0.00    -0.004 C 
ATOM      6  C   UNL     1      30.480   8.425  26.567  1.00  0.00     0.007 C 
ATOM      7  C   UNL     1      30.292   9.767  25.843  1.00  0.00    -0.013 C 
ATOM      8  C   UNL     1      29.524   8.534  25.370  1.00  0.00     0.025 C 
ATOM      9  C   UNL     1      30.112   8.215  24.038  1.00  0.00    -0.073 C 
ATOM     10  C   UNL     1      31.069   9.062  23.684  1.00  0.00    -0.027 C 
ATOM     11  C   UNL     1      31.285  10.113  24.716  1.00  0.00     0.035 C 
ATOM     12  C   UNL     1      29.695   7.030  23.223  1.00  0.00     0.039 C 
ENDROOT
BRANCH   5  13
ATOM     13  C   UNL     1      30.566   7.205  28.807  1.00  0.00    -0.014 C 
ATOM     14  C   UNL     1      30.894   7.830  30.172  1.00  0.00     0.007 C 
ATOM     15  C   UNL     1      31.852   6.688  28.138  1.00  0.00     0.007 C 
ENDBRANCH   5  13
TORSDOF 1
ENDMDL
MODEL 6
REMARK VINA RESULT:    -4.830      1.060      4.107
REMARK INTER + INTRA:          -5.405
REMARK INTER:                  -5.115
REMARK INTRA:                  -0.291
REMARK UNBOUND:                -0.293
REMARK SMILES CC1=CC[C@@]23[C@@H]([C@@H](C(C)C)CC[C@H]2C)[C@H]13
REMARK SMILES IDX 14 1 13 2 12 3 11 4 7 5 6 6 5 7 15 8 2 9 3 10 4 11 1 12 8 13
REMARK SMILES IDX 9 14 10 15
REMARK H PARENT
REMARK Flexibility Score: inf
ROOT
ATOM      1  C   UNL     1      30.839   6.633  36.768  1.00  0.00     0.008 C 
ATOM      2  C   UNL     1      31.561   7.985  36.629  1.00  0.00    -0.007 C 
ATOM      3  C   UNL     1      31.280   8.874  37.861  1.00  0.00     0.004 C 
ATOM      4  C   UNL     1      29.903   9.533  37.785  1.00  0.00     0.004 C 
ATOM      5  C   UNL     1      29.834  10.537  36.614  1.00  0.00    -0.004 C 
ATOM      6  C   UNL     1      30.276   9.901  35.270  1.00  0.00     0.007 C 
ATOM      7  C   UNL     1      31.186   8.662  35.281  1.00  0.00    -0.013 C 
ATOM      8  C   UNL     1      31.784  10.043  35.016  1.00  0.00     0.025 C 
ATOM      9  C   UNL     1      32.209   9.998  33.588  1.00  0.00    -0.073 C 
ATOM     10  C   UNL     1      31.959   8.829  33.016  1.00  0.00    -0.027 C 
ATOM     11  C   UNL     1      31.329   7.872  33.966  1.00  0.00     0.035 C 
ATOM     12  C   UNL     1      32.803  11.173  32.875  1.00  0.00     0.039 C 
ENDROOT
BRANCH   5  13
ATOM     13  C   UNL     1      28.432  11.203  36.462  1.00  0.00    -0.014 C 
ATOM     14  C   UNL     1      27.859  11.029  35.047  1.00  0.00     0.007 C 
ATOM     15  C   UNL     1      28.409  12.688  36.865  1.00  0.00     0.007 C 
ENDBRANCH   5  13
TORSDOF 1
ENDMDL
MODEL 7
REMARK VINA RESULT:    -4.747      4.265      7.050
REMARK INTER + INTRA:          -5.318
REMARK INTER:                  -5.101
REMARK INTRA:                  -0.217
REMARK UNBOUND:                -0.293
REMARK SMILES CC1=CC[C@@]23[C@@H]([C@@H](C(C)C)CC[C@H]2C)[C@H]13
REMARK SMILES IDX 14 1 13 2 12 3 11 4 7 5 6 6 5 7 15 8 2 9 3 10 4 11 1 12 8 13
REMARK SMILES IDX 9 14 10 15
REMARK H PARENT
REMARK Flexibility Score: inf
ROOT
ATOM      1  C   UNL     1      31.932  12.272  31.165  1.00  0.00     0.008 C 
ATOM      2  C   UNL     1      30.509  11.688  31.131  1.00  0.00    -0.007 C 
ATOM      3  C   UNL     1      30.416  10.444  32.043  1.00  0.00     0.004 C 
ATOM      4  C   UNL     1      31.005   9.203  31.375  1.00  0.00     0.004 C 
ATOM      5  C   UNL     1      30.172   8.789  30.143  1.00  0.00    -0.004 C 
ATOM      6  C   UNL     1      29.961   9.967  29.155  1.00  0.00     0.007 C 
ATOM      7  C   UNL     1      30.072  11.412  29.665  1.00  0.00    -0.013 C 
ATOM      8  C   UNL     1      28.696  10.780  29.465  1.00  0.00     0.025 C 
ATOM      9  C   UNL     1      28.105  11.525  28.318  1.00  0.00    -0.073 C 
ATOM     10  C   UNL     1      28.911  12.468  27.850  1.00  0.00    -0.027 C 
ATOM     11  C   UNL     1      30.187  12.532  28.612  1.00  0.00     0.035 C 
ATOM     12  C   UNL     1      26.767  11.196  27.732  1.00  0.00     0.039 C 
ENDROOT
BRANCH   5  13
ATOM     13  C   UNL     1      30.760   7.554  29.394  1.00  0.00    -0.014 C 
ATOM     14  C   UNL     1      29.748   6.932  28.420  1.00  0.00     0.007 C 
ATOM     15  C   UNL     1      31.323   6.474  30.335  1.00  0.00     0.007 C 
ENDBRANCH   5  13
TORSDOF 1
ENDMDL
MODEL 8
REMARK VINA RESULT:    -4.698      5.297      7.455
REMARK INTER + INTRA:          -5.266
REMARK INTER:                  -4.994
REMARK INTRA:                  -0.273
REMARK UNBOUND:                -0.293
REMARK SMILES CC1=CC[C@@]23[C@@H]([C@@H](C(C)C)CC[C@H]2C)[C@H]13
REMARK SMILES IDX 14 1 13 2 12 3 11 4 7 5 6 6 5 7 15 8 2 9 3 10 4 11 1 12 8 13
REMARK SMILES IDX 9 14 10 15
REMARK H PARENT
REMARK Flexibility Score: inf
ROOT
ATOM      1  C   UNL     1      26.226  11.484  28.158  1.00  0.00     0.008 C 
ATOM      2  C   UNL     1      27.730  11.793  28.063  1.00  0.00    -0.007 C 
ATOM      3  C   UNL     1      28.317  11.214  26.756  1.00  0.00     0.004 C 
ATOM      4  C   UNL     1      28.570   9.710  26.862  1.00  0.00     0.004 C 
ATOM      5  C   UNL     1      29.674   9.408  27.897  1.00  0.00    -0.004 C 
ATOM      6  C   UNL     1      29.390  10.072  29.270  1.00  0.00     0.007 C 
ATOM      7  C   UNL     1      28.466  11.299  29.340  1.00  0.00    -0.013 C 
ATOM      8  C   UNL     1      29.982  11.485  29.377  1.00  0.00     0.025 C 
ATOM      9  C   UNL     1      30.266  11.968  30.758  1.00  0.00    -0.073 C 
ATOM     10  C   UNL     1      29.169  12.090  31.493  1.00  0.00    -0.027 C 
ATOM     11  C   UNL     1      27.947  11.721  30.728  1.00  0.00     0.035 C 
ATOM     12  C   UNL     1      31.651  12.231  31.263  1.00  0.00     0.039 C 
ENDROOT
BRANCH   5  13
ATOM     13  C   UNL     1      29.939   7.882  28.080  1.00  0.00    -0.014 C 
ATOM     14  C   UNL     1      30.442   7.546  29.492  1.00  0.00     0.007 C 
ATOM     15  C   UNL     1      30.888   7.290  27.024  1.00  0.00     0.007 C 
ENDBRANCH   5  13
TORSDOF 1
ENDMDL
MODEL 9
REMARK VINA RESULT:    -2.663      2.764      5.578
REMARK INTER + INTRA:          -3.112
REMARK INTER:                  -2.837
REMARK INTRA:                  -0.274
REMARK UNBOUND:                -0.293
REMARK SMILES CC1=CC[C@@]23[C@@H]([C@@H](C(C)C)CC[C@H]2C)[C@H]13
REMARK SMILES IDX 14 1 13 2 12 3 11 4 7 5 6 6 5 7 15 8 2 9 3 10 4 11 1 12 8 13
REMARK SMILES IDX 9 14 10 15
REMARK H PARENT
REMARK Flexibility Score: inf
ROOT
ATOM      1  C   UNL     1      29.380   5.920  33.913  1.00  0.00     0.008 C 
ATOM      2  C   UNL     1      30.665   6.138  33.095  1.00  0.00    -0.007 C 
ATOM      3  C   UNL     1      31.647   7.046  33.868  1.00  0.00     0.004 C 
ATOM      4  C   UNL     1      31.261   8.521  33.766  1.00  0.00     0.004 C 
ATOM      5  C   UNL     1      31.394   9.028  32.315  1.00  0.00    -0.004 C 
ATOM      6  C   UNL     1      30.628   8.130  31.307  1.00  0.00     0.007 C 
ATOM      7  C   UNL     1      30.319   6.671  31.677  1.00  0.00    -0.013 C 
ATOM      8  C   UNL     1      31.495   6.989  30.755  1.00  0.00     0.025 C 
ATOM      9  C   UNL     1      31.088   6.447  29.428  1.00  0.00    -0.073 C 
ATOM     10  C   UNL     1      29.892   5.875  29.454  1.00  0.00    -0.027 C 
ATOM     11  C   UNL     1      29.286   5.922  30.812  1.00  0.00     0.035 C 
ATOM     12  C   UNL     1      31.926   6.588  28.196  1.00  0.00     0.039 C 
ENDROOT
BRANCH   5  13
ATOM     13  C   UNL     1      30.963  10.517  32.146  1.00  0.00    -0.014 C 
ATOM     14  C   UNL     1      30.384  10.799  30.752  1.00  0.00     0.007 C 
ATOM     15  C   UNL     1      32.083  11.522  32.468  1.00  0.00     0.007 C 
ENDBRANCH   5  13
TORSDOF 1
ENDMDL
