MODEL 1
REMARK VINA RESULT:    -6.693      0.000      0.000
REMARK INTER + INTRA:          -7.544
REMARK INTER:                  -7.475
REMARK INTRA:                  -0.069
REMARK UNBOUND:                -0.069
REMARK SMILES CCc1ccc(O)cc1O
REMARK SMILES IDX 3 1 9 2 8 3 6 4 5 5 4 6 2 7 1 8 10 9 7 11
REMARK H PARENT 10 10 7 12
REMARK Flexibility Score: inf
ROOT
ATOM      1  C   UNL     1     -11.789   1.866  -9.224  1.00  0.00    -0.006 A 
ATOM      2  C   UNL     1     -11.138   2.988  -8.650  1.00  0.00     0.122 A 
ATOM      3  C   UNL     1     -11.885   4.098  -8.239  1.00  0.00     0.092 A 
ATOM      4  C   UNL     1     -13.276   4.117  -8.387  1.00  0.00     0.119 A 
ATOM      5  C   UNL     1     -13.925   3.020  -8.949  1.00  0.00     0.047 A 
ATOM      6  C   UNL     1     -13.194   1.904  -9.365  1.00  0.00     0.011 A 
ENDROOT
BRANCH   1   7
ATOM      7  C   UNL     1     -10.963   0.666  -9.667  1.00  0.00     0.036 C 
ATOM      8  C   UNL     1     -11.582  -0.202 -10.764  1.00  0.00     0.009 C 
ENDBRANCH   1   7
BRANCH   2   9
ATOM      9  O   UNL     1      -9.753   3.034  -8.474  1.00  0.00    -0.508 OA
ATOM     10  H   UNL     1      -9.309   3.265  -7.594  1.00  0.00     0.293 HD
ENDBRANCH   2   9
BRANCH   4  11
ATOM     11  O   UNL     1     -14.019   5.222  -7.978  1.00  0.00    -0.508 OA
ATOM     12  H   UNL     1     -14.408   5.876  -8.646  1.00  0.00     0.293 HD
ENDBRANCH   4  11
TORSDOF 3
ENDMDL
MODEL 2
REMARK VINA RESULT:    -6.234      0.988      1.165
REMARK INTER + INTRA:          -7.032
REMARK INTER:                  -6.963
REMARK INTRA:                  -0.069
REMARK UNBOUND:                -0.069
REMARK SMILES CCc1ccc(O)cc1O
REMARK SMILES IDX 3 1 9 2 8 3 6 4 5 5 4 6 2 7 1 8 10 9 7 11
REMARK H PARENT 10 10 7 12
REMARK Flexibility Score: inf
ROOT
ATOM      1  C   UNL     1     -12.617   1.249  -9.802  1.00  0.00    -0.006 A 
ATOM      2  C   UNL     1     -11.696   2.040  -9.069  1.00  0.00     0.122 A 
ATOM      3  C   UNL     1     -12.108   3.250  -8.497  1.00  0.00     0.092 A 
ATOM      4  C   UNL     1     -13.425   3.695  -8.640  1.00  0.00     0.119 A 
ATOM      5  C   UNL     1     -14.339   2.925  -9.358  1.00  0.00     0.047 A 
ATOM      6  C   UNL     1     -13.945   1.715  -9.934  1.00  0.00     0.011 A 
ENDROOT
BRANCH   1   7
ATOM      7  C   UNL     1     -12.154  -0.063 -10.417  1.00  0.00     0.036 C 
ATOM      8  C   UNL     1     -13.233  -0.886 -11.125  1.00  0.00     0.009 C 
ENDBRANCH   1   7
BRANCH   2   9
ATOM      9  O   UNL     1     -10.364   1.656  -8.889  1.00  0.00    -0.508 OA
ATOM     10  H   UNL     1      -9.580   2.284  -9.008  1.00  0.00     0.293 HD
ENDBRANCH   2   9
BRANCH   4  11
ATOM     11  O   UNL     1     -13.835   4.899  -8.072  1.00  0.00    -0.508 OA
ATOM     12  H   UNL     1     -14.747   4.999  -7.642  1.00  0.00     0.293 HD
ENDBRANCH   4  11
TORSDOF 3
ENDMDL
MODEL 3
REMARK VINA RESULT:    -6.142      1.988      4.000
REMARK INTER + INTRA:          -6.929
REMARK INTER:                  -7.088
REMARK INTRA:                   0.159
REMARK UNBOUND:                -0.069
REMARK SMILES CCc1ccc(O)cc1O
REMARK SMILES IDX 3 1 9 2 8 3 6 4 5 5 4 6 2 7 1 8 10 9 7 11
REMARK H PARENT 10 10 7 12
REMARK Flexibility Score: inf
ROOT
ATOM      1  C   UNL     1     -12.841   2.104  -9.240  1.00  0.00    -0.006 A 
ATOM      2  C   UNL     1     -11.493   1.662  -9.203  1.00  0.00     0.122 A 
ATOM      3  C   UNL     1     -11.129   0.465  -9.831  1.00  0.00     0.092 A 
ATOM      4  C   UNL     1     -12.082  -0.308 -10.500  1.00  0.00     0.119 A 
ATOM      5  C   UNL     1     -13.408   0.116 -10.543  1.00  0.00     0.047 A 
ATOM      6  C   UNL     1     -13.789   1.308  -9.922  1.00  0.00     0.011 A 
ENDROOT
BRANCH   1   7
ATOM      7  C   UNL     1     -13.221   3.407  -8.553  1.00  0.00     0.036 C 
ATOM      8  C   UNL     1     -12.497   4.660  -9.047  1.00  0.00     0.009 C 
ENDBRANCH   1   7
BRANCH   2   9
ATOM      9  O   UNL     1     -10.491   2.386  -8.551  1.00  0.00    -0.508 OA
ATOM     10  H   UNL     1      -9.655   2.722  -9.011  1.00  0.00     0.293 HD
ENDBRANCH   2   9
BRANCH   4  11
ATOM     11  O   UNL     1     -11.719  -1.500 -11.125  1.00  0.00    -0.508 OA
ATOM     12  H   UNL     1     -10.938  -1.545 -11.768  1.00  0.00     0.293 HD
ENDBRANCH   4  11
TORSDOF 3
ENDMDL
MODEL 4
REMARK VINA RESULT:    -6.042      1.807      2.453
REMARK INTER + INTRA:          -6.817
REMARK INTER:                  -6.724
REMARK INTRA:                  -0.093
REMARK UNBOUND:                -0.069
REMARK SMILES CCc1ccc(O)cc1O
REMARK SMILES IDX 3 1 9 2 8 3 6 4 5 5 4 6 2 7 1 8 10 9 7 11
REMARK H PARENT 10 10 7 12
REMARK Flexibility Score: inf
ROOT
ATOM      1  C   UNL     1     -11.688   0.100 -10.224  1.00  0.00    -0.006 A 
ATOM      2  C   UNL     1     -11.601   1.280  -9.441  1.00  0.00     0.122 A 
ATOM      3  C   UNL     1     -12.741   2.062  -9.222  1.00  0.00     0.092 A 
ATOM      4  C   UNL     1     -13.975   1.695  -9.768  1.00  0.00     0.119 A 
ATOM      5  C   UNL     1     -14.071   0.537 -10.538  1.00  0.00     0.047 A 
ATOM      6  C   UNL     1     -12.944  -0.255 -10.766  1.00  0.00     0.011 A 
ENDROOT
BRANCH   1   7
ATOM      7  C   UNL     1     -10.440  -0.740 -10.453  1.00  0.00     0.036 C 
ATOM      8  C   UNL     1     -10.240  -1.916  -9.495  1.00  0.00     0.009 C 
ENDBRANCH   1   7
BRANCH   2   9
ATOM      9  O   UNL     1     -10.400   1.705  -8.867  1.00  0.00    -0.508 OA
ATOM     10  H   UNL     1     -10.295   2.585  -8.381  1.00  0.00     0.293 HD
ENDBRANCH   2   9
BRANCH   4  11
ATOM     11  O   UNL     1     -15.109   2.474  -9.551  1.00  0.00    -0.508 OA
ATOM     12  H   UNL     1     -15.937   2.093  -9.108  1.00  0.00     0.293 HD
ENDBRANCH   4  11
TORSDOF 3
ENDMDL
MODEL 5
REMARK VINA RESULT:    -5.983      1.690      2.426
REMARK INTER + INTRA:          -6.752
REMARK INTER:                  -6.680
REMARK INTRA:                  -0.072
REMARK UNBOUND:                -0.069
REMARK SMILES CCc1ccc(O)cc1O
REMARK SMILES IDX 3 1 9 2 8 3 6 4 5 5 4 6 2 7 1 8 10 9 7 11
REMARK H PARENT 10 10 7 12
REMARK Flexibility Score: inf
ROOT
ATOM      1  C   UNL     1     -12.165   1.479  -9.652  1.00  0.00    -0.006 A 
ATOM      2  C   UNL     1     -13.567   1.667  -9.552  1.00  0.00     0.122 A 
ATOM      3  C   UNL     1     -14.080   2.819  -8.943  1.00  0.00     0.092 A 
ATOM      4  C   UNL     1     -13.223   3.795  -8.427  1.00  0.00     0.119 A 
ATOM      5  C   UNL     1     -11.843   3.621  -8.519  1.00  0.00     0.047 A 
ATOM      6  C   UNL     1     -11.315   2.478  -9.124  1.00  0.00     0.011 A 
ENDROOT
BRANCH   1   7
ATOM      7  C   UNL     1     -11.622   0.223 -10.316  1.00  0.00     0.036 C 
ATOM      8  C   UNL     1     -10.546  -0.534  -9.536  1.00  0.00     0.009 C 
ENDBRANCH   1   7
BRANCH   2   9
ATOM      9  O   UNL     1     -14.480   0.731 -10.047  1.00  0.00    -0.508 OA
ATOM     10  H   UNL     1     -14.208  -0.089 -10.573  1.00  0.00     0.293 HD
ENDBRANCH   2   9
BRANCH   4  11
ATOM     11  O   UNL     1     -13.733   4.940  -7.820  1.00  0.00    -0.508 OA
ATOM     12  H   UNL     1     -14.560   4.907  -7.236  1.00  0.00     0.293 HD
ENDBRANCH   4  11
TORSDOF 3
ENDMDL
MODEL 6
REMARK VINA RESULT:    -5.643      2.569      3.938
REMARK INTER + INTRA:          -6.371
REMARK INTER:                  -6.299
REMARK INTRA:                  -0.072
REMARK UNBOUND:                -0.069
REMARK SMILES CCc1ccc(O)cc1O
REMARK SMILES IDX 3 1 9 2 8 3 6 4 5 5 4 6 2 7 1 8 10 9 7 11
REMARK H PARENT 10 10 7 12
REMARK Flexibility Score: inf
ROOT
ATOM      1  C   UNL     1     -13.002  -0.705 -10.500  1.00  0.00    -0.006 A 
ATOM      2  C   UNL     1     -11.615  -0.939 -10.314  1.00  0.00     0.122 A 
ATOM      3  C   UNL     1     -10.807   0.051  -9.741  1.00  0.00     0.092 A 
ATOM      4  C   UNL     1     -11.352   1.277  -9.346  1.00  0.00     0.119 A 
ATOM      5  C   UNL     1     -12.713   1.516  -9.524  1.00  0.00     0.047 A 
ATOM      6  C   UNL     1     -13.533   0.540 -10.094  1.00  0.00     0.011 A 
ENDROOT
BRANCH   1   7
ATOM      7  C   UNL     1     -13.867  -1.790 -11.125  1.00  0.00     0.036 C 
ATOM      8  C   UNL     1     -15.125  -2.174 -10.343  1.00  0.00     0.009 C 
ENDBRANCH   1   7
BRANCH   2   9
ATOM      9  O   UNL     1     -11.007  -2.140 -10.686  1.00  0.00    -0.508 OA
ATOM     10  H   UNL     1     -11.091  -2.546 -11.609  1.00  0.00     0.293 HD
ENDBRANCH   2   9
BRANCH   4  11
ATOM     11  O   UNL     1     -10.548   2.261  -8.776  1.00  0.00    -0.508 OA
ATOM     12  H   UNL     1      -9.845   2.036  -8.082  1.00  0.00     0.293 HD
ENDBRANCH   4  11
TORSDOF 3
ENDMDL
MODEL 7
REMARK VINA RESULT:    -5.051      2.812      3.849
REMARK INTER + INTRA:          -5.710
REMARK INTER:                  -5.652
REMARK INTRA:                  -0.058
REMARK UNBOUND:                -0.069
REMARK SMILES CCc1ccc(O)cc1O
REMARK SMILES IDX 3 1 9 2 8 3 6 4 5 5 4 6 2 7 1 8 10 9 7 11
REMARK H PARENT 10 10 7 12
REMARK Flexibility Score: inf
ROOT
ATOM      1  C   UNL     1     -11.090  -0.545  -9.993  1.00  0.00    -0.006 A 
ATOM      2  C   UNL     1     -12.337  -0.921 -10.553  1.00  0.00     0.122 A 
ATOM      3  C   UNL     1     -13.407  -0.019 -10.555  1.00  0.00     0.092 A 
ATOM      4  C   UNL     1     -13.264   1.259 -10.007  1.00  0.00     0.119 A 
ATOM      5  C   UNL     1     -12.042   1.639  -9.454  1.00  0.00     0.047 A 
ATOM      6  C   UNL     1     -10.964   0.751  -9.444  1.00  0.00     0.011 A 
ENDROOT
BRANCH   1   7
ATOM      7  C   UNL     1      -9.936  -1.537  -9.999  1.00  0.00     0.036 C 
ATOM      8  C   UNL     1      -9.980  -2.620  -8.919  1.00  0.00     0.009 C 
ENDBRANCH   1   7
BRANCH   2   9
ATOM      9  O   UNL     1     -12.549  -2.183 -11.117  1.00  0.00    -0.508 OA
ATOM     10  H   UNL     1     -12.746  -3.012 -10.572  1.00  0.00     0.293 HD
ENDBRANCH   2   9
BRANCH   4  11
ATOM     11  O   UNL     1     -14.328   2.157 -10.007  1.00  0.00    -0.508 OA
ATOM     12  H   UNL     1     -15.283   1.847  -9.869  1.00  0.00     0.293 HD
ENDBRANCH   4  11
TORSDOF 3
ENDMDL
MODEL 8
REMARK VINA RESULT:    -4.577     14.918     16.063
REMARK INTER + INTRA:          -5.180
REMARK INTER:                  -5.109
REMARK INTRA:                  -0.071
REMARK UNBOUND:                -0.069
REMARK SMILES CCc1ccc(O)cc1O
REMARK SMILES IDX 3 1 9 2 8 3 6 4 5 5 4 6 2 7 1 8 10 9 7 11
REMARK H PARENT 10 10 7 12
REMARK Flexibility Score: inf
ROOT
ATOM      1  C   UNL     1     -12.606   5.893   5.865  1.00  0.00    -0.006 A 
ATOM      2  C   UNL     1     -12.447   5.008   6.963  1.00  0.00     0.122 A 
ATOM      3  C   UNL     1     -11.326   5.116   7.795  1.00  0.00     0.092 A 
ATOM      4  C   UNL     1     -10.353   6.091   7.558  1.00  0.00     0.119 A 
ATOM      5  C   UNL     1     -10.500   6.966   6.483  1.00  0.00     0.047 A 
ATOM      6  C   UNL     1     -11.612   6.872   5.643  1.00  0.00     0.011 A 
ENDROOT
BRANCH   1   7
ATOM      7  C   UNL     1     -13.829   5.762   4.970  1.00  0.00     0.036 C 
ATOM      8  C   UNL     1     -13.557   5.749   3.464  1.00  0.00     0.009 C 
ENDBRANCH   1   7
BRANCH   2   9
ATOM      9  O   UNL     1     -13.381   4.010   7.255  1.00  0.00    -0.508 OA
ATOM     10  H   UNL     1     -13.357   3.453   8.100  1.00  0.00     0.293 HD
ENDBRANCH   2   9
BRANCH   4  11
ATOM     11  O   UNL     1      -9.238   6.199   8.386  1.00  0.00    -0.508 OA
ATOM     12  H   UNL     1      -8.998   7.071   8.842  1.00  0.00     0.293 HD
ENDBRANCH   4  11
TORSDOF 3
ENDMDL
MODEL 9
REMARK VINA RESULT:    -4.530     15.129     16.183
REMARK INTER + INTRA:          -5.128
REMARK INTER:                  -5.058
REMARK INTRA:                  -0.070
REMARK UNBOUND:                -0.069
REMARK SMILES CCc1ccc(O)cc1O
REMARK SMILES IDX 3 1 9 2 8 3 6 4 5 5 4 6 2 7 1 8 10 9 7 11
REMARK H PARENT 10 10 7 12
REMARK Flexibility Score: inf
ROOT
ATOM      1  C   UNL     1     -12.354   5.900   6.062  1.00  0.00    -0.006 A 
ATOM      2  C   UNL     1     -11.166   6.400   6.654  1.00  0.00     0.122 A 
ATOM      3  C   UNL     1     -10.527   5.675   7.668  1.00  0.00     0.092 A 
ATOM      4  C   UNL     1     -11.048   4.456   8.109  1.00  0.00     0.119 A 
ATOM      5  C   UNL     1     -12.215   3.955   7.535  1.00  0.00     0.047 A 
ATOM      6  C   UNL     1     -12.864   4.665   6.522  1.00  0.00     0.011 A 
ENDROOT
BRANCH   1   7
ATOM      7  C   UNL     1     -13.036   6.699   4.961  1.00  0.00     0.036 C 
ATOM      8  C   UNL     1     -13.526   5.893   3.757  1.00  0.00     0.009 C 
ENDBRANCH   1   7
BRANCH   2   9
ATOM      9  O   UNL     1     -10.592   7.612   6.260  1.00  0.00    -0.508 OA
ATOM     10  H   UNL     1      -9.981   7.707   5.459  1.00  0.00     0.293 HD
ENDBRANCH   2   9
BRANCH   4  11
ATOM     11  O   UNL     1     -10.414   3.735   9.118  1.00  0.00    -0.508 OA
ATOM     12  H   UNL     1     -10.084   4.185   9.964  1.00  0.00     0.293 HD
ENDBRANCH   4  11
TORSDOF 3
ENDMDL
