MODEL 1
REMARK VINA RESULT:    -4.065      0.000      0.000
REMARK INTER + INTRA:          -7.613
REMARK INTER:                  -6.916
REMARK INTRA:                  -0.697
REMARK UNBOUND:                -0.697
REMARK SMILES CCCCCCCCCCCCCC(=O)[O-]
REMARK SMILES IDX 8 1 9 2 10 3 11 4 12 5 13 6 14 7 15 8 16 9 7 10 6 11 5 12
REMARK SMILES IDX 4 13 3 14 2 15 1 16
REMARK H PARENT
REMARK Flexibility Score: inf
ROOT
ATOM      1  C   UNL     1     -23.089  25.804  11.303  1.00  0.00     0.000 C 
ENDROOT
BRANCH   1   2
ATOM      2  C   UNL     1     -22.699  26.239   9.881  1.00  0.00     0.000 C 
BRANCH   2   3
ATOM      3  C   UNL     1     -23.861  26.117   8.882  1.00  0.00     0.000 C 
BRANCH   3   4
ATOM      4  C   UNL     1     -23.817  27.251   7.848  1.00  0.00     0.000 C 
BRANCH   4   5
ATOM      5  C   UNL     1     -23.587  28.636   8.479  1.00  0.00     0.006 C 
BRANCH   5   6
ATOM      6  C   UNL     1     -24.011  29.811   7.579  1.00  0.00     0.053 C 
BRANCH   6   7
ATOM      7  C   UNL     1     -23.396  31.111   8.003  1.00  0.00     0.041 C 
ATOM      8  O   UNL     1     -24.125  32.047   8.427  1.00  0.00    -0.550 OA
ATOM      9  O   UNL     1     -22.018  31.278   7.965  1.00  0.00    -0.550 OA
ENDBRANCH   6   7
ENDBRANCH   5   6
ENDBRANCH   4   5
ENDBRANCH   3   4
ENDBRANCH   2   3
ENDBRANCH   1   2
BRANCH   1  10
ATOM     10  C   UNL     1     -24.049  24.602  11.311  1.00  0.00     0.000 C 
BRANCH  10  11
ATOM     11  C   UNL     1     -23.459  23.366  12.014  1.00  0.00    -0.000 C 
BRANCH  11  12
ATOM     12  C   UNL     1     -23.239  23.511  13.532  1.00  0.00    -0.000 C 
BRANCH  12  13
ATOM     13  C   UNL     1     -21.841  23.054  13.982  1.00  0.00    -0.000 C 
BRANCH  13  14
ATOM     14  C   UNL     1     -20.715  23.968  13.465  1.00  0.00    -0.000 C 
BRANCH  14  15
ATOM     15  C   UNL     1     -19.415  23.936  14.289  1.00  0.00    -0.003 C 
ATOM     16  C   UNL     1     -19.650  23.616  15.765  1.00  0.00     0.004 C 
ENDBRANCH  14  15
ENDBRANCH  13  14
ENDBRANCH  12  13
ENDBRANCH  11  12
ENDBRANCH  10  11
ENDBRANCH   1  10
TORSDOF 12
ENDMDL
MODEL 2
REMARK VINA RESULT:    -4.023      3.909      7.908
REMARK INTER + INTRA:          -7.542
REMARK INTER:                  -6.882
REMARK INTRA:                  -0.659
REMARK UNBOUND:                -0.697
REMARK SMILES CCCCCCCCCCCCCC(=O)[O-]
REMARK SMILES IDX 8 1 9 2 10 3 11 4 12 5 13 6 14 7 15 8 16 9 7 10 6 11 5 12
REMARK SMILES IDX 4 13 3 14 2 15 1 16
REMARK H PARENT
REMARK Flexibility Score: inf
ROOT
ATOM      1  C   UNL     1     -22.961  26.464   9.950  1.00  0.00     0.000 C 
ENDROOT
BRANCH   1   2
ATOM      2  C   UNL     1     -23.624  25.416  10.858  1.00  0.00     0.000 C 
BRANCH   2   3
ATOM      3  C   UNL     1     -23.296  23.973  10.438  1.00  0.00     0.000 C 
BRANCH   3   4
ATOM      4  C   UNL     1     -21.882  23.580  10.888  1.00  0.00     0.000 C 
BRANCH   4   5
ATOM      5  C   UNL     1     -21.749  23.444  12.416  1.00  0.00     0.006 C 
BRANCH   5   6
ATOM      6  C   UNL     1     -20.331  23.717  12.947  1.00  0.00     0.053 C 
BRANCH   6   7
ATOM      7  C   UNL     1     -20.298  23.899  14.434  1.00  0.00     0.041 C 
ATOM      8  O   UNL     1     -19.255  24.326  14.997  1.00  0.00    -0.550 OA
ATOM      9  O   UNL     1     -21.429  23.634  15.196  1.00  0.00    -0.550 OA
ENDBRANCH   6   7
ENDBRANCH   5   6
ENDBRANCH   4   5
ENDBRANCH   3   4
ENDBRANCH   2   3
ENDBRANCH   1   2
BRANCH   1  10
ATOM     10  C   UNL     1     -23.279  26.243   8.461  1.00  0.00     0.000 C 
BRANCH  10  11
ATOM     11  C   UNL     1     -24.030  27.427   7.824  1.00  0.00    -0.000 C 
BRANCH  11  12
ATOM     12  C   UNL     1     -23.743  28.804   8.449  1.00  0.00    -0.000 C 
BRANCH  12  13
ATOM     13  C   UNL     1     -24.124  29.974   7.526  1.00  0.00    -0.000 C 
BRANCH  13  14
ATOM     14  C   UNL     1     -23.167  31.174   7.652  1.00  0.00    -0.000 C 
BRANCH  14  15
ATOM     15  C   UNL     1     -22.102  31.048   8.757  1.00  0.00    -0.003 C 
ATOM     16  C   UNL     1     -20.778  31.719   8.391  1.00  0.00     0.004 C 
ENDBRANCH  14  15
ENDBRANCH  13  14
ENDBRANCH  12  13
ENDBRANCH  11  12
ENDBRANCH  10  11
ENDBRANCH   1  10
TORSDOF 12
ENDMDL
MODEL 3
REMARK VINA RESULT:    -3.803      3.179      5.377
REMARK INTER + INTRA:          -7.168
REMARK INTER:                  -6.493
REMARK INTRA:                  -0.676
REMARK UNBOUND:                -0.697
REMARK SMILES CCCCCCCCCCCCCC(=O)[O-]
REMARK SMILES IDX 8 1 9 2 10 3 11 4 12 5 13 6 14 7 15 8 16 9 7 10 6 11 5 12
REMARK SMILES IDX 4 13 3 14 2 15 1 16
REMARK H PARENT
REMARK Flexibility Score: inf
ROOT
ATOM      1  C   UNL     1     -20.287  24.017  13.278  1.00  0.00     0.000 C 
ENDROOT
BRANCH   1   2
ATOM      2  C   UNL     1     -21.683  23.383  13.376  1.00  0.00     0.000 C 
BRANCH   2   3
ATOM      3  C   UNL     1     -22.484  23.502  12.069  1.00  0.00     0.000 C 
BRANCH   3   4
ATOM      4  C   UNL     1     -23.389  24.742  12.091  1.00  0.00     0.000 C 
BRANCH   4   5
ATOM      5  C   UNL     1     -22.915  25.854  11.138  1.00  0.00     0.006 C 
BRANCH   5   6
ATOM      6  C   UNL     1     -22.093  25.343   9.941  1.00  0.00     0.053 C 
BRANCH   6   7
ATOM      7  C   UNL     1     -22.925  25.158   8.708  1.00  0.00     0.041 C 
ATOM      8  O   UNL     1     -22.954  26.056   7.824  1.00  0.00    -0.550 OA
ATOM      9  O   UNL     1     -23.639  23.982   8.516  1.00  0.00    -0.550 OA
ENDBRANCH   6   7
ENDBRANCH   5   6
ENDBRANCH   4   5
ENDBRANCH   3   4
ENDBRANCH   2   3
ENDBRANCH   1   2
BRANCH   1  10
ATOM     10  C   UNL     1     -19.625  24.205  14.654  1.00  0.00     0.000 C 
BRANCH  10  11
ATOM     11  C   UNL     1     -19.827  22.998  15.589  1.00  0.00    -0.000 C 
BRANCH  11  12
ATOM     12  C   UNL     1     -19.045  23.051  16.914  1.00  0.00    -0.000 C 
BRANCH  12  13
ATOM     13  C   UNL     1     -19.693  23.975  17.959  1.00  0.00    -0.000 C 
BRANCH  13  14
ATOM     14  C   UNL     1     -19.299  23.616  19.403  1.00  0.00    -0.000 C 
BRANCH  14  15
ATOM     15  C   UNL     1     -17.787  23.482  19.655  1.00  0.00    -0.003 C 
ATOM     16  C   UNL     1     -17.309  24.278  20.870  1.00  0.00     0.004 C 
ENDBRANCH  14  15
ENDBRANCH  13  14
ENDBRANCH  12  13
ENDBRANCH  11  12
ENDBRANCH  10  11
ENDBRANCH   1  10
TORSDOF 12
ENDMDL
MODEL 4
REMARK VINA RESULT:    -3.795     10.795     13.638
REMARK INTER + INTRA:          -7.154
REMARK INTER:                  -5.850
REMARK INTRA:                  -1.305
REMARK UNBOUND:                -0.697
REMARK SMILES CCCCCCCCCCCCCC(=O)[O-]
REMARK SMILES IDX 8 1 9 2 10 3 11 4 12 5 13 6 14 7 15 8 16 9 7 10 6 11 5 12
REMARK SMILES IDX 4 13 3 14 2 15 1 16
REMARK H PARENT
REMARK Flexibility Score: inf
ROOT
ATOM      1  C   UNL     1     -19.288  31.102  23.863  1.00  0.00     0.000 C 
ENDROOT
BRANCH   1   2
ATOM      2  C   UNL     1     -18.061  30.211  23.613  1.00  0.00     0.000 C 
BRANCH   2   3
ATOM      3  C   UNL     1     -18.263  29.234  22.443  1.00  0.00     0.000 C 
BRANCH   3   4
ATOM      4  C   UNL     1     -19.656  29.405  21.820  1.00  0.00     0.000 C 
BRANCH   4   5
ATOM      5  C   UNL     1     -19.613  29.664  20.304  1.00  0.00     0.006 C 
BRANCH   5   6
ATOM      6  C   UNL     1     -20.717  28.938  19.514  1.00  0.00     0.053 C 
BRANCH   6   7
ATOM      7  C   UNL     1     -20.909  27.521  19.965  1.00  0.00     0.041 C 
ATOM      8  O   UNL     1     -20.011  26.663  19.756  1.00  0.00    -0.550 OA
ATOM      9  O   UNL     1     -22.063  27.156  20.648  1.00  0.00    -0.550 OA
ENDBRANCH   6   7
ENDBRANCH   5   6
ENDBRANCH   4   5
ENDBRANCH   3   4
ENDBRANCH   2   3
ENDBRANCH   1   2
BRANCH   1  10
ATOM     10  C   UNL     1     -19.043  32.569  23.469  1.00  0.00     0.000 C 
BRANCH  10  11
ATOM     11  C   UNL     1     -20.346  33.348  23.209  1.00  0.00    -0.000 C 
BRANCH  11  12
ATOM     12  C   UNL     1     -21.582  32.483  22.898  1.00  0.00    -0.000 C 
BRANCH  12  13
ATOM     13  C   UNL     1     -21.896  32.404  21.394  1.00  0.00    -0.000 C 
BRANCH  13  14
ATOM     14  C   UNL     1     -22.899  33.478  20.934  1.00  0.00    -0.000 C 
BRANCH  14  15
ATOM     15  C   UNL     1     -22.277  34.689  20.216  1.00  0.00    -0.003 C 
ATOM     16  C   UNL     1     -22.420  35.991  21.005  1.00  0.00     0.004 C 
ENDBRANCH  14  15
ENDBRANCH  13  14
ENDBRANCH  12  13
ENDBRANCH  11  12
ENDBRANCH  10  11
ENDBRANCH   1  10
TORSDOF 12
ENDMDL
MODEL 5
REMARK VINA RESULT:    -3.785     10.455     12.804
REMARK INTER + INTRA:          -7.137
REMARK INTER:                  -5.451
REMARK INTRA:                  -1.686
REMARK UNBOUND:                -0.697
REMARK SMILES CCCCCCCCCCCCCC(=O)[O-]
REMARK SMILES IDX 8 1 9 2 10 3 11 4 12 5 13 6 14 7 15 8 16 9 7 10 6 11 5 12
REMARK SMILES IDX 4 13 3 14 2 15 1 16
REMARK H PARENT
REMARK Flexibility Score: inf
ROOT
ATOM      1  C   UNL     1     -20.660  31.190  22.095  1.00  0.00     0.000 C 
ENDROOT
BRANCH   1   2
ATOM      2  C   UNL     1     -19.843  29.984  22.584  1.00  0.00     0.000 C 
BRANCH   2   3
ATOM      3  C   UNL     1     -19.390  29.067  21.435  1.00  0.00     0.000 C 
BRANCH   3   4
ATOM      4  C   UNL     1     -19.708  29.699  20.072  1.00  0.00     0.000 C 
BRANCH   4   5
ATOM      5  C   UNL     1     -20.485  28.757  19.135  1.00  0.00     0.006 C 
BRANCH   5   6
ATOM      6  C   UNL     1     -22.014  28.845  19.289  1.00  0.00     0.053 C 
BRANCH   6   7
ATOM      7  C   UNL     1     -22.580  27.703  20.079  1.00  0.00     0.041 C 
ATOM      8  O   UNL     1     -22.621  26.547  19.580  1.00  0.00    -0.550 OA
ATOM      9  O   UNL     1     -23.027  27.906  21.379  1.00  0.00    -0.550 OA
ENDBRANCH   6   7
ENDBRANCH   5   6
ENDBRANCH   4   5
ENDBRANCH   3   4
ENDBRANCH   2   3
ENDBRANCH   1   2
BRANCH   1  10
ATOM     10  C   UNL     1     -21.925  31.429  22.938  1.00  0.00     0.000 C 
BRANCH  10  11
ATOM     11  C   UNL     1     -23.217  31.420  22.100  1.00  0.00    -0.000 C 
BRANCH  11  12
ATOM     12  C   UNL     1     -23.122  32.123  20.733  1.00  0.00    -0.000 C 
BRANCH  12  13
ATOM     13  C   UNL     1     -23.709  33.545  20.747  1.00  0.00    -0.000 C 
BRANCH  13  14
ATOM     14  C   UNL     1     -22.738  34.600  20.183  1.00  0.00    -0.000 C 
BRANCH  14  15
ATOM     15  C   UNL     1     -21.527  34.919  21.079  1.00  0.00    -0.003 C 
ATOM     16  C   UNL     1     -21.915  35.220  22.526  1.00  0.00     0.004 C 
ENDBRANCH  14  15
ENDBRANCH  13  14
ENDBRANCH  12  13
ENDBRANCH  11  12
ENDBRANCH  10  11
ENDBRANCH   1  10
TORSDOF 12
ENDMDL
MODEL 6
REMARK VINA RESULT:    -3.776     10.315     12.762
REMARK INTER + INTRA:          -7.122
REMARK INTER:                  -5.706
REMARK INTRA:                  -1.416
REMARK UNBOUND:                -0.697
REMARK SMILES CCCCCCCCCCCCCC(=O)[O-]
REMARK SMILES IDX 8 1 9 2 10 3 11 4 12 5 13 6 14 7 15 8 16 9 7 10 6 11 5 12
REMARK SMILES IDX 4 13 3 14 2 15 1 16
REMARK H PARENT
REMARK Flexibility Score: inf
ROOT
ATOM      1  C   UNL     1     -18.648  31.882  23.895  1.00  0.00     0.000 C 
ENDROOT
BRANCH   1   2
ATOM      2  C   UNL     1     -19.829  32.639  23.267  1.00  0.00     0.000 C 
BRANCH   2   3
ATOM      3  C   UNL     1     -21.058  31.743  23.043  1.00  0.00     0.000 C 
BRANCH   3   4
ATOM      4  C   UNL     1     -21.518  31.799  21.578  1.00  0.00     0.000 C 
BRANCH   4   5
ATOM      5  C   UNL     1     -23.049  31.773  21.424  1.00  0.00     0.006 C 
BRANCH   5   6
ATOM      6  C   UNL     1     -23.598  32.832  20.452  1.00  0.00     0.053 C 
BRANCH   6   7
ATOM      7  C   UNL     1     -23.404  34.231  20.956  1.00  0.00     0.041 C 
ATOM      8  O   UNL     1     -23.018  35.138  20.172  1.00  0.00    -0.550 OA
ATOM      9  O   UNL     1     -23.684  34.542  22.281  1.00  0.00    -0.550 OA
ENDBRANCH   6   7
ENDBRANCH   5   6
ENDBRANCH   4   5
ENDBRANCH   3   4
ENDBRANCH   2   3
ENDBRANCH   1   2
BRANCH   1  10
ATOM     10  C   UNL     1     -18.871  30.360  23.926  1.00  0.00     0.000 C 
BRANCH  10  11
ATOM     11  C   UNL     1     -17.686  29.567  23.344  1.00  0.00    -0.000 C 
BRANCH  11  12
ATOM     12  C   UNL     1     -18.023  28.661  22.145  1.00  0.00    -0.000 C 
BRANCH  12  13
ATOM     13  C   UNL     1     -18.946  29.341  21.119  1.00  0.00    -0.000 C 
BRANCH  13  14
ATOM     14  C   UNL     1     -19.971  28.373  20.501  1.00  0.00    -0.000 C 
BRANCH  14  15
ATOM     15  C   UNL     1     -20.626  28.860  19.196  1.00  0.00    -0.003 C 
ATOM     16  C   UNL     1     -22.153  28.797  19.232  1.00  0.00     0.004 C 
ENDBRANCH  14  15
ENDBRANCH  13  14
ENDBRANCH  12  13
ENDBRANCH  11  12
ENDBRANCH  10  11
ENDBRANCH   1  10
TORSDOF 12
ENDMDL
MODEL 7
REMARK VINA RESULT:    -3.769     10.074     12.562
REMARK INTER + INTRA:          -7.110
REMARK INTER:                  -5.481
REMARK INTRA:                  -1.629
REMARK UNBOUND:                -0.697
REMARK SMILES CCCCCCCCCCCCCC(=O)[O-]
REMARK SMILES IDX 8 1 9 2 10 3 11 4 12 5 13 6 14 7 15 8 16 9 7 10 6 11 5 12
REMARK SMILES IDX 4 13 3 14 2 15 1 16
REMARK H PARENT
REMARK Flexibility Score: inf
ROOT
ATOM      1  C   UNL     1     -18.665  29.426  22.719  1.00  0.00     0.000 C 
ENDROOT
BRANCH   1   2
ATOM      2  C   UNL     1     -19.718  30.500  23.034  1.00  0.00     0.000 C 
BRANCH   2   3
ATOM      3  C   UNL     1     -19.129  31.710  23.777  1.00  0.00     0.000 C 
BRANCH   3   4
ATOM      4  C   UNL     1     -19.713  33.023  23.236  1.00  0.00     0.000 C 
BRANCH   4   5
ATOM      5  C   UNL     1     -21.067  32.836  22.527  1.00  0.00     0.006 C 
BRANCH   5   6
ATOM      6  C   UNL     1     -21.777  34.156  22.177  1.00  0.00     0.053 C 
BRANCH   6   7
ATOM      7  C   UNL     1     -22.407  34.127  20.817  1.00  0.00     0.041 C 
ATOM      8  O   UNL     1     -22.007  34.913  19.918  1.00  0.00    -0.550 OA
ATOM      9  O   UNL     1     -23.410  33.209  20.530  1.00  0.00    -0.550 OA
ENDBRANCH   6   7
ENDBRANCH   5   6
ENDBRANCH   4   5
ENDBRANCH   3   4
ENDBRANCH   2   3
ENDBRANCH   1   2
BRANCH   1  10
ATOM     10  C   UNL     1     -18.918  28.727  21.371  1.00  0.00     0.000 C 
BRANCH  10  11
ATOM     11  C   UNL     1     -19.578  29.650  20.330  1.00  0.00    -0.000 C 
BRANCH  11  12
ATOM     12  C   UNL     1     -20.388  28.935  19.233  1.00  0.00    -0.000 C 
BRANCH  12  13
ATOM     13  C   UNL     1     -21.809  28.557  19.685  1.00  0.00    -0.000 C 
BRANCH  13  14
ATOM     14  C   UNL     1     -22.603  29.756  20.234  1.00  0.00    -0.000 C 
BRANCH  14  15
ATOM     15  C   UNL     1     -23.094  29.606  21.685  1.00  0.00    -0.003 C 
ATOM     16  C   UNL     1     -22.622  28.311  22.346  1.00  0.00     0.004 C 
ENDBRANCH  14  15
ENDBRANCH  13  14
ENDBRANCH  12  13
ENDBRANCH  11  12
ENDBRANCH  10  11
ENDBRANCH   1  10
TORSDOF 12
ENDMDL
MODEL 8
REMARK VINA RESULT:    -3.722     10.209     12.203
REMARK INTER + INTRA:          -7.029
REMARK INTER:                  -5.686
REMARK INTRA:                  -1.343
REMARK UNBOUND:                -0.697
REMARK SMILES CCCCCCCCCCCCCC(=O)[O-]
REMARK SMILES IDX 8 1 9 2 10 3 11 4 12 5 13 6 14 7 15 8 16 9 7 10 6 11 5 12
REMARK SMILES IDX 4 13 3 14 2 15 1 16
REMARK H PARENT
REMARK Flexibility Score: inf
ROOT
ATOM      1  C   UNL     1     -21.901  28.920  19.174  1.00  0.00     0.000 C 
ENDROOT
BRANCH   1   2
ATOM      2  C   UNL     1     -22.601  28.882  20.542  1.00  0.00     0.000 C 
BRANCH   2   3
ATOM      3  C   UNL     1     -23.540  30.080  20.763  1.00  0.00     0.000 C 
BRANCH   3   4
ATOM      4  C   UNL     1     -22.900  31.112  21.703  1.00  0.00     0.000 C 
BRANCH   4   5
ATOM      5  C   UNL     1     -23.054  32.560  21.205  1.00  0.00     0.006 C 
BRANCH   5   6
ATOM      6  C   UNL     1     -21.905  33.493  21.630  1.00  0.00     0.053 C 
BRANCH   6   7
ATOM      7  C   UNL     1     -22.023  34.861  21.029  1.00  0.00     0.041 C 
ATOM      8  O   UNL     1     -21.800  35.034  19.801  1.00  0.00    -0.550 OA
ATOM      9  O   UNL     1     -22.412  35.938  21.815  1.00  0.00    -0.550 OA
ENDBRANCH   6   7
ENDBRANCH   5   6
ENDBRANCH   4   5
ENDBRANCH   3   4
ENDBRANCH   2   3
ENDBRANCH   1   2
BRANCH   1  10
ATOM     10  C   UNL     1     -20.383  28.693  19.281  1.00  0.00     0.000 C 
BRANCH  10  11
ATOM     11  C   UNL     1     -19.703  29.639  20.288  1.00  0.00    -0.000 C 
BRANCH  11  12
ATOM     12  C   UNL     1     -18.787  28.956  21.320  1.00  0.00    -0.000 C 
BRANCH  12  13
ATOM     13  C   UNL     1     -19.214  29.226  22.773  1.00  0.00    -0.000 C 
BRANCH  13  14
ATOM     14  C   UNL     1     -19.601  30.695  23.022  1.00  0.00    -0.000 C 
BRANCH  14  15
ATOM     15  C   UNL     1     -18.630  31.485  23.918  1.00  0.00    -0.003 C 
ATOM     16  C   UNL     1     -18.719  32.997  23.711  1.00  0.00     0.004 C 
ENDBRANCH  14  15
ENDBRANCH  13  14
ENDBRANCH  12  13
ENDBRANCH  11  12
ENDBRANCH  10  11
ENDBRANCH   1  10
TORSDOF 12
ENDMDL
MODEL 9
REMARK VINA RESULT:    -3.670     11.698     13.831
REMARK INTER + INTRA:          -6.941
REMARK INTER:                  -5.754
REMARK INTRA:                  -1.187
REMARK UNBOUND:                -0.697
REMARK SMILES CCCCCCCCCCCCCC(=O)[O-]
REMARK SMILES IDX 8 1 9 2 10 3 11 4 12 5 13 6 14 7 15 8 16 9 7 10 6 11 5 12
REMARK SMILES IDX 4 13 3 14 2 15 1 16
REMARK H PARENT
REMARK Flexibility Score: inf
ROOT
ATOM      1  C   UNL     1     -23.409  32.097  20.645  1.00  0.00     0.000 C 
ENDROOT
BRANCH   1   2
ATOM      2  C   UNL     1     -22.681  31.448  21.832  1.00  0.00     0.000 C 
BRANCH   2   3
ATOM      3  C   UNL     1     -21.151  31.564  21.728  1.00  0.00     0.000 C 
BRANCH   3   4
ATOM      4  C   UNL     1     -20.465  30.327  22.327  1.00  0.00     0.000 C 
BRANCH   4   5
ATOM      5  C   UNL     1     -19.477  29.655  21.357  1.00  0.00     0.006 C 
BRANCH   5   6
ATOM      6  C   UNL     1     -19.940  29.661  19.889  1.00  0.00     0.053 C 
BRANCH   6   7
ATOM      7  C   UNL     1     -20.858  28.519  19.571  1.00  0.00     0.041 C 
ATOM      8  O   UNL     1     -22.008  28.742  19.108  1.00  0.00    -0.550 OA
ATOM      9  O   UNL     1     -20.433  27.209  19.751  1.00  0.00    -0.550 OA
ENDBRANCH   6   7
ENDBRANCH   5   6
ENDBRANCH   4   5
ENDBRANCH   3   4
ENDBRANCH   2   3
ENDBRANCH   1   2
BRANCH   1  10
ATOM     10  C   UNL     1     -23.634  33.606  20.844  1.00  0.00     0.000 C 
BRANCH  10  11
ATOM     11  C   UNL     1     -22.727  34.473  19.950  1.00  0.00    -0.000 C 
BRANCH  11  12
ATOM     12  C   UNL     1     -21.606  35.231  20.684  1.00  0.00    -0.000 C 
BRANCH  12  13
ATOM     13  C   UNL     1     -21.795  35.254  22.210  1.00  0.00    -0.000 C 
BRANCH  13  14
ATOM     14  C   UNL     1     -22.110  36.659  22.754  1.00  0.00    -0.000 C 
BRANCH  14  15
ATOM     15  C   UNL     1     -23.138  37.462  21.937  1.00  0.00    -0.003 C 
ATOM     16  C   UNL     1     -22.629  38.844  21.526  1.00  0.00     0.004 C 
ENDBRANCH  14  15
ENDBRANCH  13  14
ENDBRANCH  12  13
ENDBRANCH  11  12
ENDBRANCH  10  11
ENDBRANCH   1  10
TORSDOF 12
ENDMDL
