MODEL 1
REMARK VINA RESULT:    -4.775      0.000      0.000
REMARK INTER + INTRA:          -7.229
REMARK INTER:                  -6.729
REMARK INTRA:                  -0.500
REMARK UNBOUND:                -0.500
REMARK SMILES CCCCCCCCC(=O)[O-]
REMARK SMILES IDX 6 1 7 2 8 3 9 4 10 5 11 6 5 7 4 8 3 9 2 10 1 11
REMARK H PARENT
REMARK Flexibility Score: inf
ROOT
ATOM      1  C   UNL     1      44.114  27.010   4.224  1.00  0.00     0.000 C 
ENDROOT
BRANCH   1   2
ATOM      2  C   UNL     1      45.335  27.010   5.160  1.00  0.00     0.006 C 
BRANCH   2   3
ATOM      3  C   UNL     1      44.999  27.564   6.550  1.00  0.00     0.053 C 
BRANCH   3   4
ATOM      4  C   UNL     1      44.236  26.572   7.374  1.00  0.00     0.041 C 
ATOM      5  O   UNL     1      44.834  25.605   7.915  1.00  0.00    -0.550 OA
ATOM      6  O   UNL     1      42.860  26.694   7.514  1.00  0.00    -0.550 OA
ENDBRANCH   3   4
ENDBRANCH   2   3
ENDBRANCH   1   2
BRANCH   1   7
ATOM      7  C   UNL     1      44.316  26.130   2.978  1.00  0.00     0.000 C 
BRANCH   7   8
ATOM      8  C   UNL     1      45.740  26.153   2.386  1.00  0.00    -0.000 C 
BRANCH   8   9
ATOM      9  C   UNL     1      46.436  24.782   2.304  1.00  0.00    -0.000 C 
BRANCH   9  10
ATOM     10  C   UNL     1      47.837  24.786   2.931  1.00  0.00    -0.003 C 
ATOM     11  C   UNL     1      47.798  24.266   4.365  1.00  0.00     0.004 C 
ENDBRANCH   9  10
ENDBRANCH   8   9
ENDBRANCH   7   8
ENDBRANCH   1   7
TORSDOF 7
ENDMDL
MODEL 2
REMARK VINA RESULT:    -4.743      2.198      4.621
REMARK INTER + INTRA:          -7.185
REMARK INTER:                  -6.736
REMARK INTRA:                  -0.449
REMARK UNBOUND:                -0.500
REMARK SMILES CCCCCCCCC(=O)[O-]
REMARK SMILES IDX 6 1 7 2 8 3 9 4 10 5 11 6 5 7 4 8 3 9 2 10 1 11
REMARK H PARENT
REMARK Flexibility Score: inf
ROOT
ATOM      1  C   UNL     1      45.453  26.599   2.823  1.00  0.00     0.000 C 
ENDROOT
BRANCH   1   2
ATOM      2  C   UNL     1      46.079  25.304   2.278  1.00  0.00     0.006 C 
BRANCH   2   3
ATOM      3  C   UNL     1      47.535  25.130   2.727  1.00  0.00     0.053 C 
BRANCH   3   4
ATOM      4  C   UNL     1      47.638  24.283   3.960  1.00  0.00     0.041 C 
ATOM      5  O   UNL     1      47.336  24.762   5.084  1.00  0.00    -0.550 OA
ATOM      6  O   UNL     1      48.103  22.978   3.871  1.00  0.00    -0.550 OA
ENDBRANCH   3   4
ENDBRANCH   2   3
ENDBRANCH   1   2
BRANCH   1   7
ATOM      7  C   UNL     1      44.242  26.340   3.736  1.00  0.00     0.000 C 
BRANCH   7   8
ATOM      8  C   UNL     1      44.062  27.354   4.884  1.00  0.00    -0.000 C 
BRANCH   8   9
ATOM      9  C   UNL     1      45.154  27.314   5.968  1.00  0.00    -0.000 C 
BRANCH   9  10
ATOM     10  C   UNL     1      44.872  26.273   7.060  1.00  0.00    -0.003 C 
ATOM     11  C   UNL     1      43.423  26.350   7.531  1.00  0.00     0.004 C 
ENDBRANCH   9  10
ENDBRANCH   8   9
ENDBRANCH   7   8
ENDBRANCH   1   7
TORSDOF 7
ENDMDL
MODEL 3
REMARK VINA RESULT:    -4.271      2.830      4.930
REMARK INTER + INTRA:          -6.520
REMARK INTER:                  -6.170
REMARK INTRA:                  -0.349
REMARK UNBOUND:                -0.500
REMARK SMILES CCCCCCCCC(=O)[O-]
REMARK SMILES IDX 6 1 7 2 8 3 9 4 10 5 11 6 5 7 4 8 3 9 2 10 1 11
REMARK H PARENT
REMARK Flexibility Score: inf
ROOT
ATOM      1  C   UNL     1      46.455  25.977   2.722  1.00  0.00     0.000 C 
ENDROOT
BRANCH   1   2
ATOM      2  C   UNL     1      46.278  24.570   2.128  1.00  0.00     0.006 C 
BRANCH   2   3
ATOM      3  C   UNL     1      47.599  23.789   2.085  1.00  0.00     0.053 C 
BRANCH   3   4
ATOM      4  C   UNL     1      47.819  23.002   3.341  1.00  0.00     0.041 C 
ATOM      5  O   UNL     1      47.476  21.792   3.398  1.00  0.00    -0.550 OA
ATOM      6  O   UNL     1      48.370  23.614   4.459  1.00  0.00    -0.550 OA
ENDBRANCH   3   4
ENDBRANCH   2   3
ENDBRANCH   1   2
BRANCH   1   7
ATOM      7  C   UNL     1      45.153  26.797   2.714  1.00  0.00     0.000 C 
BRANCH   7   8
ATOM      8  C   UNL     1      44.098  26.358   3.750  1.00  0.00    -0.000 C 
BRANCH   8   9
ATOM      9  C   UNL     1      44.007  27.245   5.004  1.00  0.00    -0.000 C 
BRANCH   9  10
ATOM     10  C   UNL     1      44.503  26.537   6.273  1.00  0.00    -0.003 C 
ATOM     11  C   UNL     1      45.803  27.157   6.776  1.00  0.00     0.004 C 
ENDBRANCH   9  10
ENDBRANCH   8   9
ENDBRANCH   7   8
ENDBRANCH   1   7
TORSDOF 7
ENDMDL
MODEL 4
REMARK VINA RESULT:    -4.107     14.860     15.954
REMARK INTER + INTRA:          -6.288
REMARK INTER:                  -5.913
REMARK INTRA:                  -0.375
REMARK UNBOUND:                -0.500
REMARK SMILES CCCCCCCCC(=O)[O-]
REMARK SMILES IDX 6 1 7 2 8 3 9 4 10 5 11 6 5 7 4 8 3 9 2 10 1 11
REMARK H PARENT
REMARK Flexibility Score: inf
ROOT
ATOM      1  C   UNL     1      42.503  22.879  18.816  1.00  0.00     0.000 C 
ENDROOT
BRANCH   1   2
ATOM      2  C   UNL     1      42.444  23.630  20.156  1.00  0.00     0.006 C 
BRANCH   2   3
ATOM      3  C   UNL     1      42.484  22.676  21.357  1.00  0.00     0.053 C 
BRANCH   3   4
ATOM      4  C   UNL     1      43.744  21.865  21.380  1.00  0.00     0.041 C 
ATOM      5  O   UNL     1      43.688  20.609  21.447  1.00  0.00    -0.550 OA
ATOM      6  O   UNL     1      44.980  22.498  21.366  1.00  0.00    -0.550 OA
ENDBRANCH   3   4
ENDBRANCH   2   3
ENDBRANCH   1   2
BRANCH   1   7
ATOM      7  C   UNL     1      41.139  22.811  18.107  1.00  0.00     0.000 C 
BRANCH   7   8
ATOM      8  C   UNL     1      40.013  23.623  18.780  1.00  0.00    -0.000 C 
BRANCH   8   9
ATOM      9  C   UNL     1      38.904  24.112  17.831  1.00  0.00    -0.000 C 
BRANCH   9  10
ATOM     10  C   UNL     1      38.405  23.014  16.882  1.00  0.00    -0.003 C 
ATOM     11  C   UNL     1      37.234  22.251  17.495  1.00  0.00     0.004 C 
ENDBRANCH   9  10
ENDBRANCH   8   9
ENDBRANCH   7   8
ENDBRANCH   1   7
TORSDOF 7
ENDMDL
MODEL 5
REMARK VINA RESULT:    -4.030     14.675     16.062
REMARK INTER + INTRA:          -6.179
REMARK INTER:                  -5.460
REMARK INTRA:                  -0.719
REMARK UNBOUND:                -0.500
REMARK SMILES CCCCCCCCC(=O)[O-]
REMARK SMILES IDX 6 1 7 2 8 3 9 4 10 5 11 6 5 7 4 8 3 9 2 10 1 11
REMARK H PARENT
REMARK Flexibility Score: inf
ROOT
ATOM      1  C   UNL     1      43.306  22.474  21.755  1.00  0.00     0.000 C 
ENDROOT
BRANCH   1   2
ATOM      2  C   UNL     1      42.663  23.419  20.726  1.00  0.00     0.006 C 
BRANCH   2   3
ATOM      3  C   UNL     1      42.534  22.768  19.343  1.00  0.00     0.053 C 
BRANCH   3   4
ATOM      4  C   UNL     1      41.255  23.156  18.663  1.00  0.00     0.041 C 
ATOM      5  O   UNL     1      40.896  22.570  17.608  1.00  0.00    -0.550 OA
ATOM      6  O   UNL     1      40.480  24.188  19.175  1.00  0.00    -0.550 OA
ENDBRANCH   3   4
ENDBRANCH   2   3
ENDBRANCH   1   2
BRANCH   1   7
ATOM      7  C   UNL     1      43.873  21.193  21.118  1.00  0.00     0.000 C 
BRANCH   7   8
ATOM      8  C   UNL     1      45.375  20.949  21.371  1.00  0.00    -0.000 C 
BRANCH   8   9
ATOM      9  C   UNL     1      46.247  22.217  21.401  1.00  0.00    -0.000 C 
BRANCH   9  10
ATOM     10  C   UNL     1      46.883  22.536  20.040  1.00  0.00    -0.003 C 
ATOM     11  C   UNL     1      46.202  23.732  19.383  1.00  0.00     0.004 C 
ENDBRANCH   9  10
ENDBRANCH   8   9
ENDBRANCH   7   8
ENDBRANCH   1   7
TORSDOF 7
ENDMDL
MODEL 6
REMARK VINA RESULT:    -4.006     14.305     15.433
REMARK INTER + INTRA:          -6.145
REMARK INTER:                  -5.818
REMARK INTRA:                  -0.327
REMARK UNBOUND:                -0.500
REMARK SMILES CCCCCCCCC(=O)[O-]
REMARK SMILES IDX 6 1 7 2 8 3 9 4 10 5 11 6 5 7 4 8 3 9 2 10 1 11
REMARK H PARENT
REMARK Flexibility Score: inf
ROOT
ATOM      1  C   UNL     1      40.828  22.471  17.737  1.00  0.00     0.000 C 
ENDROOT
BRANCH   1   2
ATOM      2  C   UNL     1      39.584  21.863  17.069  1.00  0.00     0.006 C 
BRANCH   2   3
ATOM      3  C   UNL     1      38.617  22.938  16.556  1.00  0.00     0.053 C 
BRANCH   3   4
ATOM      4  C   UNL     1      37.273  22.835  17.211  1.00  0.00     0.041 C 
ATOM      5  O   UNL     1      36.809  21.708  17.528  1.00  0.00    -0.550 OA
ATOM      6  O   UNL     1      36.519  23.978  17.438  1.00  0.00    -0.550 OA
ENDBRANCH   3   4
ENDBRANCH   2   3
ENDBRANCH   1   2
BRANCH   1   7
ATOM      7  C   UNL     1      40.490  23.639  18.681  1.00  0.00     0.000 C 
BRANCH   7   8
ATOM      8  C   UNL     1      41.544  23.923  19.770  1.00  0.00    -0.000 C 
BRANCH   8   9
ATOM      9  C   UNL     1      42.847  23.112  19.646  1.00  0.00    -0.000 C 
BRANCH   9  10
ATOM     10  C   UNL     1      43.336  22.561  20.992  1.00  0.00    -0.003 C 
ATOM     11  C   UNL     1      43.425  21.037  20.961  1.00  0.00     0.004 C 
ENDBRANCH   9  10
ENDBRANCH   8   9
ENDBRANCH   7   8
ENDBRANCH   1   7
TORSDOF 7
ENDMDL
MODEL 7
REMARK VINA RESULT:    -3.991     14.396     15.290
REMARK INTER + INTRA:          -6.125
REMARK INTER:                  -5.825
REMARK INTRA:                  -0.300
REMARK UNBOUND:                -0.500
REMARK SMILES CCCCCCCCC(=O)[O-]
REMARK SMILES IDX 6 1 7 2 8 3 9 4 10 5 11 6 5 7 4 8 3 9 2 10 1 11
REMARK H PARENT
REMARK Flexibility Score: inf
ROOT
ATOM      1  C   UNL     1      42.425  22.872  19.590  1.00  0.00     0.000 C 
ENDROOT
BRANCH   1   2
ATOM      2  C   UNL     1      43.761  23.275  20.237  1.00  0.00     0.006 C 
BRANCH   2   3
ATOM      3  C   UNL     1      44.685  24.002  19.251  1.00  0.00     0.053 C 
BRANCH   3   4
ATOM      4  C   UNL     1      46.121  23.626  19.458  1.00  0.00     0.041 C 
ATOM      5  O   UNL     1      46.416  22.542  20.025  1.00  0.00    -0.550 OA
ATOM      6  O   UNL     1      47.132  24.490  19.057  1.00  0.00    -0.550 OA
ENDBRANCH   3   4
ENDBRANCH   2   3
ENDBRANCH   1   2
BRANCH   1   7
ATOM      7  C   UNL     1      41.367  23.988  19.657  1.00  0.00     0.000 C 
BRANCH   7   8
ATOM      8  C   UNL     1      40.161  23.800  18.715  1.00  0.00    -0.000 C 
BRANCH   8   9
ATOM      9  C   UNL     1      40.379  22.798  17.567  1.00  0.00    -0.000 C 
BRANCH   9  10
ATOM     10  C   UNL     1      39.090  22.071  17.158  1.00  0.00    -0.003 C 
ATOM     11  C   UNL     1      37.865  22.950  17.391  1.00  0.00     0.004 C 
ENDBRANCH   9  10
ENDBRANCH   8   9
ENDBRANCH   7   8
ENDBRANCH   1   7
TORSDOF 7
ENDMDL
MODEL 8
REMARK VINA RESULT:    -3.975     14.723     15.933
REMARK INTER + INTRA:          -6.102
REMARK INTER:                  -5.887
REMARK INTRA:                  -0.215
REMARK UNBOUND:                -0.500
REMARK SMILES CCCCCCCCC(=O)[O-]
REMARK SMILES IDX 6 1 7 2 8 3 9 4 10 5 11 6 5 7 4 8 3 9 2 10 1 11
REMARK H PARENT
REMARK Flexibility Score: inf
ROOT
ATOM      1  C   UNL     1      41.275  23.691  19.672  1.00  0.00     0.000 C 
ENDROOT
BRANCH   1   2
ATOM      2  C   UNL     1      40.683  23.252  18.322  1.00  0.00     0.006 C 
BRANCH   2   3
ATOM      3  C   UNL     1      39.321  23.902  18.047  1.00  0.00     0.053 C 
BRANCH   3   4
ATOM      4  C   UNL     1      38.346  22.922  17.469  1.00  0.00     0.041 C 
ATOM      5  O   UNL     1      38.760  21.876  16.903  1.00  0.00    -0.550 OA
ATOM      6  O   UNL     1      36.983  23.182  17.522  1.00  0.00    -0.550 OA
ENDBRANCH   3   4
ENDBRANCH   2   3
ENDBRANCH   1   2
BRANCH   1   7
ATOM      7  C   UNL     1      42.727  23.222  19.869  1.00  0.00     0.000 C 
BRANCH   7   8
ATOM      8  C   UNL     1      42.987  22.436  21.171  1.00  0.00    -0.000 C 
BRANCH   8   9
ATOM      9  C   UNL     1      43.418  20.971  20.973  1.00  0.00    -0.000 C 
BRANCH   9  10
ATOM     10  C   UNL     1      44.690  20.613  21.754  1.00  0.00    -0.003 C 
ATOM     11  C   UNL     1      45.905  21.343  21.187  1.00  0.00     0.004 C 
ENDBRANCH   9  10
ENDBRANCH   8   9
ENDBRANCH   7   8
ENDBRANCH   1   7
TORSDOF 7
ENDMDL
MODEL 9
REMARK VINA RESULT:    -3.967     14.445     15.524
REMARK INTER + INTRA:          -6.091
REMARK INTER:                  -5.729
REMARK INTRA:                  -0.362
REMARK UNBOUND:                -0.500
REMARK SMILES CCCCCCCCC(=O)[O-]
REMARK SMILES IDX 6 1 7 2 8 3 9 4 10 5 11 6 5 7 4 8 3 9 2 10 1 11
REMARK H PARENT
REMARK Flexibility Score: inf
ROOT
ATOM      1  C   UNL     1      41.082  24.482  19.488  1.00  0.00     0.000 C 
ENDROOT
BRANCH   1   2
ATOM      2  C   UNL     1      39.981  23.485  19.089  1.00  0.00     0.006 C 
BRANCH   2   3
ATOM      3  C   UNL     1      39.160  23.977  17.890  1.00  0.00     0.053 C 
BRANCH   3   4
ATOM      4  C   UNL     1      38.525  22.840  17.149  1.00  0.00     0.041 C 
ATOM      5  O   UNL     1      39.202  21.822  16.850  1.00  0.00    -0.550 OA
ATOM      6  O   UNL     1      37.195  22.921  16.756  1.00  0.00    -0.550 OA
ENDBRANCH   3   4
ENDBRANCH   2   3
ENDBRANCH   1   2
BRANCH   1   7
ATOM      7  C   UNL     1      41.532  24.322  20.951  1.00  0.00     0.000 C 
BRANCH   7   8
ATOM      8  C   UNL     1      42.306  23.023  21.257  1.00  0.00    -0.000 C 
BRANCH   8   9
ATOM      9  C   UNL     1      43.410  22.668  20.245  1.00  0.00    -0.000 C 
BRANCH   9  10
ATOM     10  C   UNL     1      44.710  23.448  20.484  1.00  0.00    -0.003 C 
ATOM     11  C   UNL     1      45.371  23.831  19.162  1.00  0.00     0.004 C 
ENDBRANCH   9  10
ENDBRANCH   8   9
ENDBRANCH   7   8
ENDBRANCH   1   7
TORSDOF 7
ENDMDL
