MODEL 1
REMARK VINA RESULT:    -5.633      0.000      0.000
REMARK INTER + INTRA:         -13.565
REMARK INTER:                 -12.220
REMARK INTRA:                  -1.345
REMARK UNBOUND:                -1.345
REMARK SMILES CCCCCCCCCCCCCCCCCCCCCC(=O)[O-]
REMARK SMILES IDX 12 1 11 2 10 3 9 4 8 5 7 6 6 7 5 8 4 9 3 10 2 11 1 12 13 13
REMARK SMILES IDX 14 14 15 15 16 16 17 17 18 18 19 19 20 20 21 21 22 22 23 23
REMARK SMILES IDX 24 24
REMARK H PARENT
REMARK Flexibility Score: inf
ROOT
ATOM      1  C   UNL     1      29.411   0.875  29.355  1.00  0.00     0.000 C 
ENDROOT
BRANCH   1   2
ATOM      2  C   UNL     1      28.572  -0.319  28.864  1.00  0.00     0.000 C 
BRANCH   2   3
ATOM      3  C   UNL     1      27.066  -0.118  29.098  1.00  0.00     0.000 C 
BRANCH   3   4
ATOM      4  C   UNL     1      26.544  -0.900  30.317  1.00  0.00    -0.000 C 
BRANCH   4   5
ATOM      5  C   UNL     1      27.510  -2.011  30.761  1.00  0.00    -0.000 C 
BRANCH   5   6
ATOM      6  C   UNL     1      26.824  -3.384  30.873  1.00  0.00    -0.000 C 
BRANCH   6   7
ATOM      7  C   UNL     1      27.833  -4.541  30.956  1.00  0.00    -0.000 C 
BRANCH   7   8
ATOM      8  C   UNL     1      27.562  -5.639  29.912  1.00  0.00    -0.000 C 
BRANCH   8   9
ATOM      9  C   UNL     1      28.833  -6.448  29.577  1.00  0.00    -0.000 C 
BRANCH   9  10
ATOM     10  C   UNL     1      28.668  -7.964  29.779  1.00  0.00    -0.000 C 
BRANCH  10  11
ATOM     11  C   UNL     1      29.420  -8.486  31.009  1.00  0.00    -0.003 C 
ATOM     12  C   UNL     1      28.451  -8.885  32.119  1.00  0.00     0.004 C 
ENDBRANCH  10  11
ENDBRANCH   9  10
ENDBRANCH   8   9
ENDBRANCH   7   8
ENDBRANCH   6   7
ENDBRANCH   5   6
ENDBRANCH   4   5
ENDBRANCH   3   4
ENDBRANCH   2   3
ENDBRANCH   1   2
BRANCH   1  13
ATOM     13  C   UNL     1      30.015   0.640  30.749  1.00  0.00     0.000 C 
BRANCH  13  14
ATOM     14  C   UNL     1      29.236   1.357  31.863  1.00  0.00     0.000 C 
BRANCH  14  15
ATOM     15  C   UNL     1      28.299   2.421  31.279  1.00  0.00     0.000 C 
BRANCH  15  16
ATOM     16  C   UNL     1      28.730   3.831  31.707  1.00  0.00     0.000 C 
BRANCH  16  17
ATOM     17  C   UNL     1      27.709   4.908  31.309  1.00  0.00     0.000 C 
BRANCH  17  18
ATOM     18  C   UNL     1      28.376   6.208  30.830  1.00  0.00     0.000 C 
BRANCH  18  19
ATOM     19  C   UNL     1      27.423   7.094  30.010  1.00  0.00     0.000 C 
BRANCH  19  20
ATOM     20  C   UNL     1      27.908   8.551  29.916  1.00  0.00     0.006 C 
BRANCH  20  21
ATOM     21  C   UNL     1      26.804   9.554  30.278  1.00  0.00     0.053 C 
BRANCH  21  22
ATOM     22  C   UNL     1      27.102  10.271  31.558  1.00  0.00     0.041 C 
ATOM     23  O   UNL     1      28.076  11.066  31.628  1.00  0.00    -0.550 OA
ATOM     24  O   UNL     1      26.321  10.040  32.684  1.00  0.00    -0.550 OA
ENDBRANCH  21  22
ENDBRANCH  20  21
ENDBRANCH  19  20
ENDBRANCH  18  19
ENDBRANCH  17  18
ENDBRANCH  16  17
ENDBRANCH  15  16
ENDBRANCH  14  15
ENDBRANCH  13  14
ENDBRANCH   1  13
TORSDOF 20
ENDMDL
MODEL 2
REMARK VINA RESULT:    -5.374      5.696     12.352
REMARK INTER + INTRA:         -13.003
REMARK INTER:                 -11.492
REMARK INTRA:                  -1.511
REMARK UNBOUND:                -1.345
REMARK SMILES CCCCCCCCCCCCCCCCCCCCCC(=O)[O-]
REMARK SMILES IDX 12 1 11 2 10 3 9 4 8 5 7 6 6 7 5 8 4 9 3 10 2 11 1 12 13 13
REMARK SMILES IDX 14 14 15 15 16 16 17 17 18 18 19 19 20 20 21 21 22 22 23 23
REMARK SMILES IDX 24 24
REMARK H PARENT
REMARK Flexibility Score: inf
ROOT
ATOM      1  C   UNL     1      29.116   0.984  29.086  1.00  0.00     0.000 C 
ENDROOT
BRANCH   1   2
ATOM      2  C   UNL     1      29.928   0.812  30.383  1.00  0.00     0.000 C 
BRANCH   2   3
ATOM      3  C   UNL     1      29.267   1.499  31.588  1.00  0.00     0.000 C 
BRANCH   3   4
ATOM      4  C   UNL     1      28.348   2.664  31.180  1.00  0.00    -0.000 C 
BRANCH   4   5
ATOM      5  C   UNL     1      28.445   3.856  32.145  1.00  0.00    -0.000 C 
BRANCH   5   6
ATOM      6  C   UNL     1      28.727   5.185  31.422  1.00  0.00    -0.000 C 
BRANCH   6   7
ATOM      7  C   UNL     1      27.489   5.737  30.698  1.00  0.00    -0.000 C 
BRANCH   7   8
ATOM      8  C   UNL     1      27.797   7.001  29.876  1.00  0.00    -0.000 C 
BRANCH   8   9
ATOM      9  C   UNL     1      26.993   8.224  30.366  1.00  0.00    -0.000 C 
BRANCH   9  10
ATOM     10  C   UNL     1      27.873   9.419  30.768  1.00  0.00    -0.000 C 
BRANCH  10  11
ATOM     11  C   UNL     1      27.702  10.624  29.834  1.00  0.00    -0.003 C 
ATOM     12  C   UNL     1      28.378  10.378  28.488  1.00  0.00     0.004 C 
ENDBRANCH  10  11
ENDBRANCH   9  10
ENDBRANCH   8   9
ENDBRANCH   7   8
ENDBRANCH   6   7
ENDBRANCH   5   6
ENDBRANCH   4   5
ENDBRANCH   3   4
ENDBRANCH   2   3
ENDBRANCH   1   2
BRANCH   1  13
ATOM     13  C   UNL     1      28.181  -0.205  28.810  1.00  0.00     0.000 C 
BRANCH  13  14
ATOM     14  C   UNL     1      26.705   0.126  29.082  1.00  0.00     0.000 C 
BRANCH  14  15
ATOM     15  C   UNL     1      26.223  -0.541  30.376  1.00  0.00     0.000 C 
BRANCH  15  16
ATOM     16  C   UNL     1      27.220  -1.608  30.851  1.00  0.00     0.000 C 
BRANCH  16  17
ATOM     17  C   UNL     1      26.654  -3.033  30.747  1.00  0.00     0.000 C 
BRANCH  17  18
ATOM     18  C   UNL     1      27.687  -4.109  31.124  1.00  0.00     0.000 C 
BRANCH  18  19
ATOM     19  C   UNL     1      28.685  -4.391  29.989  1.00  0.00     0.000 C 
BRANCH  19  20
ATOM     20  C   UNL     1      28.747  -5.883  29.616  1.00  0.00     0.006 C 
BRANCH  20  21
ATOM     21  C   UNL     1      28.375  -6.790  30.797  1.00  0.00     0.053 C 
BRANCH  21  22
ATOM     22  C   UNL     1      28.817  -8.203  30.574  1.00  0.00     0.041 C 
ATOM     23  O   UNL     1      29.477  -8.809  31.459  1.00  0.00    -0.550 OA
ATOM     24  O   UNL     1      28.527  -8.843  29.374  1.00  0.00    -0.550 OA
ENDBRANCH  21  22
ENDBRANCH  20  21
ENDBRANCH  19  20
ENDBRANCH  18  19
ENDBRANCH  17  18
ENDBRANCH  16  17
ENDBRANCH  15  16
ENDBRANCH  14  15
ENDBRANCH  13  14
ENDBRANCH   1  13
TORSDOF 20
ENDMDL
MODEL 3
REMARK VINA RESULT:    -5.352      1.394      2.186
REMARK INTER + INTRA:         -12.956
REMARK INTER:                 -11.667
REMARK INTRA:                  -1.289
REMARK UNBOUND:                -1.345
REMARK SMILES CCCCCCCCCCCCCCCCCCCCCC(=O)[O-]
REMARK SMILES IDX 12 1 11 2 10 3 9 4 8 5 7 6 6 7 5 8 4 9 3 10 2 11 1 12 13 13
REMARK SMILES IDX 14 14 15 15 16 16 17 17 18 18 19 19 20 20 21 21 22 22 23 23
REMARK SMILES IDX 24 24
REMARK H PARENT
REMARK Flexibility Score: inf
ROOT
ATOM      1  C   UNL     1      27.196   0.962  31.500  1.00  0.00     0.000 C 
ENDROOT
BRANCH   1   2
ATOM      2  C   UNL     1      28.189  -0.162  31.851  1.00  0.00     0.000 C 
BRANCH   2   3
ATOM      3  C   UNL     1      29.610   0.125  31.339  1.00  0.00     0.000 C 
BRANCH   3   4
ATOM      4  C   UNL     1      30.042  -0.833  30.215  1.00  0.00    -0.000 C 
BRANCH   4   5
ATOM      5  C   UNL     1      29.036  -1.974  29.995  1.00  0.00    -0.000 C 
BRANCH   5   6
ATOM      6  C   UNL     1      29.684  -3.366  30.096  1.00  0.00    -0.000 C 
BRANCH   6   7
ATOM      7  C   UNL     1      28.803  -4.472  29.495  1.00  0.00    -0.000 C 
BRANCH   7   8
ATOM      8  C   UNL     1      28.931  -5.807  30.251  1.00  0.00    -0.000 C 
BRANCH   8   9
ATOM      9  C   UNL     1      28.898  -7.020  29.297  1.00  0.00    -0.000 C 
BRANCH   9  10
ATOM     10  C   UNL     1      28.408  -8.316  29.966  1.00  0.00    -0.000 C 
BRANCH  10  11
ATOM     11  C   UNL     1      29.249  -8.710  31.187  1.00  0.00    -0.003 C 
ATOM     12  C   UNL     1      28.403  -8.716  32.458  1.00  0.00     0.004 C 
ENDBRANCH  10  11
ENDBRANCH   9  10
ENDBRANCH   8   9
ENDBRANCH   7   8
ENDBRANCH   6   7
ENDBRANCH   5   6
ENDBRANCH   4   5
ENDBRANCH   3   4
ENDBRANCH   2   3
ENDBRANCH   1   2
BRANCH   1  13
ATOM     13  C   UNL     1      26.565   0.782  30.110  1.00  0.00     0.000 C 
BRANCH  13  14
ATOM     14  C   UNL     1      27.199   1.695  29.047  1.00  0.00     0.000 C 
BRANCH  14  15
ATOM     15  C   UNL     1      27.798   2.951  29.691  1.00  0.00     0.000 C 
BRANCH  15  16
ATOM     16  C   UNL     1      27.546   4.190  28.820  1.00  0.00     0.000 C 
BRANCH  16  17
ATOM     17  C   UNL     1      26.962   5.366  29.619  1.00  0.00     0.000 C 
BRANCH  17  18
ATOM     18  C   UNL     1      28.030   6.119  30.430  1.00  0.00     0.000 C 
BRANCH  18  19
ATOM     19  C   UNL     1      28.037   7.629  30.138  1.00  0.00     0.000 C 
BRANCH  19  20
ATOM     20  C   UNL     1      26.796   8.343  30.704  1.00  0.00     0.006 C 
BRANCH  20  21
ATOM     21  C   UNL     1      26.764   9.831  30.330  1.00  0.00     0.053 C 
BRANCH  21  22
ATOM     22  C   UNL     1      27.092  10.706  31.500  1.00  0.00     0.041 C 
ATOM     23  O   UNL     1      26.176  11.122  32.258  1.00  0.00    -0.550 OA
ATOM     24  O   UNL     1      28.407  11.089  31.737  1.00  0.00    -0.550 OA
ENDBRANCH  21  22
ENDBRANCH  20  21
ENDBRANCH  19  20
ENDBRANCH  18  19
ENDBRANCH  17  18
ENDBRANCH  16  17
ENDBRANCH  15  16
ENDBRANCH  14  15
ENDBRANCH  13  14
ENDBRANCH   1  13
TORSDOF 20
ENDMDL
MODEL 4
REMARK VINA RESULT:    -5.245      4.937     11.858
REMARK INTER + INTRA:         -12.722
REMARK INTER:                 -10.845
REMARK INTRA:                  -1.877
REMARK UNBOUND:                -1.345
REMARK SMILES CCCCCCCCCCCCCCCCCCCCCC(=O)[O-]
REMARK SMILES IDX 12 1 11 2 10 3 9 4 8 5 7 6 6 7 5 8 4 9 3 10 2 11 1 12 13 13
REMARK SMILES IDX 14 14 15 15 16 16 17 17 18 18 19 19 20 20 21 21 22 22 23 23
REMARK SMILES IDX 24 24
REMARK H PARENT
REMARK Flexibility Score: inf
ROOT
ATOM      1  C   UNL     1      27.532   4.229  29.233  1.00  0.00     0.000 C 
ENDROOT
BRANCH   1   2
ATOM      2  C   UNL     1      27.964   4.591  30.666  1.00  0.00     0.000 C 
BRANCH   2   3
ATOM      3  C   UNL     1      27.211   5.813  31.218  1.00  0.00     0.000 C 
BRANCH   3   4
ATOM      4  C   UNL     1      27.200   6.998  30.236  1.00  0.00    -0.000 C 
BRANCH   4   5
ATOM      5  C   UNL     1      28.430   7.906  30.394  1.00  0.00    -0.000 C 
BRANCH   5   6
ATOM      6  C   UNL     1      28.373   9.147  29.487  1.00  0.00    -0.000 C 
BRANCH   6   7
ATOM      7  C   UNL     1      26.954   9.726  29.368  1.00  0.00    -0.000 C 
BRANCH   7   8
ATOM      8  C   UNL     1      26.820  11.106  30.035  1.00  0.00    -0.000 C 
BRANCH   8   9
ATOM      9  C   UNL     1      25.720  11.125  31.117  1.00  0.00    -0.000 C 
BRANCH   9  10
ATOM     10  C   UNL     1      26.066  10.292  32.362  1.00  0.00    -0.000 C 
BRANCH  10  11
ATOM     11  C   UNL     1      26.722  11.124  33.472  1.00  0.00    -0.003 C 
ATOM     12  C   UNL     1      26.582  10.440  34.829  1.00  0.00     0.004 C 
ENDBRANCH  10  11
ENDBRANCH   9  10
ENDBRANCH   8   9
ENDBRANCH   7   8
ENDBRANCH   6   7
ENDBRANCH   5   6
ENDBRANCH   4   5
ENDBRANCH   3   4
ENDBRANCH   2   3
ENDBRANCH   1   2
BRANCH   1  13
ATOM     13  C   UNL     1      27.816   2.759  28.883  1.00  0.00     0.000 C 
BRANCH  13  14
ATOM     14  C   UNL     1      26.538   1.971  28.550  1.00  0.00     0.000 C 
BRANCH  14  15
ATOM     15  C   UNL     1      26.664   0.509  28.996  1.00  0.00     0.000 C 
BRANCH  15  16
ATOM     16  C   UNL     1      25.972   0.285  30.349  1.00  0.00     0.000 C 
BRANCH  16  17
ATOM     17  C   UNL     1      26.866   0.665  31.540  1.00  0.00     0.000 C 
BRANCH  17  18
ATOM     18  C   UNL     1      27.969  -0.374  31.807  1.00  0.00     0.000 C 
BRANCH  18  19
ATOM     19  C   UNL     1      29.373   0.161  31.480  1.00  0.00     0.000 C 
BRANCH  19  20
ATOM     20  C   UNL     1      30.025  -0.581  30.299  1.00  0.00     0.006 C 
BRANCH  20  21
ATOM     21  C   UNL     1      29.164  -1.751  29.805  1.00  0.00     0.053 C 
BRANCH  21  22
ATOM     22  C   UNL     1      29.900  -3.054  29.879  1.00  0.00     0.041 C 
ATOM     23  O   UNL     1      29.264  -4.140  29.907  1.00  0.00    -0.550 OA
ATOM     24  O   UNL     1      31.288  -3.066  29.949  1.00  0.00    -0.550 OA
ENDBRANCH  21  22
ENDBRANCH  20  21
ENDBRANCH  19  20
ENDBRANCH  18  19
ENDBRANCH  17  18
ENDBRANCH  16  17
ENDBRANCH  15  16
ENDBRANCH  14  15
ENDBRANCH  13  14
ENDBRANCH   1  13
TORSDOF 20
ENDMDL
MODEL 5
REMARK VINA RESULT:    -5.198      1.618      2.496
REMARK INTER + INTRA:         -12.620
REMARK INTER:                 -10.948
REMARK INTRA:                  -1.672
REMARK UNBOUND:                -1.345
REMARK SMILES CCCCCCCCCCCCCCCCCCCCCC(=O)[O-]
REMARK SMILES IDX 12 1 11 2 10 3 9 4 8 5 7 6 6 7 5 8 4 9 3 10 2 11 1 12 13 13
REMARK SMILES IDX 14 14 15 15 16 16 17 17 18 18 19 19 20 20 21 21 22 22 23 23
REMARK SMILES IDX 24 24
REMARK H PARENT
REMARK Flexibility Score: inf
ROOT
ATOM      1  C   UNL     1      28.021  -0.200  31.739  1.00  0.00     0.000 C 
ENDROOT
BRANCH   1   2
ATOM      2  C   UNL     1      29.503   0.140  31.498  1.00  0.00     0.000 C 
BRANCH   2   3
ATOM      3  C   UNL     1      30.160  -0.790  30.464  1.00  0.00     0.000 C 
BRANCH   3   4
ATOM      4  C   UNL     1      29.152  -1.360  29.451  1.00  0.00    -0.000 C 
BRANCH   4   5
ATOM      5  C   UNL     1      29.544  -2.761  28.955  1.00  0.00    -0.000 C 
BRANCH   5   6
ATOM      6  C   UNL     1      29.624  -3.793  30.094  1.00  0.00    -0.000 C 
BRANCH   6   7
ATOM      7  C   UNL     1      28.238  -4.199  30.620  1.00  0.00    -0.000 C 
BRANCH   7   8
ATOM      8  C   UNL     1      28.220  -5.623  31.203  1.00  0.00    -0.000 C 
BRANCH   8   9
ATOM      9  C   UNL     1      28.722  -6.673  30.190  1.00  0.00    -0.000 C 
BRANCH   9  10
ATOM     10  C   UNL     1      29.324  -7.926  30.849  1.00  0.00    -0.000 C 
BRANCH  10  11
ATOM     11  C   UNL     1      29.419  -9.117  29.887  1.00  0.00    -0.003 C 
ATOM     12  C   UNL     1      29.208  -8.675  28.441  1.00  0.00     0.004 C 
ENDBRANCH  10  11
ENDBRANCH   9  10
ENDBRANCH   8   9
ENDBRANCH   7   8
ENDBRANCH   6   7
ENDBRANCH   5   6
ENDBRANCH   4   5
ENDBRANCH   3   4
ENDBRANCH   2   3
ENDBRANCH   1   2
BRANCH   1  13
ATOM     13  C   UNL     1      27.085   0.978  31.422  1.00  0.00     0.000 C 
BRANCH  13  14
ATOM     14  C   UNL     1      26.232   0.736  30.166  1.00  0.00     0.000 C 
BRANCH  14  15
ATOM     15  C   UNL     1      26.840   1.439  28.947  1.00  0.00     0.000 C 
BRANCH  15  16
ATOM     16  C   UNL     1      27.749   2.599  29.376  1.00  0.00     0.000 C 
BRANCH  16  17
ATOM     17  C   UNL     1      27.221   3.966  28.915  1.00  0.00     0.000 C 
BRANCH  17  18
ATOM     18  C   UNL     1      28.003   5.141  29.529  1.00  0.00     0.000 C 
BRANCH  18  19
ATOM     19  C   UNL     1      27.289   5.753  30.745  1.00  0.00     0.000 C 
BRANCH  19  20
ATOM     20  C   UNL     1      27.062   7.268  30.594  1.00  0.00     0.006 C 
BRANCH  20  21
ATOM     21  C   UNL     1      28.067   7.910  29.628  1.00  0.00     0.053 C 
BRANCH  21  22
ATOM     22  C   UNL     1      28.157   9.392  29.822  1.00  0.00     0.041 C 
ATOM     23  O   UNL     1      28.526  10.134  28.874  1.00  0.00    -0.550 OA
ATOM     24  O   UNL     1      27.864   9.951  31.060  1.00  0.00    -0.550 OA
ENDBRANCH  21  22
ENDBRANCH  20  21
ENDBRANCH  19  20
ENDBRANCH  18  19
ENDBRANCH  17  18
ENDBRANCH  16  17
ENDBRANCH  15  16
ENDBRANCH  14  15
ENDBRANCH  13  14
ENDBRANCH   1  13
TORSDOF 20
ENDMDL
MODEL 6
REMARK VINA RESULT:    -5.175      1.525      2.292
REMARK INTER + INTRA:         -12.572
REMARK INTER:                 -10.674
REMARK INTRA:                  -1.897
REMARK UNBOUND:                -1.345
REMARK SMILES CCCCCCCCCCCCCCCCCCCCCC(=O)[O-]
REMARK SMILES IDX 12 1 11 2 10 3 9 4 8 5 7 6 6 7 5 8 4 9 3 10 2 11 1 12 13 13
REMARK SMILES IDX 14 14 15 15 16 16 17 17 18 18 19 19 20 20 21 21 22 22 23 23
REMARK SMILES IDX 24 24
REMARK H PARENT
REMARK Flexibility Score: inf
ROOT
ATOM      1  C   UNL     1      28.707   1.757  29.249  1.00  0.00     0.000 C 
ENDROOT
BRANCH   1   2
ATOM      2  C   UNL     1      27.240   2.107  28.942  1.00  0.00     0.000 C 
BRANCH   2   3
ATOM      3  C   UNL     1      26.357   0.859  28.779  1.00  0.00     0.000 C 
BRANCH   3   4
ATOM      4  C   UNL     1      27.155  -0.452  28.890  1.00  0.00    -0.000 C 
BRANCH   4   5
ATOM      5  C   UNL     1      26.843  -1.223  30.183  1.00  0.00    -0.000 C 
BRANCH   5   6
ATOM      6  C   UNL     1      28.098  -1.847  30.819  1.00  0.00    -0.000 C 
BRANCH   6   7
ATOM      7  C   UNL     1      29.282  -1.915  29.842  1.00  0.00    -0.000 C 
BRANCH   7   8
ATOM      8  C   UNL     1      29.967  -3.294  29.837  1.00  0.00    -0.000 C 
BRANCH   8   9
ATOM      9  C   UNL     1      28.967  -4.439  29.573  1.00  0.00    -0.000 C 
BRANCH   9  10
ATOM     10  C   UNL     1      29.128  -5.630  30.532  1.00  0.00    -0.000 C 
BRANCH  10  11
ATOM     11  C   UNL     1      28.190  -6.796  30.197  1.00  0.00    -0.003 C 
ATOM     12  C   UNL     1      28.902  -7.850  29.352  1.00  0.00     0.004 C 
ENDBRANCH  10  11
ENDBRANCH   9  10
ENDBRANCH   8   9
ENDBRANCH   7   8
ENDBRANCH   6   7
ENDBRANCH   5   6
ENDBRANCH   4   5
ENDBRANCH   3   4
ENDBRANCH   2   3
ENDBRANCH   1   2
BRANCH   1  13
ATOM     13  C   UNL     1      29.029   1.817  30.751  1.00  0.00     0.000 C 
BRANCH  13  14
ATOM     14  C   UNL     1      28.052   2.712  31.532  1.00  0.00     0.000 C 
BRANCH  14  15
ATOM     15  C   UNL     1      28.706   4.050  31.895  1.00  0.00     0.000 C 
BRANCH  15  16
ATOM     16  C   UNL     1      27.745   5.220  31.640  1.00  0.00     0.000 C 
BRANCH  16  17
ATOM     17  C   UNL     1      27.661   5.604  30.154  1.00  0.00     0.000 C 
BRANCH  17  18
ATOM     18  C   UNL     1      27.647   7.127  29.936  1.00  0.00     0.000 C 
BRANCH  18  19
ATOM     19  C   UNL     1      26.965   7.882  31.089  1.00  0.00     0.000 C 
BRANCH  19  20
ATOM     20  C   UNL     1      27.058   9.410  30.928  1.00  0.00     0.006 C 
BRANCH  20  21
ATOM     21  C   UNL     1      26.991   9.842  29.457  1.00  0.00     0.053 C 
BRANCH  21  22
ATOM     22  C   UNL     1      28.174  10.672  29.066  1.00  0.00     0.041 C 
ATOM     23  O   UNL     1      29.032  10.998  29.928  1.00  0.00    -0.550 OA
ATOM     24  O   UNL     1      28.315  11.111  27.755  1.00  0.00    -0.550 OA
ENDBRANCH  21  22
ENDBRANCH  20  21
ENDBRANCH  19  20
ENDBRANCH  18  19
ENDBRANCH  17  18
ENDBRANCH  16  17
ENDBRANCH  15  16
ENDBRANCH  14  15
ENDBRANCH  13  14
ENDBRANCH   1  13
TORSDOF 20
ENDMDL
MODEL 7
REMARK VINA RESULT:    -5.131      1.683      3.607
REMARK INTER + INTRA:         -12.475
REMARK INTER:                 -11.475
REMARK INTRA:                  -1.000
REMARK UNBOUND:                -1.345
REMARK SMILES CCCCCCCCCCCCCCCCCCCCCC(=O)[O-]
REMARK SMILES IDX 12 1 11 2 10 3 9 4 8 5 7 6 6 7 5 8 4 9 3 10 2 11 1 12 13 13
REMARK SMILES IDX 14 14 15 15 16 16 17 17 18 18 19 19 20 20 21 21 22 22 23 23
REMARK SMILES IDX 24 24
REMARK H PARENT
REMARK Flexibility Score: inf
ROOT
ATOM      1  C   UNL     1      27.993   3.458  31.126  1.00  0.00     0.000 C 
ENDROOT
BRANCH   1   2
ATOM      2  C   UNL     1      27.612   3.240  29.650  1.00  0.00     0.000 C 
BRANCH   2   3
ATOM      3  C   UNL     1      27.443   1.753  29.298  1.00  0.00     0.000 C 
BRANCH   3   4
ATOM      4  C   UNL     1      28.786   1.013  29.174  1.00  0.00    -0.000 C 
BRANCH   4   5
ATOM      5  C   UNL     1      28.609  -0.488  28.897  1.00  0.00    -0.000 C 
BRANCH   5   6
ATOM      6  C   UNL     1      28.887  -1.358  30.135  1.00  0.00    -0.000 C 
BRANCH   6   7
ATOM      7  C   UNL     1      27.599  -1.873  30.795  1.00  0.00    -0.000 C 
BRANCH   7   8
ATOM      8  C   UNL     1      27.452  -3.402  30.695  1.00  0.00    -0.000 C 
BRANCH   8   9
ATOM      9  C   UNL     1      28.771  -4.087  30.278  1.00  0.00    -0.000 C 
BRANCH   9  10
ATOM     10  C   UNL     1      28.574  -5.492  29.684  1.00  0.00    -0.000 C 
BRANCH  10  11
ATOM     11  C   UNL     1      28.412  -6.575  30.759  1.00  0.00    -0.003 C 
ATOM     12  C   UNL     1      29.134  -7.859  30.359  1.00  0.00     0.004 C 
ENDBRANCH  10  11
ENDBRANCH   9  10
ENDBRANCH   8   9
ENDBRANCH   7   8
ENDBRANCH   6   7
ENDBRANCH   5   6
ENDBRANCH   4   5
ENDBRANCH   3   4
ENDBRANCH   2   3
ENDBRANCH   1   2
BRANCH   1  13
ATOM     13  C   UNL     1      28.111   4.946  31.494  1.00  0.00     0.000 C 
BRANCH  13  14
ATOM     14  C   UNL     1      27.334   5.859  30.531  1.00  0.00     0.000 C 
BRANCH  14  15
ATOM     15  C   UNL     1      28.291   6.626  29.611  1.00  0.00     0.000 C 
BRANCH  15  16
ATOM     16  C   UNL     1      28.103   8.143  29.763  1.00  0.00     0.000 C 
BRANCH  16  17
ATOM     17  C   UNL     1      26.794   8.508  30.481  1.00  0.00     0.000 C 
BRANCH  17  18
ATOM     18  C   UNL     1      26.339   9.947  30.186  1.00  0.00     0.000 C 
BRANCH  18  19
ATOM     19  C   UNL     1      26.113  10.769  31.466  1.00  0.00     0.000 C 
BRANCH  19  20
ATOM     20  C   UNL     1      26.416   9.965  32.742  1.00  0.00     0.006 C 
BRANCH  20  21
ATOM     21  C   UNL     1      26.312  10.826  34.008  1.00  0.00     0.053 C 
BRANCH  21  22
ATOM     22  C   UNL     1      25.583  10.117  35.106  1.00  0.00     0.041 C 
ATOM     23  O   UNL     1      24.892  10.769  35.932  1.00  0.00    -0.550 OA
ATOM     24  O   UNL     1      25.693   8.737  35.237  1.00  0.00    -0.550 OA
ENDBRANCH  21  22
ENDBRANCH  20  21
ENDBRANCH  19  20
ENDBRANCH  18  19
ENDBRANCH  17  18
ENDBRANCH  16  17
ENDBRANCH  15  16
ENDBRANCH  14  15
ENDBRANCH  13  14
ENDBRANCH   1  13
TORSDOF 20
ENDMDL
MODEL 8
REMARK VINA RESULT:    -5.114      5.514     12.851
REMARK INTER + INTRA:         -12.439
REMARK INTER:                 -11.157
REMARK INTRA:                  -1.283
REMARK UNBOUND:                -1.345
REMARK SMILES CCCCCCCCCCCCCCCCCCCCCC(=O)[O-]
REMARK SMILES IDX 12 1 11 2 10 3 9 4 8 5 7 6 6 7 5 8 4 9 3 10 2 11 1 12 13 13
REMARK SMILES IDX 14 14 15 15 16 16 17 17 18 18 19 19 20 20 21 21 22 22 23 23
REMARK SMILES IDX 24 24
REMARK H PARENT
REMARK Flexibility Score: inf
ROOT
ATOM      1  C   UNL     1      27.947   2.464  31.045  1.00  0.00     0.000 C 
ENDROOT
BRANCH   1   2
ATOM      2  C   UNL     1      27.973   3.973  31.350  1.00  0.00     0.000 C 
BRANCH   2   3
ATOM      3  C   UNL     1      27.919   4.833  30.077  1.00  0.00     0.000 C 
BRANCH   3   4
ATOM      4  C   UNL     1      26.799   5.887  30.118  1.00  0.00    -0.000 C 
BRANCH   4   5
ATOM      5  C   UNL     1      27.211   7.156  30.880  1.00  0.00    -0.000 C 
BRANCH   5   6
ATOM      6  C   UNL     1      28.085   8.099  30.036  1.00  0.00    -0.000 C 
BRANCH   6   7
ATOM      7  C   UNL     1      27.787   9.582  30.309  1.00  0.00    -0.000 C 
BRANCH   7   8
ATOM      8  C   UNL     1      26.313   9.833  30.674  1.00  0.00    -0.000 C 
BRANCH   8   9
ATOM      9  C   UNL     1      26.147  10.298  32.137  1.00  0.00    -0.000 C 
BRANCH   9  10
ATOM     10  C   UNL     1      27.395  10.993  32.707  1.00  0.00    -0.000 C 
BRANCH  10  11
ATOM     11  C   UNL     1      27.358  11.124  34.235  1.00  0.00    -0.003 C 
ATOM     12  C   UNL     1      26.244  10.269  34.833  1.00  0.00     0.004 C 
ENDBRANCH  10  11
ENDBRANCH   9  10
ENDBRANCH   8   9
ENDBRANCH   7   8
ENDBRANCH   6   7
ENDBRANCH   5   6
ENDBRANCH   4   5
ENDBRANCH   3   4
ENDBRANCH   2   3
ENDBRANCH   1   2
BRANCH   1  13
ATOM     13  C   UNL     1      27.649   2.164  29.567  1.00  0.00     0.000 C 
BRANCH  13  14
ATOM     14  C   UNL     1      27.173   0.720  29.339  1.00  0.00     0.000 C 
BRANCH  14  15
ATOM     15  C   UNL     1      26.828   0.041  30.670  1.00  0.00     0.000 C 
BRANCH  15  16
ATOM     16  C   UNL     1      27.734  -1.174  30.919  1.00  0.00     0.000 C 
BRANCH  16  17
ATOM     17  C   UNL     1      28.958  -1.199  29.991  1.00  0.00     0.000 C 
BRANCH  17  18
ATOM     18  C   UNL     1      29.543  -2.612  29.821  1.00  0.00     0.000 C 
BRANCH  18  19
ATOM     19  C   UNL     1      28.580  -3.711  30.299  1.00  0.00     0.000 C 
BRANCH  19  20
ATOM     20  C   UNL     1      28.838  -5.061  29.607  1.00  0.00     0.006 C 
BRANCH  20  21
ATOM     21  C   UNL     1      27.861  -6.147  30.075  1.00  0.00     0.053 C 
BRANCH  21  22
ATOM     22  C   UNL     1      28.553  -7.453  30.317  1.00  0.00     0.041 C 
ATOM     23  O   UNL     1      28.653  -7.911  31.486  1.00  0.00    -0.550 OA
ATOM     24  O   UNL     1      29.116  -8.150  29.255  1.00  0.00    -0.550 OA
ENDBRANCH  21  22
ENDBRANCH  20  21
ENDBRANCH  19  20
ENDBRANCH  18  19
ENDBRANCH  17  18
ENDBRANCH  16  17
ENDBRANCH  15  16
ENDBRANCH  14  15
ENDBRANCH  13  14
ENDBRANCH   1  13
TORSDOF 20
ENDMDL
MODEL 9
REMARK VINA RESULT:    -5.069      1.568      2.235
REMARK INTER + INTRA:         -12.340
REMARK INTER:                 -11.075
REMARK INTRA:                  -1.265
REMARK UNBOUND:                -1.345
REMARK SMILES CCCCCCCCCCCCCCCCCCCCCC(=O)[O-]
REMARK SMILES IDX 12 1 11 2 10 3 9 4 8 5 7 6 6 7 5 8 4 9 3 10 2 11 1 12 13 13
REMARK SMILES IDX 14 14 15 15 16 16 17 17 18 18 19 19 20 20 21 21 22 22 23 23
REMARK SMILES IDX 24 24
REMARK H PARENT
REMARK Flexibility Score: inf
ROOT
ATOM      1  C   UNL     1      29.114   0.422  29.135  1.00  0.00     0.000 C 
ENDROOT
BRANCH   1   2
ATOM      2  C   UNL     1      29.145  -0.922  29.884  1.00  0.00     0.000 C 
BRANCH   2   3
ATOM      3  C   UNL     1      27.953  -1.093  30.840  1.00  0.00     0.000 C 
BRANCH   3   4
ATOM      4  C   UNL     1      26.975  -2.189  30.383  1.00  0.00    -0.000 C 
BRANCH   4   5
ATOM      5  C   UNL     1      27.088  -3.468  31.228  1.00  0.00    -0.000 C 
BRANCH   5   6
ATOM      6  C   UNL     1      27.170  -4.742  30.369  1.00  0.00    -0.000 C 
BRANCH   6   7
ATOM      7  C   UNL     1      28.566  -4.956  29.763  1.00  0.00    -0.000 C 
BRANCH   7   8
ATOM      8  C   UNL     1      29.430  -5.922  30.593  1.00  0.00    -0.000 C 
BRANCH   8   9
ATOM      9  C   UNL     1      28.596  -7.062  31.213  1.00  0.00    -0.000 C 
BRANCH   9  10
ATOM     10  C   UNL     1      28.950  -8.454  30.664  1.00  0.00    -0.000 C 
BRANCH  10  11
ATOM     11  C   UNL     1      28.311  -8.736  29.298  1.00  0.00    -0.003 C 
ATOM     12  C   UNL     1      29.361  -8.738  28.190  1.00  0.00     0.004 C 
ENDBRANCH  10  11
ENDBRANCH   9  10
ENDBRANCH   8   9
ENDBRANCH   7   8
ENDBRANCH   6   7
ENDBRANCH   5   6
ENDBRANCH   4   5
ENDBRANCH   3   4
ENDBRANCH   2   3
ENDBRANCH   1   2
BRANCH   1  13
ATOM     13  C   UNL     1      27.787   1.175  29.323  1.00  0.00     0.000 C 
BRANCH  13  14
ATOM     14  C   UNL     1      27.985   2.611  29.833  1.00  0.00     0.000 C 
BRANCH  14  15
ATOM     15  C   UNL     1      27.193   3.610  28.981  1.00  0.00     0.000 C 
BRANCH  15  16
ATOM     16  C   UNL     1      27.831   5.005  29.032  1.00  0.00     0.000 C 
BRANCH  16  17
ATOM     17  C   UNL     1      27.705   5.663  30.415  1.00  0.00     0.000 C 
BRANCH  17  18
ATOM     18  C   UNL     1      28.038   7.165  30.388  1.00  0.00     0.000 C 
BRANCH  18  19
ATOM     19  C   UNL     1      26.794   8.041  30.162  1.00  0.00     0.000 C 
BRANCH  19  20
ATOM     20  C   UNL     1      26.832   9.340  30.987  1.00  0.00     0.006 C 
BRANCH  20  21
ATOM     21  C   UNL     1      26.718  10.590  30.104  1.00  0.00     0.053 C 
BRANCH  21  22
ATOM     22  C   UNL     1      27.959  10.816  29.298  1.00  0.00     0.041 C 
ATOM     23  O   UNL     1      27.914  10.777  28.040  1.00  0.00    -0.550 OA
ATOM     24  O   UNL     1      29.173  11.041  29.936  1.00  0.00    -0.550 OA
ENDBRANCH  21  22
ENDBRANCH  20  21
ENDBRANCH  19  20
ENDBRANCH  18  19
ENDBRANCH  17  18
ENDBRANCH  16  17
ENDBRANCH  15  16
ENDBRANCH  14  15
ENDBRANCH  13  14
ENDBRANCH   1  13
TORSDOF 20
ENDMDL
