MODEL 1
REMARK VINA RESULT:    -3.996      0.000      0.000
REMARK INTER + INTRA:          -9.520
REMARK INTER:                  -7.500
REMARK INTRA:                  -2.020
REMARK UNBOUND:                -2.020
REMARK SMILES O=C([O-])CCCCCCCCCCCCCCC(=O)[O-]
REMARK SMILES IDX 10 1 9 2 8 3 7 4 6 5 5 6 4 7 2 8 1 9 3 10 11 11 12 12 13 13
REMARK SMILES IDX 14 14 15 15 16 16 17 17 18 18 19 19 20 20
REMARK H PARENT
REMARK Flexibility Score: inf
ROOT
ATOM      1  C   UNL     1      98.776 -68.606   3.738  1.00  0.00     0.000 C 
ENDROOT
BRANCH   1   2
ATOM      2  C   UNL     1      99.510 -69.082   5.005  1.00  0.00     0.000 C 
BRANCH   2   3
ATOM      3  C   UNL     1     101.038 -69.064   4.840  1.00  0.00     0.000 C 
BRANCH   3   4
ATOM      4  C   UNL     1     101.672 -67.780   5.404  1.00  0.00     0.000 C 
BRANCH   4   5
ATOM      5  C   UNL     1     100.837 -67.146   6.532  1.00  0.00     0.000 C 
BRANCH   5   6
ATOM      6  C   UNL     1     101.431 -67.293   7.945  1.00  0.00     0.006 C 
BRANCH   6   7
ATOM      7  C   UNL     1     100.936 -68.548   8.674  1.00  0.00     0.053 C 
BRANCH   7   8
ATOM      8  C   UNL     1     100.409 -68.190  10.029  1.00  0.00     0.041 C 
ATOM      9  O   UNL     1     100.047 -67.010  10.276  1.00  0.00    -0.550 OA
ATOM     10  O   UNL     1     100.365 -69.149  11.033  1.00  0.00    -0.550 OA
ENDBRANCH   7   8
ENDBRANCH   6   7
ENDBRANCH   5   6
ENDBRANCH   4   5
ENDBRANCH   3   4
ENDBRANCH   2   3
ENDBRANCH   1   2
BRANCH   1  11
ATOM     11  C   UNL     1      97.643 -67.608   4.060  1.00  0.00     0.000 C 
BRANCH  11  12
ATOM     12  C   UNL     1      97.839 -66.220   3.419  1.00  0.00     0.000 C 
BRANCH  12  13
ATOM     13  C   UNL     1      99.280 -65.683   3.467  1.00  0.00     0.000 C 
BRANCH  13  14
ATOM     14  C   UNL     1      99.956 -65.523   2.091  1.00  0.00     0.000 C 
BRANCH  14  15
ATOM     15  C   UNL     1     100.942 -66.660   1.747  1.00  0.00     0.000 C 
BRANCH  15  16
ATOM     16  C   UNL     1     100.658 -67.282   0.372  1.00  0.00     0.006 C 
BRANCH  16  17
ATOM     17  C   UNL     1      99.153 -67.451   0.145  1.00  0.00     0.053 C 
BRANCH  17  18
ATOM     18  C   UNL     1      98.852 -68.819  -0.379  1.00  0.00     0.041 C 
ATOM     19  O   UNL     1      98.884 -69.814   0.392  1.00  0.00    -0.550 OA
ATOM     20  O   UNL     1      98.588 -69.003  -1.730  1.00  0.00    -0.550 OA
ENDBRANCH  17  18
ENDBRANCH  16  17
ENDBRANCH  15  16
ENDBRANCH  14  15
ENDBRANCH  13  14
ENDBRANCH  12  13
ENDBRANCH  11  12
ENDBRANCH   1  11
TORSDOF 15
ENDMDL
MODEL 2
REMARK VINA RESULT:    -3.983      0.890      1.421
REMARK INTER + INTRA:          -9.494
REMARK INTER:                  -8.003
REMARK INTRA:                  -1.492
REMARK UNBOUND:                -2.020
REMARK SMILES O=C([O-])CCCCCCCCCCCCCCC(=O)[O-]
REMARK SMILES IDX 10 1 9 2 8 3 7 4 6 5 5 6 4 7 2 8 1 9 3 10 11 11 12 12 13 13
REMARK SMILES IDX 14 14 15 15 16 16 17 17 18 18 19 19 20 20
REMARK H PARENT
REMARK Flexibility Score: inf
ROOT
ATOM      1  C   UNL     1      98.613 -68.640   3.602  1.00  0.00     0.000 C 
ENDROOT
BRANCH   1   2
ATOM      2  C   UNL     1      99.895 -68.355   4.406  1.00  0.00     0.000 C 
BRANCH   2   3
ATOM      3  C   UNL     1     100.109 -69.362   5.547  1.00  0.00     0.000 C 
BRANCH   3   4
ATOM      4  C   UNL     1     101.098 -68.843   6.607  1.00  0.00     0.000 C 
BRANCH   4   5
ATOM      5  C   UNL     1     100.919 -67.344   6.910  1.00  0.00     0.000 C 
BRANCH   5   6
ATOM      6  C   UNL     1     101.079 -66.955   8.391  1.00  0.00     0.006 C 
BRANCH   6   7
ATOM      7  C   UNL     1     101.305 -68.165   9.306  1.00  0.00     0.053 C 
BRANCH   7   8
ATOM      8  C   UNL     1     100.394 -68.099  10.491  1.00  0.00     0.041 C 
ATOM      9  O   UNL     1      99.979 -69.159  11.031  1.00  0.00    -0.550 OA
ATOM     10  O   UNL     1      99.964 -66.868  10.970  1.00  0.00    -0.550 OA
ENDBRANCH   7   8
ENDBRANCH   6   7
ENDBRANCH   5   6
ENDBRANCH   4   5
ENDBRANCH   3   4
ENDBRANCH   2   3
ENDBRANCH   1   2
BRANCH   1  11
ATOM     11  C   UNL     1      97.505 -67.604   3.885  1.00  0.00     0.000 C 
BRANCH  11  12
ATOM     12  C   UNL     1      98.000 -66.145   3.861  1.00  0.00     0.000 C 
BRANCH  12  13
ATOM     13  C   UNL     1      97.615 -65.351   2.600  1.00  0.00     0.000 C 
BRANCH  13  14
ATOM     14  C   UNL     1      98.807 -64.875   1.746  1.00  0.00     0.000 C 
BRANCH  14  15
ATOM     15  C   UNL     1      99.727 -66.021   1.271  1.00  0.00     0.000 C 
BRANCH  15  16
ATOM     16  C   UNL     1      99.078 -66.870   0.168  1.00  0.00     0.006 C 
BRANCH  16  17
ATOM     17  C   UNL     1      99.758 -68.237   0.054  1.00  0.00     0.053 C 
BRANCH  17  18
ATOM     18  C   UNL     1      98.769 -69.281  -0.357  1.00  0.00     0.041 C 
ATOM     19  O   UNL     1      98.134 -69.162  -1.437  1.00  0.00    -0.550 OA
ATOM     20  O   UNL     1      98.510 -70.360   0.479  1.00  0.00    -0.550 OA
ENDBRANCH  17  18
ENDBRANCH  16  17
ENDBRANCH  15  16
ENDBRANCH  14  15
ENDBRANCH  13  14
ENDBRANCH  12  13
ENDBRANCH  11  12
ENDBRANCH   1  11
TORSDOF 15
ENDMDL
MODEL 3
REMARK VINA RESULT:    -3.973      0.859      8.041
REMARK INTER + INTRA:          -9.477
REMARK INTER:                  -8.145
REMARK INTRA:                  -1.332
REMARK UNBOUND:                -2.020
REMARK SMILES O=C([O-])CCCCCCCCCCCCCCC(=O)[O-]
REMARK SMILES IDX 10 1 9 2 8 3 7 4 6 5 5 6 4 7 2 8 1 9 3 10 11 11 12 12 13 13
REMARK SMILES IDX 14 14 15 15 16 16 17 17 18 18 19 19 20 20
REMARK H PARENT
REMARK Flexibility Score: inf
ROOT
ATOM      1  C   UNL     1      97.831 -67.880   4.236  1.00  0.00     0.000 C 
ENDROOT
BRANCH   1   2
ATOM      2  C   UNL     1      97.751 -66.564   3.442  1.00  0.00     0.000 C 
BRANCH   2   3
ATOM      3  C   UNL     1      99.099 -65.826   3.392  1.00  0.00     0.000 C 
BRANCH   3   4
ATOM      4  C   UNL     1      99.728 -65.852   1.987  1.00  0.00     0.000 C 
BRANCH   4   5
ATOM      5  C   UNL     1      98.678 -65.864   0.861  1.00  0.00     0.000 C 
BRANCH   5   6
ATOM      6  C   UNL     1      98.902 -66.930  -0.227  1.00  0.00     0.006 C 
BRANCH   6   7
ATOM      7  C   UNL     1      99.415 -68.262   0.336  1.00  0.00     0.053 C 
BRANCH   7   8
ATOM      8  C   UNL     1      98.647 -69.405  -0.249  1.00  0.00     0.041 C 
ATOM      9  O   UNL     1      98.192 -69.330  -1.420  1.00  0.00    -0.550 OA
ATOM     10  O   UNL     1      98.393 -70.536   0.518  1.00  0.00    -0.550 OA
ENDBRANCH   7   8
ENDBRANCH   6   7
ENDBRANCH   5   6
ENDBRANCH   4   5
ENDBRANCH   3   4
ENDBRANCH   2   3
ENDBRANCH   1   2
BRANCH   1  11
ATOM     11  C   UNL     1      99.181 -68.602   4.039  1.00  0.00     0.000 C 
BRANCH  11  12
ATOM     12  C   UNL     1      99.667 -69.360   5.290  1.00  0.00     0.000 C 
BRANCH  12  13
ATOM     13  C   UNL     1     101.195 -69.486   5.418  1.00  0.00     0.000 C 
BRANCH  13  14
ATOM     14  C   UNL     1     101.799 -68.805   6.662  1.00  0.00     0.000 C 
BRANCH  14  15
ATOM     15  C   UNL     1     101.115 -67.472   7.033  1.00  0.00     0.000 C 
BRANCH  15  16
ATOM     16  C   UNL     1     100.889 -67.334   8.546  1.00  0.00     0.006 C 
BRANCH  16  17
ATOM     17  C   UNL     1     101.051 -68.683   9.251  1.00  0.00     0.053 C 
BRANCH  17  18
ATOM     18  C   UNL     1     100.576 -68.595  10.667  1.00  0.00     0.041 C 
ATOM     19  O   UNL     1      99.837 -67.642  11.029  1.00  0.00    -0.550 OA
ATOM     20  O   UNL     1     100.994 -69.535  11.600  1.00  0.00    -0.550 OA
ENDBRANCH  17  18
ENDBRANCH  16  17
ENDBRANCH  15  16
ENDBRANCH  14  15
ENDBRANCH  13  14
ENDBRANCH  12  13
ENDBRANCH  11  12
ENDBRANCH   1  11
TORSDOF 15
ENDMDL
MODEL 4
REMARK VINA RESULT:    -3.665      1.328      1.860
REMARK INTER + INTRA:          -8.899
REMARK INTER:                  -7.159
REMARK INTRA:                  -1.739
REMARK UNBOUND:                -2.020
REMARK SMILES O=C([O-])CCCCCCCCCCCCCCC(=O)[O-]
REMARK SMILES IDX 10 1 9 2 8 3 7 4 6 5 5 6 4 7 2 8 1 9 3 10 11 11 12 12 13 13
REMARK SMILES IDX 14 14 15 15 16 16 17 17 18 18 19 19 20 20
REMARK H PARENT
REMARK Flexibility Score: inf
ROOT
ATOM      1  C   UNL     1     100.016 -68.595   4.616  1.00  0.00     0.000 C 
ENDROOT
BRANCH   1   2
ATOM      2  C   UNL     1     100.210 -69.734   5.633  1.00  0.00     0.000 C 
BRANCH   2   3
ATOM      3  C   UNL     1     101.044 -69.300   6.849  1.00  0.00     0.000 C 
BRANCH   3   4
ATOM      4  C   UNL     1     101.064 -67.772   7.029  1.00  0.00     0.000 C 
BRANCH   4   5
ATOM      5  C   UNL     1     100.912 -67.339   8.499  1.00  0.00     0.000 C 
BRANCH   5   6
ATOM      6  C   UNL     1     101.002 -68.482   9.527  1.00  0.00     0.006 C 
BRANCH   6   7
ATOM      7  C   UNL     1     100.191 -68.206  10.799  1.00  0.00     0.053 C 
BRANCH   7   8
ATOM      8  C   UNL     1     100.498 -66.841  11.328  1.00  0.00     0.041 C 
ATOM      9  O   UNL     1      99.617 -65.941  11.310  1.00  0.00    -0.550 OA
ATOM     10  O   UNL     1     101.773 -66.548  11.797  1.00  0.00    -0.550 OA
ENDBRANCH   7   8
ENDBRANCH   6   7
ENDBRANCH   5   6
ENDBRANCH   4   5
ENDBRANCH   3   4
ENDBRANCH   2   3
ENDBRANCH   1   2
BRANCH   1  11
ATOM     11  C   UNL     1      98.534 -68.400   4.233  1.00  0.00     0.000 C 
BRANCH  11  12
ATOM     12  C   UNL     1      98.170 -66.942   3.889  1.00  0.00     0.000 C 
BRANCH  12  13
ATOM     13  C   UNL     1      99.162 -65.887   4.409  1.00  0.00     0.000 C 
BRANCH  13  14
ATOM     14  C   UNL     1      99.851 -65.051   3.312  1.00  0.00     0.000 C 
BRANCH  14  15
ATOM     15  C   UNL     1     101.156 -65.681   2.779  1.00  0.00     0.000 C 
BRANCH  15  16
ATOM     16  C   UNL     1     101.051 -66.073   1.297  1.00  0.00     0.006 C 
BRANCH  16  17
ATOM     17  C   UNL     1     100.952 -67.593   1.137  1.00  0.00     0.053 C 
BRANCH  17  18
ATOM     18  C   UNL     1      99.584 -67.983   0.675  1.00  0.00     0.041 C 
ATOM     19  O   UNL     1      98.782 -67.107   0.258  1.00  0.00    -0.550 OA
ATOM     20  O   UNL     1      99.176 -69.309   0.753  1.00  0.00    -0.550 OA
ENDBRANCH  17  18
ENDBRANCH  16  17
ENDBRANCH  15  16
ENDBRANCH  14  15
ENDBRANCH  13  14
ENDBRANCH  12  13
ENDBRANCH  11  12
ENDBRANCH   1  11
TORSDOF 15
ENDMDL
MODEL 5
REMARK VINA RESULT:    -3.628      1.480      2.469
REMARK INTER + INTRA:          -8.828
REMARK INTER:                  -7.620
REMARK INTRA:                  -1.209
REMARK UNBOUND:                -2.020
REMARK SMILES O=C([O-])CCCCCCCCCCCCCCC(=O)[O-]
REMARK SMILES IDX 10 1 9 2 8 3 7 4 6 5 5 6 4 7 2 8 1 9 3 10 11 11 12 12 13 13
REMARK SMILES IDX 14 14 15 15 16 16 17 17 18 18 19 19 20 20
REMARK H PARENT
REMARK Flexibility Score: inf
ROOT
ATOM      1  C   UNL     1      98.645 -67.502   3.728  1.00  0.00     0.000 C 
ENDROOT
BRANCH   1   2
ATOM      2  C   UNL     1      98.983 -68.767   4.537  1.00  0.00     0.000 C 
BRANCH   2   3
ATOM      3  C   UNL     1     100.477 -68.858   4.889  1.00  0.00     0.000 C 
BRANCH   3   4
ATOM      4  C   UNL     1     100.718 -68.904   6.408  1.00  0.00     0.000 C 
BRANCH   4   5
ATOM      5  C   UNL     1     101.125 -67.539   6.992  1.00  0.00     0.000 C 
BRANCH   5   6
ATOM      6  C   UNL     1     100.943 -67.401   8.515  1.00  0.00     0.006 C 
BRANCH   6   7
ATOM      7  C   UNL     1     100.847 -68.754   9.231  1.00  0.00     0.053 C 
BRANCH   7   8
ATOM      8  C   UNL     1     100.548 -68.556  10.684  1.00  0.00     0.041 C 
ATOM      9  O   UNL     1     100.918 -69.412  11.530  1.00  0.00    -0.550 OA
ATOM     10  O   UNL     1      99.818 -67.448  11.098  1.00  0.00    -0.550 OA
ENDBRANCH   7   8
ENDBRANCH   6   7
ENDBRANCH   5   6
ENDBRANCH   4   5
ENDBRANCH   3   4
ENDBRANCH   2   3
ENDBRANCH   1   2
BRANCH   1  11
ATOM     11  C   UNL     1      99.879 -66.601   3.510  1.00  0.00     0.000 C 
BRANCH  11  12
ATOM     12  C   UNL     1     100.222 -66.369   2.025  1.00  0.00     0.000 C 
BRANCH  12  13
ATOM     13  C   UNL     1     101.014 -67.507   1.358  1.00  0.00     0.000 C 
BRANCH  13  14
ATOM     14  C   UNL     1     100.427 -68.007   0.023  1.00  0.00     0.000 C 
BRANCH  14  15
ATOM     15  C   UNL     1      99.132 -68.833   0.185  1.00  0.00     0.000 C 
BRANCH  15  16
ATOM     16  C   UNL     1      98.378 -69.000  -1.143  1.00  0.00     0.006 C 
BRANCH  16  17
ATOM     17  C   UNL     1      99.126 -68.316  -2.290  1.00  0.00     0.053 C 
BRANCH  17  18
ATOM     18  C   UNL     1      98.162 -67.657  -3.225  1.00  0.00     0.041 C 
ATOM     19  O   UNL     1      97.028 -67.295  -2.814  1.00  0.00    -0.550 OA
ATOM     20  O   UNL     1      98.494 -67.491  -4.563  1.00  0.00    -0.550 OA
ENDBRANCH  17  18
ENDBRANCH  16  17
ENDBRANCH  15  16
ENDBRANCH  14  15
ENDBRANCH  13  14
ENDBRANCH  12  13
ENDBRANCH  11  12
ENDBRANCH   1  11
TORSDOF 15
ENDMDL
MODEL 6
REMARK VINA RESULT:    -3.569      1.847      2.557
REMARK INTER + INTRA:          -8.719
REMARK INTER:                  -7.677
REMARK INTRA:                  -1.041
REMARK UNBOUND:                -2.020
REMARK SMILES O=C([O-])CCCCCCCCCCCCCCC(=O)[O-]
REMARK SMILES IDX 10 1 9 2 8 3 7 4 6 5 5 6 4 7 2 8 1 9 3 10 11 11 12 12 13 13
REMARK SMILES IDX 14 14 15 15 16 16 17 17 18 18 19 19 20 20
REMARK H PARENT
REMARK Flexibility Score: inf
ROOT
ATOM      1  C   UNL     1      98.363 -68.231   3.774  1.00  0.00     0.000 C 
ENDROOT
BRANCH   1   2
ATOM      2  C   UNL     1      99.582 -68.127   4.707  1.00  0.00     0.000 C 
BRANCH   2   3
ATOM      3  C   UNL     1      99.828 -69.420   5.500  1.00  0.00     0.000 C 
BRANCH   3   4
ATOM      4  C   UNL     1     101.326 -69.692   5.725  1.00  0.00     0.000 C 
BRANCH   4   5
ATOM      5  C   UNL     1     101.852 -69.095   7.044  1.00  0.00     0.000 C 
BRANCH   5   6
ATOM      6  C   UNL     1     100.779 -68.849   8.121  1.00  0.00     0.006 C 
BRANCH   6   7
ATOM      7  C   UNL     1     101.170 -67.748   9.115  1.00  0.00     0.053 C 
BRANCH   7   8
ATOM      8  C   UNL     1     100.413 -67.909  10.396  1.00  0.00     0.041 C 
ATOM      9  O   UNL     1     100.280 -69.049  10.915  1.00  0.00    -0.550 OA
ATOM     10  O   UNL     1      99.813 -66.807  10.991  1.00  0.00    -0.550 OA
ENDBRANCH   7   8
ENDBRANCH   6   7
ENDBRANCH   5   6
ENDBRANCH   4   5
ENDBRANCH   3   4
ENDBRANCH   2   3
ENDBRANCH   1   2
BRANCH   1  11
ATOM     11  C   UNL     1      98.770 -68.319   2.287  1.00  0.00     0.000 C 
BRANCH  11  12
ATOM     12  C   UNL     1     100.248 -67.966   2.028  1.00  0.00     0.000 C 
BRANCH  12  13
ATOM     13  C   UNL     1     100.472 -66.763   1.095  1.00  0.00     0.000 C 
BRANCH  13  14
ATOM     14  C   UNL     1      99.460 -66.643  -0.060  1.00  0.00     0.000 C 
BRANCH  14  15
ATOM     15  C   UNL     1     100.115 -66.591  -1.458  1.00  0.00     0.000 C 
BRANCH  15  16
ATOM     16  C   UNL     1     100.197 -67.977  -2.115  1.00  0.00     0.006 C 
BRANCH  16  17
ATOM     17  C   UNL     1      98.800 -68.557  -2.351  1.00  0.00     0.053 C 
BRANCH  17  18
ATOM     18  C   UNL     1      98.110 -67.825  -3.459  1.00  0.00     0.041 C 
ATOM     19  O   UNL     1      98.612 -67.805  -4.614  1.00  0.00    -0.550 OA
ATOM     20  O   UNL     1      96.940 -67.121  -3.204  1.00  0.00    -0.550 OA
ENDBRANCH  17  18
ENDBRANCH  16  17
ENDBRANCH  15  16
ENDBRANCH  14  15
ENDBRANCH  13  14
ENDBRANCH  12  13
ENDBRANCH  11  12
ENDBRANCH   1  11
TORSDOF 15
ENDMDL
MODEL 7
REMARK VINA RESULT:    -3.552      1.810      8.903
REMARK INTER + INTRA:          -8.686
REMARK INTER:                  -7.728
REMARK INTRA:                  -0.958
REMARK UNBOUND:                -2.020
REMARK SMILES O=C([O-])CCCCCCCCCCCCCCC(=O)[O-]
REMARK SMILES IDX 10 1 9 2 8 3 7 4 6 5 5 6 4 7 2 8 1 9 3 10 11 11 12 12 13 13
REMARK SMILES IDX 14 14 15 15 16 16 17 17 18 18 19 19 20 20
REMARK H PARENT
REMARK Flexibility Score: inf
ROOT
ATOM      1  C   UNL     1      98.728 -68.228   2.658  1.00  0.00     0.000 C 
ENDROOT
BRANCH   1   2
ATOM      2  C   UNL     1      99.063 -67.361   1.432  1.00  0.00     0.000 C 
BRANCH   2   3
ATOM      3  C   UNL     1     100.553 -66.993   1.362  1.00  0.00     0.000 C 
BRANCH   3   4
ATOM      4  C   UNL     1     101.032 -66.762  -0.083  1.00  0.00     0.000 C 
BRANCH   4   5
ATOM      5  C   UNL     1     100.767 -67.969  -1.001  1.00  0.00     0.000 C 
BRANCH   5   6
ATOM      6  C   UNL     1     100.143 -67.624  -2.366  1.00  0.00     0.006 C 
BRANCH   6   7
ATOM      7  C   UNL     1      98.763 -68.262  -2.572  1.00  0.00     0.053 C 
BRANCH   7   8
ATOM      8  C   UNL     1      97.701 -67.208  -2.602  1.00  0.00     0.041 C 
ATOM      9  O   UNL     1      96.879 -67.163  -3.554  1.00  0.00    -0.550 OA
ATOM     10  O   UNL     1      97.651 -66.244  -1.602  1.00  0.00    -0.550 OA
ENDBRANCH   7   8
ENDBRANCH   6   7
ENDBRANCH   5   6
ENDBRANCH   4   5
ENDBRANCH   3   4
ENDBRANCH   2   3
ENDBRANCH   1   2
BRANCH   1  11
ATOM     11  C   UNL     1      99.881 -68.262   3.683  1.00  0.00     0.000 C 
BRANCH  11  12
ATOM     12  C   UNL     1      99.495 -68.904   5.030  1.00  0.00     0.000 C 
BRANCH  12  13
ATOM     13  C   UNL     1     100.428 -70.033   5.501  1.00  0.00     0.000 C 
BRANCH  13  14
ATOM     14  C   UNL     1     101.739 -69.558   6.158  1.00  0.00     0.000 C 
BRANCH  14  15
ATOM     15  C   UNL     1     101.573 -68.297   7.033  1.00  0.00     0.000 C 
BRANCH  15  16
ATOM     16  C   UNL     1     101.009 -68.622   8.424  1.00  0.00     0.006 C 
BRANCH  16  17
ATOM     17  C   UNL     1     100.712 -67.342   9.210  1.00  0.00     0.053 C 
BRANCH  17  18
ATOM     18  C   UNL     1     100.221 -67.674  10.584  1.00  0.00     0.041 C 
ATOM     19  O   UNL     1     100.141 -68.874  10.956  1.00  0.00    -0.550 OA
ATOM     20  O   UNL     1      99.799 -66.660  11.435  1.00  0.00    -0.550 OA
ENDBRANCH  17  18
ENDBRANCH  16  17
ENDBRANCH  15  16
ENDBRANCH  14  15
ENDBRANCH  13  14
ENDBRANCH  12  13
ENDBRANCH  11  12
ENDBRANCH   1  11
TORSDOF 15
ENDMDL
MODEL 8
REMARK VINA RESULT:    -3.378      1.643      9.049
REMARK INTER + INTRA:          -8.361
REMARK INTER:                  -7.533
REMARK INTRA:                  -0.828
REMARK UNBOUND:                -2.020
REMARK SMILES O=C([O-])CCCCCCCCCCCCCCC(=O)[O-]
REMARK SMILES IDX 10 1 9 2 8 3 7 4 6 5 5 6 4 7 2 8 1 9 3 10 11 11 12 12 13 13
REMARK SMILES IDX 14 14 15 15 16 16 17 17 18 18 19 19 20 20
REMARK H PARENT
REMARK Flexibility Score: inf
ROOT
ATOM      1  C   UNL     1     100.415 -69.023   4.936  1.00  0.00     0.000 C 
ENDROOT
BRANCH   1   2
ATOM      2  C   UNL     1      99.250 -68.131   4.474  1.00  0.00     0.000 C 
BRANCH   2   3
ATOM      3  C   UNL     1      98.884 -68.359   2.998  1.00  0.00     0.000 C 
BRANCH   3   4
ATOM      4  C   UNL     1     100.017 -67.942   2.044  1.00  0.00     0.000 C 
BRANCH   4   5
ATOM      5  C   UNL     1      99.862 -66.501   1.524  1.00  0.00     0.000 C 
BRANCH   5   6
ATOM      6  C   UNL     1      99.514 -66.382   0.028  1.00  0.00     0.006 C 
BRANCH   6   7
ATOM      7  C   UNL     1      99.585 -67.724  -0.711  1.00  0.00     0.053 C 
BRANCH   7   8
ATOM      8  C   UNL     1      98.502 -67.810  -1.740  1.00  0.00     0.041 C 
ATOM      9  O   UNL     1      97.655 -66.885  -1.848  1.00  0.00    -0.550 OA
ATOM     10  O   UNL     1      98.399 -68.936  -2.547  1.00  0.00    -0.550 OA
ENDBRANCH   7   8
ENDBRANCH   6   7
ENDBRANCH   5   6
ENDBRANCH   4   5
ENDBRANCH   3   4
ENDBRANCH   2   3
ENDBRANCH   1   2
BRANCH   1  11
ATOM     11  C   UNL     1     100.246 -69.495   6.396  1.00  0.00     0.000 C 
BRANCH  11  12
ATOM     12  C   UNL     1     101.229 -68.830   7.380  1.00  0.00     0.000 C 
BRANCH  12  13
ATOM     13  C   UNL     1     101.106 -67.299   7.483  1.00  0.00     0.000 C 
BRANCH  13  14
ATOM     14  C   UNL     1     101.415 -66.718   8.876  1.00  0.00     0.000 C 
BRANCH  14  15
ATOM     15  C   UNL     1     100.173 -66.162   9.606  1.00  0.00     0.000 C 
BRANCH  15  16
ATOM     16  C   UNL     1     100.027 -66.731  11.025  1.00  0.00     0.006 C 
BRANCH  16  17
ATOM     17  C   UNL     1     100.187 -68.253  11.026  1.00  0.00     0.053 C 
BRANCH  17  18
ATOM     18  C   UNL     1     101.260 -68.667  11.983  1.00  0.00     0.041 C 
ATOM     19  O   UNL     1     101.927 -67.797  12.602  1.00  0.00    -0.550 OA
ATOM     20  O   UNL     1     101.560 -70.013  12.152  1.00  0.00    -0.550 OA
ENDBRANCH  17  18
ENDBRANCH  16  17
ENDBRANCH  15  16
ENDBRANCH  14  15
ENDBRANCH  13  14
ENDBRANCH  12  13
ENDBRANCH  11  12
ENDBRANCH   1  11
TORSDOF 15
ENDMDL
MODEL 9
REMARK VINA RESULT:    -3.354      2.494      3.582
REMARK INTER + INTRA:          -8.315
REMARK INTER:                  -6.202
REMARK INTRA:                  -2.112
REMARK UNBOUND:                -2.020
REMARK SMILES O=C([O-])CCCCCCCCCCCCCCC(=O)[O-]
REMARK SMILES IDX 10 1 9 2 8 3 7 4 6 5 5 6 4 7 2 8 1 9 3 10 11 11 12 12 13 13
REMARK SMILES IDX 14 14 15 15 16 16 17 17 18 18 19 19 20 20
REMARK H PARENT
REMARK Flexibility Score: inf
ROOT
ATOM      1  C   UNL     1      98.352 -68.334   2.745  1.00  0.00     0.000 C 
ENDROOT
BRANCH   1   2
ATOM      2  C   UNL     1      98.012 -67.517   4.005  1.00  0.00     0.000 C 
BRANCH   2   3
ATOM      3  C   UNL     1      98.637 -66.113   3.980  1.00  0.00     0.000 C 
BRANCH   3   4
ATOM      4  C   UNL     1      99.767 -65.958   5.014  1.00  0.00     0.000 C 
BRANCH   4   5
ATOM      5  C   UNL     1     101.168 -66.125   4.399  1.00  0.00     0.000 C 
BRANCH   5   6
ATOM      6  C   UNL     1     101.997 -67.290   4.973  1.00  0.00     0.006 C 
BRANCH   6   7
ATOM      7  C   UNL     1     101.522 -68.662   4.479  1.00  0.00     0.053 C 
BRANCH   7   8
ATOM      8  C   UNL     1     100.932 -69.447   5.608  1.00  0.00     0.041 C 
ATOM      9  O   UNL     1     100.259 -70.486   5.375  1.00  0.00    -0.550 OA
ATOM     10  O   UNL     1     101.085 -69.005   6.916  1.00  0.00    -0.550 OA
ENDBRANCH   7   8
ENDBRANCH   6   7
ENDBRANCH   5   6
ENDBRANCH   4   5
ENDBRANCH   3   4
ENDBRANCH   2   3
ENDBRANCH   1   2
BRANCH   1  11
ATOM     11  C   UNL     1      98.931 -67.454   1.617  1.00  0.00     0.000 C 
BRANCH  11  12
ATOM     12  C   UNL     1     100.225 -68.017   0.995  1.00  0.00     0.000 C 
BRANCH  12  13
ATOM     13  C   UNL     1     101.358 -66.990   0.819  1.00  0.00     0.000 C 
BRANCH  13  14
ATOM     14  C   UNL     1     101.762 -66.718  -0.643  1.00  0.00     0.000 C 
BRANCH  14  15
ATOM     15  C   UNL     1     101.314 -67.821  -1.627  1.00  0.00     0.000 C 
BRANCH  15  16
ATOM     16  C   UNL     1     100.286 -67.309  -2.647  1.00  0.00     0.006 C 
BRANCH  16  17
ATOM     17  C   UNL     1      98.984 -68.111  -2.565  1.00  0.00     0.053 C 
BRANCH  17  18
ATOM     18  C   UNL     1      97.805 -67.191  -2.520  1.00  0.00     0.041 C 
ATOM     19  O   UNL     1      96.962 -67.196  -3.455  1.00  0.00    -0.550 OA
ATOM     20  O   UNL     1      97.666 -66.290  -1.471  1.00  0.00    -0.550 OA
ENDBRANCH  17  18
ENDBRANCH  16  17
ENDBRANCH  15  16
ENDBRANCH  14  15
ENDBRANCH  13  14
ENDBRANCH  12  13
ENDBRANCH  11  12
ENDBRANCH   1  11
TORSDOF 15
ENDMDL
