MODEL 1
REMARK VINA RESULT:    -5.379      0.000      0.000
REMARK INTER + INTRA:          -9.534
REMARK INTER:                  -8.524
REMARK INTRA:                  -1.011
REMARK UNBOUND:                -1.011
REMARK SMILES C[C@H]1O[C@@H](O[C@@H]2CC[C@]3(C)[C@H](CC[C@]4(C)[C@H]3C=C[C@@]35OC[C@]6(CCC(C)(C)C[C@H]63)[C@@H](O)C[C@]45C)[C@@]2(C)CO)[C@@H](O)[C@H](O[C@H]2O[C@@H](CO)[C@@H](O)[C@H](O)[C@@H]2O)[C@H]1O
REMARK SMILES IDX 1 1 2 2 54 3 41 4 39 5 4 6 3 7 55 8 42 10 43 11 52 12 44 13
REMARK SMILES IDX 50 14 45 15 48 16 53 17 51 19 46 21 47 22 49 24 5 26 6 27
REMARK SMILES IDX 7 28 35 29 8 30 11 31 36 32 9 33 12 34 10 35 16 36 13 37
REMARK SMILES IDX 14 38 17 39 15 40 33 41 18 42 19 43 32 44 34 45 29 46 20 47
REMARK SMILES IDX 30 48 22 49 28 50 21 51 23 52 25 53 24 54 26 55 27 56 37 57
REMARK SMILES IDX 38 58 31 60 40 62
REMARK H PARENT 55 9 53 18 51 20 47 23 49 25 38 59 31 61 40 63
REMARK Flexibility Score: inf
ROOT
ATOM      1  C   UNL     1      26.974  -2.064  19.761  1.00  0.00     0.041 C 
ATOM      2  C   UNL     1      26.054  -2.036  18.537  1.00  0.00     0.150 C 
ATOM      3  C   UNL     1      25.935  -0.615  17.920  1.00  0.00     0.175 C 
ATOM      4  C   UNL     1      24.706  -0.497  16.977  1.00  0.00     0.186 C 
ATOM      5  C   UNL     1      24.234  -1.894  16.539  1.00  0.00     0.202 C 
ATOM      6  C   UNL     1      23.943  -2.786  17.785  1.00  0.00     0.282 C 
ATOM      7  O   UNL     1      24.773  -2.499  18.908  1.00  0.00    -0.344 OA
ENDROOT
BRANCH   3   8
ATOM      8  O   UNL     1      25.870   0.380  18.914  1.00  0.00    -0.388 OA
ATOM      9  H   UNL     1      26.800   0.615  19.171  1.00  0.00     0.211 HD
ENDBRANCH   3   8
BRANCH   4  10
ATOM     10  O   UNL     1      25.076   0.254  15.828  1.00  0.00    -0.341 OA
BRANCH  10  11
ATOM     11  C   UNL     1      25.294  -0.562  14.687  1.00  0.00     0.282 C 
ATOM     12  C   UNL     1      26.804  -0.611  14.344  1.00  0.00     0.202 C 
ATOM     13  O   UNL     1      24.474  -0.144  13.599  1.00  0.00    -0.341 OA
ATOM     14  C   UNL     1      27.285   0.679  13.672  1.00  0.00     0.179 C 
ATOM     15  C   UNL     1      24.888   1.063  12.960  1.00  0.00     0.178 C 
ATOM     16  C   UNL     1      26.365   1.026  12.499  1.00  0.00     0.177 C 
BRANCH  12  17
ATOM     17  O   UNL     1      27.115  -1.742  13.563  1.00  0.00    -0.385 OA
ATOM     18  H   UNL     1      26.337  -1.940  12.978  1.00  0.00     0.211 HD
ENDBRANCH  12  17
BRANCH  14  19
ATOM     19  O   UNL     1      28.603   0.505  13.219  1.00  0.00    -0.387 OA
ATOM     20  H   UNL     1      28.866   1.345  12.760  1.00  0.00     0.211 HD
ENDBRANCH  14  19
BRANCH  15  21
ATOM     21  C   UNL     1      24.518   2.328  13.762  1.00  0.00     0.191 C 
BRANCH  21  22
ATOM     22  O   UNL     1      24.479   3.436  12.908  1.00  0.00    -0.394 OA
ATOM     23  H   UNL     1      24.670   4.228  13.476  1.00  0.00     0.210 HD
ENDBRANCH  21  22
ENDBRANCH  15  21
BRANCH  16  24
ATOM     24  O   UNL     1      26.752   2.260  11.945  1.00  0.00    -0.387 OA
ATOM     25  H   UNL     1      27.576   2.085  11.413  1.00  0.00     0.211 HD
ENDBRANCH  16  24
ENDBRANCH  10  11
ENDBRANCH   4  10
BRANCH   6  26
ATOM     26  O   UNL     1      22.594  -2.582  18.169  1.00  0.00    -0.346 OA
BRANCH  26  27
ATOM     27  C   UNL     1      21.898  -3.795  18.448  1.00  0.00     0.130 C 
ATOM     28  C   UNL     1      22.568  -4.902  17.601  1.00  0.00     0.033 C 
ATOM     29  C   UNL     1      20.328  -3.664  18.181  1.00  0.00     0.020 C 
ATOM     30  C   UNL     1      22.069  -4.871  16.154  1.00  0.00     0.010 C 
ATOM     31  C   UNL     1      19.821  -4.936  17.378  1.00  0.00     0.006 C 
ATOM     32  C   UNL     1      20.006  -2.339  17.427  1.00  0.00     0.017 C 
ATOM     33  C   UNL     1      20.532  -5.196  16.005  1.00  0.00    -0.022 C 
ATOM     34  C   UNL     1      18.289  -5.129  17.295  1.00  0.00     0.005 C 
ATOM     35  C   UNL     1      19.971  -4.290  14.858  1.00  0.00     0.012 C 
ATOM     36  C   UNL     1      20.318  -6.735  15.661  1.00  0.00     0.024 C 
ATOM     37  C   UNL     1      17.822  -6.204  16.290  1.00  0.00     0.008 C 
ATOM     38  C   UNL     1      18.845  -7.345  15.906  1.00  0.00    -0.017 C 
ATOM     39  C   UNL     1      20.933  -7.085  14.318  1.00  0.00    -0.024 C 
ATOM     40  C   UNL     1      18.894  -8.258  17.180  1.00  0.00     0.013 C 
ATOM     41  C   UNL     1      18.326  -8.230  14.624  1.00  0.00     0.009 C 
ATOM     42  C   UNL     1      20.225  -7.346  13.221  1.00  0.00     0.005 C 
ATOM     43  C   UNL     1      18.723  -7.497  13.260  1.00  0.00     0.096 C 
ATOM     44  C   UNL     1      16.762  -8.477  14.656  1.00  0.00     0.043 C 
ATOM     45  C   UNL     1      18.990  -9.655  14.664  1.00  0.00     0.015 C 
ATOM     46  C   UNL     1      18.183  -8.229  11.997  1.00  0.00     0.037 C 
ATOM     47  O   UNL     1      18.104  -6.227  13.226  1.00  0.00    -0.369 OA
ATOM     48  C   UNL     1      16.106  -8.765  13.280  1.00  0.00     0.124 C 
ATOM     49  C   UNL     1      16.712  -7.873  12.146  1.00  0.00     0.026 C 
ATOM     50  C   UNL     1      18.718  -7.724  10.621  1.00  0.00     0.014 C 
ATOM     51  C   UNL     1      16.841  -6.400  12.606  1.00  0.00     0.171 C 
ATOM     52  C   UNL     1      15.884  -8.004  10.826  1.00  0.00     0.013 C 
ATOM     53  C   UNL     1      17.985  -8.399   9.413  1.00  0.00    -0.035 C 
ATOM     54  C   UNL     1      16.571  -8.918   9.808  1.00  0.00     0.007 C 
ATOM     55  C   UNL     1      18.818  -9.597   8.903  1.00  0.00     0.011 C 
ATOM     56  C   UNL     1      17.859  -7.376   8.261  1.00  0.00     0.011 C 
BRANCH  29  57
ATOM     57  C   UNL     1      19.615  -3.619  19.573  1.00  0.00     0.165 C 
BRANCH  57  58
ATOM     58  O   UNL     1      20.284  -2.781  20.477  1.00  0.00    -0.396 OA
ATOM     59  H   UNL     1      20.697  -3.379  21.154  1.00  0.00     0.210 HD
ENDBRANCH  57  58
ENDBRANCH  29  57
BRANCH  48  60
ATOM     60  O   UNL     1      16.237 -10.125  12.954  1.00  0.00    -0.392 OA
ATOM     61  H   UNL     1      15.359 -10.551  13.138  1.00  0.00     0.210 HD
ENDBRANCH  48  60
ENDBRANCH  26  27
ENDBRANCH   6  26
BRANCH   5  62
ATOM     62  O   UNL     1      23.091  -1.786  15.726  1.00  0.00    -0.385 OA
ATOM     63  H   UNL     1      23.151  -0.908  15.267  1.00  0.00     0.211 HD
ENDBRANCH   5  62
TORSDOF 14
ENDMDL
