MODEL 1
REMARK VINA RESULT:    -7.029      0.000      0.000
REMARK INTER + INTRA:          -8.527
REMARK INTER:                  -8.262
REMARK INTRA:                  -0.265
REMARK UNBOUND:                -0.265
REMARK SMILES O=c1cc(-c2ccc(O)c(O)c2)oc2cc(O)cc(O)c12
REMARK SMILES IDX 4 1 3 2 2 3 1 4 21 5 19 6 18 7 16 8 15 9 14 10 13 11 5 12
REMARK SMILES IDX 6 13 7 14 8 15 12 16 10 17 9 18 11 20 20 22 17 24
REMARK H PARENT 9 19 11 21 20 23 17 25
REMARK Flexibility Score: inf
ROOT
ATOM      1  C   UNL     1       9.404  10.312 -19.917  1.00  0.00     0.138 A 
ATOM      2  C   UNL     1      10.190  11.371 -19.441  1.00  0.00     0.100 A 
ATOM      3  C   UNL     1      10.435  12.471 -20.262  1.00  0.00     0.197 A 
ATOM      4  O   UNL     1      11.194  13.377 -19.829  1.00  0.00    -0.289 OA
ATOM      5  C   UNL     1       9.864  12.524 -21.556  1.00  0.00     0.107 A 
ATOM      6  C   UNL     1      10.013  13.614 -22.466  1.00  0.00     0.134 A 
ATOM      7  C   UNL     1       9.500  13.505 -23.764  1.00  0.00     0.093 A 
ATOM      8  C   UNL     1       8.792  12.372 -24.166  1.00  0.00     0.123 A 
ATOM      9  C   UNL     1       8.593  11.323 -23.267  1.00  0.00     0.094 A 
ATOM     10  C   UNL     1       9.123  11.388 -21.976  1.00  0.00     0.146 A 
ATOM     11  O   UNL     1       8.926  10.362 -21.156  1.00  0.00    -0.456 OA
ENDROOT
BRANCH   1  12
ATOM     12  C   UNL     1       9.110   9.117 -19.085  1.00  0.00     0.021 A 
ATOM     13  C   UNL     1       9.893   7.959 -19.236  1.00  0.00     0.016 A 
ATOM     14  C   UNL     1       9.631   6.821 -18.470  1.00  0.00     0.051 A 
ATOM     15  C   UNL     1       8.577   6.815 -17.547  1.00  0.00     0.157 A 
ATOM     16  C   UNL     1       8.044   9.101 -18.164  1.00  0.00     0.062 A 
ATOM     17  C   UNL     1       7.779   7.961 -17.397  1.00  0.00     0.158 A 
BRANCH  15  18
ATOM     18  O   UNL     1       8.321   5.678 -16.783  1.00  0.00    -0.504 OA
ATOM     19  H   UNL     1       8.999   4.929 -16.702  1.00  0.00     0.293 HD
ENDBRANCH  15  18
BRANCH  17  20
ATOM     20  O   UNL     1       6.716   7.983 -16.495  1.00  0.00    -0.504 OA
ATOM     21  H   UNL     1       6.816   7.672 -15.537  1.00  0.00     0.293 HD
ENDBRANCH  17  20
ENDBRANCH   1  12
BRANCH   6  22
ATOM     22  O   UNL     1      10.629  14.826 -22.138  1.00  0.00    -0.507 OA
ATOM     23  H   UNL     1      10.160  15.619 -21.729  1.00  0.00     0.293 HD
ENDBRANCH   6  22
BRANCH   8  24
ATOM     24  O   UNL     1       8.282  12.304 -25.461  1.00  0.00    -0.508 OA
ATOM     25  H   UNL     1       7.370  12.682 -25.692  1.00  0.00     0.293 HD
ENDBRANCH   8  24
TORSDOF 5
ENDMDL
MODEL 2
REMARK VINA RESULT:    -6.999      1.484      7.368
REMARK INTER + INTRA:          -8.492
REMARK INTER:                  -8.229
REMARK INTRA:                  -0.263
REMARK UNBOUND:                -0.265
REMARK SMILES O=c1cc(-c2ccc(O)c(O)c2)oc2cc(O)cc(O)c12
REMARK SMILES IDX 4 1 3 2 2 3 1 4 21 5 19 6 18 7 16 8 15 9 14 10 13 11 5 12
REMARK SMILES IDX 6 13 7 14 8 15 12 16 10 17 9 18 11 20 20 22 17 24
REMARK H PARENT 9 19 11 21 20 23 17 25
REMARK Flexibility Score: inf
ROOT
ATOM      1  C   UNL     1       9.163   9.713 -19.126  1.00  0.00     0.138 A 
ATOM      2  C   UNL     1       9.824   8.481 -19.217  1.00  0.00     0.100 A 
ATOM      3  C   UNL     1       9.381   7.402 -18.453  1.00  0.00     0.197 A 
ATOM      4  O   UNL     1      10.032   6.326 -18.511  1.00  0.00    -0.289 OA
ATOM      5  C   UNL     1       8.249   7.550 -17.615  1.00  0.00     0.107 A 
ATOM      6  C   UNL     1       7.683   6.508 -16.822  1.00  0.00     0.134 A 
ATOM      7  C   UNL     1       6.634   6.802 -15.942  1.00  0.00     0.093 A 
ATOM      8  C   UNL     1       6.091   8.085 -15.872  1.00  0.00     0.123 A 
ATOM      9  C   UNL     1       6.601   9.099 -16.684  1.00  0.00     0.094 A 
ATOM     10  C   UNL     1       7.670   8.845 -17.545  1.00  0.00     0.146 A 
ATOM     11  O   UNL     1       8.138   9.842 -18.290  1.00  0.00    -0.456 OA
ENDROOT
BRANCH   1  12
ATOM     12  C   UNL     1       9.591  10.895 -19.918  1.00  0.00     0.021 A 
ATOM     13  C   UNL     1      10.466  11.833 -19.342  1.00  0.00     0.016 A 
ATOM     14  C   UNL     1      10.878  12.955 -20.065  1.00  0.00     0.051 A 
ATOM     15  C   UNL     1      10.415  13.166 -21.370  1.00  0.00     0.157 A 
ATOM     16  C   UNL     1       9.120  11.119 -21.226  1.00  0.00     0.062 A 
ATOM     17  C   UNL     1       9.530  12.244 -21.950  1.00  0.00     0.158 A 
BRANCH  15  18
ATOM     18  O   UNL     1      10.830  14.287 -22.088  1.00  0.00    -0.504 OA
ATOM     19  H   UNL     1      10.171  14.991 -22.400  1.00  0.00     0.293 HD
ENDBRANCH  15  18
BRANCH  17  20
ATOM     20  O   UNL     1       9.043  12.431 -23.244  1.00  0.00    -0.504 OA
ATOM     21  H   UNL     1       9.603  12.230 -24.064  1.00  0.00     0.293 HD
ENDBRANCH  17  20
ENDBRANCH   1  12
BRANCH   6  22
ATOM     22  O   UNL     1       8.095   5.173 -16.878  1.00  0.00    -0.507 OA
ATOM     23  H   UNL     1       7.686   4.467 -17.471  1.00  0.00     0.293 HD
ENDBRANCH   6  22
BRANCH   8  24
ATOM     24  O   UNL     1       5.038   8.338 -14.996  1.00  0.00    -0.508 OA
ATOM     25  H   UNL     1       4.071   8.263 -15.294  1.00  0.00     0.293 HD
ENDBRANCH   8  24
TORSDOF 5
ENDMDL
MODEL 3
REMARK VINA RESULT:    -6.601      3.275      5.931
REMARK INTER + INTRA:          -8.023
REMARK INTER:                  -7.747
REMARK INTRA:                  -0.276
REMARK UNBOUND:                -0.265
REMARK SMILES O=c1cc(-c2ccc(O)c(O)c2)oc2cc(O)cc(O)c12
REMARK SMILES IDX 4 1 3 2 2 3 1 4 21 5 19 6 18 7 16 8 15 9 14 10 13 11 5 12
REMARK SMILES IDX 6 13 7 14 8 15 12 16 10 17 9 18 11 20 20 22 17 24
REMARK H PARENT 9 19 11 21 20 23 17 25
REMARK Flexibility Score: inf
ROOT
ATOM      1  C   UNL     1       6.585   6.652 -18.122  1.00  0.00     0.138 A 
ATOM      2  C   UNL     1       6.201   7.078 -16.844  1.00  0.00     0.100 A 
ATOM      3  C   UNL     1       6.595   8.336 -16.388  1.00  0.00     0.197 A 
ATOM      4  O   UNL     1       6.286   8.665 -15.213  1.00  0.00    -0.289 OA
ATOM      5  C   UNL     1       7.353   9.184 -17.230  1.00  0.00     0.107 A 
ATOM      6  C   UNL     1       7.777  10.502 -16.887  1.00  0.00     0.134 A 
ATOM      7  C   UNL     1       8.622  11.204 -17.755  1.00  0.00     0.093 A 
ATOM      8  C   UNL     1       9.010  10.660 -18.979  1.00  0.00     0.123 A 
ATOM      9  C   UNL     1       8.557   9.393 -19.349  1.00  0.00     0.094 A 
ATOM     10  C   UNL     1       7.741   8.654 -18.490  1.00  0.00     0.146 A 
ATOM     11  O   UNL     1       7.344   7.445 -18.872  1.00  0.00    -0.456 OA
ENDROOT
BRANCH   1  12
ATOM     12  C   UNL     1       6.192   5.324 -18.659  1.00  0.00     0.021 A 
ATOM     13  C   UNL     1       5.672   5.231 -19.962  1.00  0.00     0.016 A 
ATOM     14  C   UNL     1       5.289   3.994 -20.486  1.00  0.00     0.051 A 
ATOM     15  C   UNL     1       5.408   2.830 -19.715  1.00  0.00     0.157 A 
ATOM     16  C   UNL     1       6.298   4.152 -17.884  1.00  0.00     0.062 A 
ATOM     17  C   UNL     1       5.912   2.913 -18.407  1.00  0.00     0.158 A 
BRANCH  15  18
ATOM     18  O   UNL     1       5.026   1.598 -20.243  1.00  0.00    -0.504 OA
ATOM     19  H   UNL     1       5.641   1.066 -20.847  1.00  0.00     0.293 HD
ENDBRANCH  15  18
BRANCH  17  20
ATOM     20  O   UNL     1       6.033   1.774 -17.610  1.00  0.00    -0.504 OA
ATOM     21  H   UNL     1       6.932   1.360 -17.396  1.00  0.00     0.293 HD
ENDBRANCH  17  20
ENDBRANCH   1  12
BRANCH   6  22
ATOM     22  O   UNL     1       7.379  11.173 -15.726  1.00  0.00    -0.507 OA
ATOM     23  H   UNL     1       7.334  10.760 -14.808  1.00  0.00     0.293 HD
ENDBRANCH   6  22
BRANCH   8  24
ATOM     24  O   UNL     1       9.840  11.393 -19.825  1.00  0.00    -0.508 OA
ATOM     25  H   UNL     1       9.564  12.302 -20.180  1.00  0.00     0.293 HD
ENDBRANCH   8  24
TORSDOF 5
ENDMDL
MODEL 4
REMARK VINA RESULT:    -6.600      2.972      7.411
REMARK INTER + INTRA:          -8.022
REMARK INTER:                  -7.749
REMARK INTRA:                  -0.273
REMARK UNBOUND:                -0.265
REMARK SMILES O=c1cc(-c2ccc(O)c(O)c2)oc2cc(O)cc(O)c12
REMARK SMILES IDX 4 1 3 2 2 3 1 4 21 5 19 6 18 7 16 8 15 9 14 10 13 11 5 12
REMARK SMILES IDX 6 13 7 14 8 15 12 16 10 17 9 18 11 20 20 22 17 24
REMARK H PARENT 9 19 11 21 20 23 17 25
REMARK Flexibility Score: inf
ROOT
ATOM      1  C   UNL     1       8.449  13.719 -21.989  1.00  0.00     0.138 A 
ATOM      2  C   UNL     1       8.644  13.292 -23.309  1.00  0.00     0.100 A 
ATOM      3  C   UNL     1       8.928  11.951 -23.565  1.00  0.00     0.197 A 
ATOM      4  O   UNL     1       9.158  11.609 -24.755  1.00  0.00    -0.289 OA
ATOM      5  C   UNL     1       8.987  11.026 -22.494  1.00  0.00     0.107 A 
ATOM      6  C   UNL     1       9.229   9.628 -22.640  1.00  0.00     0.134 A 
ATOM      7  C   UNL     1       9.381   8.831 -21.500  1.00  0.00     0.093 A 
ATOM      8  C   UNL     1       9.240   9.369 -20.220  1.00  0.00     0.123 A 
ATOM      9  C   UNL     1       8.949  10.726 -20.067  1.00  0.00     0.094 A 
ATOM     10  C   UNL     1       8.826  11.553 -21.185  1.00  0.00     0.146 A 
ATOM     11  O   UNL     1       8.564  12.842 -20.997  1.00  0.00    -0.456 OA
ENDROOT
BRANCH   1  12
ATOM     12  C   UNL     1       8.142  15.134 -21.659  1.00  0.00     0.021 A 
ATOM     13  C   UNL     1       7.044  15.430 -20.832  1.00  0.00     0.016 A 
ATOM     14  C   UNL     1       6.731  16.753 -20.513  1.00  0.00     0.051 A 
ATOM     15  C   UNL     1       7.502  17.806 -21.022  1.00  0.00     0.157 A 
ATOM     16  C   UNL     1       8.906  16.198 -22.178  1.00  0.00     0.062 A 
ATOM     17  C   UNL     1       8.593  17.525 -21.861  1.00  0.00     0.158 A 
BRANCH  15  18
ATOM     18  O   UNL     1       7.188  19.124 -20.700  1.00  0.00    -0.504 OA
ATOM     19  H   UNL     1       6.626  19.353 -19.888  1.00  0.00     0.293 HD
ENDBRANCH  15  18
BRANCH  17  20
ATOM     20  O   UNL     1       9.374  18.550 -22.393  1.00  0.00    -0.504 OA
ATOM     21  H   UNL     1       9.877  18.446 -23.266  1.00  0.00     0.293 HD
ENDBRANCH  17  20
ENDBRANCH   1  12
BRANCH   6  22
ATOM     22  O   UNL     1       9.303   8.973 -23.873  1.00  0.00    -0.507 OA
ATOM     23  H   UNL     1       9.879   8.169 -24.066  1.00  0.00     0.293 HD
ENDBRANCH   6  22
BRANCH   8  24
ATOM     24  O   UNL     1       9.383   8.543 -19.108  1.00  0.00    -0.508 OA
ATOM     25  H   UNL     1       9.291   8.904 -18.164  1.00  0.00     0.293 HD
ENDBRANCH   8  24
TORSDOF 5
ENDMDL
MODEL 5
REMARK VINA RESULT:    -6.550      1.709      7.337
REMARK INTER + INTRA:          -7.964
REMARK INTER:                  -7.698
REMARK INTRA:                  -0.266
REMARK UNBOUND:                -0.265
REMARK SMILES O=c1cc(-c2ccc(O)c(O)c2)oc2cc(O)cc(O)c12
REMARK SMILES IDX 4 1 3 2 2 3 1 4 21 5 19 6 18 7 16 8 15 9 14 10 13 11 5 12
REMARK SMILES IDX 6 13 7 14 8 15 12 16 10 17 9 18 11 20 20 22 17 24
REMARK H PARENT 9 19 11 21 20 23 17 25
REMARK Flexibility Score: inf
ROOT
ATOM      1  C   UNL     1       8.168  10.367 -18.599  1.00  0.00     0.138 A 
ATOM      2  C   UNL     1       7.122  10.890 -17.826  1.00  0.00     0.100 A 
ATOM      3  C   UNL     1       6.399  10.047 -16.983  1.00  0.00     0.197 A 
ATOM      4  O   UNL     1       5.427  10.533 -16.349  1.00  0.00    -0.289 OA
ATOM      5  C   UNL     1       6.746   8.677 -16.890  1.00  0.00     0.107 A 
ATOM      6  C   UNL     1       6.105   7.732 -16.034  1.00  0.00     0.134 A 
ATOM      7  C   UNL     1       6.457   6.380 -16.113  1.00  0.00     0.093 A 
ATOM      8  C   UNL     1       7.467   5.946 -16.972  1.00  0.00     0.123 A 
ATOM      9  C   UNL     1       8.138   6.870 -17.775  1.00  0.00     0.094 A 
ATOM     10  C   UNL     1       7.786   8.221 -17.744  1.00  0.00     0.146 A 
ATOM     11  O   UNL     1       8.438   9.067 -18.535  1.00  0.00    -0.456 OA
ENDROOT
BRANCH   1  12
ATOM     12  C   UNL     1       8.972  11.219 -19.512  1.00  0.00     0.021 A 
ATOM     13  C   UNL     1      10.043  11.969 -18.994  1.00  0.00     0.016 A 
ATOM     14  C   UNL     1      10.809  12.783 -19.831  1.00  0.00     0.051 A 
ATOM     15  C   UNL     1      10.514  12.871 -21.198  1.00  0.00     0.157 A 
ATOM     16  C   UNL     1       8.672  11.321 -20.884  1.00  0.00     0.062 A 
ATOM     17  C   UNL     1       9.438  12.138 -21.724  1.00  0.00     0.158 A 
BRANCH  15  18
ATOM     18  O   UNL     1      11.282  13.683 -22.030  1.00  0.00    -0.504 OA
ATOM     19  H   UNL     1      10.993  14.625 -22.267  1.00  0.00     0.293 HD
ENDBRANCH  15  18
BRANCH  17  20
ATOM     20  O   UNL     1       9.111  12.213 -23.078  1.00  0.00    -0.504 OA
ATOM     21  H   UNL     1       8.528  12.952 -23.451  1.00  0.00     0.293 HD
ENDBRANCH  17  20
ENDBRANCH   1  12
BRANCH   6  22
ATOM     22  O   UNL     1       5.143   8.072 -15.079  1.00  0.00    -0.507 OA
ATOM     23  H   UNL     1       4.410   8.750 -15.214  1.00  0.00     0.293 HD
ENDBRANCH   6  22
BRANCH   8  24
ATOM     24  O   UNL     1       7.801   4.595 -17.014  1.00  0.00    -0.508 OA
ATOM     25  H   UNL     1       7.184   3.909 -17.435  1.00  0.00     0.293 HD
ENDBRANCH   8  24
TORSDOF 5
ENDMDL
MODEL 6
REMARK VINA RESULT:    -6.503      1.033      2.692
REMARK INTER + INTRA:          -7.908
REMARK INTER:                  -7.643
REMARK INTRA:                  -0.265
REMARK UNBOUND:                -0.265
REMARK SMILES O=c1cc(-c2ccc(O)c(O)c2)oc2cc(O)cc(O)c12
REMARK SMILES IDX 4 1 3 2 2 3 1 4 21 5 19 6 18 7 16 8 15 9 14 10 13 11 5 12
REMARK SMILES IDX 6 13 7 14 8 15 12 16 10 17 9 18 11 20 20 22 17 24
REMARK H PARENT 9 19 11 21 20 23 17 25
REMARK Flexibility Score: inf
ROOT
ATOM      1  C   UNL     1       8.684   9.707 -20.810  1.00  0.00     0.138 A 
ATOM      2  C   UNL     1       8.029   9.397 -22.010  1.00  0.00     0.100 A 
ATOM      3  C   UNL     1       8.024  10.324 -23.053  1.00  0.00     0.197 A 
ATOM      4  O   UNL     1       7.376  10.042 -24.094  1.00  0.00    -0.289 OA
ATOM      5  C   UNL     1       8.704  11.556 -22.903  1.00  0.00     0.107 A 
ATOM      6  C   UNL     1       8.800  12.560 -23.912  1.00  0.00     0.134 A 
ATOM      7  C   UNL     1       9.399  13.788 -23.610  1.00  0.00     0.093 A 
ATOM      8  C   UNL     1       9.960  14.027 -22.355  1.00  0.00     0.123 A 
ATOM      9  C   UNL     1       9.921  13.032 -21.377  1.00  0.00     0.094 A 
ATOM     10  C   UNL     1       9.298  11.809 -21.637  1.00  0.00     0.146 A 
ATOM     11  O   UNL     1       9.268  10.893 -20.675  1.00  0.00    -0.456 OA
ENDROOT
BRANCH   1  12
ATOM     12  C   UNL     1       8.723   8.757 -19.669  1.00  0.00     0.021 A 
ATOM     13  C   UNL     1       9.729   7.776 -19.620  1.00  0.00     0.016 A 
ATOM     14  C   UNL     1       9.782   6.868 -18.560  1.00  0.00     0.051 A 
ATOM     15  C   UNL     1       8.826   6.915 -17.537  1.00  0.00     0.157 A 
ATOM     16  C   UNL     1       7.757   8.792 -18.644  1.00  0.00     0.062 A 
ATOM     17  C   UNL     1       7.808   7.881 -17.583  1.00  0.00     0.158 A 
BRANCH  15  18
ATOM     18  O   UNL     1       8.885   6.007 -16.482  1.00  0.00    -0.504 OA
ATOM     19  H   UNL     1       8.165   5.975 -15.769  1.00  0.00     0.293 HD
ENDBRANCH  15  18
BRANCH  17  20
ATOM     20  O   UNL     1       6.835   7.947 -16.586  1.00  0.00    -0.504 OA
ATOM     21  H   UNL     1       6.205   8.735 -16.501  1.00  0.00     0.293 HD
ENDBRANCH  17  20
ENDBRANCH   1  12
BRANCH   6  22
ATOM     22  O   UNL     1       8.348  12.393 -25.225  1.00  0.00    -0.507 OA
ATOM     23  H   UNL     1       8.335  13.116 -25.927  1.00  0.00     0.293 HD
ENDBRANCH   6  22
BRANCH   8  24
ATOM     24  O   UNL     1      10.563  15.256 -22.094  1.00  0.00    -0.508 OA
ATOM     25  H   UNL     1      11.499  15.316 -21.709  1.00  0.00     0.293 HD
ENDBRANCH   8  24
TORSDOF 5
ENDMDL
MODEL 7
REMARK VINA RESULT:    -6.452      1.443      7.182
REMARK INTER + INTRA:          -7.848
REMARK INTER:                  -7.585
REMARK INTRA:                  -0.263
REMARK UNBOUND:                -0.265
REMARK SMILES O=c1cc(-c2ccc(O)c(O)c2)oc2cc(O)cc(O)c12
REMARK SMILES IDX 4 1 3 2 2 3 1 4 21 5 19 6 18 7 16 8 15 9 14 10 13 11 5 12
REMARK SMILES IDX 6 13 7 14 8 15 12 16 10 17 9 18 11 20 20 22 17 24
REMARK H PARENT 9 19 11 21 20 23 17 25
REMARK Flexibility Score: inf
ROOT
ATOM      1  C   UNL     1       8.553   9.766 -20.620  1.00  0.00     0.138 A 
ATOM      2  C   UNL     1       9.550   8.808 -20.390  1.00  0.00     0.100 A 
ATOM      3  C   UNL     1       9.457   7.969 -19.279  1.00  0.00     0.197 A 
ATOM      4  O   UNL     1      10.397   7.161 -19.065  1.00  0.00    -0.289 OA
ATOM      5  C   UNL     1       8.344   8.072 -18.410  1.00  0.00     0.107 A 
ATOM      6  C   UNL     1       8.124   7.244 -17.269  1.00  0.00     0.134 A 
ATOM      7  C   UNL     1       7.047   7.515 -16.417  1.00  0.00     0.093 A 
ATOM      8  C   UNL     1       6.148   8.544 -16.696  1.00  0.00     0.123 A 
ATOM      9  C   UNL     1       6.323   9.326 -17.839  1.00  0.00     0.094 A 
ATOM     10  C   UNL     1       7.407   9.103 -18.690  1.00  0.00     0.146 A 
ATOM     11  O   UNL     1       7.547   9.879 -19.759  1.00  0.00    -0.456 OA
ENDROOT
BRANCH   1  12
ATOM     12  C   UNL     1       8.601  10.682 -21.788  1.00  0.00     0.021 A 
ATOM     13  C   UNL     1       7.835  10.388 -22.929  1.00  0.00     0.016 A 
ATOM     14  C   UNL     1       7.868  11.231 -24.043  1.00  0.00     0.051 A 
ATOM     15  C   UNL     1       8.674  12.377 -24.040  1.00  0.00     0.157 A 
ATOM     16  C   UNL     1       9.419  11.829 -21.796  1.00  0.00     0.062 A 
ATOM     17  C   UNL     1       9.455  12.673 -22.912  1.00  0.00     0.158 A 
BRANCH  15  18
ATOM     18  O   UNL     1       8.703  13.216 -25.152  1.00  0.00    -0.504 OA
ATOM     19  H   UNL     1       9.490  13.225 -25.791  1.00  0.00     0.293 HD
ENDBRANCH  15  18
BRANCH  17  20
ATOM     20  O   UNL     1      10.277  13.800 -22.882  1.00  0.00    -0.504 OA
ATOM     21  H   UNL     1      10.922  14.016 -23.632  1.00  0.00     0.293 HD
ENDBRANCH  17  20
ENDBRANCH   1  12
BRANCH   6  22
ATOM     22  O   UNL     1       8.912   6.136 -16.945  1.00  0.00    -0.507 OA
ATOM     23  H   UNL     1       9.775   6.174 -16.424  1.00  0.00     0.293 HD
ENDBRANCH   6  22
BRANCH   8  24
ATOM     24  O   UNL     1       5.079   8.776 -15.834  1.00  0.00    -0.508 OA
ATOM     25  H   UNL     1       5.225   8.990 -14.853  1.00  0.00     0.293 HD
ENDBRANCH   8  24
TORSDOF 5
ENDMDL
MODEL 8
REMARK VINA RESULT:    -6.449      2.570      7.516
REMARK INTER + INTRA:          -7.845
REMARK INTER:                  -7.582
REMARK INTRA:                  -0.263
REMARK UNBOUND:                -0.265
REMARK SMILES O=c1cc(-c2ccc(O)c(O)c2)oc2cc(O)cc(O)c12
REMARK SMILES IDX 4 1 3 2 2 3 1 4 21 5 19 6 18 7 16 8 15 9 14 10 13 11 5 12
REMARK SMILES IDX 6 13 7 14 8 15 12 16 10 17 9 18 11 20 20 22 17 24
REMARK H PARENT 9 19 11 21 20 23 17 25
REMARK Flexibility Score: inf
ROOT
ATOM      1  C   UNL     1       6.765   9.627 -20.006  1.00  0.00     0.138 A 
ATOM      2  C   UNL     1       5.958  10.281 -19.065  1.00  0.00     0.100 A 
ATOM      3  C   UNL     1       5.652   9.649 -17.860  1.00  0.00     0.197 A 
ATOM      4  O   UNL     1       4.875  10.235 -17.062  1.00  0.00    -0.289 OA
ATOM      5  C   UNL     1       6.184   8.366 -17.584  1.00  0.00     0.107 A 
ATOM      6  C   UNL     1       5.972   7.642 -16.372  1.00  0.00     0.134 A 
ATOM      7  C   UNL     1       6.451   6.332 -16.258  1.00  0.00     0.093 A 
ATOM      8  C   UNL     1       7.186   5.741 -17.286  1.00  0.00     0.123 A 
ATOM      9  C   UNL     1       7.446   6.460 -18.454  1.00  0.00     0.094 A 
ATOM     10  C   UNL     1       6.951   7.756 -18.612  1.00  0.00     0.146 A 
ATOM     11  O   UNL     1       7.206   8.401 -19.745  1.00  0.00    -0.456 OA
ENDROOT
BRANCH   1  12
ATOM     12  C   UNL     1       7.124  10.255 -21.303  1.00  0.00     0.021 A 
ATOM     13  C   UNL     1       8.370  10.892 -21.443  1.00  0.00     0.016 A 
ATOM     14  C   UNL     1       8.727  11.495 -22.651  1.00  0.00     0.051 A 
ATOM     15  C   UNL     1       7.843  11.482 -23.737  1.00  0.00     0.157 A 
ATOM     16  C   UNL     1       6.235  10.256 -22.396  1.00  0.00     0.062 A 
ATOM     17  C   UNL     1       6.590  10.863 -23.606  1.00  0.00     0.158 A 
BRANCH  15  18
ATOM     18  O   UNL     1       8.205  12.084 -24.941  1.00  0.00    -0.504 OA
ATOM     19  H   UNL     1       9.134  12.459 -25.089  1.00  0.00     0.293 HD
ENDBRANCH  15  18
BRANCH  17  20
ATOM     20  O   UNL     1       5.683  10.842 -24.665  1.00  0.00    -0.504 OA
ATOM     21  H   UNL     1       5.092  10.042 -24.852  1.00  0.00     0.293 HD
ENDBRANCH  17  20
ENDBRANCH   1  12
BRANCH   6  22
ATOM     22  O   UNL     1       5.324   8.169 -15.251  1.00  0.00    -0.507 OA
ATOM     23  H   UNL     1       5.587   7.989 -14.295  1.00  0.00     0.293 HD
ENDBRANCH   6  22
BRANCH   8  24
ATOM     24  O   UNL     1       7.661   4.440 -17.132  1.00  0.00    -0.508 OA
ATOM     25  H   UNL     1       7.975   4.094 -16.232  1.00  0.00     0.293 HD
ENDBRANCH   8  24
TORSDOF 5
ENDMDL
MODEL 9
REMARK VINA RESULT:    -6.422      1.520      2.331
REMARK INTER + INTRA:          -7.813
REMARK INTER:                  -7.550
REMARK INTRA:                  -0.263
REMARK UNBOUND:                -0.265
REMARK SMILES O=c1cc(-c2ccc(O)c(O)c2)oc2cc(O)cc(O)c12
REMARK SMILES IDX 4 1 3 2 2 3 1 4 21 5 19 6 18 7 16 8 15 9 14 10 13 11 5 12
REMARK SMILES IDX 6 13 7 14 8 15 12 16 10 17 9 18 11 20 20 22 17 24
REMARK H PARENT 9 19 11 21 20 23 17 25
REMARK Flexibility Score: inf
ROOT
ATOM      1  C   UNL     1       8.043  10.031 -18.775  1.00  0.00     0.138 A 
ATOM      2  C   UNL     1       9.202  10.746 -18.441  1.00  0.00     0.100 A 
ATOM      3  C   UNL     1       9.816  11.551 -19.400  1.00  0.00     0.197 A 
ATOM      4  O   UNL     1      10.888  12.131 -19.090  1.00  0.00    -0.289 OA
ATOM      5  C   UNL     1       9.248  11.665 -20.692  1.00  0.00     0.107 A 
ATOM      6  C   UNL     1       9.765  12.487 -21.738  1.00  0.00     0.134 A 
ATOM      7  C   UNL     1       9.186  12.430 -23.011  1.00  0.00     0.093 A 
ATOM      8  C   UNL     1       8.073  11.627 -23.262  1.00  0.00     0.123 A 
ATOM      9  C   UNL     1       7.526  10.859 -22.232  1.00  0.00     0.094 A 
ATOM     10  C   UNL     1       8.102  10.869 -20.960  1.00  0.00     0.146 A 
ATOM     11  O   UNL     1       7.561  10.112 -20.011  1.00  0.00    -0.456 OA
ENDROOT
BRANCH   1  12
ATOM     12  C   UNL     1       7.348   9.161 -17.793  1.00  0.00     0.021 A 
ATOM     13  C   UNL     1       6.269   9.677 -17.053  1.00  0.00     0.016 A 
ATOM     14  C   UNL     1       5.604   8.880 -16.119  1.00  0.00     0.051 A 
ATOM     15  C   UNL     1       6.009   7.558 -15.899  1.00  0.00     0.157 A 
ATOM     16  C   UNL     1       7.758   7.834 -17.559  1.00  0.00     0.062 A 
ATOM     17  C   UNL     1       7.094   7.035 -16.621  1.00  0.00     0.158 A 
BRANCH  15  18
ATOM     18  O   UNL     1       5.341   6.766 -14.967  1.00  0.00    -0.504 OA
ATOM     19  H   UNL     1       4.643   6.087 -15.249  1.00  0.00     0.293 HD
ENDBRANCH  15  18
BRANCH  17  20
ATOM     20  O   UNL     1       7.529   5.725 -16.418  1.00  0.00    -0.504 OA
ATOM     21  H   UNL     1       7.761   5.110 -17.188  1.00  0.00     0.293 HD
ENDBRANCH  17  20
ENDBRANCH   1  12
BRANCH   6  22
ATOM     22  O   UNL     1      10.820  13.389 -21.572  1.00  0.00    -0.507 OA
ATOM     23  H   UNL     1      11.045  13.862 -20.711  1.00  0.00     0.293 HD
ENDBRANCH   6  22
BRANCH   8  24
ATOM     24  O   UNL     1       7.514  11.606 -24.537  1.00  0.00    -0.508 OA
ATOM     25  H   UNL     1       7.921  12.131 -25.303  1.00  0.00     0.293 HD
ENDBRANCH   8  24
TORSDOF 5
ENDMDL
