MODEL 1
REMARK VINA RESULT:    -4.824      0.000      0.000
REMARK INTER + INTRA:          -5.487
REMARK INTER:                  -5.248
REMARK INTRA:                  -0.239
REMARK UNBOUND:                -0.239
REMARK SMILES O=C([O-])c1ccccc1O
REMARK SMILES IDX 4 1 9 2 5 3 8 4 6 5 7 6 2 7 1 8 3 9 10 10
REMARK H PARENT 10 11
REMARK Flexibility Score: inf
ROOT
ATOM      1  C   UNL     1      20.881  -0.068 -20.255  1.00  0.00     0.039 A 
ATOM      2  C   UNL     1      21.508   0.261 -19.026  1.00  0.00     0.124 A 
ATOM      3  C   UNL     1      19.615  -0.682 -20.232  1.00  0.00     0.014 A 
ATOM      4  C   UNL     1      20.888  -0.085 -17.819  1.00  0.00     0.047 A 
ATOM      5  C   UNL     1      19.001  -1.002 -19.018  1.00  0.00     0.001 A 
ATOM      6  C   UNL     1      19.641  -0.713 -17.813  1.00  0.00     0.004 A 
ENDROOT
BRANCH   1   7
ATOM      7  C   UNL     1      21.526   0.175 -21.565  1.00  0.00     0.075 C 
ATOM      8  O   UNL     1      21.723  -0.783 -22.360  1.00  0.00    -0.545 OA
ATOM      9  O   UNL     1      21.983   1.441 -21.908  1.00  0.00    -0.545 OA
ENDBRANCH   1   7
BRANCH   2  10
ATOM     10  O   UNL     1      22.716   0.958 -18.961  1.00  0.00    -0.507 OA
ATOM     11  H   UNL     1      23.109   1.313 -18.100  1.00  0.00     0.293 HD
ENDBRANCH   2  10
TORSDOF 2
ENDMDL
MODEL 2
REMARK VINA RESULT:    -4.667      1.553      2.598
REMARK INTER + INTRA:          -5.316
REMARK INTER:                  -5.075
REMARK INTRA:                  -0.241
REMARK UNBOUND:                -0.239
REMARK SMILES O=C([O-])c1ccccc1O
REMARK SMILES IDX 4 1 9 2 5 3 8 4 6 5 7 6 2 7 1 8 3 9 10 10
REMARK H PARENT 10 11
REMARK Flexibility Score: inf
ROOT
ATOM      1  C   UNL     1      21.644   0.195 -21.021  1.00  0.00     0.039 A 
ATOM      2  C   UNL     1      20.871  -0.985 -21.174  1.00  0.00     0.124 A 
ATOM      3  C   UNL     1      21.871   0.699 -19.727  1.00  0.00     0.014 A 
ATOM      4  C   UNL     1      20.298  -1.587 -20.046  1.00  0.00     0.047 A 
ATOM      5  C   UNL     1      21.309   0.073 -18.611  1.00  0.00     0.001 A 
ATOM      6  C   UNL     1      20.515  -1.062 -18.771  1.00  0.00     0.004 A 
ENDROOT
BRANCH   1   7
ATOM      7  C   UNL     1      22.192   0.939 -22.177  1.00  0.00     0.075 C 
ATOM      8  O   UNL     1      21.896   2.152 -22.346  1.00  0.00    -0.545 OA
ATOM      9  O   UNL     1      22.982   0.300 -23.125  1.00  0.00    -0.545 OA
ENDBRANCH   1   7
BRANCH   2  10
ATOM     10  O   UNL     1      20.681  -1.604 -22.410  1.00  0.00    -0.507 OA
ATOM     11  H   UNL     1      20.600  -1.097 -23.281  1.00  0.00     0.293 HD
ENDBRANCH   2  10
TORSDOF 2
ENDMDL
MODEL 3
REMARK VINA RESULT:    -4.474      2.263      3.905
REMARK INTER + INTRA:          -5.105
REMARK INTER:                  -4.863
REMARK INTRA:                  -0.243
REMARK UNBOUND:                -0.239
REMARK SMILES O=C([O-])c1ccccc1O
REMARK SMILES IDX 4 1 9 2 5 3 8 4 6 5 7 6 2 7 1 8 3 9 10 10
REMARK H PARENT 10 11
REMARK Flexibility Score: inf
ROOT
ATOM      1  C   UNL     1      21.387  -0.131 -19.428  1.00  0.00     0.039 A 
ATOM      2  C   UNL     1      20.958  -1.265 -20.165  1.00  0.00     0.124 A 
ATOM      3  C   UNL     1      21.894   0.982 -20.124  1.00  0.00     0.014 A 
ATOM      4  C   UNL     1      21.105  -1.281 -21.558  1.00  0.00     0.047 A 
ATOM      5  C   UNL     1      22.015   0.957 -21.515  1.00  0.00     0.001 A 
ATOM      6  C   UNL     1      21.631  -0.176 -22.231  1.00  0.00     0.004 A 
ENDROOT
BRANCH   1   7
ATOM      7  C   UNL     1      21.356  -0.087 -17.949  1.00  0.00     0.075 C 
ATOM      8  O   UNL     1      20.284  -0.329 -17.332  1.00  0.00    -0.545 OA
ATOM      9  O   UNL     1      22.482   0.284 -17.225  1.00  0.00    -0.545 OA
ENDBRANCH   1   7
BRANCH   2  10
ATOM     10  O   UNL     1      20.353  -2.368 -19.561  1.00  0.00    -0.507 OA
ATOM     11  H   UNL     1      20.587  -2.694 -18.633  1.00  0.00     0.293 HD
ENDBRANCH   2  10
TORSDOF 2
ENDMDL
MODEL 4
REMARK VINA RESULT:    -4.468      1.929      3.691
REMARK INTER + INTRA:          -5.099
REMARK INTER:                  -4.850
REMARK INTRA:                  -0.249
REMARK UNBOUND:                -0.239
REMARK SMILES O=C([O-])c1ccccc1O
REMARK SMILES IDX 4 1 9 2 5 3 8 4 6 5 7 6 2 7 1 8 3 9 10 10
REMARK H PARENT 10 11
REMARK Flexibility Score: inf
ROOT
ATOM      1  C   UNL     1      20.984  -0.333 -20.672  1.00  0.00     0.039 A 
ATOM      2  C   UNL     1      21.705   0.876 -20.847  1.00  0.00     0.124 A 
ATOM      3  C   UNL     1      20.947  -1.264 -21.726  1.00  0.00     0.014 A 
ATOM      4  C   UNL     1      22.312   1.147 -22.080  1.00  0.00     0.047 A 
ATOM      5  C   UNL     1      21.576  -0.987 -22.942  1.00  0.00     0.001 A 
ATOM      6  C   UNL     1      22.249   0.221 -23.123  1.00  0.00     0.004 A 
ENDROOT
BRANCH   1   7
ATOM      7  C   UNL     1      20.233  -0.636 -19.433  1.00  0.00     0.075 C 
ATOM      8  O   UNL     1      20.773  -0.464 -18.308  1.00  0.00    -0.545 OA
ATOM      9  O   UNL     1      18.954  -1.176 -19.491  1.00  0.00    -0.545 OA
ENDBRANCH   1   7
BRANCH   2  10
ATOM     10  O   UNL     1      21.873   1.807 -19.820  1.00  0.00    -0.507 OA
ATOM     11  H   UNL     1      22.771   2.035 -19.416  1.00  0.00     0.293 HD
ENDBRANCH   2  10
TORSDOF 2
ENDMDL
MODEL 5
REMARK VINA RESULT:    -4.391     17.476     18.689
REMARK INTER + INTRA:          -5.015
REMARK INTER:                  -4.783
REMARK INTRA:                  -0.232
REMARK UNBOUND:                -0.239
REMARK SMILES O=C([O-])c1ccccc1O
REMARK SMILES IDX 4 1 9 2 5 3 8 4 6 5 7 6 2 7 1 8 3 9 10 10
REMARK H PARENT 10 11
REMARK Flexibility Score: inf
ROOT
ATOM      1  C   UNL     1       8.649  -6.393  -7.321  1.00  0.00     0.039 A 
ATOM      2  C   UNL     1      10.035  -6.110  -7.215  1.00  0.00     0.124 A 
ATOM      3  C   UNL     1       8.245  -7.631  -7.855  1.00  0.00     0.014 A 
ATOM      4  C   UNL     1      10.969  -7.035  -7.698  1.00  0.00     0.047 A 
ATOM      5  C   UNL     1       9.190  -8.551  -8.313  1.00  0.00     0.001 A 
ATOM      6  C   UNL     1      10.550  -8.250  -8.244  1.00  0.00     0.004 A 
ENDROOT
BRANCH   1   7
ATOM      7  C   UNL     1       7.608  -5.418  -6.927  1.00  0.00     0.075 C 
ATOM      8  O   UNL     1       7.565  -4.982  -5.745  1.00  0.00    -0.545 OA
ATOM      9  O   UNL     1       6.627  -5.022  -7.827  1.00  0.00    -0.545 OA
ENDBRANCH   1   7
BRANCH   2  10
ATOM     10  O   UNL     1      10.521  -4.950  -6.609  1.00  0.00    -0.507 OA
ATOM     11  H   UNL     1      10.132  -4.559  -5.762  1.00  0.00     0.293 HD
ENDBRANCH   2  10
TORSDOF 2
ENDMDL
MODEL 6
REMARK VINA RESULT:    -4.358     18.152     19.304
REMARK INTER + INTRA:          -4.980
REMARK INTER:                  -4.732
REMARK INTRA:                  -0.247
REMARK UNBOUND:                -0.239
REMARK SMILES O=C([O-])c1ccccc1O
REMARK SMILES IDX 4 1 9 2 5 3 8 4 6 5 7 6 2 7 1 8 3 9 10 10
REMARK H PARENT 10 11
REMARK Flexibility Score: inf
ROOT
ATOM      1  C   UNL     1       5.785   4.640  -9.215  1.00  0.00     0.039 A 
ATOM      2  C   UNL     1       6.184   3.608  -8.328  1.00  0.00     0.124 A 
ATOM      3  C   UNL     1       4.636   5.394  -8.910  1.00  0.00     0.014 A 
ATOM      4  C   UNL     1       5.398   3.317  -7.205  1.00  0.00     0.047 A 
ATOM      5  C   UNL     1       3.875   5.105  -7.775  1.00  0.00     0.001 A 
ATOM      6  C   UNL     1       4.249   4.062  -6.929  1.00  0.00     0.004 A 
ENDROOT
BRANCH   1   7
ATOM      7  C   UNL     1       6.510   4.931 -10.471  1.00  0.00     0.075 C 
ATOM      8  O   UNL     1       7.770   4.936 -10.488  1.00  0.00    -0.545 OA
ATOM      9  O   UNL     1       5.820   5.268 -11.629  1.00  0.00    -0.545 OA
ENDBRANCH   1   7
BRANCH   2  10
ATOM     10  O   UNL     1       7.362   2.880  -8.504  1.00  0.00    -0.507 OA
ATOM     11  H   UNL     1       8.243   3.134  -8.077  1.00  0.00     0.293 HD
ENDBRANCH   2  10
TORSDOF 2
ENDMDL
MODEL 7
REMARK VINA RESULT:    -4.309      2.273      3.759
REMARK INTER + INTRA:          -4.927
REMARK INTER:                  -4.676
REMARK INTRA:                  -0.250
REMARK UNBOUND:                -0.239
REMARK SMILES O=C([O-])c1ccccc1O
REMARK SMILES IDX 4 1 9 2 5 3 8 4 6 5 7 6 2 7 1 8 3 9 10 10
REMARK H PARENT 10 11
REMARK Flexibility Score: inf
ROOT
ATOM      1  C   UNL     1      20.151  -0.380 -18.574  1.00  0.00     0.039 A 
ATOM      2  C   UNL     1      21.411   0.266 -18.659  1.00  0.00     0.124 A 
ATOM      3  C   UNL     1      19.472  -0.708 -19.762  1.00  0.00     0.014 A 
ATOM      4  C   UNL     1      21.924   0.621 -19.913  1.00  0.00     0.047 A 
ATOM      5  C   UNL     1      20.008  -0.366 -21.005  1.00  0.00     0.001 A 
ATOM      6  C   UNL     1      21.227   0.306 -21.081  1.00  0.00     0.004 A 
ENDROOT
BRANCH   1   7
ATOM      7  C   UNL     1      19.504  -0.689 -17.279  1.00  0.00     0.075 C 
ATOM      8  O   UNL     1      19.530   0.153 -16.342  1.00  0.00    -0.545 OA
ATOM      9  O   UNL     1      18.920  -1.930 -17.054  1.00  0.00    -0.545 OA
ENDBRANCH   1   7
BRANCH   2  10
ATOM     10  O   UNL     1      22.194   0.538 -17.535  1.00  0.00    -0.507 OA
ATOM     11  H   UNL     1      22.198   1.431 -17.062  1.00  0.00     0.293 HD
ENDBRANCH   2  10
TORSDOF 2
ENDMDL
MODEL 8
REMARK VINA RESULT:    -4.212      2.577      3.979
REMARK INTER + INTRA:          -4.820
REMARK INTER:                  -4.594
REMARK INTRA:                  -0.226
REMARK UNBOUND:                -0.239
REMARK SMILES O=C([O-])c1ccccc1O
REMARK SMILES IDX 4 1 9 2 5 3 8 4 6 5 7 6 2 7 1 8 3 9 10 10
REMARK H PARENT 10 11
REMARK Flexibility Score: inf
ROOT
ATOM      1  C   UNL     1      20.212  -0.747 -18.874  1.00  0.00     0.039 A 
ATOM      2  C   UNL     1      20.058  -0.340 -20.224  1.00  0.00     0.124 A 
ATOM      3  C   UNL     1      21.307  -0.260 -18.135  1.00  0.00     0.014 A 
ATOM      4  C   UNL     1      21.026   0.483 -20.813  1.00  0.00     0.047 A 
ATOM      5  C   UNL     1      22.252   0.578 -18.733  1.00  0.00     0.001 A 
ATOM      6  C   UNL     1      22.117   0.941 -20.073  1.00  0.00     0.004 A 
ENDROOT
BRANCH   1   7
ATOM      7  C   UNL     1      19.284  -1.696 -18.220  1.00  0.00     0.075 C 
ATOM      8  O   UNL     1      19.076  -2.830 -18.731  1.00  0.00    -0.545 OA
ATOM      9  O   UNL     1      18.579  -1.332 -17.080  1.00  0.00    -0.545 OA
ENDBRANCH   1   7
BRANCH   2  10
ATOM     10  O   UNL     1      18.950  -0.697 -20.995  1.00  0.00    -0.507 OA
ATOM     11  H   UNL     1      18.003  -0.432 -20.765  1.00  0.00     0.293 HD
ENDBRANCH   2  10
TORSDOF 2
ENDMDL
MODEL 9
REMARK VINA RESULT:    -4.152     16.223     17.730
REMARK INTER + INTRA:          -4.755
REMARK INTER:                  -4.505
REMARK INTRA:                  -0.250
REMARK UNBOUND:                -0.239
REMARK SMILES O=C([O-])c1ccccc1O
REMARK SMILES IDX 4 1 9 2 5 3 8 4 6 5 7 6 2 7 1 8 3 9 10 10
REMARK H PARENT 10 11
REMARK Flexibility Score: inf
ROOT
ATOM      1  C   UNL     1      12.829   3.395  -4.731  1.00  0.00     0.039 A 
ATOM      2  C   UNL     1      12.189   3.301  -5.993  1.00  0.00     0.124 A 
ATOM      3  C   UNL     1      13.993   4.177  -4.613  1.00  0.00     0.014 A 
ATOM      4  C   UNL     1      12.758   3.933  -7.106  1.00  0.00     0.047 A 
ATOM      5  C   UNL     1      14.536   4.817  -5.730  1.00  0.00     0.001 A 
ATOM      6  C   UNL     1      13.925   4.688  -6.976  1.00  0.00     0.004 A 
ENDROOT
BRANCH   1   7
ATOM      7  C   UNL     1      12.340   2.669  -3.537  1.00  0.00     0.075 C 
ATOM      8  O   UNL     1      13.126   1.939  -2.875  1.00  0.00    -0.545 OA
ATOM      9  O   UNL     1      11.002   2.726  -3.169  1.00  0.00    -0.545 OA
ENDBRANCH   1   7
BRANCH   2  10
ATOM     10  O   UNL     1      10.979   2.628  -6.174  1.00  0.00    -0.507 OA
ATOM     11  H   UNL     1      10.303   2.879  -6.883  1.00  0.00     0.293 HD
ENDBRANCH   2  10
TORSDOF 2
ENDMDL
