MODEL 1
REMARK VINA RESULT:    -3.880      0.000      0.000
REMARK INTER + INTRA:          -5.637
REMARK INTER:                  -5.240
REMARK INTRA:                  -0.397
REMARK UNBOUND:                -0.397
REMARK SMILES CCCCCCCC(=O)[O-]
REMARK SMILES IDX 5 1 6 2 7 3 8 4 9 5 10 6 4 7 3 8 2 9 1 10
REMARK H PARENT
REMARK Flexibility Score: inf
ROOT
ATOM      1  C   UNL     1       4.834 -29.338 -17.220  1.00  0.00     0.000 C 
ENDROOT
BRANCH   1   2
ATOM      2  C   UNL     1       4.458 -30.449 -18.212  1.00  0.00     0.006 C 
BRANCH   2   3
ATOM      3  C   UNL     1       5.236 -31.746 -17.955  1.00  0.00     0.053 C 
BRANCH   3   4
ATOM      4  C   UNL     1       6.417 -31.874 -18.867  1.00  0.00     0.041 C 
ATOM      5  O   UNL     1       7.472 -31.228 -18.633  1.00  0.00    -0.550 OA
ATOM      6  O   UNL     1       6.364 -32.734 -19.958  1.00  0.00    -0.550 OA
ENDBRANCH   3   4
ENDBRANCH   2   3
ENDBRANCH   1   2
BRANCH   1   7
ATOM      7  C   UNL     1       4.714 -27.955 -17.871  1.00  0.00     0.000 C 
BRANCH   7   8
ATOM      8  C   UNL     1       5.945 -27.092 -17.559  1.00  0.00    -0.000 C 
BRANCH   8   9
ATOM      9  C   UNL     1       7.098 -27.904 -16.949  1.00  0.00    -0.003 C 
ATOM     10  C   UNL     1       8.345 -27.915 -17.831  1.00  0.00     0.004 C 
ENDBRANCH   8   9
ENDBRANCH   7   8
ENDBRANCH   1   7
TORSDOF 6
ENDMDL
MODEL 2
REMARK VINA RESULT:    -3.839     13.859     16.103
REMARK INTER + INTRA:          -5.583
REMARK INTER:                  -5.050
REMARK INTRA:                  -0.533
REMARK UNBOUND:                -0.397
REMARK SMILES CCCCCCCC(=O)[O-]
REMARK SMILES IDX 5 1 6 2 7 3 8 4 9 5 10 6 4 7 3 8 2 9 1 10
REMARK H PARENT
REMARK Flexibility Score: inf
ROOT
ATOM      1  C   UNL     1       1.413 -45.498 -17.550  1.00  0.00     0.000 C 
ENDROOT
BRANCH   1   2
ATOM      2  C   UNL     1       1.384 -44.358 -18.579  1.00  0.00     0.006 C 
BRANCH   2   3
ATOM      3  C   UNL     1       1.587 -42.984 -17.929  1.00  0.00     0.053 C 
BRANCH   3   4
ATOM      4  C   UNL     1       0.316 -42.192 -17.897  1.00  0.00     0.041 C 
ATOM      5  O   UNL     1      -0.076 -41.667 -16.822  1.00  0.00    -0.550 OA
ATOM      6  O   UNL     1      -0.418 -42.006 -19.062  1.00  0.00    -0.550 OA
ENDBRANCH   3   4
ENDBRANCH   2   3
ENDBRANCH   1   2
BRANCH   1   7
ATOM      7  C   UNL     1       0.008 -46.068 -17.321  1.00  0.00     0.000 C 
BRANCH   7   8
ATOM      8  C   UNL     1      -0.673 -45.389 -16.123  1.00  0.00    -0.000 C 
BRANCH   8   9
ATOM      9  C   UNL     1      -2.070 -44.849 -16.466  1.00  0.00    -0.003 C 
ATOM     10  C   UNL     1      -2.640 -45.455 -17.747  1.00  0.00     0.004 C 
ENDBRANCH   8   9
ENDBRANCH   7   8
ENDBRANCH   1   7
TORSDOF 6
ENDMDL
MODEL 3
REMARK VINA RESULT:    -3.774      1.477      2.120
REMARK INTER + INTRA:          -5.495
REMARK INTER:                  -5.150
REMARK INTRA:                  -0.345
REMARK UNBOUND:                -0.397
REMARK SMILES CCCCCCCC(=O)[O-]
REMARK SMILES IDX 5 1 6 2 7 3 8 4 9 5 10 6 4 7 3 8 2 9 1 10
REMARK H PARENT
REMARK Flexibility Score: inf
ROOT
ATOM      1  C   UNL     1       5.843 -31.279 -17.356  1.00  0.00     0.000 C 
ENDROOT
BRANCH   1   2
ATOM      2  C   UNL     1       6.953 -31.714 -18.324  1.00  0.00     0.006 C 
BRANCH   2   3
ATOM      3  C   UNL     1       6.394 -32.204 -19.666  1.00  0.00     0.053 C 
BRANCH   3   4
ATOM      4  C   UNL     1       7.026 -33.494 -20.092  1.00  0.00     0.041 C 
ATOM      5  O   UNL     1       8.193 -33.782 -19.719  1.00  0.00    -0.550 OA
ATOM      6  O   UNL     1       6.311 -34.394 -20.873  1.00  0.00    -0.550 OA
ENDBRANCH   3   4
ENDBRANCH   2   3
ENDBRANCH   1   2
BRANCH   1   7
ATOM      7  C   UNL     1       6.247 -30.015 -16.588  1.00  0.00     0.000 C 
BRANCH   7   8
ATOM      8  C   UNL     1       5.801 -28.750 -17.338  1.00  0.00    -0.000 C 
BRANCH   8   9
ATOM      9  C   UNL     1       6.891 -27.667 -17.369  1.00  0.00    -0.003 C 
ATOM     10  C   UNL     1       8.288 -28.241 -17.600  1.00  0.00     0.004 C 
ENDBRANCH   8   9
ENDBRANCH   7   8
ENDBRANCH   1   7
TORSDOF 6
ENDMDL
MODEL 4
REMARK VINA RESULT:    -3.749      2.788      4.012
REMARK INTER + INTRA:          -5.461
REMARK INTER:                  -5.355
REMARK INTRA:                  -0.106
REMARK UNBOUND:                -0.397
REMARK SMILES CCCCCCCC(=O)[O-]
REMARK SMILES IDX 5 1 6 2 7 3 8 4 9 5 10 6 4 7 3 8 2 9 1 10
REMARK H PARENT
REMARK Flexibility Score: inf
ROOT
ATOM      1  C   UNL     1       6.357 -32.323 -19.577  1.00  0.00     0.000 C 
ENDROOT
BRANCH   1   2
ATOM      2  C   UNL     1       7.123 -33.515 -20.170  1.00  0.00     0.006 C 
BRANCH   2   3
ATOM      3  C   UNL     1       6.355 -34.187 -21.315  1.00  0.00     0.053 C 
BRANCH   3   4
ATOM      4  C   UNL     1       6.664 -35.651 -21.406  1.00  0.00     0.041 C 
ATOM      5  O   UNL     1       6.466 -36.403 -20.416  1.00  0.00    -0.550 OA
ATOM      6  O   UNL     1       7.137 -36.189 -22.596  1.00  0.00    -0.550 OA
ENDBRANCH   3   4
ENDBRANCH   2   3
ENDBRANCH   1   2
BRANCH   1   7
ATOM      7  C   UNL     1       7.178 -31.632 -18.480  1.00  0.00     0.000 C 
BRANCH   7   8
ATOM      8  C   UNL     1       6.478 -30.355 -17.991  1.00  0.00    -0.000 C 
BRANCH   8   9
ATOM      9  C   UNL     1       7.360 -29.522 -17.049  1.00  0.00    -0.003 C 
ATOM     10  C   UNL     1       8.000 -28.322 -17.744  1.00  0.00     0.004 C 
ENDBRANCH   8   9
ENDBRANCH   7   8
ENDBRANCH   1   7
TORSDOF 6
ENDMDL
MODEL 5
REMARK VINA RESULT:    -3.692     13.770     15.740
REMARK INTER + INTRA:          -5.384
REMARK INTER:                  -4.739
REMARK INTRA:                  -0.644
REMARK UNBOUND:                -0.397
REMARK SMILES CCCCCCCC(=O)[O-]
REMARK SMILES IDX 5 1 6 2 7 3 8 4 9 5 10 6 4 7 3 8 2 9 1 10
REMARK H PARENT
REMARK Flexibility Score: inf
ROOT
ATOM      1  C   UNL     1      -1.680 -43.915 -17.733  1.00  0.00     0.000 C 
ENDROOT
BRANCH   1   2
ATOM      2  C   UNL     1      -1.189 -42.466 -17.865  1.00  0.00     0.006 C 
BRANCH   2   3
ATOM      3  C   UNL     1       0.121 -42.367 -18.658  1.00  0.00     0.053 C 
BRANCH   3   4
ATOM      4  C   UNL     1       1.319 -42.526 -17.772  1.00  0.00     0.041 C 
ATOM      5  O   UNL     1       1.243 -42.244 -16.548  1.00  0.00    -0.550 OA
ATOM      6  O   UNL     1       2.509 -43.018 -18.294  1.00  0.00    -0.550 OA
ENDBRANCH   3   4
ENDBRANCH   2   3
ENDBRANCH   1   2
BRANCH   1   7
ATOM      7  C   UNL     1      -1.599 -44.392 -16.278  1.00  0.00     0.000 C 
BRANCH   7   8
ATOM      8  C   UNL     1      -0.562 -45.515 -16.124  1.00  0.00    -0.000 C 
BRANCH   8   9
ATOM      9  C   UNL     1      -0.307 -46.268 -17.438  1.00  0.00    -0.003 C 
ATOM     10  C   UNL     1       1.170 -46.294 -17.829  1.00  0.00     0.004 C 
ENDBRANCH   8   9
ENDBRANCH   7   8
ENDBRANCH   1   7
TORSDOF 6
ENDMDL
MODEL 6
REMARK VINA RESULT:    -3.662     14.405     15.832
REMARK INTER + INTRA:          -5.343
REMARK INTER:                  -4.813
REMARK INTRA:                  -0.530
REMARK UNBOUND:                -0.397
REMARK SMILES CCCCCCCC(=O)[O-]
REMARK SMILES IDX 5 1 6 2 7 3 8 4 9 5 10 6 4 7 3 8 2 9 1 10
REMARK H PARENT
REMARK Flexibility Score: inf
ROOT
ATOM      1  C   UNL     1       1.049 -44.028 -18.189  1.00  0.00     0.000 C 
ENDROOT
BRANCH   1   2
ATOM      2  C   UNL     1       0.803 -45.073 -17.090  1.00  0.00     0.006 C 
BRANCH   2   3
ATOM      3  C   UNL     1      -0.373 -45.999 -17.424  1.00  0.00     0.053 C 
BRANCH   3   4
ATOM      4  C   UNL     1      -1.685 -45.395 -17.025  1.00  0.00     0.041 C 
ATOM      5  O   UNL     1      -2.718 -45.614 -17.712  1.00  0.00    -0.550 OA
ATOM      6  O   UNL     1      -1.774 -44.619 -15.877  1.00  0.00    -0.550 OA
ENDBRANCH   3   4
ENDBRANCH   2   3
ENDBRANCH   1   2
BRANCH   1   7
ATOM      7  C   UNL     1       1.214 -42.627 -17.588  1.00  0.00     0.000 C 
BRANCH   7   8
ATOM      8  C   UNL     1      -0.122 -41.869 -17.583  1.00  0.00    -0.000 C 
BRANCH   8   9
ATOM      9  C   UNL     1      -1.013 -42.235 -18.779  1.00  0.00    -0.003 C 
ATOM     10  C   UNL     1      -1.057 -41.138 -19.842  1.00  0.00     0.004 C 
ENDBRANCH   8   9
ENDBRANCH   7   8
ENDBRANCH   1   7
TORSDOF 6
ENDMDL
MODEL 7
REMARK VINA RESULT:    -3.604      2.689      5.251
REMARK INTER + INTRA:          -5.265
REMARK INTER:                  -5.086
REMARK INTRA:                  -0.179
REMARK UNBOUND:                -0.397
REMARK SMILES CCCCCCCC(=O)[O-]
REMARK SMILES IDX 5 1 6 2 7 3 8 4 9 5 10 6 4 7 3 8 2 9 1 10
REMARK H PARENT
REMARK Flexibility Score: inf
ROOT
ATOM      1  C   UNL     1       6.186 -31.726 -17.928  1.00  0.00     0.000 C 
ENDROOT
BRANCH   1   2
ATOM      2  C   UNL     1       6.245 -30.315 -17.324  1.00  0.00     0.006 C 
BRANCH   2   3
ATOM      3  C   UNL     1       7.498 -29.547 -17.764  1.00  0.00     0.053 C 
BRANCH   3   4
ATOM      4  C   UNL     1       7.343 -28.070 -17.562  1.00  0.00     0.041 C 
ATOM      5  O   UNL     1       6.357 -27.618 -16.923  1.00  0.00    -0.550 OA
ATOM      6  O   UNL     1       8.306 -27.196 -18.052  1.00  0.00    -0.550 OA
ENDBRANCH   3   4
ENDBRANCH   2   3
ENDBRANCH   1   2
BRANCH   1   7
ATOM      7  C   UNL     1       6.824 -31.756 -19.322  1.00  0.00     0.000 C 
BRANCH   7   8
ATOM      8  C   UNL     1       7.281 -33.176 -19.688  1.00  0.00    -0.000 C 
BRANCH   8   9
ATOM      9  C   UNL     1       6.473 -33.775 -20.849  1.00  0.00    -0.003 C 
ATOM     10  C   UNL     1       6.691 -35.279 -21.008  1.00  0.00     0.004 C 
ENDBRANCH   8   9
ENDBRANCH   7   8
ENDBRANCH   1   7
TORSDOF 6
ENDMDL
MODEL 8
REMARK VINA RESULT:    -3.592     12.702     14.688
REMARK INTER + INTRA:          -5.249
REMARK INTER:                  -5.110
REMARK INTRA:                  -0.139
REMARK UNBOUND:                -0.397
REMARK SMILES CCCCCCCC(=O)[O-]
REMARK SMILES IDX 5 1 6 2 7 3 8 4 9 5 10 6 4 7 3 8 2 9 1 10
REMARK H PARENT
REMARK Flexibility Score: inf
ROOT
ATOM      1  C   UNL     1      -1.536 -41.696 -18.527  1.00  0.00     0.000 C 
ENDROOT
BRANCH   1   2
ATOM      2  C   UNL     1      -0.626 -42.534 -17.615  1.00  0.00     0.006 C 
BRANCH   2   3
ATOM      3  C   UNL     1      -0.844 -44.040 -17.803  1.00  0.00     0.053 C 
BRANCH   3   4
ATOM      4  C   UNL     1      -1.870 -44.575 -16.851  1.00  0.00     0.041 C 
ATOM      5  O   UNL     1      -1.731 -44.409 -15.611  1.00  0.00    -0.550 OA
ATOM      6  O   UNL     1      -2.996 -45.228 -17.336  1.00  0.00    -0.550 OA
ENDBRANCH   3   4
ENDBRANCH   2   3
ENDBRANCH   1   2
BRANCH   1   7
ATOM      7  C   UNL     1      -0.770 -41.194 -19.757  1.00  0.00     0.000 C 
BRANCH   7   8
ATOM      8  C   UNL     1      -1.544 -40.072 -20.466  1.00  0.00    -0.000 C 
BRANCH   8   9
ATOM      9  C   UNL     1      -0.689 -39.332 -21.506  1.00  0.00    -0.003 C 
ATOM     10  C   UNL     1      -0.857 -37.815 -21.439  1.00  0.00     0.004 C 
ENDBRANCH   8   9
ENDBRANCH   7   8
ENDBRANCH   1   7
TORSDOF 6
ENDMDL
MODEL 9
REMARK VINA RESULT:    -3.564     14.349     16.299
REMARK INTER + INTRA:          -5.210
REMARK INTER:                  -4.600
REMARK INTRA:                  -0.610
REMARK UNBOUND:                -0.397
REMARK SMILES CCCCCCCC(=O)[O-]
REMARK SMILES IDX 5 1 6 2 7 3 8 4 9 5 10 6 4 7 3 8 2 9 1 10
REMARK H PARENT
REMARK Flexibility Score: inf
ROOT
ATOM      1  C   UNL     1       1.126 -45.890 -17.658  1.00  0.00     0.000 C 
ENDROOT
BRANCH   1   2
ATOM      2  C   UNL     1       1.225 -44.523 -18.351  1.00  0.00     0.006 C 
BRANCH   2   3
ATOM      3  C   UNL     1       2.147 -43.556 -17.599  1.00  0.00     0.053 C 
BRANCH   3   4
ATOM      4  C   UNL     1       1.563 -43.143 -16.282  1.00  0.00     0.041 C 
ATOM      5  O   UNL     1       0.597 -42.338 -16.242  1.00  0.00    -0.550 OA
ATOM      6  O   UNL     1       2.066 -43.675 -15.101  1.00  0.00    -0.550 OA
ENDBRANCH   3   4
ENDBRANCH   2   3
ENDBRANCH   1   2
BRANCH   1   7
ATOM      7  C   UNL     1      -0.336 -46.323 -17.499  1.00  0.00     0.000 C 
BRANCH   7   8
ATOM      8  C   UNL     1      -1.282 -45.118 -17.613  1.00  0.00    -0.000 C 
BRANCH   8   9
ATOM      9  C   UNL     1      -2.273 -45.031 -16.442  1.00  0.00    -0.003 C 
ATOM     10  C   UNL     1      -1.577 -44.887 -15.089  1.00  0.00     0.004 C 
ENDBRANCH   8   9
ENDBRANCH   7   8
ENDBRANCH   1   7
TORSDOF 6
ENDMDL
