MODEL 1
REMARK VINA RESULT:    -5.305      0.000      0.000
REMARK INTER + INTRA:          -9.179
REMARK INTER:                  -8.096
REMARK INTRA:                  -1.084
REMARK UNBOUND:                -1.084
REMARK SMILES CC(=O)CCC=C(C)CCC=C(C)CCC=C(C)C
REMARK SMILES IDX 10 1 11 2 12 3 13 4 14 5 15 6 16 7 18 8 17 9 19 10 9 11 7 12
REMARK SMILES IDX 6 13 8 14 5 15 4 16 2 17 3 18 1 19
REMARK H PARENT
REMARK Flexibility Score: inf
ROOT
ATOM      1  C   UNL     1      16.100 -47.521  -2.747  1.00  0.00     0.032 C 
ENDROOT
BRANCH   1   2
ATOM      2  C   UNL     1      15.103 -47.897  -3.817  1.00  0.00    -0.028 C 
ATOM      3  C   UNL     1      15.389 -48.654  -4.901  1.00  0.00    -0.077 C 
ATOM      4  C   UNL     1      16.745 -49.289  -5.098  1.00  0.00     0.039 C 
BRANCH   3   5
ATOM      5  C   UNL     1      14.301 -48.929  -5.918  1.00  0.00     0.034 C 
BRANCH   5   6
ATOM      6  C   UNL     1      13.848 -47.645  -6.628  1.00  0.00     0.032 C 
BRANCH   6   7
ATOM      7  C   UNL     1      12.461 -47.221  -6.205  1.00  0.00    -0.028 C 
ATOM      8  C   UNL     1      12.640 -44.961  -7.270  1.00  0.00     0.039 C 
ATOM      9  C   UNL     1      11.919 -46.010  -6.456  1.00  0.00    -0.080 C 
ATOM     10  C   UNL     1      10.542 -45.716  -5.919  1.00  0.00     0.039 C 
ENDBRANCH   6   7
ENDBRANCH   5   6
ENDBRANCH   3   5
ENDBRANCH   1   2
BRANCH   1  11
ATOM     11  C   UNL     1      16.025 -48.463  -1.536  1.00  0.00     0.034 C 
BRANCH  11  12
ATOM     12  C   UNL     1      17.402 -48.805  -1.007  1.00  0.00    -0.077 C 
ATOM     13  C   UNL     1      18.494 -48.376  -1.680  1.00  0.00    -0.028 C 
ATOM     14  C   UNL     1      17.510 -49.575   0.286  1.00  0.00     0.039 C 
BRANCH  13  15
ATOM     15  C   UNL     1      19.922 -48.660  -1.277  1.00  0.00     0.035 C 
BRANCH  15  16
ATOM     16  C   UNL     1      20.519 -49.812  -2.094  1.00  0.00     0.079 C 
BRANCH  16  17
ATOM     17  C   UNL     1      21.332 -49.311  -3.259  1.00  0.00     0.130 C 
ATOM     18  O   UNL     1      20.812 -49.197  -4.358  1.00  0.00    -0.300 OA
ATOM     19  C   UNL     1      22.768 -48.927  -3.073  1.00  0.00     0.087 C 
ENDBRANCH  16  17
ENDBRANCH  15  16
ENDBRANCH  13  15
ENDBRANCH  11  12
ENDBRANCH   1  11
TORSDOF 9
ENDMDL
MODEL 2
REMARK VINA RESULT:    -4.987      2.717      8.317
REMARK INTER + INTRA:          -8.694
REMARK INTER:                  -7.537
REMARK INTRA:                  -1.157
REMARK UNBOUND:                -1.084
REMARK SMILES CC(=O)CCC=C(C)CCC=C(C)CCC=C(C)C
REMARK SMILES IDX 10 1 11 2 12 3 13 4 14 5 15 6 16 7 18 8 17 9 19 10 9 11 7 12
REMARK SMILES IDX 6 13 8 14 5 15 4 16 2 17 3 18 1 19
REMARK H PARENT
REMARK Flexibility Score: inf
ROOT
ATOM      1  C   UNL     1      16.231 -48.066  -3.472  1.00  0.00     0.032 C 
ENDROOT
BRANCH   1   2
ATOM      2  C   UNL     1      17.384 -48.352  -2.541  1.00  0.00    -0.028 C 
ATOM      3  C   UNL     1      17.252 -48.707  -1.243  1.00  0.00    -0.077 C 
ATOM      4  C   UNL     1      15.901 -48.949  -0.612  1.00  0.00     0.039 C 
BRANCH   3   5
ATOM      5  C   UNL     1      18.497 -48.934  -0.409  1.00  0.00     0.034 C 
BRANCH   5   6
ATOM      6  C   UNL     1      19.440 -49.955  -1.060  1.00  0.00     0.032 C 
BRANCH   6   7
ATOM      7  C   UNL     1      20.809 -49.373  -1.325  1.00  0.00    -0.028 C 
ATOM      8  C   UNL     1      20.617 -49.606  -3.812  1.00  0.00     0.039 C 
ATOM      9  C   UNL     1      21.363 -49.241  -2.550  1.00  0.00    -0.080 C 
ATOM     10  C   UNL     1      22.763 -48.693  -2.648  1.00  0.00     0.039 C 
ENDBRANCH   6   7
ENDBRANCH   5   6
ENDBRANCH   3   5
ENDBRANCH   1   2
BRANCH   1  11
ATOM     11  C   UNL     1      16.144 -49.091  -4.611  1.00  0.00     0.034 C 
BRANCH  11  12
ATOM     12  C   UNL     1      15.131 -48.680  -5.659  1.00  0.00    -0.077 C 
ATOM     13  C   UNL     1      13.819 -48.637  -5.330  1.00  0.00    -0.028 C 
ATOM     14  C   UNL     1      15.625 -48.283  -7.029  1.00  0.00     0.039 C 
BRANCH  13  15
ATOM     15  C   UNL     1      12.704 -48.265  -6.278  1.00  0.00     0.035 C 
BRANCH  15  16
ATOM     16  C   UNL     1      11.613 -47.450  -5.573  1.00  0.00     0.079 C 
BRANCH  16  17
ATOM     17  C   UNL     1      11.507 -46.055  -6.130  1.00  0.00     0.130 C 
ATOM     18  O   UNL     1      10.568 -45.342  -5.810  1.00  0.00    -0.300 OA
ATOM     19  C   UNL     1      12.560 -45.525  -7.055  1.00  0.00     0.087 C 
ENDBRANCH  16  17
ENDBRANCH  15  16
ENDBRANCH  13  15
ENDBRANCH  11  12
ENDBRANCH   1  11
TORSDOF 9
ENDMDL
MODEL 3
REMARK VINA RESULT:    -4.850      1.767      3.154
REMARK INTER + INTRA:          -8.485
REMARK INTER:                  -7.155
REMARK INTRA:                  -1.330
REMARK UNBOUND:                -1.084
REMARK SMILES CC(=O)CCC=C(C)CCC=C(C)CCC=C(C)C
REMARK SMILES IDX 10 1 11 2 12 3 13 4 14 5 15 6 16 7 18 8 17 9 19 10 9 11 7 12
REMARK SMILES IDX 6 13 8 14 5 15 4 16 2 17 3 18 1 19
REMARK H PARENT
REMARK Flexibility Score: inf
ROOT
ATOM      1  C   UNL     1      14.088 -47.358  -2.799  1.00  0.00     0.032 C 
ENDROOT
BRANCH   1   2
ATOM      2  C   UNL     1      13.502 -47.163  -4.177  1.00  0.00    -0.028 C 
ATOM      3  C   UNL     1      12.743 -48.075  -4.825  1.00  0.00    -0.077 C 
ATOM      4  C   UNL     1      12.321 -49.371  -4.176  1.00  0.00     0.039 C 
BRANCH   3   5
ATOM      5  C   UNL     1      12.245 -47.764  -6.222  1.00  0.00     0.034 C 
BRANCH   5   6
ATOM      6  C   UNL     1      13.337 -47.117  -7.085  1.00  0.00     0.032 C 
BRANCH   6   7
ATOM      7  C   UNL     1      14.032 -48.125  -7.970  1.00  0.00    -0.028 C 
ATOM      8  C   UNL     1      15.890 -48.533  -6.340  1.00  0.00     0.039 C 
ATOM      9  C   UNL     1      15.194 -48.742  -7.665  1.00  0.00    -0.080 C 
ATOM     10  C   UNL     1      15.793 -49.683  -8.678  1.00  0.00     0.039 C 
ENDBRANCH   6   7
ENDBRANCH   5   6
ENDBRANCH   3   5
ENDBRANCH   1   2
BRANCH   1  11
ATOM     11  C   UNL     1      15.605 -47.127  -2.782  1.00  0.00     0.034 C 
BRANCH  11  12
ATOM     12  C   UNL     1      16.326 -48.193  -1.985  1.00  0.00    -0.077 C 
ATOM     13  C   UNL     1      17.610 -48.491  -2.289  1.00  0.00    -0.028 C 
ATOM     14  C   UNL     1      15.600 -48.857  -0.841  1.00  0.00     0.039 C 
BRANCH  13  15
ATOM     15  C   UNL     1      18.440 -49.543  -1.590  1.00  0.00     0.035 C 
BRANCH  15  16
ATOM     16  C   UNL     1      19.387 -48.920  -0.558  1.00  0.00     0.079 C 
BRANCH  16  17
ATOM     17  C   UNL     1      20.814 -48.910  -1.040  1.00  0.00     0.130 C 
ATOM     18  O   UNL     1      21.693 -48.451  -0.328  1.00  0.00    -0.300 OA
ATOM     19  C   UNL     1      21.166 -49.484  -2.379  1.00  0.00     0.087 C 
ENDBRANCH  16  17
ENDBRANCH  15  16
ENDBRANCH  13  15
ENDBRANCH  11  12
ENDBRANCH   1  11
TORSDOF 9
ENDMDL
MODEL 4
REMARK VINA RESULT:    -4.847      2.110      7.730
REMARK INTER + INTRA:          -8.481
REMARK INTER:                  -7.283
REMARK INTRA:                  -1.198
REMARK UNBOUND:                -1.084
REMARK SMILES CC(=O)CCC=C(C)CCC=C(C)CCC=C(C)C
REMARK SMILES IDX 10 1 11 2 12 3 13 4 14 5 15 6 16 7 18 8 17 9 19 10 9 11 7 12
REMARK SMILES IDX 6 13 8 14 5 15 4 16 2 17 3 18 1 19
REMARK H PARENT
REMARK Flexibility Score: inf
ROOT
ATOM      1  C   UNL     1      16.154 -48.256  -1.643  1.00  0.00     0.032 C 
ENDROOT
BRANCH   1   2
ATOM      2  C   UNL     1      17.586 -48.731  -1.600  1.00  0.00    -0.028 C 
ATOM      3  C   UNL     1      18.177 -49.292  -0.520  1.00  0.00    -0.077 C 
ATOM      4  C   UNL     1      17.411 -49.590   0.747  1.00  0.00     0.039 C 
BRANCH   3   5
ATOM      5  C   UNL     1      19.635 -49.695  -0.601  1.00  0.00     0.034 C 
BRANCH   5   6
ATOM      6  C   UNL     1      20.509 -48.561  -1.155  1.00  0.00     0.032 C 
BRANCH   6   7
ATOM      7  C   UNL     1      21.615 -49.080  -2.045  1.00  0.00    -0.028 C 
ATOM      8  C   UNL     1      20.268 -48.849  -4.144  1.00  0.00     0.039 C 
ATOM      9  C   UNL     1      21.510 -49.246  -3.381  1.00  0.00    -0.080 C 
ATOM     10  C   UNL     1      22.685 -49.827  -4.125  1.00  0.00     0.039 C 
ENDBRANCH   6   7
ENDBRANCH   5   6
ENDBRANCH   3   5
ENDBRANCH   1   2
BRANCH   1  11
ATOM     11  C   UNL     1      15.804 -47.610  -2.991  1.00  0.00     0.034 C 
BRANCH  11  12
ATOM     12  C   UNL     1      15.178 -48.607  -3.944  1.00  0.00    -0.077 C 
ATOM     13  C   UNL     1      15.305 -48.416  -5.277  1.00  0.00    -0.028 C 
ATOM     14  C   UNL     1      14.471 -49.811  -3.372  1.00  0.00     0.039 C 
BRANCH  13  15
ATOM     15  C   UNL     1      14.717 -49.317  -6.338  1.00  0.00     0.035 C 
BRANCH  15  16
ATOM     16  C   UNL     1      13.338 -48.825  -6.793  1.00  0.00     0.079 C 
BRANCH  16  17
ATOM     17  C   UNL     1      13.367 -47.377  -7.205  1.00  0.00     0.130 C 
ATOM     18  O   UNL     1      14.024 -47.033  -8.175  1.00  0.00    -0.300 OA
ATOM     19  C   UNL     1      12.573 -46.357  -6.446  1.00  0.00     0.087 C 
ENDBRANCH  16  17
ENDBRANCH  15  16
ENDBRANCH  13  15
ENDBRANCH  11  12
ENDBRANCH   1  11
TORSDOF 9
ENDMDL
MODEL 5
REMARK VINA RESULT:    -4.828     18.240     20.098
REMARK INTER + INTRA:          -8.451
REMARK INTER:                  -7.222
REMARK INTRA:                  -1.229
REMARK UNBOUND:                -1.084
REMARK SMILES CC(=O)CCC=C(C)CCC=C(C)CCC=C(C)C
REMARK SMILES IDX 10 1 11 2 12 3 13 4 14 5 15 6 16 7 18 8 17 9 19 10 9 11 7 12
REMARK SMILES IDX 6 13 8 14 5 15 4 16 2 17 3 18 1 19
REMARK H PARENT
REMARK Flexibility Score: inf
ROOT
ATOM      1  C   UNL     1      24.931 -34.430 -15.517  1.00  0.00     0.032 C 
ENDROOT
BRANCH   1   2
ATOM      2  C   UNL     1      25.951 -35.530 -15.345  1.00  0.00    -0.028 C 
ATOM      3  C   UNL     1      27.227 -35.471 -15.789  1.00  0.00    -0.077 C 
ATOM      4  C   UNL     1      27.793 -34.227 -16.432  1.00  0.00     0.039 C 
BRANCH   3   5
ATOM      5  C   UNL     1      28.139 -36.662 -15.579  1.00  0.00     0.034 C 
BRANCH   5   6
ATOM      6  C   UNL     1      27.384 -37.859 -14.984  1.00  0.00     0.032 C 
BRANCH   6   7
ATOM      7  C   UNL     1      27.392 -39.052 -15.911  1.00  0.00    -0.028 C 
ATOM      8  C   UNL     1      24.911 -39.020 -16.254  1.00  0.00     0.039 C 
ATOM      9  C   UNL     1      26.289 -39.604 -16.461  1.00  0.00    -0.080 C 
ATOM     10  C   UNL     1      26.454 -40.829 -17.322  1.00  0.00     0.039 C 
ENDBRANCH   6   7
ENDBRANCH   5   6
ENDBRANCH   3   5
ENDBRANCH   1   2
BRANCH   1  11
ATOM     11  C   UNL     1      24.012 -34.303 -14.295  1.00  0.00     0.034 C 
BRANCH  11  12
ATOM     12  C   UNL     1      24.326 -33.063 -13.484  1.00  0.00    -0.077 C 
ATOM     13  C   UNL     1      23.569 -32.772 -12.401  1.00  0.00    -0.028 C 
ATOM     14  C   UNL     1      25.508 -32.215 -13.885  1.00  0.00     0.039 C 
BRANCH  13  15
ATOM     15  C   UNL     1      23.757 -31.561 -11.518  1.00  0.00     0.035 C 
BRANCH  15  16
ATOM     16  C   UNL     1      24.042 -31.962 -10.066  1.00  0.00     0.079 C 
BRANCH  16  17
ATOM     17  C   UNL     1      25.323 -31.354  -9.557  1.00  0.00     0.130 C 
ATOM     18  O   UNL     1      26.271 -31.212 -10.314  1.00  0.00    -0.300 OA
ATOM     19  C   UNL     1      25.434 -30.899  -8.133  1.00  0.00     0.087 C 
ENDBRANCH  16  17
ENDBRANCH  15  16
ENDBRANCH  13  15
ENDBRANCH  11  12
ENDBRANCH   1  11
TORSDOF 9
ENDMDL
MODEL 6
REMARK VINA RESULT:    -4.723     18.246     20.191
REMARK INTER + INTRA:          -8.292
REMARK INTER:                  -7.042
REMARK INTRA:                  -1.250
REMARK UNBOUND:                -1.084
REMARK SMILES CC(=O)CCC=C(C)CCC=C(C)CCC=C(C)C
REMARK SMILES IDX 10 1 11 2 12 3 13 4 14 5 15 6 16 7 18 8 17 9 19 10 9 11 7 12
REMARK SMILES IDX 6 13 8 14 5 15 4 16 2 17 3 18 1 19
REMARK H PARENT
REMARK Flexibility Score: inf
ROOT
ATOM      1  C   UNL     1      24.040 -33.939 -13.835  1.00  0.00     0.032 C 
ENDROOT
BRANCH   1   2
ATOM      2  C   UNL     1      24.129 -32.444 -13.644  1.00  0.00    -0.028 C 
ATOM      3  C   UNL     1      25.162 -31.807 -13.048  1.00  0.00    -0.077 C 
ATOM      4  C   UNL     1      26.399 -32.542 -12.589  1.00  0.00     0.039 C 
BRANCH   3   5
ATOM      5  C   UNL     1      25.110 -30.301 -12.891  1.00  0.00     0.034 C 
BRANCH   5   6
ATOM      6  C   UNL     1      24.169 -29.879 -11.753  1.00  0.00     0.032 C 
BRANCH   6   7
ATOM      7  C   UNL     1      24.849 -29.936 -10.405  1.00  0.00    -0.028 C 
ATOM      8  C   UNL     1      23.802 -32.123  -9.777  1.00  0.00     0.039 C 
ATOM      9  C   UNL     1      24.668 -30.918  -9.495  1.00  0.00    -0.080 C 
ATOM     10  C   UNL     1      25.375 -30.805  -8.169  1.00  0.00     0.039 C 
ENDBRANCH   6   7
ENDBRANCH   5   6
ENDBRANCH   3   5
ENDBRANCH   1   2
BRANCH   1  11
ATOM     11  C   UNL     1      24.243 -34.344 -15.302  1.00  0.00     0.034 C 
BRANCH  11  12
ATOM     12  C   UNL     1      25.638 -34.880 -15.547  1.00  0.00    -0.077 C 
ATOM     13  C   UNL     1      25.845 -36.217 -15.528  1.00  0.00    -0.028 C 
ATOM     14  C   UNL     1      26.746 -33.903 -15.854  1.00  0.00     0.039 C 
BRANCH  13  15
ATOM     15  C   UNL     1      27.184 -36.885 -15.737  1.00  0.00     0.035 C 
BRANCH  15  16
ATOM     16  C   UNL     1      27.191 -38.316 -15.189  1.00  0.00     0.079 C 
BRANCH  16  17
ATOM     17  C   UNL     1      26.566 -39.289 -16.154  1.00  0.00     0.130 C 
ATOM     18  O   UNL     1      27.273 -40.055 -16.789  1.00  0.00    -0.300 OA
ATOM     19  C   UNL     1      25.077 -39.341 -16.320  1.00  0.00     0.087 C 
ENDBRANCH  16  17
ENDBRANCH  15  16
ENDBRANCH  13  15
ENDBRANCH  11  12
ENDBRANCH   1  11
TORSDOF 9
ENDMDL
MODEL 7
REMARK VINA RESULT:    -4.625      2.512      7.347
REMARK INTER + INTRA:          -8.142
REMARK INTER:                  -6.809
REMARK INTRA:                  -1.333
REMARK UNBOUND:                -1.084
REMARK SMILES CC(=O)CCC=C(C)CCC=C(C)CCC=C(C)C
REMARK SMILES IDX 10 1 11 2 12 3 13 4 14 5 15 6 16 7 18 8 17 9 19 10 9 11 7 12
REMARK SMILES IDX 6 13 8 14 5 15 4 16 2 17 3 18 1 19
REMARK H PARENT
REMARK Flexibility Score: inf
ROOT
ATOM      1  C   UNL     1      14.814 -48.074  -2.193  1.00  0.00     0.032 C 
ENDROOT
BRANCH   1   2
ATOM      2  C   UNL     1      16.247 -48.003  -2.662  1.00  0.00    -0.028 C 
ATOM      3  C   UNL     1      16.788 -48.812  -3.601  1.00  0.00    -0.077 C 
ATOM      4  C   UNL     1      15.963 -49.826  -4.356  1.00  0.00     0.039 C 
BRANCH   3   5
ATOM      5  C   UNL     1      18.253 -48.655  -3.956  1.00  0.00     0.034 C 
BRANCH   5   6
ATOM      6  C   UNL     1      19.002 -47.804  -2.921  1.00  0.00     0.032 C 
BRANCH   6   7
ATOM      7  C   UNL     1      19.529 -48.637  -1.776  1.00  0.00    -0.028 C 
ATOM      8  C   UNL     1      21.684 -49.176  -2.934  1.00  0.00     0.039 C 
ATOM      9  C   UNL     1      20.714 -49.286  -1.781  1.00  0.00    -0.080 C 
ATOM     10  C   UNL     1      21.076 -50.125  -0.583  1.00  0.00     0.039 C 
ENDBRANCH   6   7
ENDBRANCH   5   6
ENDBRANCH   3   5
ENDBRANCH   1   2
BRANCH   1  11
ATOM     11  C   UNL     1      13.929 -47.032  -2.891  1.00  0.00     0.034 C 
BRANCH  11  12
ATOM     12  C   UNL     1      13.272 -47.597  -4.133  1.00  0.00    -0.077 C 
ATOM     13  C   UNL     1      13.525 -47.025  -5.333  1.00  0.00    -0.028 C 
ATOM     14  C   UNL     1      12.390 -48.814  -3.997  1.00  0.00     0.039 C 
BRANCH  13  15
ATOM     15  C   UNL     1      12.924 -47.472  -6.645  1.00  0.00     0.035 C 
BRANCH  15  16
ATOM     16  C   UNL     1      13.895 -47.255  -7.812  1.00  0.00     0.079 C 
BRANCH  16  17
ATOM     17  C   UNL     1      14.503 -48.549  -8.284  1.00  0.00     0.130 C 
ATOM     18  O   UNL     1      13.815 -49.362  -8.881  1.00  0.00    -0.300 OA
ATOM     19  C   UNL     1      15.955 -48.835  -8.049  1.00  0.00     0.087 C 
ENDBRANCH  16  17
ENDBRANCH  15  16
ENDBRANCH  13  15
ENDBRANCH  11  12
ENDBRANCH   1  11
TORSDOF 9
ENDMDL
MODEL 8
REMARK VINA RESULT:    -4.621     17.945     19.913
REMARK INTER + INTRA:          -8.136
REMARK INTER:                  -6.863
REMARK INTRA:                  -1.272
REMARK UNBOUND:                -1.084
REMARK SMILES CC(=O)CCC=C(C)CCC=C(C)CCC=C(C)C
REMARK SMILES IDX 10 1 11 2 12 3 13 4 14 5 15 6 16 7 18 8 17 9 19 10 9 11 7 12
REMARK SMILES IDX 6 13 8 14 5 15 4 16 2 17 3 18 1 19
REMARK H PARENT
REMARK Flexibility Score: inf
ROOT
ATOM      1  C   UNL     1      27.304 -34.737 -14.211  1.00  0.00     0.032 C 
ENDROOT
BRANCH   1   2
ATOM      2  C   UNL     1      26.137 -33.784 -14.115  1.00  0.00    -0.028 C 
ATOM      3  C   UNL     1      24.931 -33.987 -14.692  1.00  0.00    -0.077 C 
ATOM      4  C   UNL     1      24.599 -35.264 -15.426  1.00  0.00     0.039 C 
BRANCH   3   5
ATOM      5  C   UNL     1      23.854 -32.931 -14.545  1.00  0.00     0.034 C 
BRANCH   5   6
ATOM      6  C   UNL     1      24.316 -31.767 -13.656  1.00  0.00     0.032 C 
BRANCH   6   7
ATOM      7  C   UNL     1      23.761 -31.870 -12.254  1.00  0.00    -0.028 C 
ATOM      8  C   UNL     1      26.012 -31.719 -11.167  1.00  0.00     0.039 C 
ATOM      9  C   UNL     1      24.511 -31.883 -11.131  1.00  0.00    -0.080 C 
ATOM     10  C   UNL     1      23.813 -32.047  -9.806  1.00  0.00     0.039 C 
ENDBRANCH   6   7
ENDBRANCH   5   6
ENDBRANCH   3   5
ENDBRANCH   1   2
BRANCH   1  11
ATOM     11  C   UNL     1      28.084 -34.560 -15.521  1.00  0.00     0.034 C 
BRANCH  11  12
ATOM     12  C   UNL     1      28.215 -35.866 -16.276  1.00  0.00    -0.077 C 
ATOM     13  C   UNL     1      27.724 -37.000 -15.725  1.00  0.00    -0.028 C 
ATOM     14  C   UNL     1      28.848 -35.851 -17.646  1.00  0.00     0.039 C 
BRANCH  13  15
ATOM     15  C   UNL     1      27.803 -38.370 -16.357  1.00  0.00     0.035 C 
BRANCH  15  16
ATOM     16  C   UNL     1      27.533 -39.479 -15.334  1.00  0.00     0.079 C 
BRANCH  16  17
ATOM     17  C   UNL     1      26.105 -39.955 -15.386  1.00  0.00     0.130 C 
ATOM     18  O   UNL     1      25.738 -40.857 -14.650  1.00  0.00    -0.300 OA
ATOM     19  C   UNL     1      25.124 -39.310 -16.317  1.00  0.00     0.087 C 
ENDBRANCH  16  17
ENDBRANCH  15  16
ENDBRANCH  13  15
ENDBRANCH  11  12
ENDBRANCH   1  11
TORSDOF 9
ENDMDL
MODEL 9
REMARK VINA RESULT:    -4.566     18.877     20.796
REMARK INTER + INTRA:          -8.052
REMARK INTER:                  -6.322
REMARK INTRA:                  -1.729
REMARK UNBOUND:                -1.084
REMARK SMILES CC(=O)CCC=C(C)CCC=C(C)CCC=C(C)C
REMARK SMILES IDX 10 1 11 2 12 3 13 4 14 5 15 6 16 7 18 8 17 9 19 10 9 11 7 12
REMARK SMILES IDX 6 13 8 14 5 15 4 16 2 17 3 18 1 19
REMARK H PARENT
REMARK Flexibility Score: inf
ROOT
ATOM      1  C   UNL     1      24.566 -33.830 -14.083  1.00  0.00     0.032 C 
ENDROOT
BRANCH   1   2
ATOM      2  C   UNL     1      25.511 -34.095 -15.230  1.00  0.00    -0.028 C 
ATOM      3  C   UNL     1      26.837 -33.830 -15.209  1.00  0.00    -0.077 C 
ATOM      4  C   UNL     1      27.532 -33.319 -13.970  1.00  0.00     0.039 C 
BRANCH   3   5
ATOM      5  C   UNL     1      27.667 -34.115 -16.445  1.00  0.00     0.034 C 
BRANCH   5   6
ATOM      6  C   UNL     1      28.662 -35.260 -16.210  1.00  0.00     0.032 C 
BRANCH   6   7
ATOM      7  C   UNL     1      27.986 -36.611 -16.223  1.00  0.00    -0.028 C 
ATOM      8  C   UNL     1      28.331 -36.999 -13.773  1.00  0.00     0.039 C 
ATOM      9  C   UNL     1      27.859 -37.416 -15.146  1.00  0.00    -0.080 C 
ATOM     10  C   UNL     1      27.207 -38.762 -15.330  1.00  0.00     0.039 C 
ENDBRANCH   6   7
ENDBRANCH   5   6
ENDBRANCH   3   5
ENDBRANCH   1   2
BRANCH   1  11
ATOM     11  C   UNL     1      23.858 -32.475 -14.223  1.00  0.00     0.034 C 
BRANCH  11  12
ATOM     12  C   UNL     1      24.086 -31.596 -13.012  1.00  0.00    -0.077 C 
ATOM     13  C   UNL     1      23.370 -31.822 -11.886  1.00  0.00    -0.028 C 
ATOM     14  C   UNL     1      25.144 -30.522 -13.084  1.00  0.00     0.039 C 
BRANCH  13  15
ATOM     15  C   UNL     1      23.481 -31.012 -10.616  1.00  0.00     0.035 C 
BRANCH  15  16
ATOM     16  C   UNL     1      24.137 -31.818  -9.489  1.00  0.00     0.079 C 
BRANCH  16  17
ATOM     17  C   UNL     1      25.450 -31.217  -9.059  1.00  0.00     0.130 C 
ATOM     18  O   UNL     1      25.506 -30.545  -8.042  1.00  0.00    -0.300 OA
ATOM     19  C   UNL     1      26.693 -31.460  -9.860  1.00  0.00     0.087 C 
ENDBRANCH  16  17
ENDBRANCH  15  16
ENDBRANCH  13  15
ENDBRANCH  11  12
ENDBRANCH   1  11
TORSDOF 9
ENDMDL
