MODEL 1
REMARK VINA RESULT:    -3.419      0.000      0.000
REMARK INTER + INTRA:          -6.281
REMARK INTER:                  -5.217
REMARK INTRA:                  -1.064
REMARK UNBOUND:                -1.064
REMARK SMILES O=C([O-])CCCCCCCCC(=O)[O-]
REMARK SMILES IDX 7 1 6 2 5 3 4 4 2 5 1 6 3 7 8 8 9 9 10 10 11 11 12 12 13 13
REMARK SMILES IDX 14 14
REMARK H PARENT
REMARK Flexibility Score: inf
ROOT
ATOM      1  C   UNL     1      -1.161   9.370  39.014  1.00  0.00     0.000 C 
ENDROOT
BRANCH   1   2
ATOM      2  C   UNL     1      -1.472   8.157  39.898  1.00  0.00     0.000 C 
BRANCH   2   3
ATOM      3  C   UNL     1      -2.985   7.896  39.962  1.00  0.00     0.006 C 
BRANCH   3   4
ATOM      4  C   UNL     1      -3.340   6.446  39.606  1.00  0.00     0.053 C 
BRANCH   4   5
ATOM      5  C   UNL     1      -2.690   5.469  40.539  1.00  0.00     0.041 C 
ATOM      6  O   UNL     1      -2.010   4.513  40.081  1.00  0.00    -0.550 OA
ATOM      7  O   UNL     1      -2.807   5.634  41.913  1.00  0.00    -0.550 OA
ENDBRANCH   4   5
ENDBRANCH   3   4
ENDBRANCH   2   3
ENDBRANCH   1   2
BRANCH   1   8
ATOM      8  C   UNL     1      -2.253   9.575  37.957  1.00  0.00     0.000 C 
BRANCH   8   9
ATOM      9  C   UNL     1      -1.649   9.659  36.551  1.00  0.00     0.000 C 
BRANCH   9  10
ATOM     10  C   UNL     1      -0.744   8.450  36.265  1.00  0.00     0.006 C 
BRANCH  10  11
ATOM     11  C   UNL     1      -1.529   7.255  35.711  1.00  0.00     0.053 C 
BRANCH  11  12
ATOM     12  C   UNL     1      -1.391   6.047  36.586  1.00  0.00     0.041 C 
ATOM     13  O   UNL     1      -0.431   5.958  37.397  1.00  0.00    -0.550 OA
ATOM     14  O   UNL     1      -2.303   5.005  36.482  1.00  0.00    -0.550 OA
ENDBRANCH  11  12
ENDBRANCH  10  11
ENDBRANCH   9  10
ENDBRANCH   8   9
ENDBRANCH   1   8
TORSDOF 9
ENDMDL
MODEL 2
REMARK VINA RESULT:    -3.409      2.418      3.546
REMARK INTER + INTRA:          -6.267
REMARK INTER:                  -5.237
REMARK INTRA:                  -1.030
REMARK UNBOUND:                -1.064
REMARK SMILES O=C([O-])CCCCCCCCC(=O)[O-]
REMARK SMILES IDX 7 1 6 2 5 3 4 4 2 5 1 6 3 7 8 8 9 9 10 10 11 11 12 12 13 13
REMARK SMILES IDX 14 14
REMARK H PARENT
REMARK Flexibility Score: inf
ROOT
ATOM      1  C   UNL     1      -1.709   9.444  37.107  1.00  0.00     0.000 C 
ENDROOT
BRANCH   1   2
ATOM      2  C   UNL     1      -2.307   9.412  38.519  1.00  0.00     0.000 C 
BRANCH   2   3
ATOM      3  C   UNL     1      -2.448   7.968  39.023  1.00  0.00     0.006 C 
BRANCH   3   4
ATOM      4  C   UNL     1      -2.992   7.903  40.457  1.00  0.00     0.053 C 
BRANCH   4   5
ATOM      5  C   UNL     1      -2.411   6.753  41.221  1.00  0.00     0.041 C 
ATOM      6  O   UNL     1      -2.725   6.571  42.427  1.00  0.00    -0.550 OA
ATOM      7  O   UNL     1      -1.551   5.861  40.592  1.00  0.00    -0.550 OA
ENDBRANCH   4   5
ENDBRANCH   3   4
ENDBRANCH   2   3
ENDBRANCH   1   2
BRANCH   1   8
ATOM      8  C   UNL     1      -0.274   8.904  37.105  1.00  0.00     0.000 C 
BRANCH   8   9
ATOM      9  C   UNL     1       0.741  10.038  37.289  1.00  0.00     0.000 C 
BRANCH   9  10
ATOM     10  C   UNL     1       1.564   9.839  38.571  1.00  0.00     0.006 C 
BRANCH  10  11
ATOM     11  C   UNL     1       1.246   8.509  39.265  1.00  0.00     0.053 C 
BRANCH  11  12
ATOM     12  C   UNL     1       0.805   8.714  40.682  1.00  0.00     0.041 C 
ATOM     13  O   UNL     1       0.262   9.798  41.027  1.00  0.00    -0.550 OA
ATOM     14  O   UNL     1       1.022   7.721  41.628  1.00  0.00    -0.550 OA
ENDBRANCH  11  12
ENDBRANCH  10  11
ENDBRANCH   9  10
ENDBRANCH   8   9
ENDBRANCH   1   8
TORSDOF 9
ENDMDL
MODEL 3
REMARK VINA RESULT:    -3.374      0.175      3.997
REMARK INTER + INTRA:          -6.213
REMARK INTER:                  -5.143
REMARK INTRA:                  -1.070
REMARK UNBOUND:                -1.064
REMARK SMILES O=C([O-])CCCCCCCCC(=O)[O-]
REMARK SMILES IDX 7 1 6 2 5 3 4 4 2 5 1 6 3 7 8 8 9 9 10 10 11 11 12 12 13 13
REMARK SMILES IDX 14 14
REMARK H PARENT
REMARK Flexibility Score: inf
ROOT
ATOM      1  C   UNL     1      -2.251   9.655  38.226  1.00  0.00     0.000 C 
ENDROOT
BRANCH   1   2
ATOM      2  C   UNL     1      -1.881   9.661  36.738  1.00  0.00     0.000 C 
BRANCH   2   3
ATOM      3  C   UNL     1      -0.877   8.545  36.416  1.00  0.00     0.006 C 
BRANCH   3   4
ATOM      4  C   UNL     1      -1.545   7.336  35.747  1.00  0.00     0.053 C 
BRANCH   4   5
ATOM      5  C   UNL     1      -1.402   6.094  36.573  1.00  0.00     0.041 C 
ATOM      6  O   UNL     1      -2.154   5.105  36.363  1.00  0.00    -0.550 OA
ATOM      7  O   UNL     1      -0.418   6.015  37.549  1.00  0.00    -0.550 OA
ENDBRANCH   4   5
ENDBRANCH   3   4
ENDBRANCH   2   3
ENDBRANCH   1   2
BRANCH   1   8
ATOM      8  C   UNL     1      -1.061   9.213  39.086  1.00  0.00     0.000 C 
BRANCH   8   9
ATOM      9  C   UNL     1      -1.473   8.112  40.070  1.00  0.00     0.000 C 
BRANCH   9  10
ATOM     10  C   UNL     1      -2.988   7.865  40.019  1.00  0.00     0.006 C 
BRANCH  10  11
ATOM     11  C   UNL     1      -3.328   6.425  39.614  1.00  0.00     0.053 C 
BRANCH  11  12
ATOM     12  C   UNL     1      -2.717   5.427  40.549  1.00  0.00     0.041 C 
ATOM     13  O   UNL     1      -1.986   4.504  40.101  1.00  0.00    -0.550 OA
ATOM     14  O   UNL     1      -2.981   5.496  41.910  1.00  0.00    -0.550 OA
ENDBRANCH  11  12
ENDBRANCH  10  11
ENDBRANCH   9  10
ENDBRANCH   8   9
ENDBRANCH   1   8
TORSDOF 9
ENDMDL
MODEL 4
REMARK VINA RESULT:    -3.347      1.890      4.669
REMARK INTER + INTRA:          -6.172
REMARK INTER:                  -5.212
REMARK INTRA:                  -0.960
REMARK UNBOUND:                -1.064
REMARK SMILES O=C([O-])CCCCCCCCC(=O)[O-]
REMARK SMILES IDX 7 1 6 2 5 3 4 4 2 5 1 6 3 7 8 8 9 9 10 10 11 11 12 12 13 13
REMARK SMILES IDX 14 14
REMARK H PARENT
REMARK Flexibility Score: inf
ROOT
ATOM      1  C   UNL     1       1.386   9.417  38.414  1.00  0.00     0.000 C 
ENDROOT
BRANCH   1   2
ATOM      2  C   UNL     1       1.335   8.300  37.365  1.00  0.00     0.000 C 
BRANCH   2   3
ATOM      3  C   UNL     1       1.124   8.877  35.957  1.00  0.00     0.006 C 
BRANCH   3   4
ATOM      4  C   UNL     1      -0.335   8.766  35.496  1.00  0.00     0.053 C 
BRANCH   4   5
ATOM      5  C   UNL     1      -0.691   7.363  35.107  1.00  0.00     0.041 C 
ATOM      6  O   UNL     1      -1.655   6.776  35.667  1.00  0.00    -0.550 OA
ATOM      7  O   UNL     1       0.018   6.717  34.103  1.00  0.00    -0.550 OA
ENDBRANCH   4   5
ENDBRANCH   3   4
ENDBRANCH   2   3
ENDBRANCH   1   2
BRANCH   1   8
ATOM      8  C   UNL     1       0.180   9.340  39.358  1.00  0.00     0.000 C 
BRANCH   8   9
ATOM      9  C   UNL     1      -1.011  10.125  38.795  1.00  0.00     0.000 C 
BRANCH   9  10
ATOM     10  C   UNL     1      -2.234   9.214  38.612  1.00  0.00     0.006 C 
BRANCH  10  11
ATOM     11  C   UNL     1      -1.955   7.770  39.045  1.00  0.00     0.053 C 
BRANCH  11  12
ATOM     12  C   UNL     1      -3.025   7.246  39.952  1.00  0.00     0.041 C 
ATOM     13  O   UNL     1      -3.313   7.859  41.014  1.00  0.00    -0.550 OA
ATOM     14  O   UNL     1      -3.681   6.062  39.641  1.00  0.00    -0.550 OA
ENDBRANCH  11  12
ENDBRANCH  10  11
ENDBRANCH   9  10
ENDBRANCH   8   9
ENDBRANCH   1   8
TORSDOF 9
ENDMDL
MODEL 5
REMARK VINA RESULT:    -3.346      1.808      4.300
REMARK INTER + INTRA:          -6.170
REMARK INTER:                  -5.008
REMARK INTRA:                  -1.162
REMARK UNBOUND:                -1.064
REMARK SMILES O=C([O-])CCCCCCCCC(=O)[O-]
REMARK SMILES IDX 7 1 6 2 5 3 4 4 2 5 1 6 3 7 8 8 9 9 10 10 11 11 12 12 13 13
REMARK SMILES IDX 14 14
REMARK H PARENT
REMARK Flexibility Score: inf
ROOT
ATOM      1  C   UNL     1      -2.633   8.710  39.030  1.00  0.00     0.000 C 
ENDROOT
BRANCH   1   2
ATOM      2  C   UNL     1      -1.246   9.362  39.060  1.00  0.00     0.000 C 
BRANCH   2   3
ATOM      3  C   UNL     1      -0.604   9.352  37.664  1.00  0.00     0.006 C 
BRANCH   3   4
ATOM      4  C   UNL     1      -1.495   8.667  36.620  1.00  0.00     0.053 C 
BRANCH   4   5
ATOM      5  C   UNL     1      -0.686   8.011  35.542  1.00  0.00     0.041 C 
ATOM      6  O   UNL     1       0.434   8.485  35.214  1.00  0.00    -0.550 OA
ATOM      7  O   UNL     1      -1.151   6.856  34.926  1.00  0.00    -0.550 OA
ENDBRANCH   4   5
ENDBRANCH   3   4
ENDBRANCH   2   3
ENDBRANCH   1   2
BRANCH   1   8
ATOM      8  C   UNL     1      -2.805   7.729  40.196  1.00  0.00     0.000 C 
BRANCH   8   9
ATOM      9  C   UNL     1      -3.393   6.398  39.714  1.00  0.00     0.000 C 
BRANCH   9  10
ATOM     10  C   UNL     1      -2.309   5.312  39.635  1.00  0.00     0.006 C 
BRANCH  10  11
ATOM     11  C   UNL     1      -1.652   5.246  38.251  1.00  0.00     0.053 C 
BRANCH  11  12
ATOM     12  C   UNL     1      -0.193   5.576  38.313  1.00  0.00     0.041 C 
ATOM     13  O   UNL     1       0.578   5.223  37.381  1.00  0.00    -0.550 OA
ATOM     14  O   UNL     1       0.322   6.246  39.415  1.00  0.00    -0.550 OA
ENDBRANCH  11  12
ENDBRANCH  10  11
ENDBRANCH   9  10
ENDBRANCH   8   9
ENDBRANCH   1   8
TORSDOF 9
ENDMDL
MODEL 6
REMARK VINA RESULT:    -3.345      1.330      2.088
REMARK INTER + INTRA:          -6.169
REMARK INTER:                  -5.156
REMARK INTRA:                  -1.012
REMARK UNBOUND:                -1.064
REMARK SMILES O=C([O-])CCCCCCCCC(=O)[O-]
REMARK SMILES IDX 7 1 6 2 5 3 4 4 2 5 1 6 3 7 8 8 9 9 10 10 11 11 12 12 13 13
REMARK SMILES IDX 14 14
REMARK H PARENT
REMARK Flexibility Score: inf
ROOT
ATOM      1  C   UNL     1      -1.512   8.252  39.886  1.00  0.00     0.000 C 
ENDROOT
BRANCH   1   2
ATOM      2  C   UNL     1      -2.997   7.882  39.785  1.00  0.00     0.000 C 
BRANCH   2   3
ATOM      3  C   UNL     1      -3.181   6.357  39.745  1.00  0.00     0.006 C 
BRANCH   3   4
ATOM      4  C   UNL     1      -2.383   5.704  38.609  1.00  0.00     0.053 C 
BRANCH   4   5
ATOM      5  C   UNL     1      -1.491   4.611  39.112  1.00  0.00     0.041 C 
ATOM      6  O   UNL     1      -1.402   4.385  40.348  1.00  0.00    -0.550 OA
ATOM      7  O   UNL     1      -0.786   3.818  38.215  1.00  0.00    -0.550 OA
ENDBRANCH   4   5
ENDBRANCH   3   4
ENDBRANCH   2   3
ENDBRANCH   1   2
BRANCH   1   8
ATOM      8  C   UNL     1      -1.202   9.507  39.061  1.00  0.00     0.000 C 
BRANCH   8   9
ATOM      9  C   UNL     1      -2.200   9.671  37.910  1.00  0.00     0.000 C 
BRANCH   9  10
ATOM     10  C   UNL     1      -1.497   9.558  36.549  1.00  0.00     0.006 C 
BRANCH  10  11
ATOM     11  C   UNL     1      -1.480   8.118  36.021  1.00  0.00     0.053 C 
BRANCH  11  12
ATOM     12  C   UNL     1      -0.124   7.495  36.153  1.00  0.00     0.041 C 
ATOM     13  O   UNL     1       0.876   8.205  36.441  1.00  0.00    -0.550 OA
ATOM     14  O   UNL     1       0.040   6.135  35.927  1.00  0.00    -0.550 OA
ENDBRANCH  11  12
ENDBRANCH  10  11
ENDBRANCH   9  10
ENDBRANCH   8   9
ENDBRANCH   1   8
TORSDOF 9
ENDMDL
MODEL 7
REMARK VINA RESULT:    -3.311      2.776      5.321
REMARK INTER + INTRA:          -6.117
REMARK INTER:                  -5.253
REMARK INTRA:                  -0.864
REMARK UNBOUND:                -1.064
REMARK SMILES O=C([O-])CCCCCCCCC(=O)[O-]
REMARK SMILES IDX 7 1 6 2 5 3 4 4 2 5 1 6 3 7 8 8 9 9 10 10 11 11 12 12 13 13
REMARK SMILES IDX 14 14
REMARK H PARENT
REMARK Flexibility Score: inf
ROOT
ATOM      1  C   UNL     1      -2.412   8.052  38.853  1.00  0.00     0.000 C 
ENDROOT
BRANCH   1   2
ATOM      2  C   UNL     1      -2.265   9.534  38.485  1.00  0.00     0.000 C 
BRANCH   2   3
ATOM      3  C   UNL     1      -1.810   9.696  37.027  1.00  0.00     0.006 C 
BRANCH   3   4
ATOM      4  C   UNL     1      -0.902   8.547  36.570  1.00  0.00     0.053 C 
BRANCH   4   5
ATOM      5  C   UNL     1       0.397   9.050  36.016  1.00  0.00     0.041 C 
ATOM      6  O   UNL     1       0.700   8.829  34.814  1.00  0.00    -0.550 OA
ATOM      7  O   UNL     1       1.255   9.793  36.817  1.00  0.00    -0.550 OA
ENDBRANCH   4   5
ENDBRANCH   3   4
ENDBRANCH   2   3
ENDBRANCH   1   2
BRANCH   1   8
ATOM      8  C   UNL     1      -2.944   7.890  40.282  1.00  0.00     0.000 C 
BRANCH   8   9
ATOM      9  C   UNL     1      -1.901   7.221  41.184  1.00  0.00     0.000 C 
BRANCH   9  10
ATOM     10  C   UNL     1      -1.147   8.263  42.023  1.00  0.00     0.006 C 
BRANCH  10  11
ATOM     11  C   UNL     1       0.370   8.193  41.810  1.00  0.00     0.053 C 
BRANCH  11  12
ATOM     12  C   UNL     1       0.771   8.755  40.481  1.00  0.00     0.041 C 
ATOM     13  O   UNL     1       1.189   7.993  39.570  1.00  0.00    -0.550 OA
ATOM     14  O   UNL     1       0.711  10.125  40.259  1.00  0.00    -0.550 OA
ENDBRANCH  11  12
ENDBRANCH  10  11
ENDBRANCH   9  10
ENDBRANCH   8   9
ENDBRANCH   1   8
TORSDOF 9
ENDMDL
MODEL 8
REMARK VINA RESULT:    -3.299      2.001      3.662
REMARK INTER + INTRA:          -6.099
REMARK INTER:                  -4.998
REMARK INTRA:                  -1.101
REMARK UNBOUND:                -1.064
REMARK SMILES O=C([O-])CCCCCCCCC(=O)[O-]
REMARK SMILES IDX 7 1 6 2 5 3 4 4 2 5 1 6 3 7 8 8 9 9 10 10 11 11 12 12 13 13
REMARK SMILES IDX 14 14
REMARK H PARENT
REMARK Flexibility Score: inf
ROOT
ATOM      1  C   UNL     1      -2.764   7.454  40.699  1.00  0.00     0.000 C 
ENDROOT
BRANCH   1   2
ATOM      2  C   UNL     1      -3.337   6.448  39.694  1.00  0.00     0.000 C 
BRANCH   2   3
ATOM      3  C   UNL     1      -2.297   5.378  39.332  1.00  0.00     0.006 C 
BRANCH   3   4
ATOM      4  C   UNL     1      -1.938   5.397  37.840  1.00  0.00     0.053 C 
BRANCH   4   5
ATOM      5  C   UNL     1      -0.537   5.876  37.610  1.00  0.00     0.041 C 
ATOM      6  O   UNL     1      -0.139   6.130  36.442  1.00  0.00    -0.550 OA
ATOM      7  O   UNL     1       0.317   6.076  38.687  1.00  0.00    -0.550 OA
ENDBRANCH   4   5
ENDBRANCH   3   4
ENDBRANCH   2   3
ENDBRANCH   1   2
BRANCH   1   8
ATOM      8  C   UNL     1      -1.886   8.496  39.994  1.00  0.00     0.000 C 
BRANCH   8   9
ATOM      9  C   UNL     1      -2.560   9.012  38.719  1.00  0.00     0.000 C 
BRANCH   9  10
ATOM     10  C   UNL     1      -1.530   9.626  37.759  1.00  0.00     0.006 C 
BRANCH  10  11
ATOM     11  C   UNL     1      -0.100   9.538  38.308  1.00  0.00     0.053 C 
BRANCH  11  12
ATOM     12  C   UNL     1       0.916   9.533  37.208  1.00  0.00     0.041 C 
ATOM     13  O   UNL     1       0.554   9.393  36.009  1.00  0.00    -0.550 OA
ATOM     14  O   UNL     1       2.267   9.650  37.509  1.00  0.00    -0.550 OA
ENDBRANCH  11  12
ENDBRANCH  10  11
ENDBRANCH   9  10
ENDBRANCH   8   9
ENDBRANCH   1   8
TORSDOF 9
ENDMDL
MODEL 9
REMARK VINA RESULT:    -3.294      2.101      2.762
REMARK INTER + INTRA:          -6.091
REMARK INTER:                  -5.095
REMARK INTRA:                  -0.996
REMARK UNBOUND:                -1.064
REMARK SMILES O=C([O-])CCCCCCCCC(=O)[O-]
REMARK SMILES IDX 7 1 6 2 5 3 4 4 2 5 1 6 3 7 8 8 9 9 10 10 11 11 12 12 13 13
REMARK SMILES IDX 14 14
REMARK H PARENT
REMARK Flexibility Score: inf
ROOT
ATOM      1  C   UNL     1       1.558   9.152  38.818  1.00  0.00     0.000 C 
ENDROOT
BRANCH   1   2
ATOM      2  C   UNL     1       0.805  10.110  39.749  1.00  0.00     0.000 C 
BRANCH   2   3
ATOM      3  C   UNL     1      -0.234   9.354  40.591  1.00  0.00     0.006 C 
BRANCH   3   4
ATOM      4  C   UNL     1      -0.865   8.185  39.824  1.00  0.00     0.053 C 
BRANCH   4   5
ATOM      5  C   UNL     1      -2.308   8.440  39.511  1.00  0.00     0.041 C 
ATOM      6  O   UNL     1      -2.629   9.338  38.689  1.00  0.00    -0.550 OA
ATOM      7  O   UNL     1      -3.297   7.661  40.099  1.00  0.00    -0.550 OA
ENDBRANCH   4   5
ENDBRANCH   3   4
ENDBRANCH   2   3
ENDBRANCH   1   2
BRANCH   1   8
ATOM      8  C   UNL     1       1.772   9.782  37.437  1.00  0.00     0.000 C 
BRANCH   8   9
ATOM      9  C   UNL     1       0.432  10.083  36.755  1.00  0.00     0.000 C 
BRANCH   9  10
ATOM     10  C   UNL     1       0.151   9.082  35.624  1.00  0.00     0.006 C 
BRANCH  10  11
ATOM     11  C   UNL     1      -1.161   8.317  35.837  1.00  0.00     0.053 C 
BRANCH  11  12
ATOM     12  C   UNL     1      -0.918   6.874  36.154  1.00  0.00     0.041 C 
ATOM     13  O   UNL     1       0.075   6.537  36.854  1.00  0.00    -0.550 OA
ATOM     14  O   UNL     1      -1.768   5.898  35.651  1.00  0.00    -0.550 OA
ENDBRANCH  11  12
ENDBRANCH  10  11
ENDBRANCH   9  10
ENDBRANCH   8   9
ENDBRANCH   1   8
TORSDOF 9
ENDMDL
