MODEL 1
REMARK VINA RESULT:    -1.972      0.000      0.000
REMARK INTER + INTRA:          -1.972
REMARK INTER:                  -1.972
REMARK INTRA:                   0.000
REMARK UNBOUND:                 0.000
REMARK SMILES CC(=O)[O-]
REMARK SMILES IDX 1 1 2 2 3 3 4 4
REMARK H PARENT
REMARK Flexibility Score: inf
ROOT
ATOM      1  C   UNL     1       6.531  10.224 -13.248  1.00  0.00     0.063 C 
ATOM      2  C   UNL     1       6.645   9.005 -12.397  1.00  0.00     0.038 C 
ATOM      3  O   UNL     1       7.400   8.059 -12.744  1.00  0.00    -0.550 OA
ATOM      4  O   UNL     1       5.877   8.886 -11.245  1.00  0.00    -0.550 OA
ENDROOT
TORSDOF 0
ENDMDL
MODEL 2
REMARK VINA RESULT:    -1.952      0.106      1.622
REMARK INTER + INTRA:          -1.952
REMARK INTER:                  -1.952
REMARK INTRA:                   0.000
REMARK UNBOUND:                 0.000
REMARK SMILES CC(=O)[O-]
REMARK SMILES IDX 1 1 2 2 3 3 4 4
REMARK H PARENT
REMARK Flexibility Score: inf
ROOT
ATOM      1  C   UNL     1       6.521  10.199 -13.269  1.00  0.00     0.063 C 
ATOM      2  C   UNL     1       6.624   8.979 -12.419  1.00  0.00     0.038 C 
ATOM      3  O   UNL     1       5.989   8.909 -11.333  1.00  0.00    -0.550 OA
ATOM      4  O   UNL     1       7.463   7.938 -12.795  1.00  0.00    -0.550 OA
ENDROOT
TORSDOF 0
ENDMDL
MODEL 3
REMARK VINA RESULT:    -1.860     11.636     12.120
REMARK INTER + INTRA:          -1.860
REMARK INTER:                  -1.860
REMARK INTRA:                   0.000
REMARK UNBOUND:                 0.000
REMARK SMILES CC(=O)[O-]
REMARK SMILES IDX 1 1 2 2 3 3 4 4
REMARK H PARENT
REMARK Flexibility Score: inf
ROOT
ATOM      1  C   UNL     1      18.379  11.571 -13.499  1.00  0.00     0.063 C 
ATOM      2  C   UNL     1      18.407  10.191 -14.062  1.00  0.00     0.038 C 
ATOM      3  O   UNL     1      17.363   9.487 -14.065  1.00  0.00    -0.550 OA
ATOM      4  O   UNL     1      19.599   9.657 -14.535  1.00  0.00    -0.550 OA
ENDROOT
TORSDOF 0
ENDMDL
MODEL 4
REMARK VINA RESULT:    -1.858     11.620     12.020
REMARK INTER + INTRA:          -1.858
REMARK INTER:                  -1.858
REMARK INTRA:                   0.000
REMARK UNBOUND:                 0.000
REMARK SMILES CC(=O)[O-]
REMARK SMILES IDX 1 1 2 2 3 3 4 4
REMARK H PARENT
REMARK Flexibility Score: inf
ROOT
ATOM      1  C   UNL     1      18.401  11.581 -13.511  1.00  0.00     0.063 C 
ATOM      2  C   UNL     1      18.455  10.180 -14.017  1.00  0.00     0.038 C 
ATOM      3  O   UNL     1      19.541   9.700 -14.439  1.00  0.00    -0.550 OA
ATOM      4  O   UNL     1      17.296   9.416 -14.074  1.00  0.00    -0.550 OA
ENDROOT
TORSDOF 0
ENDMDL
MODEL 5
REMARK VINA RESULT:    -1.842     12.500     12.965
REMARK INTER + INTRA:          -1.842
REMARK INTER:                  -1.842
REMARK INTRA:                   0.000
REMARK UNBOUND:                 0.000
REMARK SMILES CC(=O)[O-]
REMARK SMILES IDX 1 1 2 2 3 3 4 4
REMARK H PARENT
REMARK Flexibility Score: inf
ROOT
ATOM      1  C   UNL     1      20.202  12.629 -14.038  1.00  0.00     0.063 C 
ATOM      2  C   UNL     1      18.949  11.845 -14.233  1.00  0.00     0.038 C 
ATOM      3  O   UNL     1      18.168  11.649 -13.264  1.00  0.00    -0.550 OA
ATOM      4  O   UNL     1      18.665  11.284 -15.472  1.00  0.00    -0.550 OA
ENDROOT
TORSDOF 0
ENDMDL
MODEL 6
REMARK VINA RESULT:    -1.839      1.378      1.755
REMARK INTER + INTRA:          -1.839
REMARK INTER:                  -1.839
REMARK INTRA:                   0.000
REMARK UNBOUND:                 0.000
REMARK SMILES CC(=O)[O-]
REMARK SMILES IDX 1 1 2 2 3 3 4 4
REMARK H PARENT
REMARK Flexibility Score: inf
ROOT
ATOM      1  C   UNL     1       5.658   8.809 -11.386  1.00  0.00     0.063 C 
ATOM      2  C   UNL     1       6.681   9.011 -12.452  1.00  0.00     0.038 C 
ATOM      3  O   UNL     1       7.491   8.089 -12.735  1.00  0.00    -0.550 OA
ATOM      4  O   UNL     1       6.779  10.237 -13.099  1.00  0.00    -0.550 OA
ENDROOT
TORSDOF 0
ENDMDL
MODEL 7
REMARK VINA RESULT:    -1.813      1.822      2.017
REMARK INTER + INTRA:          -1.813
REMARK INTER:                  -1.813
REMARK INTRA:                   0.000
REMARK UNBOUND:                 0.000
REMARK SMILES CC(=O)[O-]
REMARK SMILES IDX 1 1 2 2 3 3 4 4
REMARK H PARENT
REMARK Flexibility Score: inf
ROOT
ATOM      1  C   UNL     1       6.758   8.950 -12.459  1.00  0.00     0.063 C 
ATOM      2  C   UNL     1       5.490   9.062 -11.684  1.00  0.00     0.038 C 
ATOM      3  O   UNL     1       4.455   9.530 -12.228  1.00  0.00    -0.550 OA
ATOM      4  O   UNL     1       5.460   8.701 -10.343  1.00  0.00    -0.550 OA
ENDROOT
TORSDOF 0
ENDMDL
MODEL 8
REMARK VINA RESULT:    -1.736     26.384     26.594
REMARK INTER + INTRA:          -1.736
REMARK INTER:                  -1.736
REMARK INTRA:                   0.000
REMARK UNBOUND:                 0.000
REMARK SMILES CC(=O)[O-]
REMARK SMILES IDX 1 1 2 2 3 3 4 4
REMARK H PARENT
REMARK Flexibility Score: inf
ROOT
ATOM      1  C   UNL     1      19.874  26.105   3.358  1.00  0.00     0.063 C 
ATOM      2  C   UNL     1      19.415  27.035   2.288  1.00  0.00     0.038 C 
ATOM      3  O   UNL     1      20.250  27.554   1.500  1.00  0.00    -0.550 OA
ATOM      4  O   UNL     1      18.071  27.374   2.189  1.00  0.00    -0.550 OA
ENDROOT
TORSDOF 0
ENDMDL
MODEL 9
REMARK VINA RESULT:    -1.729     12.532     12.906
REMARK INTER + INTRA:          -1.729
REMARK INTER:                  -1.729
REMARK INTRA:                   0.000
REMARK UNBOUND:                 0.000
REMARK SMILES CC(=O)[O-]
REMARK SMILES IDX 1 1 2 2 3 3 4 4
REMARK H PARENT
REMARK Flexibility Score: inf
ROOT
ATOM      1  C   UNL     1      18.333  11.362 -13.536  1.00  0.00     0.063 C 
ATOM      2  C   UNL     1      18.834  11.789 -14.873  1.00  0.00     0.038 C 
ATOM      3  O   UNL     1      19.186  12.983 -15.066  1.00  0.00    -0.550 OA
ATOM      4  O   UNL     1      18.863  10.883 -15.927  1.00  0.00    -0.550 OA
ENDROOT
TORSDOF 0
ENDMDL
