MODEL 1
REMARK VINA RESULT:    -0.535      0.000      0.000
REMARK INTER + INTRA:          -0.659
REMARK INTER:                  -0.629
REMARK INTRA:                  -0.030
REMARK UNBOUND:                -0.030
REMARK SMILES CCCCC(=O)[O-]
REMARK SMILES IDX 4 1 5 2 6 3 7 4 3 5 2 6 1 7
REMARK H PARENT
REMARK Flexibility Score: inf
ROOT
ATOM      1  C   UNL     1     -37.391  17.272  17.748  1.00  0.00     0.053 C 
ENDROOT
BRANCH   1   2
ATOM      2  C   UNL     1     -38.618  16.482  18.077  1.00  0.00     0.041 C 
ATOM      3  O   UNL     1     -38.546  15.493  18.853  1.00  0.00    -0.550 OA
ATOM      4  O   UNL     1     -39.851  16.867  17.566  1.00  0.00    -0.550 OA
ENDBRANCH   1   2
BRANCH   1   5
ATOM      5  C   UNL     1     -36.230  16.333  17.392  1.00  0.00     0.006 C 
BRANCH   5   6
ATOM      6  C   UNL     1     -34.930  17.093  17.091  1.00  0.00    -0.003 C 
ATOM      7  C   UNL     1     -34.828  18.415  17.850  1.00  0.00     0.004 C 
ENDBRANCH   5   6
ENDBRANCH   1   5
TORSDOF 3
ENDMDL
MODEL 2
REMARK VINA RESULT:    -0.432      2.669      3.959
REMARK INTER + INTRA:          -0.538
REMARK INTER:                  -0.517
REMARK INTRA:                  -0.021
REMARK UNBOUND:                -0.030
REMARK SMILES CCCCC(=O)[O-]
REMARK SMILES IDX 4 1 5 2 6 3 7 4 3 5 2 6 1 7
REMARK H PARENT
REMARK Flexibility Score: inf
ROOT
ATOM      1  C   UNL     1     -36.818  17.496  17.746  1.00  0.00     0.053 C 
ENDROOT
BRANCH   1   2
ATOM      2  C   UNL     1     -35.352  17.513  17.451  1.00  0.00     0.041 C 
ATOM      3  O   UNL     1     -34.860  16.688  16.638  1.00  0.00    -0.550 OA
ATOM      4  O   UNL     1     -34.536  18.472  18.037  1.00  0.00    -0.550 OA
ENDBRANCH   1   2
BRANCH   1   5
ATOM      5  C   UNL     1     -37.338  16.053  17.793  1.00  0.00     0.006 C 
BRANCH   5   6
ATOM      6  C   UNL     1     -38.722  15.946  18.451  1.00  0.00    -0.003 C 
ATOM      7  C   UNL     1     -39.783  16.782  17.737  1.00  0.00     0.004 C 
ENDBRANCH   5   6
ENDBRANCH   1   5
TORSDOF 3
ENDMDL
MODEL 3
REMARK VINA RESULT:    -0.405      0.131      1.230
REMARK INTER + INTRA:          -0.507
REMARK INTER:                  -0.470
REMARK INTRA:                  -0.036
REMARK UNBOUND:                -0.030
REMARK SMILES CCCCC(=O)[O-]
REMARK SMILES IDX 4 1 5 2 6 3 7 4 3 5 2 6 1 7
REMARK H PARENT
REMARK Flexibility Score: inf
ROOT
ATOM      1  C   UNL     1     -37.427  17.339  17.716  1.00  0.00     0.053 C 
ENDROOT
BRANCH   1   2
ATOM      2  C   UNL     1     -38.656  16.570  18.082  1.00  0.00     0.041 C 
ATOM      3  O   UNL     1     -39.767  16.871  17.571  1.00  0.00    -0.550 OA
ATOM      4  O   UNL     1     -38.568  15.488  18.947  1.00  0.00    -0.550 OA
ENDBRANCH   1   2
BRANCH   1   5
ATOM      5  C   UNL     1     -36.308  16.384  17.280  1.00  0.00     0.006 C 
BRANCH   5   6
ATOM      6  C   UNL     1     -34.923  17.048  17.304  1.00  0.00    -0.003 C 
ATOM      7  C   UNL     1     -34.955  18.462  17.883  1.00  0.00     0.004 C 
ENDBRANCH   5   6
ENDBRANCH   1   5
TORSDOF 3
ENDMDL
MODEL 4
REMARK VINA RESULT:     2.179      3.106      3.712
REMARK INTER + INTRA:           2.531
REMARK INTER:                   2.547
REMARK INTRA:                  -0.016
REMARK UNBOUND:                -0.030
REMARK SMILES CCCCC(=O)[O-]
REMARK SMILES IDX 4 1 5 2 6 3 7 4 3 5 2 6 1 7
REMARK H PARENT
REMARK Flexibility Score: inf
ROOT
ATOM      1  C   UNL     1     -34.985  16.061  16.796  1.00  0.00     0.053 C 
ENDROOT
BRANCH   1   2
ATOM      2  C   UNL     1     -35.671  17.186  17.504  1.00  0.00     0.041 C 
ATOM      3  O   UNL     1     -35.018  18.199  17.866  1.00  0.00    -0.550 OA
ATOM      4  O   UNL     1     -37.042  17.138  17.720  1.00  0.00    -0.550 OA
ENDBRANCH   1   2
BRANCH   1   5
ATOM      5  C   UNL     1     -34.436  15.047  17.808  1.00  0.00     0.006 C 
BRANCH   5   6
ATOM      6  C   UNL     1     -33.695  13.883  17.133  1.00  0.00    -0.003 C 
ATOM      7  C   UNL     1     -33.007  12.959  18.137  1.00  0.00     0.004 C 
ENDBRANCH   5   6
ENDBRANCH   1   5
TORSDOF 3
ENDMDL
