MODEL 1
REMARK VINA RESULT:    -5.598      0.000      0.000
REMARK INTER + INTRA:          -6.179
REMARK INTER:                  -6.089
REMARK INTRA:                  -0.090
REMARK UNBOUND:                -0.090
REMARK SMILES Cc1ccc(C(C)C)c(O)c1
REMARK SMILES IDX 1 1 2 2 11 3 9 4 5 5 4 6 3 7 10 8 6 10 7 11 8 12
REMARK H PARENT 10 9
REMARK Flexibility Score: inf
ROOT
ATOM      1  C   UNL     1     115.355  52.160  -0.405  1.00  0.00     0.044 C 
ATOM      2  C   UNL     1     116.253  52.163  -1.606  1.00  0.00    -0.047 A 
ATOM      3  C   UNL     1     117.137  53.228  -1.823  1.00  0.00     0.049 A 
ATOM      4  C   UNL     1     118.007  53.224  -2.924  1.00  0.00     0.119 A 
ATOM      5  C   UNL     1     118.005  52.130  -3.823  1.00  0.00    -0.004 A 
ATOM      6  C   UNL     1     117.126  51.058  -3.581  1.00  0.00     0.008 A 
ATOM      7  C   UNL     1     116.264  51.073  -2.482  1.00  0.00     0.004 A 
ENDROOT
BRANCH   4   8
ATOM      8  O   UNL     1     118.868  54.303  -3.117  1.00  0.00    -0.508 OA
ATOM      9  H   UNL     1     118.621  55.083  -3.715  1.00  0.00     0.293 HD
ENDBRANCH   4   8
BRANCH   5  10
ATOM     10  C   UNL     1     118.925  52.068  -5.035  1.00  0.00     0.017 C 
ATOM     11  C   UNL     1     118.507  53.069  -6.118  1.00  0.00     0.012 C 
ATOM     12  C   UNL     1     119.035  50.644  -5.595  1.00  0.00     0.012 C 
ENDBRANCH   5  10
TORSDOF 2
ENDMDL
MODEL 2
REMARK VINA RESULT:    -5.433      1.815      4.558
REMARK INTER + INTRA:          -5.999
REMARK INTER:                  -5.805
REMARK INTRA:                  -0.194
REMARK UNBOUND:                -0.090
REMARK SMILES Cc1ccc(C(C)C)c(O)c1
REMARK SMILES IDX 1 1 2 2 11 3 9 4 5 5 4 6 3 7 10 8 6 10 7 11 8 12
REMARK H PARENT 10 9
REMARK Flexibility Score: inf
ROOT
ATOM      1  C   UNL     1     118.767  53.001  -5.927  1.00  0.00     0.044 C 
ATOM      2  C   UNL     1     118.149  52.689  -4.595  1.00  0.00    -0.047 A 
ATOM      3  C   UNL     1     117.557  51.440  -4.368  1.00  0.00     0.049 A 
ATOM      4  C   UNL     1     117.010  51.125  -3.115  1.00  0.00     0.119 A 
ATOM      5  C   UNL     1     117.062  52.070  -2.062  1.00  0.00    -0.004 A 
ATOM      6  C   UNL     1     117.678  53.313  -2.299  1.00  0.00     0.008 A 
ATOM      7  C   UNL     1     118.220  53.616  -3.550  1.00  0.00     0.004 A 
ENDROOT
BRANCH   4   8
ATOM      8  O   UNL     1     116.420  49.877  -2.923  1.00  0.00    -0.508 OA
ATOM      9  H   UNL     1     116.528  49.126  -3.594  1.00  0.00     0.293 HD
ENDBRANCH   4   8
BRANCH   5  10
ATOM     10  C   UNL     1     116.486  51.787  -0.681  1.00  0.00     0.017 C 
ATOM     11  C   UNL     1     115.141  52.492  -0.470  1.00  0.00     0.012 C 
ATOM     12  C   UNL     1     117.482  52.126   0.434  1.00  0.00     0.012 C 
ENDBRANCH   5  10
TORSDOF 2
ENDMDL
MODEL 3
REMARK VINA RESULT:    -5.199      1.816      2.676
REMARK INTER + INTRA:          -5.745
REMARK INTER:                  -5.813
REMARK INTRA:                   0.068
REMARK UNBOUND:                -0.090
REMARK SMILES Cc1ccc(C(C)C)c(O)c1
REMARK SMILES IDX 1 1 2 2 11 3 9 4 5 5 4 6 3 7 10 8 6 10 7 11 8 12
REMARK H PARENT 10 9
REMARK Flexibility Score: inf
ROOT
ATOM      1  C   UNL     1     114.333  49.886  -0.856  1.00  0.00     0.044 C 
ATOM      2  C   UNL     1     115.417  50.598  -1.610  1.00  0.00    -0.047 A 
ATOM      3  C   UNL     1     116.005  50.001  -2.733  1.00  0.00     0.049 A 
ATOM      4  C   UNL     1     116.993  50.675  -3.467  1.00  0.00     0.119 A 
ATOM      5  C   UNL     1     117.398  51.976  -3.082  1.00  0.00    -0.004 A 
ATOM      6  C   UNL     1     116.784  52.571  -1.964  1.00  0.00     0.008 A 
ATOM      7  C   UNL     1     115.801  51.892  -1.240  1.00  0.00     0.004 A 
ENDROOT
BRANCH   4   8
ATOM      8  O   UNL     1     117.565  50.050  -4.573  1.00  0.00    -0.508 OA
ATOM      9  H   UNL     1     118.517  50.243  -4.863  1.00  0.00     0.293 HD
ENDBRANCH   4   8
BRANCH   5  10
ATOM     10  C   UNL     1     118.465  52.756  -3.837  1.00  0.00     0.017 C 
ATOM     11  C   UNL     1     118.809  54.075  -3.136  1.00  0.00     0.012 C 
ATOM     12  C   UNL     1     118.075  52.981  -5.303  1.00  0.00     0.012 C 
ENDBRANCH   5  10
TORSDOF 2
ENDMDL
MODEL 4
REMARK VINA RESULT:    -5.074      1.024      4.082
REMARK INTER + INTRA:          -5.608
REMARK INTER:                  -5.421
REMARK INTRA:                  -0.188
REMARK UNBOUND:                -0.090
REMARK SMILES Cc1ccc(C(C)C)c(O)c1
REMARK SMILES IDX 1 1 2 2 11 3 9 4 5 5 4 6 3 7 10 8 6 10 7 11 8 12
REMARK H PARENT 10 9
REMARK Flexibility Score: inf
ROOT
ATOM      1  C   UNL     1     118.273  50.562  -6.125  1.00  0.00     0.044 C 
ATOM      2  C   UNL     1     117.826  51.042  -4.775  1.00  0.00    -0.047 A 
ATOM      3  C   UNL     1     118.210  52.308  -4.314  1.00  0.00     0.049 A 
ATOM      4  C   UNL     1     117.767  52.781  -3.070  1.00  0.00     0.119 A 
ATOM      5  C   UNL     1     116.914  51.982  -2.272  1.00  0.00    -0.004 A 
ATOM      6  C   UNL     1     116.520  50.721  -2.757  1.00  0.00     0.008 A 
ATOM      7  C   UNL     1     116.966  50.259  -3.997  1.00  0.00     0.004 A 
ENDROOT
BRANCH   4   8
ATOM      8  O   UNL     1     118.175  54.041  -2.635  1.00  0.00    -0.508 OA
ATOM      9  H   UNL     1     117.716  54.515  -1.866  1.00  0.00     0.293 HD
ENDBRANCH   4   8
BRANCH   5  10
ATOM     10  C   UNL     1     116.400  52.440  -0.913  1.00  0.00     0.017 C 
ATOM     11  C   UNL     1     117.399  52.128   0.208  1.00  0.00     0.012 C 
ATOM     12  C   UNL     1     115.011  51.869  -0.606  1.00  0.00     0.012 C 
ENDBRANCH   5  10
TORSDOF 2
ENDMDL
MODEL 5
REMARK VINA RESULT:    -4.315      3.451      4.673
REMARK INTER + INTRA:          -4.784
REMARK INTER:                  -4.592
REMARK INTRA:                  -0.192
REMARK UNBOUND:                -0.090
REMARK SMILES Cc1ccc(C(C)C)c(O)c1
REMARK SMILES IDX 1 1 2 2 11 3 9 4 5 5 4 6 3 7 10 8 6 10 7 11 8 12
REMARK H PARENT 10 9
REMARK Flexibility Score: inf
ROOT
ATOM      1  C   UNL     1     120.618  49.875   2.136  1.00  0.00     0.044 C 
ATOM      2  C   UNL     1     119.617  50.473   1.192  1.00  0.00    -0.047 A 
ATOM      3  C   UNL     1     119.546  50.031  -0.135  1.00  0.00     0.049 A 
ATOM      4  C   UNL     1     118.588  50.558  -1.015  1.00  0.00     0.119 A 
ATOM      5  C   UNL     1     117.674  51.538  -0.561  1.00  0.00    -0.004 A 
ATOM      6  C   UNL     1     117.744  51.958   0.780  1.00  0.00     0.008 A 
ATOM      7  C   UNL     1     118.701  51.427   1.648  1.00  0.00     0.004 A 
ENDROOT
BRANCH   4   8
ATOM      8  O   UNL     1     118.550  50.104  -2.332  1.00  0.00    -0.508 OA
ATOM      9  H   UNL     1     118.373  50.730  -3.108  1.00  0.00     0.293 HD
ENDBRANCH   4   8
BRANCH   5  10
ATOM     10  C   UNL     1     116.613  52.147  -1.468  1.00  0.00     0.017 C 
ATOM     11  C   UNL     1     117.153  53.353  -2.245  1.00  0.00     0.012 C 
ATOM     12  C   UNL     1     115.336  52.500  -0.696  1.00  0.00     0.012 C 
ENDBRANCH   5  10
TORSDOF 2
ENDMDL
MODEL 6
REMARK VINA RESULT:    -4.264      2.652      4.669
REMARK INTER + INTRA:          -4.728
REMARK INTER:                  -4.532
REMARK INTRA:                  -0.196
REMARK UNBOUND:                -0.090
REMARK SMILES Cc1ccc(C(C)C)c(O)c1
REMARK SMILES IDX 1 1 2 2 11 3 9 4 5 5 4 6 3 7 10 8 6 10 7 11 8 12
REMARK H PARENT 10 9
REMARK Flexibility Score: inf
ROOT
ATOM      1  C   UNL     1     117.804  51.001  -4.876  1.00  0.00     0.044 C 
ATOM      2  C   UNL     1     117.774  51.176  -3.386  1.00  0.00    -0.047 A 
ATOM      3  C   UNL     1     116.610  51.628  -2.753  1.00  0.00     0.049 A 
ATOM      4  C   UNL     1     116.560  51.760  -1.357  1.00  0.00     0.119 A 
ATOM      5  C   UNL     1     117.690  51.425  -0.573  1.00  0.00    -0.004 A 
ATOM      6  C   UNL     1     118.846  50.953  -1.222  1.00  0.00     0.008 A 
ATOM      7  C   UNL     1     118.886  50.825  -2.612  1.00  0.00     0.004 A 
ENDROOT
BRANCH   4   8
ATOM      8  O   UNL     1     115.389  52.221  -0.757  1.00  0.00    -0.508 OA
ATOM      9  H   UNL     1     114.820  51.625  -0.168  1.00  0.00     0.293 HD
ENDBRANCH   4   8
BRANCH   5  10
ATOM     10  C   UNL     1     117.697  51.547   0.945  1.00  0.00     0.017 C 
ATOM     11  C   UNL     1     118.393  52.832   1.409  1.00  0.00     0.012 C 
ATOM     12  C   UNL     1     118.298  50.306   1.614  1.00  0.00     0.012 C 
ENDBRANCH   5  10
TORSDOF 2
ENDMDL
MODEL 7
REMARK VINA RESULT:    -4.238      9.458     10.248
REMARK INTER + INTRA:          -4.700
REMARK INTER:                  -4.503
REMARK INTRA:                  -0.197
REMARK UNBOUND:                -0.090
REMARK SMILES Cc1ccc(C(C)C)c(O)c1
REMARK SMILES IDX 1 1 2 2 11 3 9 4 5 5 4 6 3 7 10 8 6 10 7 11 8 12
REMARK H PARENT 10 9
REMARK Flexibility Score: inf
ROOT
ATOM      1  C   UNL     1     127.115  55.463   4.348  1.00  0.00     0.044 C 
ATOM      2  C   UNL     1     126.703  55.416   2.906  1.00  0.00    -0.047 A 
ATOM      3  C   UNL     1     126.330  56.590   2.240  1.00  0.00     0.049 A 
ATOM      4  C   UNL     1     125.979  56.562   0.882  1.00  0.00     0.119 A 
ATOM      5  C   UNL     1     126.011  55.340   0.168  1.00  0.00    -0.004 A 
ATOM      6  C   UNL     1     126.407  54.171   0.845  1.00  0.00     0.008 A 
ATOM      7  C   UNL     1     126.754  54.211   2.198  1.00  0.00     0.004 A 
ENDROOT
BRANCH   4   8
ATOM      8  O   UNL     1     125.603  57.746   0.250  1.00  0.00    -0.508 OA
ATOM      9  H   UNL     1     124.637  58.046   0.210  1.00  0.00     0.293 HD
ENDBRANCH   4   8
BRANCH   5  10
ATOM     10  C   UNL     1     125.640  55.245  -1.306  1.00  0.00     0.017 C 
ATOM     11  C   UNL     1     124.852  53.967  -1.614  1.00  0.00     0.012 C 
ATOM     12  C   UNL     1     126.870  55.383  -2.212  1.00  0.00     0.012 C 
ENDBRANCH   5  10
TORSDOF 2
ENDMDL
MODEL 8
REMARK VINA RESULT:    -4.127      8.181      9.090
REMARK INTER + INTRA:          -4.579
REMARK INTER:                  -4.382
REMARK INTRA:                  -0.197
REMARK UNBOUND:                -0.090
REMARK SMILES Cc1ccc(C(C)C)c(O)c1
REMARK SMILES IDX 1 1 2 2 11 3 9 4 5 5 4 6 3 7 10 8 6 10 7 11 8 12
REMARK H PARENT 10 9
REMARK Flexibility Score: inf
ROOT
ATOM      1  C   UNL     1     125.973  57.111   0.624  1.00  0.00     0.044 C 
ATOM      2  C   UNL     1     125.869  55.729   0.049  1.00  0.00    -0.047 A 
ATOM      3  C   UNL     1     126.441  54.641   0.721  1.00  0.00     0.049 A 
ATOM      4  C   UNL     1     126.318  53.339   0.211  1.00  0.00     0.119 A 
ATOM      5  C   UNL     1     125.601  53.114  -0.989  1.00  0.00    -0.004 A 
ATOM      6  C   UNL     1     125.015  54.214  -1.642  1.00  0.00     0.008 A 
ATOM      7  C   UNL     1     125.143  55.506  -1.126  1.00  0.00     0.004 A 
ENDROOT
BRANCH   4   8
ATOM      8  O   UNL     1     126.906  52.279   0.899  1.00  0.00    -0.508 OA
ATOM      9  H   UNL     1     127.237  51.450   0.420  1.00  0.00     0.293 HD
ENDBRANCH   4   8
BRANCH   5  10
ATOM     10  C   UNL     1     125.434  51.726  -1.592  1.00  0.00     0.017 C 
ATOM     11  C   UNL     1     125.630  51.739  -3.112  1.00  0.00     0.012 C 
ATOM     12  C   UNL     1     124.094  51.092  -1.201  1.00  0.00     0.012 C 
ENDBRANCH   5  10
TORSDOF 2
ENDMDL
MODEL 9
REMARK VINA RESULT:    -3.536      1.688      2.465
REMARK INTER + INTRA:          -3.936
REMARK INTER:                  -3.760
REMARK INTRA:                  -0.176
REMARK UNBOUND:                -0.090
REMARK SMILES Cc1ccc(C(C)C)c(O)c1
REMARK SMILES IDX 1 1 2 2 11 3 9 4 5 5 4 6 3 7 10 8 6 10 7 11 8 12
REMARK H PARENT 10 9
REMARK Flexibility Score: inf
ROOT
ATOM      1  C   UNL     1     116.820  52.118   0.025  1.00  0.00     0.044 C 
ATOM      2  C   UNL     1     117.234  52.109  -1.418  1.00  0.00    -0.047 A 
ATOM      3  C   UNL     1     116.876  51.038  -2.247  1.00  0.00     0.049 A 
ATOM      4  C   UNL     1     117.226  51.038  -3.606  1.00  0.00     0.119 A 
ATOM      5  C   UNL     1     117.939  52.131  -4.154  1.00  0.00    -0.004 A 
ATOM      6  C   UNL     1     118.275  53.208  -3.313  1.00  0.00     0.008 A 
ATOM      7  C   UNL     1     117.921  53.199  -1.961  1.00  0.00     0.004 A 
ENDROOT
BRANCH   4   8
ATOM      8  O   UNL     1     116.863  49.953  -4.403  1.00  0.00    -0.508 OA
ATOM      9  H   UNL     1     116.330  49.175  -4.035  1.00  0.00     0.293 HD
ENDBRANCH   4   8
BRANCH   5  10
ATOM     10  C   UNL     1     118.348  52.187  -5.620  1.00  0.00     0.017 C 
ATOM     11  C   UNL     1     119.635  51.396  -5.883  1.00  0.00     0.012 C 
ATOM     12  C   UNL     1     118.460  53.631  -6.125  1.00  0.00     0.012 C 
ENDBRANCH   5  10
TORSDOF 2
ENDMDL
