MODEL 1
REMARK VINA RESULT:    -4.894      0.000      0.000
REMARK INTER + INTRA:         -11.472
REMARK INTER:                  -8.899
REMARK INTRA:                  -2.573
REMARK UNBOUND:                -2.573
REMARK SMILES CCCCCCCCCCCCCC[C@H](C)C(=O)[O-]
REMARK SMILES IDX 9 1 10 2 11 3 12 4 13 5 14 6 15 7 16 8 17 9 18 10 19 11 8 12
REMARK SMILES IDX 7 13 6 14 5 15 4 16 3 17 2 18 1 19
REMARK H PARENT
REMARK Flexibility Score: inf
ROOT
ATOM      1  C   UNL     1      20.243  19.533  49.006  1.00  0.00     0.000 C 
ENDROOT
BRANCH   1   2
ATOM      2  C   UNL     1      20.032  20.254  47.669  1.00  0.00     0.000 C 
BRANCH   2   3
ATOM      3  C   UNL     1      18.576  20.705  47.509  1.00  0.00     0.000 C 
BRANCH   3   4
ATOM      4  C   UNL     1      18.110  20.552  46.053  1.00  0.00     0.000 C 
BRANCH   4   5
ATOM      5  C   UNL     1      19.255  20.183  45.096  1.00  0.00     0.001 C 
BRANCH   5   6
ATOM      6  C   UNL     1      18.816  19.742  43.685  1.00  0.00     0.009 C 
BRANCH   6   7
ATOM      7  C   UNL     1      17.386  19.137  43.633  1.00  0.00     0.032 C 
ATOM      8  C   UNL     1      17.390  17.709  43.071  1.00  0.00     0.014 C 
BRANCH   7   9
ATOM      9  C   UNL     1      16.480  19.993  42.788  1.00  0.00     0.044 C 
ATOM     10  O   UNL     1      15.405  19.521  42.333  1.00  0.00    -0.550 OA
ATOM     11  O   UNL     1      16.824  21.309  42.504  1.00  0.00    -0.550 OA
ENDBRANCH   7   9
ENDBRANCH   6   7
ENDBRANCH   5   6
ENDBRANCH   4   5
ENDBRANCH   3   4
ENDBRANCH   2   3
ENDBRANCH   1   2
BRANCH   1  12
ATOM     12  C   UNL     1      21.002  18.212  48.804  1.00  0.00     0.000 C 
BRANCH  12  13
ATOM     13  C   UNL     1      20.996  17.742  47.340  1.00  0.00    -0.000 C 
BRANCH  13  14
ATOM     14  C   UNL     1      20.118  16.497  47.124  1.00  0.00    -0.000 C 
BRANCH  14  15
ATOM     15  C   UNL     1      18.813  16.818  46.376  1.00  0.00    -0.000 C 
BRANCH  15  16
ATOM     16  C   UNL     1      17.623  17.033  47.323  1.00  0.00    -0.000 C 
BRANCH  16  17
ATOM     17  C   UNL     1      16.354  16.367  46.770  1.00  0.00    -0.000 C 
BRANCH  17  18
ATOM     18  C   UNL     1      16.665  15.253  45.758  1.00  0.00    -0.003 C 
ATOM     19  C   UNL     1      16.426  13.854  46.326  1.00  0.00     0.004 C 
ENDBRANCH  17  18
ENDBRANCH  16  17
ENDBRANCH  15  16
ENDBRANCH  14  15
ENDBRANCH  13  14
ENDBRANCH  12  13
ENDBRANCH   1  12
TORSDOF 14
ENDMDL
MODEL 2
REMARK VINA RESULT:    -4.779      3.725      6.592
REMARK INTER + INTRA:         -11.263
REMARK INTER:                  -8.945
REMARK INTRA:                  -2.318
REMARK UNBOUND:                -2.573
REMARK SMILES CCCCCCCCCCCCCC[C@H](C)C(=O)[O-]
REMARK SMILES IDX 9 1 10 2 11 3 12 4 13 5 14 6 15 7 16 8 17 9 18 10 19 11 8 12
REMARK SMILES IDX 7 13 6 14 5 15 4 16 3 17 2 18 1 19
REMARK H PARENT
REMARK Flexibility Score: inf
ROOT
ATOM      1  C   UNL     1      16.742  17.519  45.265  1.00  0.00     0.000 C 
ENDROOT
BRANCH   1   2
ATOM      2  C   UNL     1      16.762  17.525  46.799  1.00  0.00     0.000 C 
BRANCH   2   3
ATOM      3  C   UNL     1      18.171  17.239  47.332  1.00  0.00     0.000 C 
BRANCH   3   4
ATOM      4  C   UNL     1      18.859  16.143  46.505  1.00  0.00     0.000 C 
BRANCH   4   5
ATOM      5  C   UNL     1      20.297  15.859  46.970  1.00  0.00     0.001 C 
BRANCH   5   6
ATOM      6  C   UNL     1      21.005  17.037  47.670  1.00  0.00     0.009 C 
BRANCH   6   7
ATOM      7  C   UNL     1      22.229  16.614  48.528  1.00  0.00     0.032 C 
ATOM      8  C   UNL     1      22.813  15.271  48.069  1.00  0.00     0.014 C 
BRANCH   7   9
ATOM      9  C   UNL     1      21.845  16.509  49.980  1.00  0.00     0.044 C 
ATOM     10  O   UNL     1      20.687  16.834  50.355  1.00  0.00    -0.550 OA
ATOM     11  O   UNL     1      22.765  16.054  50.917  1.00  0.00    -0.550 OA
ENDBRANCH   7   9
ENDBRANCH   6   7
ENDBRANCH   5   6
ENDBRANCH   4   5
ENDBRANCH   3   4
ENDBRANCH   2   3
ENDBRANCH   1   2
BRANCH   1  12
ATOM     12  C   UNL     1      16.712  18.951  44.710  1.00  0.00     0.000 C 
BRANCH  12  13
ATOM     13  C   UNL     1      17.932  19.274  43.832  1.00  0.00    -0.000 C 
BRANCH  13  14
ATOM     14  C   UNL     1      18.849  20.336  44.463  1.00  0.00    -0.000 C 
BRANCH  14  15
ATOM     15  C   UNL     1      19.892  19.725  45.415  1.00  0.00    -0.000 C 
BRANCH  15  16
ATOM     16  C   UNL     1      20.126  20.581  46.669  1.00  0.00    -0.000 C 
BRANCH  16  17
ATOM     17  C   UNL     1      18.824  20.753  47.466  1.00  0.00    -0.000 C 
BRANCH  17  18
ATOM     18  C   UNL     1      19.075  21.031  48.956  1.00  0.00    -0.003 C 
ATOM     19  C   UNL     1      20.210  20.185  49.533  1.00  0.00     0.004 C 
ENDBRANCH  17  18
ENDBRANCH  16  17
ENDBRANCH  15  16
ENDBRANCH  14  15
ENDBRANCH  13  14
ENDBRANCH  12  13
ENDBRANCH   1  12
TORSDOF 14
ENDMDL
MODEL 3
REMARK VINA RESULT:    -4.736      1.616      4.337
REMARK INTER + INTRA:         -11.186
REMARK INTER:                  -8.730
REMARK INTRA:                  -2.456
REMARK UNBOUND:                -2.573
REMARK SMILES CCCCCCCCCCCCCC[C@H](C)C(=O)[O-]
REMARK SMILES IDX 9 1 10 2 11 3 12 4 13 5 14 6 15 7 16 8 17 9 18 10 19 11 8 12
REMARK SMILES IDX 7 13 6 14 5 15 4 16 3 17 2 18 1 19
REMARK H PARENT
REMARK Flexibility Score: inf
ROOT
ATOM      1  C   UNL     1      20.994  17.809  47.525  1.00  0.00     0.000 C 
ENDROOT
BRANCH   1   2
ATOM      2  C   UNL     1      20.782  16.290  47.556  1.00  0.00     0.000 C 
BRANCH   2   3
ATOM      3  C   UNL     1      19.540  15.890  46.752  1.00  0.00     0.000 C 
BRANCH   3   4
ATOM      4  C   UNL     1      18.748  17.130  46.311  1.00  0.00     0.000 C 
BRANCH   4   5
ATOM      5  C   UNL     1      17.387  17.250  47.016  1.00  0.00     0.001 C 
BRANCH   5   6
ATOM      6  C   UNL     1      16.199  17.598  46.096  1.00  0.00     0.009 C 
BRANCH   6   7
ATOM      7  C   UNL     1      15.372  16.363  45.645  1.00  0.00     0.032 C 
ATOM      8  C   UNL     1      15.766  15.097  46.417  1.00  0.00     0.014 C 
BRANCH   7   9
ATOM      9  C   UNL     1      15.554  16.114  44.171  1.00  0.00     0.044 C 
ATOM     10  O   UNL     1      16.450  15.326  43.767  1.00  0.00    -0.550 OA
ATOM     11  O   UNL     1      14.735  16.750  43.246  1.00  0.00    -0.550 OA
ENDBRANCH   7   9
ENDBRANCH   6   7
ENDBRANCH   5   6
ENDBRANCH   4   5
ENDBRANCH   3   4
ENDBRANCH   2   3
ENDBRANCH   1   2
BRANCH   1  12
ATOM     12  C   UNL     1      20.987  18.394  48.945  1.00  0.00     0.000 C 
BRANCH  12  13
ATOM     13  C   UNL     1      20.144  19.675  49.057  1.00  0.00    -0.000 C 
BRANCH  13  14
ATOM     14  C   UNL     1      19.934  20.363  47.696  1.00  0.00    -0.000 C 
BRANCH  14  15
ATOM     15  C   UNL     1      18.476  20.802  47.477  1.00  0.00    -0.000 C 
BRANCH  15  16
ATOM     16  C   UNL     1      18.132  20.997  45.992  1.00  0.00    -0.000 C 
BRANCH  16  17
ATOM     17  C   UNL     1      19.301  20.560  45.096  1.00  0.00    -0.000 C 
BRANCH  17  18
ATOM     18  C   UNL     1      18.831  19.869  43.807  1.00  0.00    -0.003 C 
ATOM     19  C   UNL     1      17.354  20.122  43.504  1.00  0.00     0.004 C 
ENDBRANCH  17  18
ENDBRANCH  16  17
ENDBRANCH  15  16
ENDBRANCH  14  15
ENDBRANCH  13  14
ENDBRANCH  12  13
ENDBRANCH   1  12
TORSDOF 14
ENDMDL
MODEL 4
REMARK VINA RESULT:    -4.674      1.213      2.697
REMARK INTER + INTRA:         -11.072
REMARK INTER:                  -8.629
REMARK INTRA:                  -2.443
REMARK UNBOUND:                -2.573
REMARK SMILES CCCCCCCCCCCCCC[C@H](C)C(=O)[O-]
REMARK SMILES IDX 9 1 10 2 11 3 12 4 13 5 14 6 15 7 16 8 17 9 18 10 19 11 8 12
REMARK SMILES IDX 7 13 6 14 5 15 4 16 3 17 2 18 1 19
REMARK H PARENT
REMARK Flexibility Score: inf
ROOT
ATOM      1  C   UNL     1      21.014  17.847  47.539  1.00  0.00     0.000 C 
ENDROOT
BRANCH   1   2
ATOM      2  C   UNL     1      20.838  18.171  49.027  1.00  0.00     0.000 C 
BRANCH   2   3
ATOM      3  C   UNL     1      20.269  19.581  49.221  1.00  0.00     0.000 C 
BRANCH   3   4
ATOM      4  C   UNL     1      20.070  20.284  47.869  1.00  0.00     0.000 C 
BRANCH   4   5
ATOM      5  C   UNL     1      18.613  20.707  47.625  1.00  0.00     0.001 C 
BRANCH   5   6
ATOM      6  C   UNL     1      18.361  21.464  46.305  1.00  0.00     0.009 C 
BRANCH   6   7
ATOM      7  C   UNL     1      17.947  20.545  45.124  1.00  0.00     0.032 C 
ATOM      8  C   UNL     1      19.163  19.890  44.455  1.00  0.00     0.014 C 
BRANCH   7   9
ATOM      9  C   UNL     1      17.182  21.327  44.089  1.00  0.00     0.044 C 
ATOM     10  O   UNL     1      15.922  21.338  44.106  1.00  0.00    -0.550 OA
ATOM     11  O   UNL     1      17.859  22.041  43.108  1.00  0.00    -0.550 OA
ENDBRANCH   7   9
ENDBRANCH   6   7
ENDBRANCH   5   6
ENDBRANCH   4   5
ENDBRANCH   3   4
ENDBRANCH   2   3
ENDBRANCH   1   2
BRANCH   1  12
ATOM     12  C   UNL     1      20.310  16.530  47.176  1.00  0.00     0.000 C 
BRANCH  12  13
ATOM     13  C   UNL     1      18.990  16.751  46.418  1.00  0.00    -0.000 C 
BRANCH  13  14
ATOM     14  C   UNL     1      17.833  17.144  47.352  1.00  0.00    -0.000 C 
BRANCH  14  15
ATOM     15  C   UNL     1      16.537  17.459  46.586  1.00  0.00    -0.000 C 
BRANCH  15  16
ATOM     16  C   UNL     1      15.911  16.214  45.939  1.00  0.00    -0.000 C 
BRANCH  16  17
ATOM     17  C   UNL     1      15.310  16.553  44.567  1.00  0.00    -0.000 C 
BRANCH  17  18
ATOM     18  C   UNL     1      16.091  17.655  43.835  1.00  0.00    -0.003 C 
ATOM     19  C   UNL     1      17.144  17.097  42.877  1.00  0.00     0.004 C 
ENDBRANCH  17  18
ENDBRANCH  16  17
ENDBRANCH  15  16
ENDBRANCH  14  15
ENDBRANCH  13  14
ENDBRANCH  12  13
ENDBRANCH   1  12
TORSDOF 14
ENDMDL
MODEL 5
REMARK VINA RESULT:    -4.661      3.839      5.893
REMARK INTER + INTRA:         -11.048
REMARK INTER:                  -8.804
REMARK INTRA:                  -2.244
REMARK UNBOUND:                -2.573
REMARK SMILES CCCCCCCCCCCCCC[C@H](C)C(=O)[O-]
REMARK SMILES IDX 9 1 10 2 11 3 12 4 13 5 14 6 15 7 16 8 17 9 18 10 19 11 8 12
REMARK SMILES IDX 7 13 6 14 5 15 4 16 3 17 2 18 1 19
REMARK H PARENT
REMARK Flexibility Score: inf
ROOT
ATOM      1  C   UNL     1      19.488  20.704  46.353  1.00  0.00     0.000 C 
ENDROOT
BRANCH   1   2
ATOM      2  C   UNL     1      18.902  20.090  47.630  1.00  0.00     0.000 C 
BRANCH   2   3
ATOM      3  C   UNL     1      19.957  19.270  48.382  1.00  0.00     0.000 C 
BRANCH   3   4
ATOM      4  C   UNL     1      20.879  18.530  47.401  1.00  0.00     0.000 C 
BRANCH   4   5
ATOM      5  C   UNL     1      20.361  17.129  47.036  1.00  0.00     0.001 C 
BRANCH   5   6
ATOM      6  C   UNL     1      21.048  15.962  47.773  1.00  0.00     0.009 C 
BRANCH   6   7
ATOM      7  C   UNL     1      22.189  16.407  48.729  1.00  0.00     0.032 C 
ATOM      8  C   UNL     1      23.491  15.641  48.460  1.00  0.00     0.014 C 
BRANCH   7   9
ATOM      9  C   UNL     1      21.787  16.201  50.165  1.00  0.00     0.044 C 
ATOM     10  O   UNL     1      21.442  17.184  50.874  1.00  0.00    -0.550 OA
ATOM     11  O   UNL     1      21.793  14.926  50.718  1.00  0.00    -0.550 OA
ENDBRANCH   7   9
ENDBRANCH   6   7
ENDBRANCH   5   6
ENDBRANCH   4   5
ENDBRANCH   3   4
ENDBRANCH   2   3
ENDBRANCH   1   2
BRANCH   1  12
ATOM     12  C   UNL     1      18.397  21.406  45.530  1.00  0.00     0.000 C 
BRANCH  12  13
ATOM     13  C   UNL     1      18.472  21.066  44.032  1.00  0.00    -0.000 C 
BRANCH  13  14
ATOM     14  C   UNL     1      18.850  19.597  43.779  1.00  0.00    -0.000 C 
BRANCH  14  15
ATOM     15  C   UNL     1      17.619  18.688  43.626  1.00  0.00    -0.000 C 
BRANCH  15  16
ATOM     16  C   UNL     1      17.572  17.569  44.678  1.00  0.00    -0.000 C 
BRANCH  16  17
ATOM     17  C   UNL     1      16.678  17.967  45.862  1.00  0.00    -0.000 C 
BRANCH  17  18
ATOM     18  C   UNL     1      16.671  16.911  46.979  1.00  0.00    -0.003 C 
ATOM     19  C   UNL     1      17.118  15.533  46.492  1.00  0.00     0.004 C 
ENDBRANCH  17  18
ENDBRANCH  16  17
ENDBRANCH  15  16
ENDBRANCH  14  15
ENDBRANCH  13  14
ENDBRANCH  12  13
ENDBRANCH   1  12
TORSDOF 14
ENDMDL
MODEL 6
REMARK VINA RESULT:    -4.620      4.493      7.296
REMARK INTER + INTRA:         -10.974
REMARK INTER:                  -8.925
REMARK INTRA:                  -2.049
REMARK UNBOUND:                -2.573
REMARK SMILES CCCCCCCCCCCCCC[C@H](C)C(=O)[O-]
REMARK SMILES IDX 9 1 10 2 11 3 12 4 13 5 14 6 15 7 16 8 17 9 18 10 19 11 8 12
REMARK SMILES IDX 7 13 6 14 5 15 4 16 3 17 2 18 1 19
REMARK H PARENT
REMARK Flexibility Score: inf
ROOT
ATOM      1  C   UNL     1      17.725  17.053  47.219  1.00  0.00     0.000 C 
ENDROOT
BRANCH   1   2
ATOM      2  C   UNL     1      18.387  15.899  46.454  1.00  0.00     0.000 C 
BRANCH   2   3
ATOM      3  C   UNL     1      19.877  15.794  46.796  1.00  0.00     0.000 C 
BRANCH   3   4
ATOM      4  C   UNL     1      20.389  17.097  47.430  1.00  0.00     0.000 C 
BRANCH   4   5
ATOM      5  C   UNL     1      21.821  16.974  47.974  1.00  0.00     0.001 C 
BRANCH   5   6
ATOM      6  C   UNL     1      22.201  15.581  48.515  1.00  0.00     0.009 C 
BRANCH   6   7
ATOM      7  C   UNL     1      22.126  15.467  50.062  1.00  0.00     0.032 C 
ATOM      8  C   UNL     1      21.538  16.731  50.702  1.00  0.00     0.014 C 
BRANCH   7   9
ATOM      9  C   UNL     1      23.494  15.216  50.640  1.00  0.00     0.044 C 
ATOM     10  O   UNL     1      23.868  15.832  51.673  1.00  0.00    -0.550 OA
ATOM     11  O   UNL     1      24.352  14.303  50.039  1.00  0.00    -0.550 OA
ENDBRANCH   7   9
ENDBRANCH   6   7
ENDBRANCH   5   6
ENDBRANCH   4   5
ENDBRANCH   3   4
ENDBRANCH   2   3
ENDBRANCH   1   2
BRANCH   1  12
ATOM     12  C   UNL     1      16.912  17.946  46.269  1.00  0.00     0.000 C 
BRANCH  12  13
ATOM     13  C   UNL     1      17.577  18.110  44.893  1.00  0.00    -0.000 C 
BRANCH  13  14
ATOM     14  C   UNL     1      18.659  19.204  44.887  1.00  0.00    -0.000 C 
BRANCH  14  15
ATOM     15  C   UNL     1      18.068  20.620  44.997  1.00  0.00    -0.000 C 
BRANCH  15  16
ATOM     16  C   UNL     1      18.748  21.465  46.085  1.00  0.00    -0.000 C 
BRANCH  16  17
ATOM     17  C   UNL     1      19.648  20.593  46.973  1.00  0.00    -0.000 C 
BRANCH  17  18
ATOM     18  C   UNL     1      19.115  20.463  48.409  1.00  0.00    -0.003 C 
ATOM     19  C   UNL     1      20.218  20.167  49.425  1.00  0.00     0.004 C 
ENDBRANCH  17  18
ENDBRANCH  16  17
ENDBRANCH  15  16
ENDBRANCH  14  15
ENDBRANCH  13  14
ENDBRANCH  12  13
ENDBRANCH   1  12
TORSDOF 14
ENDMDL
MODEL 7
REMARK VINA RESULT:    -4.614      1.355      4.324
REMARK INTER + INTRA:         -10.964
REMARK INTER:                  -9.030
REMARK INTRA:                  -1.934
REMARK UNBOUND:                -2.573
REMARK SMILES CCCCCCCCCCCCCC[C@H](C)C(=O)[O-]
REMARK SMILES IDX 9 1 10 2 11 3 12 4 13 5 14 6 15 7 16 8 17 9 18 10 19 11 8 12
REMARK SMILES IDX 7 13 6 14 5 15 4 16 3 17 2 18 1 19
REMARK H PARENT
REMARK Flexibility Score: inf
ROOT
ATOM      1  C   UNL     1      17.080  15.133  46.493  1.00  0.00     0.000 C 
ENDROOT
BRANCH   1   2
ATOM      2  C   UNL     1      16.809  16.593  46.877  1.00  0.00     0.000 C 
BRANCH   2   3
ATOM      3  C   UNL     1      15.773  17.226  45.940  1.00  0.00     0.000 C 
BRANCH   3   4
ATOM      4  C   UNL     1      16.403  18.352  45.106  1.00  0.00     0.000 C 
BRANCH   4   5
ATOM      5  C   UNL     1      17.616  18.999  45.796  1.00  0.00     0.001 C 
BRANCH   5   6
ATOM      6  C   UNL     1      18.720  19.503  44.845  1.00  0.00     0.009 C 
BRANCH   6   7
ATOM      7  C   UNL     1      18.739  21.046  44.667  1.00  0.00     0.032 C 
ATOM      8  C   UNL     1      17.915  21.757  45.748  1.00  0.00     0.014 C 
BRANCH   7   9
ATOM      9  C   UNL     1      18.202  21.428  43.313  1.00  0.00     0.044 C 
ATOM     10  O   UNL     1      18.667  22.430  42.707  1.00  0.00    -0.550 OA
ATOM     11  O   UNL     1      17.192  20.679  42.722  1.00  0.00    -0.550 OA
ENDBRANCH   7   9
ENDBRANCH   6   7
ENDBRANCH   5   6
ENDBRANCH   4   5
ENDBRANCH   3   4
ENDBRANCH   2   3
ENDBRANCH   1   2
BRANCH   1  12
ATOM     12  C   UNL     1      18.554  14.931  46.111  1.00  0.00     0.000 C 
BRANCH  12  13
ATOM     13  C   UNL     1      19.445  16.112  46.532  1.00  0.00    -0.000 C 
BRANCH  13  14
ATOM     14  C   UNL     1      20.702  15.661  47.295  1.00  0.00    -0.000 C 
BRANCH  14  15
ATOM     15  C   UNL     1      21.394  16.821  48.031  1.00  0.00    -0.000 C 
BRANCH  15  16
ATOM     16  C   UNL     1      20.810  18.192  47.660  1.00  0.00    -0.000 C 
BRANCH  16  17
ATOM     17  C   UNL     1      20.622  19.065  48.911  1.00  0.00    -0.000 C 
BRANCH  17  18
ATOM     18  C   UNL     1      19.913  20.393  48.604  1.00  0.00    -0.003 C 
ATOM     19  C   UNL     1      19.534  21.166  49.867  1.00  0.00     0.004 C 
ENDBRANCH  17  18
ENDBRANCH  16  17
ENDBRANCH  15  16
ENDBRANCH  14  15
ENDBRANCH  13  14
ENDBRANCH  12  13
ENDBRANCH   1  12
TORSDOF 14
ENDMDL
MODEL 8
REMARK VINA RESULT:    -4.576      4.256      6.269
REMARK INTER + INTRA:         -10.894
REMARK INTER:                  -8.478
REMARK INTRA:                  -2.415
REMARK UNBOUND:                -2.573
REMARK SMILES CCCCCCCCCCCCCC[C@H](C)C(=O)[O-]
REMARK SMILES IDX 9 1 10 2 11 3 12 4 13 5 14 6 15 7 16 8 17 9 18 10 19 11 8 12
REMARK SMILES IDX 7 13 6 14 5 15 4 16 3 17 2 18 1 19
REMARK H PARENT
REMARK Flexibility Score: inf
ROOT
ATOM      1  C   UNL     1      19.114  20.528  47.428  1.00  0.00     0.000 C 
ENDROOT
BRANCH   1   2
ATOM      2  C   UNL     1      19.849  19.395  48.155  1.00  0.00     0.000 C 
BRANCH   2   3
ATOM      3  C   UNL     1      20.770  18.631  47.196  1.00  0.00     0.000 C 
BRANCH   3   4
ATOM      4  C   UNL     1      21.776  17.768  47.972  1.00  0.00     0.000 C 
BRANCH   4   5
ATOM      5  C   UNL     1      21.120  16.955  49.101  1.00  0.00     0.001 C 
BRANCH   5   6
ATOM      6  C   UNL     1      21.740  15.567  49.356  1.00  0.00     0.009 C 
BRANCH   6   7
ATOM      7  C   UNL     1      22.346  14.906  48.088  1.00  0.00     0.032 C 
ATOM      8  C   UNL     1      21.592  13.629  47.692  1.00  0.00     0.014 C 
BRANCH   7   9
ATOM      9  C   UNL     1      23.796  14.570  48.308  1.00  0.00     0.044 C 
ATOM     10  O   UNL     1      24.467  15.191  49.175  1.00  0.00    -0.550 OA
ATOM     11  O   UNL     1      24.406  13.571  47.558  1.00  0.00    -0.550 OA
ENDBRANCH   7   9
ENDBRANCH   6   7
ENDBRANCH   5   6
ENDBRANCH   4   5
ENDBRANCH   3   4
ENDBRANCH   2   3
ENDBRANCH   1   2
BRANCH   1  12
ATOM     12  C   UNL     1      19.781  20.839  46.079  1.00  0.00     0.000 C 
BRANCH  12  13
ATOM     13  C   UNL     1      18.764  21.171  44.976  1.00  0.00    -0.000 C 
BRANCH  13  14
ATOM     14  C   UNL     1      18.621  20.038  43.944  1.00  0.00    -0.000 C 
BRANCH  14  15
ATOM     15  C   UNL     1      17.427  19.116  44.241  1.00  0.00    -0.000 C 
BRANCH  15  16
ATOM     16  C   UNL     1      17.844  17.808  44.931  1.00  0.00    -0.000 C 
BRANCH  16  17
ATOM     17  C   UNL     1      17.075  17.613  46.247  1.00  0.00    -0.000 C 
BRANCH  17  18
ATOM     18  C   UNL     1      17.682  16.511  47.129  1.00  0.00    -0.003 C 
ATOM     19  C   UNL     1      18.738  15.683  46.397  1.00  0.00     0.004 C 
ENDBRANCH  17  18
ENDBRANCH  16  17
ENDBRANCH  15  16
ENDBRANCH  14  15
ENDBRANCH  13  14
ENDBRANCH  12  13
ENDBRANCH   1  12
TORSDOF 14
ENDMDL
MODEL 9
REMARK VINA RESULT:    -4.544      2.048      3.804
REMARK INTER + INTRA:         -10.836
REMARK INTER:                  -8.700
REMARK INTRA:                  -2.136
REMARK UNBOUND:                -2.573
REMARK SMILES CCCCCCCCCCCCCC[C@H](C)C(=O)[O-]
REMARK SMILES IDX 9 1 10 2 11 3 12 4 13 5 14 6 15 7 16 8 17 9 18 10 19 11 8 12
REMARK SMILES IDX 7 13 6 14 5 15 4 16 3 17 2 18 1 19
REMARK H PARENT
REMARK Flexibility Score: inf
ROOT
ATOM      1  C   UNL     1      19.500  20.023  48.075  1.00  0.00     0.000 C 
ENDROOT
BRANCH   1   2
ATOM      2  C   UNL     1      18.358  20.806  47.415  1.00  0.00     0.000 C 
BRANCH   2   3
ATOM      3  C   UNL     1      18.742  21.254  46.001  1.00  0.00     0.000 C 
BRANCH   3   4
ATOM      4  C   UNL     1      17.780  20.666  44.957  1.00  0.00     0.000 C 
BRANCH   4   5
ATOM      5  C   UNL     1      18.379  19.468  44.202  1.00  0.00     0.001 C 
BRANCH   5   6
ATOM      6  C   UNL     1      17.872  18.085  44.658  1.00  0.00     0.009 C 
BRANCH   6   7
ATOM      7  C   UNL     1      16.639  18.147  45.601  1.00  0.00     0.032 C 
ATOM      8  C   UNL     1      16.864  17.345  46.890  1.00  0.00     0.014 C 
BRANCH   7   9
ATOM      9  C   UNL     1      15.413  17.620  44.904  1.00  0.00     0.044 C 
ATOM     10  O   UNL     1      15.477  16.564  44.220  1.00  0.00    -0.550 OA
ATOM     11  O   UNL     1      14.202  18.294  45.010  1.00  0.00    -0.550 OA
ENDBRANCH   7   9
ENDBRANCH   6   7
ENDBRANCH   5   6
ENDBRANCH   4   5
ENDBRANCH   3   4
ENDBRANCH   2   3
ENDBRANCH   1   2
BRANCH   1  12
ATOM     12  C   UNL     1      20.661  19.813  47.092  1.00  0.00     0.000 C 
BRANCH  12  13
ATOM     13  C   UNL     1      21.356  18.453  47.274  1.00  0.00    -0.000 C 
BRANCH  13  14
ATOM     14  C   UNL     1      20.359  17.282  47.317  1.00  0.00    -0.000 C 
BRANCH  14  15
ATOM     15  C   UNL     1      21.045  15.933  47.589  1.00  0.00    -0.000 C 
BRANCH  15  16
ATOM     16  C   UNL     1      22.236  16.054  48.552  1.00  0.00    -0.000 C 
BRANCH  16  17
ATOM     17  C   UNL     1      22.130  15.023  49.686  1.00  0.00    -0.000 C 
BRANCH  17  18
ATOM     18  C   UNL     1      21.929  15.676  51.062  1.00  0.00    -0.003 C 
ATOM     19  C   UNL     1      21.296  17.064  50.971  1.00  0.00     0.004 C 
ENDBRANCH  17  18
ENDBRANCH  16  17
ENDBRANCH  15  16
ENDBRANCH  14  15
ENDBRANCH  13  14
ENDBRANCH  12  13
ENDBRANCH   1  12
TORSDOF 14
ENDMDL
