MODEL 1
REMARK VINA RESULT:    -3.944      0.000      0.000
REMARK INTER + INTRA:          -4.844
REMARK INTER:                  -6.019
REMARK INTRA:                   1.174
REMARK UNBOUND:                 1.174
REMARK SMILES CC1=CCC[C@H](C)C(=O)C[C@@H](C(C)C)C(=O)C1
REMARK SMILES IDX 8 1 9 2 6 3 7 4 5 5 4 6 3 7 2 8 1 9 10 11 11 12 15 13 16 14
REMARK SMILES IDX 17 15 12 17 13 18 14 19
REMARK H PARENT
REMARK Flexibility Score: 70.00
ROOT
ATOM      1  C   UNL     1       2.704 144.179  -8.114  1.00  0.00     0.136 C 
ATOM      2  O   UNL     1       2.479 144.902  -9.075  1.00  0.00    -0.299 OA
ENDROOT
BRANCH   1   3
ATOM      3  C   UNL     1       3.095 142.730  -8.379  1.00  0.00     0.053 C 
ATOM      4  C   UNL     1       2.011 141.885  -9.075  1.00  0.00     0.016 C 
BRANCH   3   5
ATOM      5  C   UNL     1       4.452 142.620  -9.119  1.00  0.00     0.015 C 
BRANCH   5   6
ATOM      6  C   UNL     1       5.633 143.318  -8.409  1.00  0.00     0.028 C 
BRANCH   6   7
ATOM      7  C   UNL     1       5.804 144.742  -8.893  1.00  0.00    -0.028 C 
ATOM      8  C   UNL     1       5.646 145.864  -8.152  1.00  0.00    -0.070 CG0
ATOM      9  C   UNL     1       5.845 147.195  -8.833  1.00  0.00     0.039 C 
ATOM     10  G   UNL     1       5.328 145.851  -6.671  1.00  0.00     0.000 G0
ENDBRANCH   6   7
ENDBRANCH   5   6
ENDBRANCH   3   5
ENDBRANCH   1   3
BRANCH   1  11
ATOM     11  C   UNL     1       2.616 144.794  -6.729  1.00  0.00     0.087 C 
BRANCH  11  12
ATOM     12  C   UNL     1       2.746 146.339  -6.737  1.00  0.00     0.066 C 
BRANCH  12  13
ATOM     13  C   UNL     1       4.161 146.743  -6.362  1.00  0.00     0.140 C 
ATOM     14  O   UNL     1       4.357 147.824  -5.824  1.00  0.00    -0.299 OA
BRANCH  13  15
ATOM     15  C   UNL     1       5.335 145.851  -6.663  1.00  0.00     0.106 CG0
ATOM     16  G   UNL     1       5.627 145.846  -8.149  1.00  0.00     0.000 G0
ENDBRANCH  13  15
ENDBRANCH  12  13
BRANCH  12  17
ATOM     17  C   UNL     1       1.718 147.023  -5.782  1.00  0.00    -0.006 C 
ATOM     18  C   UNL     1       0.282 146.515  -6.010  1.00  0.00     0.008 C 
ATOM     19  C   UNL     1       1.735 148.554  -5.949  1.00  0.00     0.008 C 
ENDBRANCH  12  17
ENDBRANCH  11  12
ENDBRANCH   1  11
TORSDOF 1
ENDMDL
MODEL 2
REMARK VINA RESULT:    -3.214      0.955      1.447
REMARK INTER + INTRA:          -3.730
REMARK INTER:                  -4.300
REMARK INTRA:                   0.570
REMARK UNBOUND:                 1.174
REMARK SMILES CC1=CCC[C@H](C)C(=O)C[C@@H](C(C)C)C(=O)C1
REMARK SMILES IDX 8 1 9 2 6 3 7 4 5 5 4 6 3 7 2 8 1 9 10 11 11 12 15 13 16 14
REMARK SMILES IDX 17 15 12 17 13 18 14 19
REMARK H PARENT
REMARK Flexibility Score: 70.00
ROOT
ATOM      1  C   UNL     1       2.792 144.314  -8.180  1.00  0.00     0.136 C 
ATOM      2  O   UNL     1       2.824 145.098  -9.118  1.00  0.00    -0.299 OA
ENDROOT
BRANCH   1   3
ATOM      3  C   UNL     1       3.316 142.900  -8.406  1.00  0.00     0.053 C 
ATOM      4  C   UNL     1       2.334 141.953  -9.121  1.00  0.00     0.016 C 
BRANCH   3   5
ATOM      5  C   UNL     1       4.703 142.898  -9.099  1.00  0.00     0.015 C 
BRANCH   5   6
ATOM      6  C   UNL     1       5.643 144.045  -8.668  1.00  0.00     0.028 C 
BRANCH   6   7
ATOM      7  C   UNL     1       5.993 143.949  -7.198  1.00  0.00    -0.028 C 
ATOM      8  C   UNL     1       5.845 144.928  -6.275  1.00  0.00    -0.070 CG0
ATOM      9  C   UNL     1       6.274 144.634  -4.859  1.00  0.00     0.039 C 
ATOM     10  G   UNL     1       5.232 146.279  -6.578  1.00  0.00     0.000 G0
ENDBRANCH   6   7
ENDBRANCH   5   6
ENDBRANCH   3   5
ENDBRANCH   1   3
BRANCH   1  11
ATOM     11  C   UNL     1       2.271 144.823  -6.848  1.00  0.00     0.087 C 
BRANCH  11  12
ATOM     12  C   UNL     1       2.575 146.323  -6.606  1.00  0.00     0.066 C 
BRANCH  12  13
ATOM     13  C   UNL     1       3.899 146.473  -5.878  1.00  0.00     0.140 C 
ATOM     14  O   UNL     1       3.906 146.775  -4.693  1.00  0.00    -0.299 OA
BRANCH  13  15
ATOM     15  C   UNL     1       5.210 146.285  -6.593  1.00  0.00     0.106 CG0
ATOM     16  G   UNL     1       5.797 144.926  -6.274  1.00  0.00     0.000 G0
ENDBRANCH  13  15
ENDBRANCH  12  13
BRANCH  12  17
ATOM     17  C   UNL     1       1.437 147.035  -5.808  1.00  0.00    -0.006 C 
ATOM     18  C   UNL     1       0.038 146.545  -6.224  1.00  0.00     0.008 C 
ATOM     19  C   UNL     1       1.502 148.564  -5.990  1.00  0.00     0.008 C 
ENDBRANCH  12  17
ENDBRANCH  11  12
ENDBRANCH   1  11
TORSDOF 1
ENDMDL
MODEL 3
REMARK VINA RESULT:    -3.020      1.541      3.645
REMARK INTER + INTRA:          -3.435
REMARK INTER:                  -5.573
REMARK INTRA:                   2.137
REMARK UNBOUND:                 1.174
REMARK SMILES CC1=CCC[C@H](C)C(=O)C[C@@H](C(C)C)C(=O)C1
REMARK SMILES IDX 8 1 9 2 6 3 7 4 5 5 4 6 3 7 2 8 1 9 10 11 11 12 15 13 16 14
REMARK SMILES IDX 17 15 12 17 13 18 14 19
REMARK H PARENT
REMARK Flexibility Score: 70.00
ROOT
ATOM      1  C   UNL     1       4.916 146.203  -6.854  1.00  0.00     0.136 C 
ATOM      2  O   UNL     1       5.406 147.139  -6.238  1.00  0.00    -0.299 OA
ENDROOT
BRANCH   1   3
ATOM      3  C   UNL     1       5.431 145.918  -8.260  1.00  0.00     0.053 C 
ATOM      4  C   UNL     1       6.201 147.081  -8.914  1.00  0.00     0.016 C 
BRANCH   3   5
ATOM      5  C   UNL     1       6.242 144.600  -8.327  1.00  0.00     0.015 C 
BRANCH   5   6
ATOM      6  C   UNL     1       5.563 143.462  -9.121  1.00  0.00     0.028 C 
BRANCH   6   7
ATOM      7  C   UNL     1       4.640 142.649  -8.239  1.00  0.00    -0.028 C 
ATOM      8  C   UNL     1       3.301 142.810  -8.119  1.00  0.00    -0.070 CG0
ATOM      9  C   UNL     1       2.563 141.902  -7.167  1.00  0.00     0.039 C 
ATOM     10  G   UNL     1       2.504 143.817  -8.922  1.00  0.00     0.000 G0
ENDBRANCH   6   7
ENDBRANCH   5   6
ENDBRANCH   3   5
ENDBRANCH   1   3
BRANCH   1  11
ATOM     11  C   UNL     1       3.860 145.368  -6.152  1.00  0.00     0.087 C 
BRANCH  11  12
ATOM     12  C   UNL     1       2.474 145.430  -6.841  1.00  0.00     0.066 C 
BRANCH  12  13
ATOM     13  C   UNL     1       2.626 145.202  -8.335  1.00  0.00     0.140 C 
ATOM     14  O   UNL     1       2.828 146.157  -9.073  1.00  0.00    -0.299 OA
BRANCH  13  15
ATOM     15  C   UNL     1       2.507 143.827  -8.933  1.00  0.00     0.106 CG0
ATOM     16  G   UNL     1       3.282 142.822  -8.106  1.00  0.00     0.000 G0
ENDBRANCH  13  15
ENDBRANCH  12  13
BRANCH  12  17
ATOM     17  C   UNL     1       1.741 146.782  -6.573  1.00  0.00    -0.006 C 
ATOM     18  C   UNL     1       2.324 147.531  -5.361  1.00  0.00     0.008 C 
ATOM     19  C   UNL     1       0.233 146.563  -6.342  1.00  0.00     0.008 C 
ENDBRANCH  12  17
ENDBRANCH  11  12
ENDBRANCH   1  11
TORSDOF 1
ENDMDL
MODEL 4
REMARK VINA RESULT:    -2.649      1.758      4.845
REMARK INTER + INTRA:          -2.868
REMARK INTER:                  -3.674
REMARK INTRA:                   0.805
REMARK UNBOUND:                 1.174
REMARK SMILES CC1=CCC[C@H](C)C(=O)C[C@@H](C(C)C)C(=O)C1
REMARK SMILES IDX 8 1 9 2 6 3 7 4 5 5 4 6 3 7 2 8 1 9 10 11 11 12 15 13 16 14
REMARK SMILES IDX 17 15 12 17 13 18 14 19
REMARK H PARENT
REMARK Flexibility Score: 70.00
ROOT
ATOM      1  C   UNL     1       5.590 145.102  -6.726  1.00  0.00     0.136 C 
ATOM      2  O   UNL     1       6.445 144.853  -5.887  1.00  0.00    -0.299 OA
ENDROOT
BRANCH   1   3
ATOM      3  C   UNL     1       5.704 146.409  -7.502  1.00  0.00     0.053 C 
ATOM      4  C   UNL     1       5.949 146.244  -9.013  1.00  0.00     0.016 C 
BRANCH   3   5
ATOM      5  C   UNL     1       4.506 147.354  -7.227  1.00  0.00     0.015 C 
BRANCH   5   6
ATOM      6  C   UNL     1       3.913 147.251  -5.805  1.00  0.00     0.028 C 
BRANCH   6   7
ATOM      7  C   UNL     1       2.406 147.383  -5.824  1.00  0.00    -0.028 C 
ATOM      8  C   UNL     1       1.521 146.408  -6.139  1.00  0.00    -0.070 CG0
ATOM      9  C   UNL     1       0.053 146.752  -6.115  1.00  0.00     0.039 C 
ATOM     10  G   UNL     1       1.924 144.985  -6.464  1.00  0.00     0.000 G0
ENDBRANCH   6   7
ENDBRANCH   5   6
ENDBRANCH   3   5
ENDBRANCH   1   3
BRANCH   1  11
ATOM     11  C   UNL     1       4.503 144.069  -6.958  1.00  0.00     0.087 C 
BRANCH  11  12
ATOM     12  C   UNL     1       3.687 144.321  -8.252  1.00  0.00     0.066 C 
BRANCH  12  13
ATOM     13  C   UNL     1       2.313 144.865  -7.901  1.00  0.00     0.140 C 
ATOM     14  O   UNL     1       1.564 145.234  -8.795  1.00  0.00    -0.299 OA
BRANCH  13  15
ATOM     15  C   UNL     1       1.862 144.986  -6.470  1.00  0.00     0.106 CG0
ATOM     16  G   UNL     1       1.521 146.425  -6.144  1.00  0.00     0.000 G0
ENDBRANCH  13  15
ENDBRANCH  12  13
BRANCH  12  17
ATOM     17  C   UNL     1       3.551 143.034  -9.125  1.00  0.00    -0.006 C 
ATOM     18  C   UNL     1       2.402 142.125  -8.650  1.00  0.00     0.008 C 
ATOM     19  C   UNL     1       4.860 142.220  -9.125  1.00  0.00     0.008 C 
ENDBRANCH  12  17
ENDBRANCH  11  12
ENDBRANCH   1  11
TORSDOF 1
ENDMDL
MODEL 5
REMARK VINA RESULT:    -1.790      1.983      4.883
REMARK INTER + INTRA:          -1.557
REMARK INTER:                  -3.890
REMARK INTRA:                   2.333
REMARK UNBOUND:                 1.174
REMARK SMILES CC1=CCC[C@H](C)C(=O)C[C@@H](C(C)C)C(=O)C1
REMARK SMILES IDX 8 1 9 2 6 3 7 4 5 5 4 6 3 7 2 8 1 9 10 11 11 12 15 13 16 14
REMARK SMILES IDX 17 15 12 17 13 18 14 19
REMARK H PARENT
REMARK Flexibility Score: 70.00
ROOT
ATOM      1  C   UNL     1       5.069 145.852  -8.154  1.00  0.00     0.136 C 
ATOM      2  O   UNL     1       6.161 146.140  -8.626  1.00  0.00    -0.299 OA
ENDROOT
BRANCH   1   3
ATOM      3  C   UNL     1       4.958 145.691  -6.642  1.00  0.00     0.053 C 
ATOM      4  C   UNL     1       6.093 144.875  -5.994  1.00  0.00     0.016 C 
BRANCH   3   5
ATOM      5  C   UNL     1       4.765 147.052  -5.926  1.00  0.00     0.015 C 
BRANCH   5   6
ATOM      6  C   UNL     1       3.603 147.910  -6.471  1.00  0.00     0.028 C 
BRANCH   6   7
ATOM      7  C   UNL     1       2.333 147.689  -5.677  1.00  0.00    -0.028 C 
ATOM      8  C   UNL     1       1.252 146.980  -6.078  1.00  0.00    -0.070 CG0
ATOM      9  C   UNL     1       0.075 146.895  -5.139  1.00  0.00     0.039 C 
ATOM     10  G   UNL     1       1.182 146.233  -7.394  1.00  0.00     0.000 G0
ENDBRANCH   6   7
ENDBRANCH   5   6
ENDBRANCH   3   5
ENDBRANCH   1   3
BRANCH   1  11
ATOM     11  C   UNL     1       3.897 145.718  -9.110  1.00  0.00     0.087 C 
BRANCH  11  12
ATOM     12  C   UNL     1       2.869 144.645  -8.669  1.00  0.00     0.066 C 
BRANCH  12  13
ATOM     13  C   UNL     1       2.187 145.077  -7.383  1.00  0.00     0.140 C 
ATOM     14  O   UNL     1       2.446 144.495  -6.338  1.00  0.00    -0.299 OA
BRANCH  13  15
ATOM     15  C   UNL     1       1.175 146.190  -7.370  1.00  0.00     0.106 CG0
ATOM     16  G   UNL     1       1.273 146.979  -6.081  1.00  0.00     0.000 G0
ENDBRANCH  13  15
ENDBRANCH  12  13
BRANCH  12  17
ATOM     17  C   UNL     1       3.524 143.239  -8.488  1.00  0.00    -0.006 C 
ATOM     18  C   UNL     1       4.924 143.161  -9.125  1.00  0.00     0.008 C 
ATOM     19  C   UNL     1       2.641 142.131  -9.094  1.00  0.00     0.008 C 
ENDBRANCH  12  17
ENDBRANCH  11  12
ENDBRANCH   1  11
TORSDOF 1
ENDMDL
MODEL 6
REMARK VINA RESULT:    -1.557      1.619      3.966
REMARK INTER + INTRA:          -1.203
REMARK INTER:                  -2.580
REMARK INTRA:                   1.377
REMARK UNBOUND:                 1.174
REMARK SMILES CC1=CCC[C@H](C)C(=O)C[C@@H](C(C)C)C(=O)C1
REMARK SMILES IDX 8 1 9 2 6 3 7 4 5 5 4 6 3 7 2 8 1 9 10 11 11 12 15 13 16 14
REMARK SMILES IDX 17 15 12 17 13 18 14 19
REMARK H PARENT
REMARK Flexibility Score: 70.00
ROOT
ATOM      1  C   UNL     1       3.654 146.136  -5.224  1.00  0.00     0.136 C 
ATOM      2  O   UNL     1       3.369 146.356  -4.055  1.00  0.00    -0.299 OA
ENDROOT
BRANCH   1   3
ATOM      3  C   UNL     1       4.096 147.310  -6.090  1.00  0.00     0.053 C 
ATOM      4  C   UNL     1       4.087 148.676  -5.380  1.00  0.00     0.016 C 
BRANCH   3   5
ATOM      5  C   UNL     1       5.459 147.044  -6.778  1.00  0.00     0.015 C 
BRANCH   5   6
ATOM      6  C   UNL     1       5.360 146.517  -8.227  1.00  0.00     0.028 C 
BRANCH   6   7
ATOM      7  C   UNL     1       5.909 145.111  -8.341  1.00  0.00    -0.028 C 
ATOM      8  C   UNL     1       5.202 143.999  -8.649  1.00  0.00    -0.070 CG0
ATOM      9  C   UNL     1       5.939 142.684  -8.694  1.00  0.00     0.039 C 
ATOM     10  G   UNL     1       3.728 144.013  -8.993  1.00  0.00     0.000 G0
ENDBRANCH   6   7
ENDBRANCH   5   6
ENDBRANCH   3   5
ENDBRANCH   1   3
BRANCH   1  11
ATOM     11  C   UNL     1       3.587 144.700  -5.712  1.00  0.00     0.087 C 
BRANCH  11  12
ATOM     12  C   UNL     1       2.439 144.452  -6.724  1.00  0.00     0.066 C 
BRANCH  12  13
ATOM     13  C   UNL     1       2.906 143.505  -7.816  1.00  0.00     0.140 C 
ATOM     14  O   UNL     1       2.639 142.314  -7.737  1.00  0.00    -0.299 OA
BRANCH  13  15
ATOM     15  C   UNL     1       3.718 143.998  -8.983  1.00  0.00     0.106 CG0
ATOM     16  G   UNL     1       5.194 143.986  -8.643  1.00  0.00     0.000 G0
ENDBRANCH  13  15
ENDBRANCH  12  13
BRANCH  12  17
ATOM     17  C   UNL     1       1.907 145.779  -7.351  1.00  0.00    -0.006 C 
ATOM     18  C   UNL     1       0.654 146.305  -6.626  1.00  0.00     0.008 C 
ATOM     19  C   UNL     1       1.576 145.596  -8.844  1.00  0.00     0.008 C 
ENDBRANCH  12  17
ENDBRANCH  11  12
ENDBRANCH   1  11
TORSDOF 1
ENDMDL
MODEL 7
REMARK VINA RESULT:    -0.967      1.963      3.471
REMARK INTER + INTRA:          -0.301
REMARK INTER:                  -1.651
REMARK INTRA:                   1.350
REMARK UNBOUND:                 1.174
REMARK SMILES CC1=CCC[C@H](C)C(=O)C[C@@H](C(C)C)C(=O)C1
REMARK SMILES IDX 8 1 9 2 6 3 7 4 5 5 4 6 3 7 2 8 1 9 10 11 11 12 15 13 16 14
REMARK SMILES IDX 17 15 12 17 13 18 14 19
REMARK H PARENT
REMARK Flexibility Score: 70.00
ROOT
ATOM      1  C   UNL     1       6.004 144.660  -6.481  1.00  0.00     0.136 C 
ATOM      2  O   UNL     1       6.462 144.029  -5.539  1.00  0.00    -0.299 OA
ENDROOT
BRANCH   1   3
ATOM      3  C   UNL     1       5.811 143.934  -7.808  1.00  0.00     0.053 C 
ATOM      4  C   UNL     1       7.115 143.503  -8.504  1.00  0.00     0.016 C 
BRANCH   3   5
ATOM      5  C   UNL     1       4.822 142.747  -7.683  1.00  0.00     0.015 C 
BRANCH   5   6
ATOM      6  C   UNL     1       3.622 142.800  -8.654  1.00  0.00     0.028 C 
BRANCH   6   7
ATOM      7  C   UNL     1       2.487 143.623  -8.084  1.00  0.00    -0.028 C 
ATOM      8  C   UNL     1       2.295 144.951  -8.259  1.00  0.00    -0.070 CG0
ATOM      9  C   UNL     1       1.104 145.588  -7.587  1.00  0.00     0.039 C 
ATOM     10  G   UNL     1       3.182 145.818  -9.129  1.00  0.00     0.000 G0
ENDBRANCH   6   7
ENDBRANCH   5   6
ENDBRANCH   3   5
ENDBRANCH   1   3
BRANCH   1  11
ATOM     11  C   UNL     1       5.622 146.110  -6.244  1.00  0.00     0.087 C 
BRANCH  11  12
ATOM     12  C   UNL     1       4.212 146.467  -6.782  1.00  0.00     0.066 C 
BRANCH  12  13
ATOM     13  C   UNL     1       4.234 146.520  -8.299  1.00  0.00     0.140 C 
ATOM     14  O   UNL     1       5.111 147.156  -8.869  1.00  0.00    -0.299 OA
BRANCH  13  15
ATOM     15  C   UNL     1       3.181 145.828  -9.121  1.00  0.00     0.106 CG0
ATOM     16  G   UNL     1       2.297 144.973  -8.237  1.00  0.00     0.000 G0
ENDBRANCH  13  15
ENDBRANCH  12  13
BRANCH  12  17
ATOM     17  C   UNL     1       3.683 147.817  -6.202  1.00  0.00    -0.006 C 
ATOM     18  C   UNL     1       4.628 148.405  -5.138  1.00  0.00     0.008 C 
ATOM     19  C   UNL     1       2.283 147.645  -5.582  1.00  0.00     0.008 C 
ENDBRANCH  12  17
ENDBRANCH  11  12
ENDBRANCH   1  11
TORSDOF 1
ENDMDL
