MODEL 1
REMARK VINA RESULT:    -3.079      0.000      0.000
REMARK INTER + INTRA:          -7.884
REMARK INTER:                  -5.689
REMARK INTRA:                  -2.196
REMARK UNBOUND:                -2.196
REMARK SMILES CCCCCCCCCCCCCCCCO
REMARK SMILES IDX 9 1 8 2 7 3 6 4 5 5 4 6 3 7 2 8 1 9 10 10 11 11 12 12 13 13
REMARK SMILES IDX 14 14 15 15 16 16 17 17
REMARK H PARENT 17 18
REMARK Flexibility Score: inf
ROOT
ATOM      1  C   UNL     1     167.933 174.958 162.469  1.00  0.00     0.000 C 
ENDROOT
BRANCH   1   2
ATOM      2  C   UNL     1     167.075 174.041 163.356  1.00  0.00    -0.000 C 
BRANCH   2   3
ATOM      3  C   UNL     1     166.164 173.102 162.544  1.00  0.00    -0.000 C 
BRANCH   3   4
ATOM      4  C   UNL     1     166.744 171.703 162.267  1.00  0.00    -0.000 C 
BRANCH   4   5
ATOM      5  C   UNL     1     166.824 171.373 160.766  1.00  0.00    -0.000 C 
BRANCH   5   6
ATOM      6  C   UNL     1     168.270 171.340 160.247  1.00  0.00    -0.000 C 
BRANCH   6   7
ATOM      7  C   UNL     1     168.677 172.643 159.535  1.00  0.00    -0.000 C 
BRANCH   7   8
ATOM      8  C   UNL     1     170.199 172.772 159.370  1.00  0.00    -0.003 C 
ATOM      9  C   UNL     1     170.932 171.451 159.605  1.00  0.00     0.004 C 
ENDBRANCH   7   8
ENDBRANCH   6   7
ENDBRANCH   5   6
ENDBRANCH   4   5
ENDBRANCH   3   4
ENDBRANCH   2   3
ENDBRANCH   1   2
BRANCH   1  10
ATOM     10  C   UNL     1     169.421 174.567 162.481  1.00  0.00     0.000 C 
BRANCH  10  11
ATOM     11  C   UNL     1     169.777 173.639 163.652  1.00  0.00     0.000 C 
BRANCH  11  12
ATOM     12  C   UNL     1     170.324 172.297 163.143  1.00  0.00     0.000 C 
BRANCH  12  13
ATOM     13  C   UNL     1     171.573 171.834 163.911  1.00  0.00     0.000 C 
BRANCH  13  14
ATOM     14  C   UNL     1     172.682 171.310 162.985  1.00  0.00     0.002 C 
BRANCH  14  15
ATOM     15  C   UNL     1     173.352 172.463 162.226  1.00  0.00     0.028 C 
BRANCH  15  16
ATOM     16  C   UNL     1     174.729 172.062 161.681  1.00  0.00     0.156 C 
BRANCH  16  17
ATOM     17  O   UNL     1     174.923 170.676 161.783  1.00  0.00    -0.396 OA
ATOM     18  H   UNL     1     175.755 170.469 161.283  1.00  0.00     0.210 HD
ENDBRANCH  16  17
ENDBRANCH  15  16
ENDBRANCH  14  15
ENDBRANCH  13  14
ENDBRANCH  12  13
ENDBRANCH  11  12
ENDBRANCH  10  11
ENDBRANCH   1  10
TORSDOF 15
ENDMDL
MODEL 2
REMARK VINA RESULT:    -2.967      1.952      3.598
REMARK INTER + INTRA:          -7.678
REMARK INTER:                  -5.018
REMARK INTRA:                  -2.660
REMARK UNBOUND:                -2.196
REMARK SMILES CCCCCCCCCCCCCCCCO
REMARK SMILES IDX 9 1 8 2 7 3 6 4 5 5 4 6 3 7 2 8 1 9 10 10 11 11 12 12 13 13
REMARK SMILES IDX 14 14 15 15 16 16 17 17
REMARK H PARENT 17 18
REMARK Flexibility Score: inf
ROOT
ATOM      1  C   UNL     1     167.384 175.489 161.398  1.00  0.00     0.000 C 
ENDROOT
BRANCH   1   2
ATOM      2  C   UNL     1     168.315 174.988 162.515  1.00  0.00    -0.000 C 
BRANCH   2   3
ATOM      3  C   UNL     1     167.591 174.101 163.546  1.00  0.00    -0.000 C 
BRANCH   3   4
ATOM      4  C   UNL     1     167.845 172.589 163.404  1.00  0.00    -0.000 C 
BRANCH   4   5
ATOM      5  C   UNL     1     166.710 171.857 162.668  1.00  0.00    -0.000 C 
BRANCH   5   6
ATOM      6  C   UNL     1     165.398 172.658 162.662  1.00  0.00    -0.000 C 
BRANCH   6   7
ATOM      7  C   UNL     1     164.792 172.797 161.254  1.00  0.00    -0.000 C 
BRANCH   7   8
ATOM      8  C   UNL     1     165.452 171.856 160.235  1.00  0.00    -0.003 C 
ATOM      9  C   UNL     1     164.520 170.736 159.776  1.00  0.00     0.004 C 
ENDBRANCH   7   8
ENDBRANCH   6   7
ENDBRANCH   5   6
ENDBRANCH   4   5
ENDBRANCH   3   4
ENDBRANCH   2   3
ENDBRANCH   1   2
BRANCH   1  10
ATOM     10  C   UNL     1     167.732 174.887 160.026  1.00  0.00     0.000 C 
BRANCH  10  11
ATOM     11  C   UNL     1     169.124 174.239 160.002  1.00  0.00     0.000 C 
BRANCH  11  12
ATOM     12  C   UNL     1     169.036 172.762 159.586  1.00  0.00     0.000 C 
BRANCH  12  13
ATOM     13  C   UNL     1     169.867 171.839 160.493  1.00  0.00     0.000 C 
BRANCH  13  14
ATOM     14  C   UNL     1     170.911 172.602 161.323  1.00  0.00     0.002 C 
BRANCH  14  15
ATOM     15  C   UNL     1     171.249 171.840 162.612  1.00  0.00     0.028 C 
BRANCH  15  16
ATOM     16  C   UNL     1     172.028 172.713 163.602  1.00  0.00     0.156 C 
BRANCH  16  17
ATOM     17  O   UNL     1     171.269 173.826 163.994  1.00  0.00    -0.396 OA
ATOM     18  H   UNL     1     171.490 174.558 163.362  1.00  0.00     0.210 HD
ENDBRANCH  16  17
ENDBRANCH  15  16
ENDBRANCH  14  15
ENDBRANCH  13  14
ENDBRANCH  12  13
ENDBRANCH  11  12
ENDBRANCH  10  11
ENDBRANCH   1  10
TORSDOF 15
ENDMDL
MODEL 3
REMARK VINA RESULT:    -2.915      8.548     11.704
REMARK INTER + INTRA:          -7.581
REMARK INTER:                  -6.371
REMARK INTRA:                  -1.210
REMARK UNBOUND:                -2.196
REMARK SMILES CCCCCCCCCCCCCCCCO
REMARK SMILES IDX 9 1 8 2 7 3 6 4 5 5 4 6 3 7 2 8 1 9 10 10 11 11 12 12 13 13
REMARK SMILES IDX 14 14 15 15 16 16 17 17
REMARK H PARENT 17 18
REMARK Flexibility Score: inf
ROOT
ATOM      1  C   UNL     1     164.005 178.578 169.486  1.00  0.00     0.000 C 
ENDROOT
BRANCH   1   2
ATOM      2  C   UNL     1     164.846 178.658 168.200  1.00  0.00    -0.000 C 
BRANCH   2   3
ATOM      3  C   UNL     1     164.054 178.260 166.941  1.00  0.00    -0.000 C 
BRANCH   3   4
ATOM      4  C   UNL     1     164.093 179.283 165.790  1.00  0.00    -0.000 C 
BRANCH   4   5
ATOM      5  C   UNL     1     162.801 179.296 164.956  1.00  0.00    -0.000 C 
BRANCH   5   6
ATOM      6  C   UNL     1     163.040 178.887 163.493  1.00  0.00    -0.000 C 
BRANCH   6   7
ATOM      7  C   UNL     1     164.516 179.007 163.075  1.00  0.00    -0.000 C 
BRANCH   7   8
ATOM      8  C   UNL     1     165.041 177.733 162.396  1.00  0.00    -0.003 C 
ATOM      9  C   UNL     1     164.219 176.494 162.752  1.00  0.00     0.004 C 
ENDBRANCH   7   8
ENDBRANCH   6   7
ENDBRANCH   5   6
ENDBRANCH   4   5
ENDBRANCH   3   4
ENDBRANCH   2   3
ENDBRANCH   1   2
BRANCH   1  10
ATOM     10  C   UNL     1     162.496 178.687 169.212  1.00  0.00     0.000 C 
BRANCH  10  11
ATOM     11  C   UNL     1     161.649 177.996 170.291  1.00  0.00     0.000 C 
BRANCH  11  12
ATOM     12  C   UNL     1     160.176 177.911 169.861  1.00  0.00     0.000 C 
BRANCH  12  13
ATOM     13  C   UNL     1     159.921 178.546 168.485  1.00  0.00     0.000 C 
BRANCH  13  14
ATOM     14  C   UNL     1     158.899 177.761 167.646  1.00  0.00     0.002 C 
BRANCH  14  15
ATOM     15  C   UNL     1     158.875 176.283 168.056  1.00  0.00     0.028 C 
BRANCH  15  16
ATOM     16  C   UNL     1     159.053 175.354 166.848  1.00  0.00     0.156 C 
BRANCH  16  17
ATOM     17  O   UNL     1     160.350 175.457 166.324  1.00  0.00    -0.396 OA
ATOM     18  H   UNL     1     160.443 176.382 165.976  1.00  0.00     0.210 HD
ENDBRANCH  16  17
ENDBRANCH  15  16
ENDBRANCH  14  15
ENDBRANCH  13  14
ENDBRANCH  12  13
ENDBRANCH  11  12
ENDBRANCH  10  11
ENDBRANCH   1  10
TORSDOF 15
ENDMDL
MODEL 4
REMARK VINA RESULT:    -2.875      1.168      2.896
REMARK INTER + INTRA:          -7.508
REMARK INTER:                  -5.798
REMARK INTRA:                  -1.711
REMARK UNBOUND:                -2.196
REMARK SMILES CCCCCCCCCCCCCCCCO
REMARK SMILES IDX 9 1 8 2 7 3 6 4 5 5 4 6 3 7 2 8 1 9 10 10 11 11 12 12 13 13
REMARK SMILES IDX 14 14 15 15 16 16 17 17
REMARK H PARENT 17 18
REMARK Flexibility Score: inf
ROOT
ATOM      1  C   UNL     1     169.037 173.766 163.977  1.00  0.00     0.000 C 
ENDROOT
BRANCH   1   2
ATOM      2  C   UNL     1     168.324 174.559 162.869  1.00  0.00    -0.000 C 
BRANCH   2   3
ATOM      3  C   UNL     1     169.232 174.846 161.658  1.00  0.00    -0.000 C 
BRANCH   3   4
ATOM      4  C   UNL     1     168.713 174.316 160.308  1.00  0.00    -0.000 C 
BRANCH   4   5
ATOM      5  C   UNL     1     168.676 172.780 160.241  1.00  0.00    -0.000 C 
BRANCH   5   6
ATOM      6  C   UNL     1     167.270 172.237 159.939  1.00  0.00    -0.000 C 
BRANCH   6   7
ATOM      7  C   UNL     1     166.865 171.082 160.873  1.00  0.00    -0.000 C 
BRANCH   7   8
ATOM      8  C   UNL     1     166.475 171.570 162.277  1.00  0.00    -0.003 C 
ATOM      9  C   UNL     1     165.303 172.551 162.255  1.00  0.00     0.004 C 
ENDBRANCH   7   8
ENDBRANCH   6   7
ENDBRANCH   5   6
ENDBRANCH   4   5
ENDBRANCH   3   4
ENDBRANCH   2   3
ENDBRANCH   1   2
BRANCH   1  10
ATOM     10  C   UNL     1     170.517 173.499 163.653  1.00  0.00     0.000 C 
BRANCH  10  11
ATOM     11  C   UNL     1     170.827 172.002 163.501  1.00  0.00     0.000 C 
BRANCH  11  12
ATOM     12  C   UNL     1     171.665 171.741 162.239  1.00  0.00     0.000 C 
BRANCH  12  13
ATOM     13  C   UNL     1     173.143 171.460 162.556  1.00  0.00     0.000 C 
BRANCH  13  14
ATOM     14  C   UNL     1     174.067 172.626 162.172  1.00  0.00     0.002 C 
BRANCH  14  15
ATOM     15  C   UNL     1     175.405 172.109 161.628  1.00  0.00     0.028 C 
BRANCH  15  16
ATOM     16  C   UNL     1     175.216 170.886 160.721  1.00  0.00     0.156 C 
BRANCH  16  17
ATOM     17  O   UNL     1     176.106 169.860 161.073  1.00  0.00    -0.396 OA
ATOM     18  H   UNL     1     177.017 170.189 160.860  1.00  0.00     0.210 HD
ENDBRANCH  16  17
ENDBRANCH  15  16
ENDBRANCH  14  15
ENDBRANCH  13  14
ENDBRANCH  12  13
ENDBRANCH  11  12
ENDBRANCH  10  11
ENDBRANCH   1  10
TORSDOF 15
ENDMDL
MODEL 5
REMARK VINA RESULT:    -2.867      2.153      5.548
REMARK INTER + INTRA:          -7.494
REMARK INTER:                  -5.696
REMARK INTRA:                  -1.798
REMARK UNBOUND:                -2.196
REMARK SMILES CCCCCCCCCCCCCCCCO
REMARK SMILES IDX 9 1 8 2 7 3 6 4 5 5 4 6 3 7 2 8 1 9 10 10 11 11 12 12 13 13
REMARK SMILES IDX 14 14 15 15 16 16 17 17
REMARK H PARENT 17 18
REMARK Flexibility Score: inf
ROOT
ATOM      1  C   UNL     1     169.796 172.621 163.205  1.00  0.00     0.000 C 
ENDROOT
BRANCH   1   2
ATOM      2  C   UNL     1     171.241 172.862 163.674  1.00  0.00    -0.000 C 
BRANCH   2   3
ATOM      3  C   UNL     1     172.035 171.557 163.868  1.00  0.00    -0.000 C 
BRANCH   3   4
ATOM      4  C   UNL     1     173.044 171.230 162.752  1.00  0.00    -0.000 C 
BRANCH   4   5
ATOM      5  C   UNL     1     173.741 172.480 162.188  1.00  0.00    -0.000 C 
BRANCH   5   6
ATOM      6  C   UNL     1     173.423 172.711 160.702  1.00  0.00    -0.000 C 
BRANCH   6   7
ATOM      7  C   UNL     1     172.434 171.676 160.137  1.00  0.00    -0.000 C 
BRANCH   7   8
ATOM      8  C   UNL     1     171.073 172.295 159.785  1.00  0.00    -0.003 C 
ATOM      9  C   UNL     1     171.073 173.819 159.892  1.00  0.00     0.004 C 
ENDBRANCH   7   8
ENDBRANCH   6   7
ENDBRANCH   5   6
ENDBRANCH   4   5
ENDBRANCH   3   4
ENDBRANCH   2   3
ENDBRANCH   1   2
BRANCH   1  10
ATOM     10  C   UNL     1     168.834 173.728 163.666  1.00  0.00     0.000 C 
BRANCH  10  11
ATOM     11  C   UNL     1     168.470 174.703 162.536  1.00  0.00     0.000 C 
BRANCH  11  12
ATOM     12  C   UNL     1     166.945 174.832 162.391  1.00  0.00     0.000 C 
BRANCH  12  13
ATOM     13  C   UNL     1     166.183 173.713 163.119  1.00  0.00     0.000 C 
BRANCH  13  14
ATOM     14  C   UNL     1     164.929 173.253 162.358  1.00  0.00     0.002 C 
BRANCH  14  15
ATOM     15  C   UNL     1     165.257 172.082 161.422  1.00  0.00     0.028 C 
BRANCH  15  16
ATOM     16  C   UNL     1     166.508 171.320 161.878  1.00  0.00     0.156 C 
BRANCH  16  17
ATOM     17  O   UNL     1     167.436 171.210 160.832  1.00  0.00    -0.396 OA
ATOM     18  H   UNL     1     168.108 170.538 161.119  1.00  0.00     0.210 HD
ENDBRANCH  16  17
ENDBRANCH  15  16
ENDBRANCH  14  15
ENDBRANCH  13  14
ENDBRANCH  12  13
ENDBRANCH  11  12
ENDBRANCH  10  11
ENDBRANCH   1  10
TORSDOF 15
ENDMDL
MODEL 6
REMARK VINA RESULT:    -2.862      1.263      2.777
REMARK INTER + INTRA:          -7.483
REMARK INTER:                  -5.536
REMARK INTRA:                  -1.947
REMARK UNBOUND:                -2.196
REMARK SMILES CCCCCCCCCCCCCCCCO
REMARK SMILES IDX 9 1 8 2 7 3 6 4 5 5 4 6 3 7 2 8 1 9 10 10 11 11 12 12 13 13
REMARK SMILES IDX 14 14 15 15 16 16 17 17
REMARK H PARENT 17 18
REMARK Flexibility Score: inf
ROOT
ATOM      1  C   UNL     1     169.345 174.142 160.238  1.00  0.00     0.000 C 
ENDROOT
BRANCH   1   2
ATOM      2  C   UNL     1     168.972 175.559 160.707  1.00  0.00    -0.000 C 
BRANCH   2   3
ATOM      3  C   UNL     1     168.352 175.582 162.116  1.00  0.00    -0.000 C 
BRANCH   3   4
ATOM      4  C   UNL     1     167.214 174.570 162.349  1.00  0.00    -0.000 C 
BRANCH   4   5
ATOM      5  C   UNL     1     167.464 173.654 163.559  1.00  0.00    -0.000 C 
BRANCH   5   6
ATOM      6  C   UNL     1     167.292 172.165 163.216  1.00  0.00    -0.000 C 
BRANCH   6   7
ATOM      7  C   UNL     1     166.290 171.930 162.071  1.00  0.00    -0.000 C 
BRANCH   7   8
ATOM      8  C   UNL     1     166.907 171.151 160.900  1.00  0.00    -0.003 C 
ATOM      9  C   UNL     1     166.656 171.820 159.549  1.00  0.00     0.004 C 
ENDBRANCH   7   8
ENDBRANCH   6   7
ENDBRANCH   5   6
ENDBRANCH   4   5
ENDBRANCH   3   4
ENDBRANCH   2   3
ENDBRANCH   1   2
BRANCH   1  10
ATOM     10  C   UNL     1     170.690 173.666 160.812  1.00  0.00     0.000 C 
BRANCH  10  11
ATOM     11  C   UNL     1     170.594 172.280 161.469  1.00  0.00     0.000 C 
BRANCH  11  12
ATOM     12  C   UNL     1     170.916 172.360 162.969  1.00  0.00     0.000 C 
BRANCH  12  13
ATOM     13  C   UNL     1     172.419 172.217 163.263  1.00  0.00     0.000 C 
BRANCH  13  14
ATOM     14  C   UNL     1     173.154 171.372 162.211  1.00  0.00     0.002 C 
BRANCH  14  15
ATOM     15  C   UNL     1     174.569 171.914 161.965  1.00  0.00     0.028 C 
BRANCH  15  16
ATOM     16  C   UNL     1     175.234 171.241 160.758  1.00  0.00     0.156 C 
BRANCH  16  17
ATOM     17  O   UNL     1     175.806 170.014 161.122  1.00  0.00    -0.396 OA
ATOM     18  H   UNL     1     175.616 169.381 160.381  1.00  0.00     0.210 HD
ENDBRANCH  16  17
ENDBRANCH  15  16
ENDBRANCH  14  15
ENDBRANCH  13  14
ENDBRANCH  12  13
ENDBRANCH  11  12
ENDBRANCH  10  11
ENDBRANCH   1  10
TORSDOF 15
ENDMDL
MODEL 7
REMARK VINA RESULT:    -2.820      3.113      5.964
REMARK INTER + INTRA:          -7.407
REMARK INTER:                  -5.233
REMARK INTRA:                  -2.174
REMARK UNBOUND:                -2.196
REMARK SMILES CCCCCCCCCCCCCCCCO
REMARK SMILES IDX 9 1 8 2 7 3 6 4 5 5 4 6 3 7 2 8 1 9 10 10 11 11 12 12 13 13
REMARK SMILES IDX 14 14 15 15 16 16 17 17
REMARK H PARENT 17 18
REMARK Flexibility Score: inf
ROOT
ATOM      1  C   UNL     1     168.733 173.676 160.021  1.00  0.00     0.000 C 
ENDROOT
BRANCH   1   2
ATOM      2  C   UNL     1     169.904 173.674 161.019  1.00  0.00    -0.000 C 
BRANCH   2   3
ATOM      3  C   UNL     1     169.600 174.469 162.302  1.00  0.00    -0.000 C 
BRANCH   3   4
ATOM      4  C   UNL     1     169.831 173.705 163.619  1.00  0.00    -0.000 C 
BRANCH   4   5
ATOM      5  C   UNL     1     170.069 172.200 163.406  1.00  0.00    -0.000 C 
BRANCH   5   6
ATOM      6  C   UNL     1     171.428 171.735 163.952  1.00  0.00    -0.000 C 
BRANCH   6   7
ATOM      7  C   UNL     1     172.617 172.353 163.195  1.00  0.00    -0.000 C 
BRANCH   7   8
ATOM      8  C   UNL     1     172.971 171.572 161.920  1.00  0.00    -0.003 C 
ATOM      9  C   UNL     1     174.460 171.241 161.825  1.00  0.00     0.004 C 
ENDBRANCH   7   8
ENDBRANCH   6   7
ENDBRANCH   5   6
ENDBRANCH   4   5
ENDBRANCH   3   4
ENDBRANCH   2   3
ENDBRANCH   1   2
BRANCH   1  10
ATOM     10  C   UNL     1     168.378 172.264 159.526  1.00  0.00     0.000 C 
BRANCH  10  11
ATOM     11  C   UNL     1     167.751 171.393 160.625  1.00  0.00     0.000 C 
BRANCH  11  12
ATOM     12  C   UNL     1     166.463 172.034 161.165  1.00  0.00     0.000 C 
BRANCH  12  13
ATOM     13  C   UNL     1     166.489 172.224 162.691  1.00  0.00     0.000 C 
BRANCH  13  14
ATOM     14  C   UNL     1     165.963 173.600 163.129  1.00  0.00     0.002 C 
BRANCH  14  15
ATOM     15  C   UNL     1     165.869 174.556 161.932  1.00  0.00     0.028 C 
BRANCH  15  16
ATOM     16  C   UNL     1     164.437 175.064 161.719  1.00  0.00     0.156 C 
BRANCH  16  17
ATOM     17  O   UNL     1     163.534 174.369 162.537  1.00  0.00    -0.396 OA
ATOM     18  H   UNL     1     163.050 173.733 161.949  1.00  0.00     0.210 HD
ENDBRANCH  16  17
ENDBRANCH  15  16
ENDBRANCH  14  15
ENDBRANCH  13  14
ENDBRANCH  12  13
ENDBRANCH  11  12
ENDBRANCH  10  11
ENDBRANCH   1  10
TORSDOF 15
ENDMDL
MODEL 8
REMARK VINA RESULT:    -2.820      1.154      3.290
REMARK INTER + INTRA:          -7.407
REMARK INTER:                  -5.091
REMARK INTRA:                  -2.316
REMARK UNBOUND:                -2.196
REMARK SMILES CCCCCCCCCCCCCCCCO
REMARK SMILES IDX 9 1 8 2 7 3 6 4 5 5 4 6 3 7 2 8 1 9 10 10 11 11 12 12 13 13
REMARK SMILES IDX 14 14 15 15 16 16 17 17
REMARK H PARENT 17 18
REMARK Flexibility Score: inf
ROOT
ATOM      1  C   UNL     1     167.292 171.695 159.276  1.00  0.00     0.000 C 
ENDROOT
BRANCH   1   2
ATOM      2  C   UNL     1     166.106 171.387 160.206  1.00  0.00    -0.000 C 
BRANCH   2   3
ATOM      3  C   UNL     1     165.555 172.640 160.910  1.00  0.00    -0.000 C 
BRANCH   3   4
ATOM      4  C   UNL     1     165.662 172.630 162.447  1.00  0.00    -0.000 C 
BRANCH   4   5
ATOM      5  C   UNL     1     166.751 171.677 162.966  1.00  0.00    -0.000 C 
BRANCH   5   6
ATOM      6  C   UNL     1     168.066 172.405 163.290  1.00  0.00    -0.000 C 
BRANCH   6   7
ATOM      7  C   UNL     1     167.854 173.892 163.630  1.00  0.00    -0.000 C 
BRANCH   7   8
ATOM      8  C   UNL     1     168.688 174.823 162.737  1.00  0.00    -0.003 C 
ATOM      9  C   UNL     1     167.839 175.876 162.027  1.00  0.00     0.004 C 
ENDBRANCH   7   8
ENDBRANCH   6   7
ENDBRANCH   5   6
ENDBRANCH   4   5
ENDBRANCH   3   4
ENDBRANCH   2   3
ENDBRANCH   1   2
BRANCH   1  10
ATOM     10  C   UNL     1     167.868 173.103 159.501  1.00  0.00     0.000 C 
BRANCH  10  11
ATOM     11  C   UNL     1     169.396 173.147 159.354  1.00  0.00     0.000 C 
BRANCH  11  12
ATOM     12  C   UNL     1     170.066 172.117 160.277  1.00  0.00     0.000 C 
BRANCH  12  13
ATOM     13  C   UNL     1     171.201 172.723 161.119  1.00  0.00     0.000 C 
BRANCH  13  14
ATOM     14  C   UNL     1     171.706 171.769 162.213  1.00  0.00     0.002 C 
BRANCH  14  15
ATOM     15  C   UNL     1     172.952 172.340 162.904  1.00  0.00     0.028 C 
BRANCH  15  16
ATOM     16  C   UNL     1     174.211 172.160 162.047  1.00  0.00     0.156 C 
BRANCH  16  17
ATOM     17  O   UNL     1     174.617 170.818 162.030  1.00  0.00    -0.396 OA
ATOM     18  H   UNL     1     173.927 170.318 161.522  1.00  0.00     0.210 HD
ENDBRANCH  16  17
ENDBRANCH  15  16
ENDBRANCH  14  15
ENDBRANCH  13  14
ENDBRANCH  12  13
ENDBRANCH  11  12
ENDBRANCH  10  11
ENDBRANCH   1  10
TORSDOF 15
ENDMDL
MODEL 9
REMARK VINA RESULT:    -2.811      1.983      4.296
REMARK INTER + INTRA:          -7.389
REMARK INTER:                  -5.119
REMARK INTRA:                  -2.270
REMARK UNBOUND:                -2.196
REMARK SMILES CCCCCCCCCCCCCCCCO
REMARK SMILES IDX 9 1 8 2 7 3 6 4 5 5 4 6 3 7 2 8 1 9 10 10 11 11 12 12 13 13
REMARK SMILES IDX 14 14 15 15 16 16 17 17
REMARK H PARENT 17 18
REMARK Flexibility Score: inf
ROOT
ATOM      1  C   UNL     1     166.542 172.332 161.343  1.00  0.00     0.000 C 
ENDROOT
BRANCH   1   2
ATOM      2  C   UNL     1     167.693 172.913 160.504  1.00  0.00    -0.000 C 
BRANCH   2   3
ATOM      3  C   UNL     1     167.502 174.406 160.176  1.00  0.00    -0.000 C 
BRANCH   3   4
ATOM      4  C   UNL     1     168.475 175.364 160.888  1.00  0.00    -0.000 C 
BRANCH   4   5
ATOM      5  C   UNL     1     167.814 176.145 162.036  1.00  0.00    -0.000 C 
BRANCH   5   6
ATOM      6  C   UNL     1     167.069 177.397 161.546  1.00  0.00    -0.000 C 
BRANCH   6   7
ATOM      7  C   UNL     1     165.567 177.366 161.886  1.00  0.00    -0.000 C 
BRANCH   7   8
ATOM      8  C   UNL     1     165.128 176.022 162.486  1.00  0.00    -0.003 C 
ATOM      9  C   UNL     1     164.009 175.356 161.686  1.00  0.00     0.004 C 
ENDBRANCH   7   8
ENDBRANCH   6   7
ENDBRANCH   5   6
ENDBRANCH   4   5
ENDBRANCH   3   4
ENDBRANCH   2   3
ENDBRANCH   1   2
BRANCH   1  10
ATOM     10  C   UNL     1     166.650 172.707 162.831  1.00  0.00     0.000 C 
BRANCH  10  11
ATOM     11  C   UNL     1     167.975 172.253 163.460  1.00  0.00     0.000 C 
BRANCH  11  12
ATOM     12  C   UNL     1     168.651 173.410 164.212  1.00  0.00     0.000 C 
BRANCH  12  13
ATOM     13  C   UNL     1     170.093 173.662 163.741  1.00  0.00     0.000 C 
BRANCH  13  14
ATOM     14  C   UNL     1     170.617 172.560 162.808  1.00  0.00     0.002 C 
BRANCH  14  15
ATOM     15  C   UNL     1     171.812 171.831 163.437  1.00  0.00     0.028 C 
BRANCH  15  16
ATOM     16  C   UNL     1     173.094 172.027 162.618  1.00  0.00     0.156 C 
BRANCH  16  17
ATOM     17  O   UNL     1     172.906 172.991 161.617  1.00  0.00    -0.396 OA
ATOM     18  H   UNL     1     173.744 173.017 161.087  1.00  0.00     0.210 HD
ENDBRANCH  16  17
ENDBRANCH  15  16
ENDBRANCH  14  15
ENDBRANCH  13  14
ENDBRANCH  12  13
ENDBRANCH  11  12
ENDBRANCH  10  11
ENDBRANCH   1  10
TORSDOF 15
ENDMDL
