MODEL 1
REMARK VINA RESULT:    -3.108      0.000      0.000
REMARK INTER + INTRA:          -4.067
REMARK INTER:                  -3.926
REMARK INTRA:                  -0.142
REMARK UNBOUND:                -0.142
REMARK SMILES CSCC[C@@H]([NH3+])C(=O)[O-]
REMARK SMILES IDX 4 1 5 2 6 3 7 7 8 8 9 9 3 10 2 11 1 12
REMARK H PARENT 6 4 6 5 6 6
REMARK Flexibility Score: inf
ROOT
ATOM      1  C   UNL     1       1.613  12.167  -3.981  1.00  0.00     0.082 C 
ENDROOT
BRANCH   1   2
ATOM      2  C   UNL     1       0.676  10.972  -3.680  1.00  0.00     0.228 C 
BRANCH   2   3
ATOM      3  N   UNL     1      -0.048  10.572  -4.893  1.00  0.00    -0.350 N 
ATOM      4  H   UNL     1      -0.895  11.173  -5.016  1.00  0.00     0.345 HD
ATOM      5  H   UNL     1       0.564  10.666  -5.737  1.00  0.00     0.345 HD
ATOM      6  H   UNL     1      -0.365   9.578  -4.807  1.00  0.00     0.345 HD
ENDBRANCH   2   3
BRANCH   2   7
ATOM      7  C   UNL     1       1.435   9.797  -3.122  1.00  0.00     0.099 C 
ATOM      8  O   UNL     1       0.915   9.061  -2.242  1.00  0.00    -0.544 OA
ATOM      9  O   UNL     1       2.715   9.517  -3.582  1.00  0.00    -0.544 OA
ENDBRANCH   2   7
ENDBRANCH   1   2
BRANCH   1  10
ATOM     10  C   UNL     1       1.405  12.774  -5.377  1.00  0.00     0.076 C 
BRANCH  10  11
ATOM     11  S   UNL     1       2.943  13.531  -6.014  1.00  0.00    -0.165 SA
ATOM     12  C   UNL     1       4.049  12.463  -5.041  1.00  0.00     0.085 C 
ENDBRANCH  10  11
ENDBRANCH   1  10
TORSDOF 5
ENDMDL
MODEL 2
REMARK VINA RESULT:    -3.106      0.096      1.081
REMARK INTER + INTRA:          -4.064
REMARK INTER:                  -3.918
REMARK INTRA:                  -0.147
REMARK UNBOUND:                -0.142
REMARK SMILES CSCC[C@@H]([NH3+])C(=O)[O-]
REMARK SMILES IDX 4 1 5 2 6 3 7 7 8 8 9 9 3 10 2 11 1 12
REMARK H PARENT 6 4 6 5 6 6
REMARK Flexibility Score: inf
ROOT
ATOM      1  C   UNL     1       1.623  12.180  -3.984  1.00  0.00     0.082 C 
ENDROOT
BRANCH   1   2
ATOM      2  C   UNL     1       0.694  10.978  -3.687  1.00  0.00     0.228 C 
BRANCH   2   3
ATOM      3  N   UNL     1      -0.027  10.576  -4.901  1.00  0.00    -0.350 N 
ATOM      4  H   UNL     1      -1.018  10.341  -4.663  1.00  0.00     0.345 HD
ATOM      5  H   UNL     1      -0.019  11.347  -5.608  1.00  0.00     0.345 HD
ATOM      6  H   UNL     1       0.419   9.724  -5.314  1.00  0.00     0.345 HD
ENDBRANCH   2   3
BRANCH   2   7
ATOM      7  C   UNL     1       1.461   9.807  -3.131  1.00  0.00     0.099 C 
ATOM      8  O   UNL     1       2.595   9.511  -3.591  1.00  0.00    -0.544 OA
ATOM      9  O   UNL     1       0.921   9.051  -2.100  1.00  0.00    -0.544 OA
ENDBRANCH   2   7
ENDBRANCH   1   2
BRANCH   1  10
ATOM     10  C   UNL     1       1.443  12.760  -5.396  1.00  0.00     0.076 C 
BRANCH  10  11
ATOM     11  S   UNL     1       3.018  13.412  -6.058  1.00  0.00    -0.165 SA
ATOM     12  C   UNL     1       4.067  12.315  -5.054  1.00  0.00     0.085 C 
ENDBRANCH  10  11
ENDBRANCH   1  10
TORSDOF 5
ENDMDL
MODEL 3
REMARK VINA RESULT:    -3.011      2.126      2.371
REMARK INTER + INTRA:          -3.945
REMARK INTER:                  -3.738
REMARK INTRA:                  -0.207
REMARK UNBOUND:                -0.142
REMARK SMILES CSCC[C@@H]([NH3+])C(=O)[O-]
REMARK SMILES IDX 4 1 5 2 6 3 7 7 8 8 9 9 3 10 2 11 1 12
REMARK H PARENT 6 4 6 5 6 6
REMARK Flexibility Score: inf
ROOT
ATOM      1  C   UNL     1       2.373  12.789  -3.716  1.00  0.00     0.082 C 
ENDROOT
BRANCH   1   2
ATOM      2  C   UNL     1       1.152  11.983  -3.211  1.00  0.00     0.228 C 
BRANCH   2   3
ATOM      3  N   UNL     1       0.148  12.883  -2.630  1.00  0.00    -0.350 N 
ATOM      4  H   UNL     1      -0.753  12.793  -3.153  1.00  0.00     0.345 HD
ATOM      5  H   UNL     1      -0.017  12.652  -1.623  1.00  0.00     0.345 HD
ATOM      6  H   UNL     1       0.472  13.875  -2.708  1.00  0.00     0.345 HD
ENDBRANCH   2   3
BRANCH   2   7
ATOM      7  C   UNL     1       0.533  11.163  -4.312  1.00  0.00     0.099 C 
ATOM      8  O   UNL     1       0.275   9.943  -4.133  1.00  0.00    -0.544 OA
ATOM      9  O   UNL     1       0.237  11.754  -5.534  1.00  0.00    -0.544 OA
ENDBRANCH   2   7
ENDBRANCH   1   2
BRANCH   1  10
ATOM     10  C   UNL     1       3.570  11.909  -4.108  1.00  0.00     0.076 C 
BRANCH  10  11
ATOM     11  S   UNL     1       4.385  12.522  -5.625  1.00  0.00    -0.165 SA
ATOM     12  C   UNL     1       3.098  13.754  -5.998  1.00  0.00     0.085 C 
ENDBRANCH  10  11
ENDBRANCH   1  10
TORSDOF 5
ENDMDL
MODEL 4
REMARK VINA RESULT:    -2.995      3.172      3.849
REMARK INTER + INTRA:          -3.925
REMARK INTER:                  -3.788
REMARK INTRA:                  -0.137
REMARK UNBOUND:                -0.142
REMARK SMILES CSCC[C@@H]([NH3+])C(=O)[O-]
REMARK SMILES IDX 4 1 5 2 6 3 7 7 8 8 9 9 3 10 2 11 1 12
REMARK H PARENT 6 4 6 5 6 6
REMARK Flexibility Score: inf
ROOT
ATOM      1  C   UNL     1       1.042  10.510  -4.091  1.00  0.00     0.082 C 
ENDROOT
BRANCH   1   2
ATOM      2  C   UNL     1       0.431  11.919  -4.286  1.00  0.00     0.228 C 
BRANCH   2   3
ATOM      3  N   UNL     1       0.293  12.601  -2.993  1.00  0.00    -0.350 N 
ATOM      4  H   UNL     1      -0.397  13.382  -3.076  1.00  0.00     0.345 HD
ATOM      5  H   UNL     1      -0.032  11.933  -2.256  1.00  0.00     0.345 HD
ATOM      6  H   UNL     1       1.213  13.010  -2.706  1.00  0.00     0.345 HD
ENDBRANCH   2   3
BRANCH   2   7
ATOM      7  C   UNL     1       1.259  12.758  -5.224  1.00  0.00     0.099 C 
ATOM      8  O   UNL     1       0.725  13.682  -5.894  1.00  0.00    -0.544 OA
ATOM      9  O   UNL     1       2.620  12.518  -5.351  1.00  0.00    -0.544 OA
ENDBRANCH   2   7
ENDBRANCH   1   2
BRANCH   1  10
ATOM     10  C   UNL     1       1.061  10.048  -2.626  1.00  0.00     0.076 C 
BRANCH  10  11
ATOM     11  S   UNL     1       2.435   8.884  -2.309  1.00  0.00    -0.165 SA
ATOM     12  C   UNL     1       3.619   9.755  -3.382  1.00  0.00     0.085 C 
ENDBRANCH  10  11
ENDBRANCH   1  10
TORSDOF 5
ENDMDL
MODEL 5
REMARK VINA RESULT:    -2.988      1.875      2.374
REMARK INTER + INTRA:          -3.916
REMARK INTER:                  -3.692
REMARK INTRA:                  -0.224
REMARK UNBOUND:                -0.142
REMARK SMILES CSCC[C@@H]([NH3+])C(=O)[O-]
REMARK SMILES IDX 4 1 5 2 6 3 7 7 8 8 9 9 3 10 2 11 1 12
REMARK H PARENT 6 4 6 5 6 6
REMARK Flexibility Score: inf
ROOT
ATOM      1  C   UNL     1       2.891  11.656  -2.758  1.00  0.00     0.082 C 
ENDROOT
BRANCH   1   2
ATOM      2  C   UNL     1       2.518  10.492  -3.708  1.00  0.00     0.228 C 
BRANCH   2   3
ATOM      3  N   UNL     1       3.493   9.400  -3.587  1.00  0.00    -0.350 N 
ATOM      4  H   UNL     1       3.974   9.252  -4.504  1.00  0.00     0.345 HD
ATOM      5  H   UNL     1       4.209   9.623  -2.858  1.00  0.00     0.345 HD
ATOM      6  H   UNL     1       3.003   8.512  -3.330  1.00  0.00     0.345 HD
ENDBRANCH   2   3
BRANCH   2   7
ATOM      7  C   UNL     1       1.130   9.975  -3.434  1.00  0.00     0.099 C 
ATOM      8  O   UNL     1       0.171  10.290  -4.187  1.00  0.00    -0.544 OA
ATOM      9  O   UNL     1       0.903   9.139  -2.348  1.00  0.00    -0.544 OA
ENDBRANCH   2   7
ENDBRANCH   1   2
BRANCH   1  10
ATOM     10  C   UNL     1       2.970  13.020  -3.462  1.00  0.00     0.076 C 
BRANCH  10  11
ATOM     11  S   UNL     1       2.793  12.850  -5.274  1.00  0.00    -0.165 SA
ATOM     12  C   UNL     1       1.113  13.550  -5.326  1.00  0.00     0.085 C 
ENDBRANCH  10  11
ENDBRANCH   1  10
TORSDOF 5
ENDMDL
MODEL 6
REMARK VINA RESULT:    -2.967      2.735      3.026
REMARK INTER + INTRA:          -3.890
REMARK INTER:                  -3.666
REMARK INTRA:                  -0.223
REMARK UNBOUND:                -0.142
REMARK SMILES CSCC[C@@H]([NH3+])C(=O)[O-]
REMARK SMILES IDX 4 1 5 2 6 3 7 7 8 8 9 9 3 10 2 11 1 12
REMARK H PARENT 6 4 6 5 6 6
REMARK Flexibility Score: inf
ROOT
ATOM      1  C   UNL     1       2.210  13.285  -3.443  1.00  0.00     0.082 C 
ENDROOT
BRANCH   1   2
ATOM      2  C   UNL     1       0.985  12.387  -3.146  1.00  0.00     0.228 C 
BRANCH   2   3
ATOM      3  N   UNL     1      -0.111  13.184  -2.583  1.00  0.00    -0.350 N 
ATOM      4  H   UNL     1      -0.922  13.191  -3.244  1.00  0.00     0.345 HD
ATOM      5  H   UNL     1      -0.423  12.789  -1.666  1.00  0.00     0.345 HD
ATOM      6  H   UNL     1       0.202  14.173  -2.444  1.00  0.00     0.345 HD
ENDBRANCH   2   3
BRANCH   2   7
ATOM      7  C   UNL     1       0.514  11.664  -4.382  1.00  0.00     0.099 C 
ATOM      8  O   UNL     1       0.104  10.476  -4.309  1.00  0.00    -0.544 OA
ATOM      9  O   UNL     1       0.524  12.312  -5.610  1.00  0.00    -0.544 OA
ENDBRANCH   2   7
ENDBRANCH   1   2
BRANCH   1  10
ATOM     10  C   UNL     1       3.517  12.499  -3.629  1.00  0.00     0.076 C 
BRANCH  10  11
ATOM     11  S   UNL     1       3.720  11.223  -2.335  1.00  0.00    -0.165 SA
ATOM     12  C   UNL     1       3.799   9.833  -3.508  1.00  0.00     0.085 C 
ENDBRANCH  10  11
ENDBRANCH   1  10
TORSDOF 5
ENDMDL
MODEL 7
REMARK VINA RESULT:    -2.813      3.125      3.945
REMARK INTER + INTRA:          -3.695
REMARK INTER:                  -3.541
REMARK INTRA:                  -0.155
REMARK UNBOUND:                -0.142
REMARK SMILES CSCC[C@@H]([NH3+])C(=O)[O-]
REMARK SMILES IDX 4 1 5 2 6 3 7 7 8 8 9 9 3 10 2 11 1 12
REMARK H PARENT 6 4 6 5 6 6
REMARK Flexibility Score: inf
ROOT
ATOM      1  C   UNL     1       3.007  10.988  -3.739  1.00  0.00     0.082 C 
ENDROOT
BRANCH   1   2
ATOM      2  C   UNL     1       1.704  11.766  -3.438  1.00  0.00     0.228 C 
BRANCH   2   3
ATOM      3  N   UNL     1       1.981  13.203  -3.318  1.00  0.00    -0.350 N 
ATOM      4  H   UNL     1       2.854  13.441  -3.843  1.00  0.00     0.345 HD
ATOM      5  H   UNL     1       1.187  13.766  -3.702  1.00  0.00     0.345 HD
ATOM      6  H   UNL     1       2.127  13.455  -2.313  1.00  0.00     0.345 HD
ENDBRANCH   2   3
BRANCH   2   7
ATOM      7  C   UNL     1       0.659  11.530  -4.498  1.00  0.00     0.099 C 
ATOM      8  O   UNL     1      -0.153  10.574  -4.392  1.00  0.00    -0.544 OA
ATOM      9  O   UNL     1       0.584  12.375  -5.597  1.00  0.00    -0.544 OA
ENDBRANCH   2   7
ENDBRANCH   1   2
BRANCH   1  10
ATOM     10  C   UNL     1       2.991   9.541  -3.222  1.00  0.00     0.076 C 
BRANCH  10  11
ATOM     11  S   UNL     1       2.925   9.483  -1.395  1.00  0.00    -0.165 SA
ATOM     12  C   UNL     1       1.301   8.663  -1.331  1.00  0.00     0.085 C 
ENDBRANCH  10  11
ENDBRANCH   1  10
TORSDOF 5
ENDMDL
MODEL 8
REMARK VINA RESULT:    -2.756      3.065      3.443
REMARK INTER + INTRA:          -3.623
REMARK INTER:                  -3.447
REMARK INTRA:                  -0.177
REMARK UNBOUND:                -0.142
REMARK SMILES CSCC[C@@H]([NH3+])C(=O)[O-]
REMARK SMILES IDX 4 1 5 2 6 3 7 7 8 8 9 9 3 10 2 11 1 12
REMARK H PARENT 6 4 6 5 6 6
REMARK Flexibility Score: inf
ROOT
ATOM      1  C   UNL     1       1.203  13.582  -3.000  1.00  0.00     0.082 C 
ENDROOT
BRANCH   1   2
ATOM      2  C   UNL     1       1.307  12.054  -3.224  1.00  0.00     0.228 C 
BRANCH   2   3
ATOM      3  N   UNL     1       0.839  11.328  -2.037  1.00  0.00    -0.350 N 
ATOM      4  H   UNL     1       1.498  11.489  -1.240  1.00  0.00     0.345 HD
ATOM      5  H   UNL     1      -0.117  11.651  -1.760  1.00  0.00     0.345 HD
ATOM      6  H   UNL     1       0.813  10.301  -2.234  1.00  0.00     0.345 HD
ENDBRANCH   2   3
BRANCH   2   7
ATOM      7  C   UNL     1       0.526  11.616  -4.436  1.00  0.00     0.099 C 
ATOM      8  O   UNL     1      -0.182  10.576  -4.397  1.00  0.00    -0.544 OA
ATOM      9  O   UNL     1       0.580  12.367  -5.603  1.00  0.00    -0.544 OA
ENDBRANCH   2   7
ENDBRANCH   1   2
BRANCH   1  10
ATOM     10  C   UNL     1      -0.192  14.041  -2.547  1.00  0.00     0.076 C 
BRANCH  10  11
ATOM     11  S   UNL     1      -0.500  15.787  -2.996  1.00  0.00    -0.165 SA
ATOM     12  C   UNL     1       0.572  15.754  -4.466  1.00  0.00     0.085 C 
ENDBRANCH  10  11
ENDBRANCH   1  10
TORSDOF 5
ENDMDL
MODEL 9
REMARK VINA RESULT:    -2.725      3.479      4.526
REMARK INTER + INTRA:          -3.584
REMARK INTER:                  -3.512
REMARK INTRA:                  -0.072
REMARK UNBOUND:                -0.142
REMARK SMILES CSCC[C@@H]([NH3+])C(=O)[O-]
REMARK SMILES IDX 4 1 5 2 6 3 7 7 8 8 9 9 3 10 2 11 1 12
REMARK H PARENT 6 4 6 5 6 6
REMARK Flexibility Score: inf
ROOT
ATOM      1  C   UNL     1       2.304  11.134  -3.689  1.00  0.00     0.082 C 
ENDROOT
BRANCH   1   2
ATOM      2  C   UNL     1       3.130  12.255  -4.365  1.00  0.00     0.228 C 
BRANCH   2   3
ATOM      3  N   UNL     1       4.432  11.738  -4.804  1.00  0.00    -0.350 N 
ATOM      4  H   UNL     1       5.060  11.610  -3.977  1.00  0.00     0.345 HD
ATOM      5  H   UNL     1       4.320  10.820  -5.293  1.00  0.00     0.345 HD
ATOM      6  H   UNL     1       4.887  12.421  -5.454  1.00  0.00     0.345 HD
ENDBRANCH   2   3
BRANCH   2   7
ATOM      7  C   UNL     1       2.395  12.858  -5.534  1.00  0.00     0.099 C 
ATOM      8  O   UNL     1       3.011  13.551  -6.386  1.00  0.00    -0.544 OA
ATOM      9  O   UNL     1       1.031  12.645  -5.679  1.00  0.00    -0.544 OA
ENDBRANCH   2   7
ENDBRANCH   1   2
BRANCH   1  10
ATOM     10  C   UNL     1       3.058   9.799  -3.577  1.00  0.00     0.076 C 
BRANCH  10  11
ATOM     11  S   UNL     1       2.130   8.589  -2.569  1.00  0.00    -0.165 SA
ATOM     12  C   UNL     1       1.171   9.848  -1.670  1.00  0.00     0.085 C 
ENDBRANCH  10  11
ENDBRANCH   1  10
TORSDOF 5
ENDMDL
