MODEL 1
REMARK VINA RESULT:    -2.532      0.000      0.000
REMARK INTER + INTRA:          -5.970
REMARK INTER:                  -4.901
REMARK INTRA:                  -1.070
REMARK UNBOUND:                -1.070
REMARK SMILES CCCCCCCCCCCCCCCCCC(=O)[O-]
REMARK SMILES IDX 10 1 11 2 12 3 13 4 14 5 15 6 16 7 17 8 18 9 19 10 20 11
REMARK SMILES IDX 9 12 8 13 7 14 6 15 5 16 4 17 3 18 2 19 1 20
REMARK H PARENT
REMARK Flexibility Score: inf
ROOT
ATOM      1  C   UNL     1      -3.676  15.327   9.512  1.00  0.00     0.000 C 
ENDROOT
BRANCH   1   2
ATOM      2  C   UNL     1      -3.325  16.750   9.041  1.00  0.00     0.000 C 
BRANCH   2   3
ATOM      3  C   UNL     1      -4.463  17.753   9.285  1.00  0.00     0.000 C 
BRANCH   3   4
ATOM      4  C   UNL     1      -4.825  17.885  10.775  1.00  0.00     0.000 C 
BRANCH   4   5
ATOM      5  C   UNL     1      -5.069  19.343  11.194  1.00  0.00     0.000 C 
BRANCH   5   6
ATOM      6  C   UNL     1      -4.716  19.605  12.667  1.00  0.00     0.000 C 
BRANCH   6   7
ATOM      7  C   UNL     1      -4.773  21.106  12.987  1.00  0.00     0.006 C 
BRANCH   7   8
ATOM      8  C   UNL     1      -4.862  21.375  14.495  1.00  0.00     0.053 C 
BRANCH   8   9
ATOM      9  C   UNL     1      -3.723  20.750  15.241  1.00  0.00     0.041 C 
ATOM     10  O   UNL     1      -2.546  20.857  14.806  1.00  0.00    -0.550 OA
ATOM     11  O   UNL     1      -3.965  20.020  16.397  1.00  0.00    -0.550 OA
ENDBRANCH   8   9
ENDBRANCH   7   8
ENDBRANCH   6   7
ENDBRANCH   5   6
ENDBRANCH   4   5
ENDBRANCH   3   4
ENDBRANCH   2   3
ENDBRANCH   1   2
BRANCH   1  12
ATOM     12  C   UNL     1      -3.224  14.249   8.513  1.00  0.00     0.000 C 
BRANCH  12  13
ATOM     13  C   UNL     1      -4.362  13.284   8.137  1.00  0.00    -0.000 C 
BRANCH  13  14
ATOM     14  C   UNL     1      -4.080  11.838   8.577  1.00  0.00    -0.000 C 
BRANCH  14  15
ATOM     15  C   UNL     1      -4.426  11.533  10.048  1.00  0.00    -0.000 C 
BRANCH  15  16
ATOM     16  C   UNL     1      -3.189  11.270  10.935  1.00  0.00    -0.000 C 
BRANCH  16  17
ATOM     17  C   UNL     1      -1.952  10.876  10.109  1.00  0.00    -0.000 C 
BRANCH  17  18
ATOM     18  C   UNL     1      -0.836  11.933  10.160  1.00  0.00    -0.000 C 
BRANCH  18  19
ATOM     19  C   UNL     1      -0.849  12.824  11.416  1.00  0.00    -0.003 C 
ATOM     20  C   UNL     1      -1.002  14.309  11.093  1.00  0.00     0.004 C 
ENDBRANCH  18  19
ENDBRANCH  17  18
ENDBRANCH  16  17
ENDBRANCH  15  16
ENDBRANCH  14  15
ENDBRANCH  13  14
ENDBRANCH  12  13
ENDBRANCH   1  12
TORSDOF 16
ENDMDL
MODEL 2
REMARK VINA RESULT:    -1.164     22.743     24.774
REMARK INTER + INTRA:          -3.323
REMARK INTER:                  -2.591
REMARK INTRA:                  -0.732
REMARK UNBOUND:                -1.070
REMARK SMILES CCCCCCCCCCCCCCCCCC(=O)[O-]
REMARK SMILES IDX 10 1 11 2 12 3 13 4 14 5 15 6 16 7 17 8 18 9 19 10 20 11
REMARK SMILES IDX 9 12 8 13 7 14 6 15 5 16 4 17 3 18 2 19 1 20
REMARK H PARENT
REMARK Flexibility Score: inf
ROOT
ATOM      1  C   UNL     1      13.922  26.213  20.882  1.00  0.00     0.000 C 
ENDROOT
BRANCH   1   2
ATOM      2  C   UNL     1      14.195  27.622  20.325  1.00  0.00     0.000 C 
BRANCH   2   3
ATOM      3  C   UNL     1      13.547  28.729  21.170  1.00  0.00     0.000 C 
BRANCH   3   4
ATOM      4  C   UNL     1      12.729  29.718  20.321  1.00  0.00     0.000 C 
BRANCH   4   5
ATOM      5  C   UNL     1      13.347  31.125  20.297  1.00  0.00     0.000 C 
BRANCH   5   6
ATOM      6  C   UNL     1      14.845  31.110  19.954  1.00  0.00     0.000 C 
BRANCH   6   7
ATOM      7  C   UNL     1      15.061  31.125  18.434  1.00  0.00     0.006 C 
BRANCH   7   8
ATOM      8  C   UNL     1      13.781  30.775  17.662  1.00  0.00     0.053 C 
BRANCH   8   9
ATOM      9  C   UNL     1      14.039  29.767  16.584  1.00  0.00     0.041 C 
ATOM     10  O   UNL     1      13.651  28.577  16.723  1.00  0.00    -0.550 OA
ATOM     11  O   UNL     1      14.736  30.135  15.440  1.00  0.00    -0.550 OA
ENDBRANCH   8   9
ENDBRANCH   7   8
ENDBRANCH   6   7
ENDBRANCH   5   6
ENDBRANCH   4   5
ENDBRANCH   3   4
ENDBRANCH   2   3
ENDBRANCH   1   2
BRANCH   1  12
ATOM     12  C   UNL     1      15.120  25.646  21.661  1.00  0.00     0.000 C 
BRANCH  12  13
ATOM     13  C   UNL     1      15.122  26.084  23.135  1.00  0.00    -0.000 C 
BRANCH  13  14
ATOM     14  C   UNL     1      13.703  26.294  23.691  1.00  0.00    -0.000 C 
BRANCH  14  15
ATOM     15  C   UNL     1      13.519  25.875  25.163  1.00  0.00    -0.000 C 
BRANCH  15  16
ATOM     16  C   UNL     1      14.346  26.717  26.157  1.00  0.00    -0.000 C 
BRANCH  16  17
ATOM     17  C   UNL     1      14.332  28.216  25.805  1.00  0.00    -0.000 C 
BRANCH  17  18
ATOM     18  C   UNL     1      14.675  29.116  27.004  1.00  0.00    -0.000 C 
BRANCH  18  19
ATOM     19  C   UNL     1      13.557  30.087  27.423  1.00  0.00    -0.003 C 
ATOM     20  C   UNL     1      12.213  29.392  27.639  1.00  0.00     0.004 C 
ENDBRANCH  18  19
ENDBRANCH  17  18
ENDBRANCH  16  17
ENDBRANCH  15  16
ENDBRANCH  14  15
ENDBRANCH  13  14
ENDBRANCH  12  13
ENDBRANCH   1  12
TORSDOF 16
ENDMDL
