MODEL 1
REMARK VINA RESULT:    -0.100      0.000      0.000
REMARK INTER + INTRA:           0.022
REMARK INTER:                  -0.121
REMARK INTRA:                   0.142
REMARK UNBOUND:                 0.142
REMARK SMILES O=c1c(O)c(-c2ccc(O)cc2O)oc2cc(O)cc(O)c12
REMARK SMILES IDX 5 1 3 2 2 3 1 4 22 5 20 6 19 7 17 8 16 9 15 10 14 11 6 12
REMARK SMILES IDX 8 13 7 14 9 15 11 16 12 17 10 18 13 20 4 22 21 24 18 26
REMARK H PARENT 10 19 13 21 4 23 21 25 18 27
REMARK Flexibility Score: inf
ROOT
ATOM      1  C   UNL     1     188.651 185.277 166.755  1.00  0.00     0.184 A 
ATOM      2  C   UNL     1     188.799 184.330 165.729  1.00  0.00     0.208 A 
ATOM      3  C   UNL     1     188.940 182.975 166.067  1.00  0.00     0.238 A 
ATOM      4  O   UNL     1     189.125 182.138 165.146  1.00  0.00    -0.285 OA
ATOM      5  C   UNL     1     188.915 182.584 167.428  1.00  0.00     0.111 A 
ATOM      6  C   UNL     1     189.008 181.235 167.885  1.00  0.00     0.134 A 
ATOM      7  C   UNL     1     189.104 180.976 169.257  1.00  0.00     0.093 A 
ATOM      8  C   UNL     1     189.043 182.009 170.192  1.00  0.00     0.123 A 
ATOM      9  C   UNL     1     188.892 183.327 169.759  1.00  0.00     0.094 A 
ATOM     10  C   UNL     1     188.831 183.620 168.394  1.00  0.00     0.146 A 
ATOM     11  O   UNL     1     188.698 184.889 168.023  1.00  0.00    -0.451 OA
ENDROOT
BRANCH   1  12
ATOM     12  C   UNL     1     188.483 186.715 166.466  1.00  0.00     0.063 A 
ATOM     13  C   UNL     1     188.984 188.621 165.043  1.00  0.00     0.047 A 
ATOM     14  C   UNL     1     189.118 187.264 165.341  1.00  0.00     0.020 A 
ATOM     15  C   UNL     1     188.223 189.453 165.874  1.00  0.00     0.119 A 
ATOM     16  C   UNL     1     187.606 188.921 167.010  1.00  0.00     0.093 A 
ATOM     17  C   UNL     1     187.741 187.559 167.320  1.00  0.00     0.130 A 
BRANCH  15  18
ATOM     18  O   UNL     1     188.079 190.808 165.584  1.00  0.00    -0.508 OA
ATOM     19  H   UNL     1     187.905 191.489 166.313  1.00  0.00     0.293 HD
ENDBRANCH  15  18
BRANCH  17  20
ATOM     20  O   UNL     1     187.161 187.052 168.483  1.00  0.00    -0.507 OA
ATOM     21  H   UNL     1     186.427 186.354 168.450  1.00  0.00     0.293 HD
ENDBRANCH  17  20
ENDBRANCH   1  12
BRANCH   2  22
ATOM     22  O   UNL     1     188.838 184.747 164.395  1.00  0.00    -0.502 OA
ATOM     23  H   UNL     1     189.670 185.144 163.975  1.00  0.00     0.293 HD
ENDBRANCH   2  22
BRANCH   6  24
ATOM     24  O   UNL     1     188.983 180.121 167.040  1.00  0.00    -0.507 OA
ATOM     25  H   UNL     1     188.585 180.112 166.113  1.00  0.00     0.293 HD
ENDBRANCH   6  24
BRANCH   8  26
ATOM     26  O   UNL     1     189.125 181.713 171.550  1.00  0.00    -0.508 OA
ATOM     27  H   UNL     1     189.400 180.794 171.879  1.00  0.00     0.293 HD
ENDBRANCH   8  26
TORSDOF 6
ENDMDL
