MODEL 1
REMARK VINA RESULT:    -4.842      0.000      0.000
REMARK INTER + INTRA:          -6.400
REMARK INTER:                  -6.258
REMARK INTRA:                  -0.143
REMARK UNBOUND:                -0.143
REMARK SMILES CCO[C@H]1O[C@@H](CO)[C@H](O)[C@@H](O)[C@@H]1O
REMARK SMILES IDX 4 1 13 2 11 3 9 4 6 5 5 6 3 7 2 8 1 9 14 10 12 12 7 14 8 15
REMARK SMILES IDX 10 17
REMARK H PARENT 14 11 12 13 8 16 10 18
REMARK Flexibility Score: inf
ROOT
ATOM      1  C   UNL     1       6.961   7.973  10.002  1.00  0.00     0.281 C 
ATOM      2  C   UNL     1       6.564   9.128  10.961  1.00  0.00     0.202 C 
ATOM      3  C   UNL     1       5.253   9.831  10.529  1.00  0.00     0.179 C 
ATOM      4  C   UNL     1       4.504   9.023   9.447  1.00  0.00     0.177 C 
ATOM      5  C   UNL     1       4.611   7.494   9.717  1.00  0.00     0.178 C 
ATOM      6  O   UNL     1       5.942   6.987   9.830  1.00  0.00    -0.341 OA
ENDROOT
BRANCH   1   7
ATOM      7  O   UNL     1       8.190   7.388  10.408  1.00  0.00    -0.350 OA
BRANCH   7   8
ATOM      8  C   UNL     1       8.264   6.009  10.104  1.00  0.00     0.160 C 
ATOM      9  C   UNL     1       9.723   5.614   9.926  1.00  0.00     0.035 C 
ENDBRANCH   7   8
ENDBRANCH   1   7
BRANCH   2  10
ATOM     10  O   UNL     1       7.605  10.066  11.073  1.00  0.00    -0.385 OA
ATOM     11  H   UNL     1       8.403   9.691  10.622  1.00  0.00     0.211 HD
ENDBRANCH   2  10
BRANCH   3  12
ATOM     12  O   UNL     1       4.436  10.002  11.666  1.00  0.00    -0.387 OA
ATOM     13  H   UNL     1       4.364   9.119  12.115  1.00  0.00     0.211 HD
ENDBRANCH   3  12
BRANCH   5  14
ATOM     14  C   UNL     1       3.807   7.040  10.950  1.00  0.00     0.191 C 
BRANCH  14  15
ATOM     15  O   UNL     1       2.654   6.348  10.567  1.00  0.00    -0.394 OA
ATOM     16  H   UNL     1       1.977   6.532  11.267  1.00  0.00     0.210 HD
ENDBRANCH  14  15
ENDBRANCH   5  14
BRANCH   4  17
ATOM     17  O   UNL     1       5.061   9.297   8.185  1.00  0.00    -0.387 OA
ATOM     18  H   UNL     1       5.860   8.723   8.066  1.00  0.00     0.211 HD
ENDBRANCH   4  17
TORSDOF 7
ENDMDL
MODEL 2
REMARK VINA RESULT:    -4.727      1.231      1.317
REMARK INTER + INTRA:          -6.251
REMARK INTER:                  -5.876
REMARK INTRA:                  -0.375
REMARK UNBOUND:                -0.143
REMARK SMILES CCO[C@H]1O[C@@H](CO)[C@H](O)[C@@H](O)[C@@H]1O
REMARK SMILES IDX 4 1 13 2 11 3 9 4 6 5 5 6 3 7 2 8 1 9 14 10 12 12 7 14 8 15
REMARK SMILES IDX 10 17
REMARK H PARENT 14 11 12 13 8 16 10 18
REMARK Flexibility Score: inf
ROOT
ATOM      1  C   UNL     1       7.234   7.754  10.486  1.00  0.00     0.281 C 
ATOM      2  C   UNL     1       6.744   9.208  10.719  1.00  0.00     0.202 C 
ATOM      3  C   UNL     1       5.246   9.390  10.367  1.00  0.00     0.179 C 
ATOM      4  C   UNL     1       4.537   8.032  10.175  1.00  0.00     0.177 C 
ATOM      5  C   UNL     1       5.059   6.980  11.197  1.00  0.00     0.178 C 
ATOM      6  O   UNL     1       6.472   6.768  11.184  1.00  0.00    -0.341 OA
ENDROOT
BRANCH   1   7
ATOM      7  O   UNL     1       8.620   7.643  10.777  1.00  0.00    -0.350 OA
BRANCH   7   8
ATOM      8  C   UNL     1       8.999   6.329  11.136  1.00  0.00     0.160 C 
ATOM      9  C   UNL     1       9.505   5.598   9.901  1.00  0.00     0.035 C 
ENDBRANCH   7   8
ENDBRANCH   1   7
BRANCH   2  10
ATOM     10  O   UNL     1       7.528  10.123   9.994  1.00  0.00    -0.385 OA
ATOM     11  H   UNL     1       8.434   9.737   9.898  1.00  0.00     0.211 HD
ENDBRANCH   2  10
BRANCH   3  12
ATOM     12  O   UNL     1       4.625  10.125  11.399  1.00  0.00    -0.387 OA
ATOM     13  H   UNL     1       4.100   9.483  11.945  1.00  0.00     0.211 HD
ENDBRANCH   3  12
BRANCH   5  14
ATOM     14  C   UNL     1       4.620   7.273  12.644  1.00  0.00     0.191 C 
BRANCH  14  15
ATOM     15  O   UNL     1       3.281   7.674  12.689  1.00  0.00    -0.394 OA
ATOM     16  H   UNL     1       2.798   7.095  12.046  1.00  0.00     0.210 HD
ENDBRANCH  14  15
ENDBRANCH   5  14
BRANCH   4  17
ATOM     17  O   UNL     1       4.779   7.555   8.875  1.00  0.00    -0.387 OA
ATOM     18  H   UNL     1       4.555   8.274   8.232  1.00  0.00     0.211 HD
ENDBRANCH   4  17
TORSDOF 7
ENDMDL
MODEL 3
REMARK VINA RESULT:    -4.632      2.109      2.447
REMARK INTER + INTRA:          -6.128
REMARK INTER:                  -5.735
REMARK INTRA:                  -0.393
REMARK UNBOUND:                -0.143
REMARK SMILES CCO[C@H]1O[C@@H](CO)[C@H](O)[C@@H](O)[C@@H]1O
REMARK SMILES IDX 4 1 13 2 11 3 9 4 6 5 5 6 3 7 2 8 1 9 14 10 12 12 7 14 8 15
REMARK SMILES IDX 10 17
REMARK H PARENT 14 11 12 13 8 16 10 18
REMARK Flexibility Score: inf
ROOT
ATOM      1  C   UNL     1       6.756   7.472  11.802  1.00  0.00     0.281 C 
ATOM      2  C   UNL     1       6.682   8.865  11.121  1.00  0.00     0.202 C 
ATOM      3  C   UNL     1       5.879   8.833   9.796  1.00  0.00     0.179 C 
ATOM      4  C   UNL     1       5.093   7.513   9.638  1.00  0.00     0.177 C 
ATOM      5  C   UNL     1       4.517   7.039  11.003  1.00  0.00     0.178 C 
ATOM      6  O   UNL     1       5.479   6.879  12.048  1.00  0.00    -0.341 OA
ENDROOT
BRANCH   1   7
ATOM      7  O   UNL     1       7.537   7.537  12.986  1.00  0.00    -0.350 OA
BRANCH   7   8
ATOM      8  C   UNL     1       6.944   6.849  14.069  1.00  0.00     0.160 C 
ATOM      9  C   UNL     1       7.855   5.706  14.494  1.00  0.00     0.035 C 
ENDBRANCH   7   8
ENDBRANCH   1   7
BRANCH   2  10
ATOM     10  O   UNL     1       7.970   9.382  10.896  1.00  0.00    -0.385 OA
ATOM     11  H   UNL     1       7.969   9.826  10.012  1.00  0.00     0.211 HD
ENDBRANCH   2  10
BRANCH   3  12
ATOM     12  O   UNL     1       4.997   9.934   9.775  1.00  0.00    -0.387 OA
ATOM     13  H   UNL     1       5.358  10.615  10.401  1.00  0.00     0.211 HD
ENDBRANCH   3  12
BRANCH   5  14
ATOM     14  C   UNL     1       3.375   7.933  11.521  1.00  0.00     0.191 C 
BRANCH  14  15
ATOM     15  O   UNL     1       2.490   8.261  10.490  1.00  0.00    -0.394 OA
ATOM     16  H   UNL     1       2.560   7.532   9.823  1.00  0.00     0.210 HD
ENDBRANCH  14  15
ENDBRANCH   5  14
BRANCH   4  17
ATOM     17  O   UNL     1       5.948   6.514   9.139  1.00  0.00    -0.387 OA
ATOM     18  H   UNL     1       5.553   5.631   9.352  1.00  0.00     0.211 HD
ENDBRANCH   4  17
TORSDOF 7
ENDMDL
MODEL 4
REMARK VINA RESULT:    -4.594      2.135      3.801
REMARK INTER + INTRA:          -6.080
REMARK INTER:                  -5.699
REMARK INTRA:                  -0.381
REMARK UNBOUND:                -0.143
REMARK SMILES CCO[C@H]1O[C@@H](CO)[C@H](O)[C@@H](O)[C@@H]1O
REMARK SMILES IDX 4 1 13 2 11 3 9 4 6 5 5 6 3 7 2 8 1 9 14 10 12 12 7 14 8 15
REMARK SMILES IDX 10 17
REMARK H PARENT 14 11 12 13 8 16 10 18
REMARK Flexibility Score: inf
ROOT
ATOM      1  C   UNL     1       5.520   7.543  12.028  1.00  0.00     0.281 C 
ATOM      2  C   UNL     1       4.735   7.158  10.745  1.00  0.00     0.202 C 
ATOM      3  C   UNL     1       4.197   8.397   9.986  1.00  0.00     0.179 C 
ATOM      4  C   UNL     1       4.832   9.705  10.510  1.00  0.00     0.177 C 
ATOM      5  C   UNL     1       6.333   9.495  10.861  1.00  0.00     0.178 C 
ATOM      6  O   UNL     1       6.601   8.448  11.795  1.00  0.00    -0.341 OA
ENDROOT
BRANCH   1   7
ATOM      7  O   UNL     1       5.954   6.378  12.714  1.00  0.00    -0.350 OA
BRANCH   7   8
ATOM      8  C   UNL     1       6.078   6.581  14.108  1.00  0.00     0.160 C 
ATOM      9  C   UNL     1       7.471   6.162  14.553  1.00  0.00     0.035 C 
ENDBRANCH   7   8
ENDBRANCH   1   7
BRANCH   2  10
ATOM     10  O   UNL     1       3.680   6.279  11.048  1.00  0.00    -0.385 OA
ATOM     11  H   UNL     1       2.910   6.518  10.474  1.00  0.00     0.211 HD
ENDBRANCH   2  10
BRANCH   3  12
ATOM     12  O   UNL     1       4.468   8.239   8.611  1.00  0.00    -0.387 OA
ATOM     13  H   UNL     1       3.762   7.649   8.236  1.00  0.00     0.211 HD
ENDBRANCH   3  12
BRANCH   5  14
ATOM     14  C   UNL     1       7.220   9.284   9.620  1.00  0.00     0.191 C 
BRANCH  14  15
ATOM     15  O   UNL     1       6.798  10.091   8.559  1.00  0.00    -0.394 OA
ATOM     16  H   UNL     1       5.807  10.059   8.565  1.00  0.00     0.210 HD
ENDBRANCH  14  15
ENDBRANCH   5  14
BRANCH   4  17
ATOM     17  O   UNL     1       4.154  10.125  11.669  1.00  0.00    -0.387 OA
ATOM     18  H   UNL     1       3.525  10.847  11.416  1.00  0.00     0.211 HD
ENDBRANCH   4  17
TORSDOF 7
ENDMDL
MODEL 5
REMARK VINA RESULT:    -4.539      1.621      2.853
REMARK INTER + INTRA:          -6.008
REMARK INTER:                  -5.810
REMARK INTRA:                  -0.199
REMARK UNBOUND:                -0.143
REMARK SMILES CCO[C@H]1O[C@@H](CO)[C@H](O)[C@@H](O)[C@@H]1O
REMARK SMILES IDX 4 1 13 2 11 3 9 4 6 5 5 6 3 7 2 8 1 9 14 10 12 12 7 14 8 15
REMARK SMILES IDX 10 17
REMARK H PARENT 14 11 12 13 8 16 10 18
REMARK Flexibility Score: inf
ROOT
ATOM      1  C   UNL     1       6.400   8.208  11.902  1.00  0.00     0.281 C 
ATOM      2  C   UNL     1       5.403   7.028  12.061  1.00  0.00     0.202 C 
ATOM      3  C   UNL     1       3.926   7.493  12.032  1.00  0.00     0.179 C 
ATOM      4  C   UNL     1       3.798   8.952  11.542  1.00  0.00     0.177 C 
ATOM      5  C   UNL     1       4.817   9.251  10.405  1.00  0.00     0.178 C 
ATOM      6  O   UNL     1       6.184   8.992  10.727  1.00  0.00    -0.341 OA
ENDROOT
BRANCH   1   7
ATOM      7  O   UNL     1       7.739   7.743  11.981  1.00  0.00    -0.350 OA
BRANCH   7   8
ATOM      8  C   UNL     1       8.261   7.368  10.721  1.00  0.00     0.160 C 
ATOM      9  C   UNL     1       9.075   6.091  10.877  1.00  0.00     0.035 C 
ENDBRANCH   7   8
ENDBRANCH   1   7
BRANCH   2  10
ATOM     10  O   UNL     1       5.663   6.309  13.241  1.00  0.00    -0.385 OA
ATOM     11  H   UNL     1       5.059   5.525  13.259  1.00  0.00     0.211 HD
ENDBRANCH   2  10
BRANCH   3  12
ATOM     12  O   UNL     1       3.196   6.629  11.189  1.00  0.00    -0.387 OA
ATOM     13  H   UNL     1       2.671   7.197  10.565  1.00  0.00     0.211 HD
ENDBRANCH   3  12
BRANCH   5  14
ATOM     14  C   UNL     1       4.479   8.530   9.086  1.00  0.00     0.191 C 
BRANCH  14  15
ATOM     15  O   UNL     1       5.287   7.402   8.912  1.00  0.00    -0.394 OA
ATOM     16  H   UNL     1       5.108   7.074   7.994  1.00  0.00     0.210 HD
ENDBRANCH  14  15
ENDBRANCH   5  14
BRANCH   4  17
ATOM     17  O   UNL     1       4.049   9.830  12.612  1.00  0.00    -0.387 OA
ATOM     18  H   UNL     1       4.693  10.518  12.307  1.00  0.00     0.211 HD
ENDBRANCH   4  17
TORSDOF 7
ENDMDL
MODEL 6
REMARK VINA RESULT:    -4.408      2.354      4.170
REMARK INTER + INTRA:          -5.839
REMARK INTER:                  -5.671
REMARK INTRA:                  -0.168
REMARK UNBOUND:                -0.143
REMARK SMILES CCO[C@H]1O[C@@H](CO)[C@H](O)[C@@H](O)[C@@H]1O
REMARK SMILES IDX 4 1 13 2 11 3 9 4 6 5 5 6 3 7 2 8 1 9 14 10 12 12 7 14 8 15
REMARK SMILES IDX 10 17
REMARK H PARENT 14 11 12 13 8 16 10 18
REMARK Flexibility Score: inf
ROOT
ATOM      1  C   UNL     1       5.476   7.817  12.487  1.00  0.00     0.281 C 
ATOM      2  C   UNL     1       4.621   7.473  11.237  1.00  0.00     0.202 C 
ATOM      3  C   UNL     1       5.151   8.156   9.952  1.00  0.00     0.179 C 
ATOM      4  C   UNL     1       6.561   8.751  10.163  1.00  0.00     0.177 C 
ATOM      5  C   UNL     1       7.428   7.825  11.064  1.00  0.00     0.178 C 
ATOM      6  O   UNL     1       6.864   7.514  12.340  1.00  0.00    -0.341 OA
ENDROOT
BRANCH   1   7
ATOM      7  O   UNL     1       4.929   7.208  13.647  1.00  0.00    -0.350 OA
BRANCH   7   8
ATOM      8  C   UNL     1       5.784   6.228  14.203  1.00  0.00     0.160 C 
ATOM      9  C   UNL     1       5.623   6.224  15.716  1.00  0.00     0.035 C 
ENDBRANCH   7   8
ENDBRANCH   1   7
BRANCH   2  10
ATOM     10  O   UNL     1       3.272   7.808  11.445  1.00  0.00    -0.385 OA
ATOM     11  H   UNL     1       3.116   8.702  11.050  1.00  0.00     0.211 HD
ENDBRANCH   2  10
BRANCH   3  12
ATOM     12  O   UNL     1       5.171   7.206   8.910  1.00  0.00    -0.387 OA
ATOM     13  H   UNL     1       6.089   6.829   8.871  1.00  0.00     0.211 HD
ENDBRANCH   3  12
BRANCH   5  14
ATOM     14  C   UNL     1       7.828   6.509  10.371  1.00  0.00     0.191 C 
BRANCH  14  15
ATOM     15  O   UNL     1       9.159   6.183  10.647  1.00  0.00    -0.394 OA
ATOM     16  H   UNL     1       9.635   7.044  10.768  1.00  0.00     0.210 HD
ENDBRANCH  14  15
ENDBRANCH   5  14
BRANCH   4  17
ATOM     17  O   UNL     1       6.453  10.009  10.782  1.00  0.00    -0.387 OA
ATOM     18  H   UNL     1       5.520  10.326  10.682  1.00  0.00     0.211 HD
ENDBRANCH   4  17
TORSDOF 7
ENDMDL
MODEL 7
REMARK VINA RESULT:    -4.405      2.017      3.570
REMARK INTER + INTRA:          -5.835
REMARK INTER:                  -5.472
REMARK INTRA:                  -0.363
REMARK UNBOUND:                -0.143
REMARK SMILES CCO[C@H]1O[C@@H](CO)[C@H](O)[C@@H](O)[C@@H]1O
REMARK SMILES IDX 4 1 13 2 11 3 9 4 6 5 5 6 3 7 2 8 1 9 14 10 12 12 7 14 8 15
REMARK SMILES IDX 10 17
REMARK H PARENT 14 11 12 13 8 16 10 18
REMARK Flexibility Score: inf
ROOT
ATOM      1  C   UNL     1       5.525   9.017  10.678  1.00  0.00     0.281 C 
ATOM      2  C   UNL     1       4.712   7.916   9.947  1.00  0.00     0.202 C 
ATOM      3  C   UNL     1       4.302   6.758  10.891  1.00  0.00     0.179 C 
ATOM      4  C   UNL     1       4.526   7.127  12.375  1.00  0.00     0.177 C 
ATOM      5  C   UNL     1       4.171   8.618  12.639  1.00  0.00     0.178 C 
ATOM      6  O   UNL     1       4.863   9.564  11.820  1.00  0.00    -0.341 OA
ENDROOT
BRANCH   1   7
ATOM      7  O   UNL     1       5.918  10.034   9.767  1.00  0.00    -0.350 OA
BRANCH   7   8
ATOM      8  C   UNL     1       7.322  10.125   9.626  1.00  0.00     0.160 C 
ATOM      9  C   UNL     1       7.990   9.340  10.745  1.00  0.00     0.035 C 
ENDBRANCH   7   8
ENDBRANCH   1   7
BRANCH   2  10
ATOM     10  O   UNL     1       5.426   7.414   8.845  1.00  0.00    -0.385 OA
ATOM     11  H   UNL     1       5.675   8.181   8.270  1.00  0.00     0.211 HD
ENDBRANCH   2  10
BRANCH   3  12
ATOM     12  O   UNL     1       2.945   6.447  10.664  1.00  0.00    -0.387 OA
ATOM     13  H   UNL     1       2.729   6.724   9.735  1.00  0.00     0.211 HD
ENDBRANCH   3  12
BRANCH   5  14
ATOM     14  C   UNL     1       2.661   8.906  12.550  1.00  0.00     0.191 C 
BRANCH  14  15
ATOM     15  O   UNL     1       1.921   7.878  13.142  1.00  0.00    -0.394 OA
ATOM     16  H   UNL     1       1.587   7.314  12.398  1.00  0.00     0.210 HD
ENDBRANCH  14  15
ENDBRANCH   5  14
BRANCH   4  17
ATOM     17  O   UNL     1       5.875   6.918  12.712  1.00  0.00    -0.387 OA
ATOM     18  H   UNL     1       5.957   6.941  13.699  1.00  0.00     0.211 HD
ENDBRANCH   4  17
TORSDOF 7
ENDMDL
MODEL 8
REMARK VINA RESULT:    -4.346      1.985      4.389
REMARK INTER + INTRA:          -5.759
REMARK INTER:                  -5.465
REMARK INTRA:                  -0.294
REMARK UNBOUND:                -0.143
REMARK SMILES CCO[C@H]1O[C@@H](CO)[C@H](O)[C@@H](O)[C@@H]1O
REMARK SMILES IDX 4 1 13 2 11 3 9 4 6 5 5 6 3 7 2 8 1 9 14 10 12 12 7 14 8 15
REMARK SMILES IDX 10 17
REMARK H PARENT 14 11 12 13 8 16 10 18
REMARK Flexibility Score: inf
ROOT
ATOM      1  C   UNL     1       5.266   8.354  11.200  1.00  0.00     0.281 C 
ATOM      2  C   UNL     1       5.827   7.340  10.166  1.00  0.00     0.202 C 
ATOM      3  C   UNL     1       7.374   7.359  10.099  1.00  0.00     0.179 C 
ATOM      4  C   UNL     1       7.986   8.143  11.282  1.00  0.00     0.177 C 
ATOM      5  C   UNL     1       7.185   7.891  12.592  1.00  0.00     0.178 C 
ATOM      6  O   UNL     1       5.788   8.185  12.518  1.00  0.00    -0.341 OA
ENDROOT
BRANCH   1   7
ATOM      7  O   UNL     1       3.846   8.335  11.195  1.00  0.00    -0.350 OA
BRANCH   7   8
ATOM      8  C   UNL     1       3.316   7.093  11.616  1.00  0.00     0.160 C 
ATOM      9  C   UNL     1       2.159   6.708  10.704  1.00  0.00     0.035 C 
ENDBRANCH   7   8
ENDBRANCH   1   7
BRANCH   2  10
ATOM     10  O   UNL     1       5.282   7.571   8.891  1.00  0.00    -0.385 OA
ATOM     11  H   UNL     1       5.958   8.057   8.355  1.00  0.00     0.211 HD
ENDBRANCH   2  10
BRANCH   3  12
ATOM     12  O   UNL     1       7.844   6.029  10.098  1.00  0.00    -0.387 OA
ATOM     13  H   UNL     1       7.053   5.435  10.185  1.00  0.00     0.211 HD
ENDBRANCH   3  12
BRANCH   5  14
ATOM     14  C   UNL     1       7.358   6.463  13.141  1.00  0.00     0.191 C 
BRANCH  14  15
ATOM     15  O   UNL     1       6.168   6.000  13.713  1.00  0.00    -0.394 OA
ATOM     16  H   UNL     1       5.451   6.203  13.060  1.00  0.00     0.210 HD
ENDBRANCH  14  15
ENDBRANCH   5  14
BRANCH   4  17
ATOM     17  O   UNL     1       7.960   9.520  10.996  1.00  0.00    -0.387 OA
ATOM     18  H   UNL     1       8.766   9.742  10.464  1.00  0.00     0.211 HD
ENDBRANCH   4  17
TORSDOF 7
ENDMDL
MODEL 9
REMARK VINA RESULT:    -4.320      2.320      4.397
REMARK INTER + INTRA:          -5.726
REMARK INTER:                  -5.333
REMARK INTRA:                  -0.392
REMARK UNBOUND:                -0.143
REMARK SMILES CCO[C@H]1O[C@@H](CO)[C@H](O)[C@@H](O)[C@@H]1O
REMARK SMILES IDX 4 1 13 2 11 3 9 4 6 5 5 6 3 7 2 8 1 9 14 10 12 12 7 14 8 15
REMARK SMILES IDX 10 17
REMARK H PARENT 14 11 12 13 8 16 10 18
REMARK Flexibility Score: inf
ROOT
ATOM      1  C   UNL     1       4.498   8.136  12.653  1.00  0.00     0.281 C 
ATOM      2  C   UNL     1       5.811   7.475  12.153  1.00  0.00     0.202 C 
ATOM      3  C   UNL     1       5.696   6.961  10.696  1.00  0.00     0.179 C 
ATOM      4  C   UNL     1       4.429   7.504   9.999  1.00  0.00     0.177 C 
ATOM      5  C   UNL     1       4.151   8.977  10.415  1.00  0.00     0.178 C 
ATOM      6  O   UNL     1       4.033   9.201  11.822  1.00  0.00    -0.341 OA
ENDROOT
BRANCH   1   7
ATOM      7  O   UNL     1       4.633   8.551  14.005  1.00  0.00    -0.350 OA
BRANCH   7   8
ATOM      8  C   UNL     1       3.640   7.998  14.846  1.00  0.00     0.160 C 
ATOM      9  C   UNL     1       4.307   7.141  15.912  1.00  0.00     0.035 C 
ENDBRANCH   7   8
ENDBRANCH   1   7
BRANCH   2  10
ATOM     10  O   UNL     1       6.203   6.430  13.007  1.00  0.00    -0.385 OA
ATOM     11  H   UNL     1       6.741   6.822  13.740  1.00  0.00     0.211 HD
ENDBRANCH   2  10
BRANCH   3  12
ATOM     12  O   UNL     1       6.851   7.352   9.986  1.00  0.00    -0.387 OA
ATOM     13  H   UNL     1       6.747   8.313   9.756  1.00  0.00     0.211 HD
ENDBRANCH   3  12
BRANCH   5  14
ATOM     14  C   UNL     1       5.178   9.972   9.844  1.00  0.00     0.191 C 
BRANCH  14  15
ATOM     15  O   UNL     1       5.419   9.721   8.490  1.00  0.00    -0.394 OA
ATOM     16  H   UNL     1       6.199  10.278   8.240  1.00  0.00     0.210 HD
ENDBRANCH  14  15
ENDBRANCH   5  14
BRANCH   4  17
ATOM     17  O   UNL     1       3.321   6.717  10.359  1.00  0.00    -0.387 OA
ATOM     18  H   UNL     1       3.188   6.796  11.337  1.00  0.00     0.211 HD
ENDBRANCH   4  17
TORSDOF 7
ENDMDL
