MODEL 1
REMARK VINA RESULT:    -3.495      0.000      0.000
REMARK INTER + INTRA:          -5.924
REMARK INTER:                  -5.335
REMARK INTRA:                  -0.590
REMARK UNBOUND:                -0.590
REMARK SMILES O=C([O-])CCCCCCCCC(=O)[O-]
REMARK SMILES IDX 7 1 6 2 5 3 4 4 2 5 1 6 3 7 8 8 9 9 10 10 11 11 12 12 13 13
REMARK SMILES IDX 14 14
REMARK H PARENT
REMARK Flexibility Score: inf
ROOT
ATOM      1  C   UNL     1      61.461  31.423  60.426  1.00  0.00     0.000 C 
ENDROOT
BRANCH   1   2
ATOM      2  C   UNL     1      60.864  32.835  60.525  1.00  0.00     0.000 C 
BRANCH   2   3
ATOM      3  C   UNL     1      61.875  33.934  60.151  1.00  0.00     0.006 C 
BRANCH   3   4
ATOM      4  C   UNL     1      63.254  33.687  60.774  1.00  0.00     0.053 C 
BRANCH   4   5
ATOM      5  C   UNL     1      63.828  34.936  61.371  1.00  0.00     0.041 C 
ATOM      6  O   UNL     1      65.026  34.964  61.754  1.00  0.00    -0.550 OA
ATOM      7  O   UNL     1      63.026  36.059  61.531  1.00  0.00    -0.550 OA
ENDBRANCH   4   5
ENDBRANCH   3   4
ENDBRANCH   2   3
ENDBRANCH   1   2
BRANCH   1   8
ATOM      8  C   UNL     1      61.230  30.590  61.696  1.00  0.00     0.000 C 
BRANCH   8   9
ATOM      9  C   UNL     1      62.333  29.534  61.867  1.00  0.00     0.000 C 
BRANCH   9  10
ATOM     10  C   UNL     1      63.702  30.020  61.365  1.00  0.00     0.006 C 
BRANCH  10  11
ATOM     11  C   UNL     1      64.379  29.012  60.427  1.00  0.00     0.053 C 
BRANCH  11  12
ATOM     12  C   UNL     1      65.850  29.274  60.354  1.00  0.00     0.041 C 
ATOM     13  O   UNL     1      66.309  30.079  59.501  1.00  0.00    -0.550 OA
ATOM     14  O   UNL     1      66.710  28.668  61.261  1.00  0.00    -0.550 OA
ENDBRANCH  11  12
ENDBRANCH  10  11
ENDBRANCH   9  10
ENDBRANCH   8   9
ENDBRANCH   1   8
TORSDOF 9
ENDMDL
MODEL 2
REMARK VINA RESULT:    -3.441     12.694     14.267
REMARK INTER + INTRA:          -5.842
REMARK INTER:                  -5.083
REMARK INTRA:                  -0.758
REMARK UNBOUND:                -0.590
REMARK SMILES O=C([O-])CCCCCCCCC(=O)[O-]
REMARK SMILES IDX 7 1 6 2 5 3 4 4 2 5 1 6 3 7 8 8 9 9 10 10 11 11 12 12 13 13
REMARK SMILES IDX 14 14
REMARK H PARENT
REMARK Flexibility Score: inf
ROOT
ATOM      1  C   UNL     1      58.356  28.359  51.557  1.00  0.00     0.000 C 
ENDROOT
BRANCH   1   2
ATOM      2  C   UNL     1      58.770  28.726  50.124  1.00  0.00     0.000 C 
BRANCH   2   3
ATOM      3  C   UNL     1      59.482  27.571  49.398  1.00  0.00     0.006 C 
BRANCH   3   4
ATOM      4  C   UNL     1      59.114  26.204  49.986  1.00  0.00     0.053 C 
BRANCH   4   5
ATOM      5  C   UNL     1      60.331  25.388  50.302  1.00  0.00     0.041 C 
ATOM      6  O   UNL     1      61.423  25.954  50.570  1.00  0.00    -0.550 OA
ATOM      7  O   UNL     1      60.262  24.000  50.272  1.00  0.00    -0.550 OA
ENDBRANCH   4   5
ENDBRANCH   3   4
ENDBRANCH   2   3
ENDBRANCH   1   2
BRANCH   1   8
ATOM      8  C   UNL     1      56.867  28.619  51.831  1.00  0.00     0.000 C 
BRANCH   8   9
ATOM      9  C   UNL     1      56.003  28.148  50.651  1.00  0.00     0.000 C 
BRANCH   9  10
ATOM     10  C   UNL     1      55.085  26.971  51.020  1.00  0.00     0.006 C 
BRANCH  10  11
ATOM     11  C   UNL     1      55.316  25.741  50.134  1.00  0.00     0.053 C 
BRANCH  11  12
ATOM     12  C   UNL     1      54.043  24.974  49.963  1.00  0.00     0.041 C 
ATOM     13  O   UNL     1      53.413  25.027  48.874  1.00  0.00    -0.550 OA
ATOM     14  O   UNL     1      53.579  24.161  50.988  1.00  0.00    -0.550 OA
ENDBRANCH  11  12
ENDBRANCH  10  11
ENDBRANCH   9  10
ENDBRANCH   8   9
ENDBRANCH   1   8
TORSDOF 9
ENDMDL
MODEL 3
REMARK VINA RESULT:    -3.400     12.233     13.470
REMARK INTER + INTRA:          -5.779
REMARK INTER:                  -4.823
REMARK INTRA:                  -0.955
REMARK UNBOUND:                -0.590
REMARK SMILES O=C([O-])CCCCCCCCC(=O)[O-]
REMARK SMILES IDX 7 1 6 2 5 3 4 4 2 5 1 6 3 7 8 8 9 9 10 10 11 11 12 12 13 13
REMARK SMILES IDX 14 14
REMARK H PARENT
REMARK Flexibility Score: inf
ROOT
ATOM      1  C   UNL     1      58.422  28.882  51.230  1.00  0.00     0.000 C 
ENDROOT
BRANCH   1   2
ATOM      2  C   UNL     1      57.127  28.256  51.770  1.00  0.00     0.000 C 
BRANCH   2   3
ATOM      3  C   UNL     1      56.138  27.881  50.652  1.00  0.00     0.006 C 
BRANCH   3   4
ATOM      4  C   UNL     1      55.792  26.387  50.662  1.00  0.00     0.053 C 
BRANCH   4   5
ATOM      5  C   UNL     1      54.478  26.115  49.996  1.00  0.00     0.041 C 
ATOM      6  O   UNL     1      54.242  24.984  49.496  1.00  0.00    -0.550 OA
ATOM      7  O   UNL     1      53.525  27.122  49.903  1.00  0.00    -0.550 OA
ENDBRANCH   4   5
ENDBRANCH   3   4
ENDBRANCH   2   3
ENDBRANCH   1   2
BRANCH   1   8
ATOM      8  C   UNL     1      58.646  28.590  49.739  1.00  0.00     0.000 C 
BRANCH   8   9
ATOM      9  C   UNL     1      59.773  27.564  49.545  1.00  0.00     0.000 C 
BRANCH   9  10
ATOM     10  C   UNL     1      59.270  26.112  49.599  1.00  0.00     0.006 C 
BRANCH  10  11
ATOM     11  C   UNL     1      60.127  25.223  50.509  1.00  0.00     0.053 C 
BRANCH  11  12
ATOM     12  C   UNL     1      59.820  25.500  51.947  1.00  0.00     0.041 C 
ATOM     13  O   UNL     1      60.654  26.110  52.667  1.00  0.00    -0.550 OA
ATOM     14  O   UNL     1      58.593  25.128  52.479  1.00  0.00    -0.550 OA
ENDBRANCH  11  12
ENDBRANCH  10  11
ENDBRANCH   9  10
ENDBRANCH   8   9
ENDBRANCH   1   8
TORSDOF 9
ENDMDL
MODEL 4
REMARK VINA RESULT:    -3.378      1.919      5.334
REMARK INTER + INTRA:          -5.745
REMARK INTER:                  -5.195
REMARK INTRA:                  -0.550
REMARK UNBOUND:                -0.590
REMARK SMILES O=C([O-])CCCCCCCCC(=O)[O-]
REMARK SMILES IDX 7 1 6 2 5 3 4 4 2 5 1 6 3 7 8 8 9 9 10 10 11 11 12 12 13 13
REMARK SMILES IDX 14 14
REMARK H PARENT
REMARK Flexibility Score: inf
ROOT
ATOM      1  C   UNL     1      60.547  33.220  59.236  1.00  0.00     0.000 C 
ENDROOT
BRANCH   1   2
ATOM      2  C   UNL     1      60.495  31.883  59.993  1.00  0.00     0.000 C 
BRANCH   2   3
ATOM      3  C   UNL     1      61.739  31.647  60.866  1.00  0.00     0.006 C 
BRANCH   3   4
ATOM      4  C   UNL     1      61.552  30.474  61.836  1.00  0.00     0.053 C 
BRANCH   4   5
ATOM      5  C   UNL     1      62.618  29.435  61.668  1.00  0.00     0.041 C 
ATOM      6  O   UNL     1      63.825  29.776  61.555  1.00  0.00    -0.550 OA
ATOM      7  O   UNL     1      62.273  28.091  61.605  1.00  0.00    -0.550 OA
ENDBRANCH   4   5
ENDBRANCH   3   4
ENDBRANCH   2   3
ENDBRANCH   1   2
BRANCH   1   8
ATOM      8  C   UNL     1      59.686  34.308  59.893  1.00  0.00     0.000 C 
BRANCH   8   9
ATOM      9  C   UNL     1      60.567  35.419  60.486  1.00  0.00     0.000 C 
BRANCH   9  10
ATOM     10  C   UNL     1      62.066  35.184  60.238  1.00  0.00     0.006 C 
BRANCH  10  11
ATOM     11  C   UNL     1      62.950  35.819  61.319  1.00  0.00     0.053 C 
BRANCH  11  12
ATOM     12  C   UNL     1      64.235  35.064  61.452  1.00  0.00     0.041 C 
ATOM     13  O   UNL     1      65.111  35.445  62.272  1.00  0.00    -0.550 OA
ATOM     14  O   UNL     1      64.443  33.911  60.708  1.00  0.00    -0.550 OA
ENDBRANCH  11  12
ENDBRANCH  10  11
ENDBRANCH   9  10
ENDBRANCH   8   9
ENDBRANCH   1   8
TORSDOF 9
ENDMDL
MODEL 5
REMARK VINA RESULT:    -3.373     12.437     13.771
REMARK INTER + INTRA:          -5.737
REMARK INTER:                  -4.990
REMARK INTRA:                  -0.747
REMARK UNBOUND:                -0.590
REMARK SMILES O=C([O-])CCCCCCCCC(=O)[O-]
REMARK SMILES IDX 7 1 6 2 5 3 4 4 2 5 1 6 3 7 8 8 9 9 10 10 11 11 12 12 13 13
REMARK SMILES IDX 14 14
REMARK H PARENT
REMARK Flexibility Score: inf
ROOT
ATOM      1  C   UNL     1      56.205  28.212  51.881  1.00  0.00     0.000 C 
ENDROOT
BRANCH   1   2
ATOM      2  C   UNL     1      55.409  28.786  50.699  1.00  0.00     0.000 C 
BRANCH   2   3
ATOM      3  C   UNL     1      54.143  27.969  50.384  1.00  0.00     0.006 C 
BRANCH   3   4
ATOM      4  C   UNL     1      54.197  26.561  50.990  1.00  0.00     0.053 C 
BRANCH   4   5
ATOM      5  C   UNL     1      54.705  25.550  50.006  1.00  0.00     0.041 C 
ATOM      6  O   UNL     1      55.933  25.282  49.948  1.00  0.00    -0.550 OA
ATOM      7  O   UNL     1      53.821  24.928  49.133  1.00  0.00    -0.550 OA
ENDBRANCH   4   5
ENDBRANCH   3   4
ENDBRANCH   2   3
ENDBRANCH   1   2
BRANCH   1   8
ATOM      8  C   UNL     1      57.680  27.957  51.537  1.00  0.00     0.000 C 
BRANCH   8   9
ATOM      9  C   UNL     1      58.033  28.556  50.166  1.00  0.00     0.000 C 
BRANCH   9  10
ATOM     10  C   UNL     1      59.206  27.831  49.487  1.00  0.00     0.006 C 
BRANCH  10  11
ATOM     11  C   UNL     1      59.270  26.342  49.850  1.00  0.00     0.053 C 
BRANCH  11  12
ATOM     12  C   UNL     1      60.624  25.992  50.381  1.00  0.00     0.041 C 
ATOM     13  O   UNL     1      61.368  26.888  50.858  1.00  0.00    -0.550 OA
ATOM     14  O   UNL     1      61.044  24.668  50.396  1.00  0.00    -0.550 OA
ENDBRANCH  11  12
ENDBRANCH  10  11
ENDBRANCH   9  10
ENDBRANCH   8   9
ENDBRANCH   1   8
TORSDOF 9
ENDMDL
MODEL 6
REMARK VINA RESULT:    -3.363     12.617     14.092
REMARK INTER + INTRA:          -5.722
REMARK INTER:                  -5.123
REMARK INTRA:                  -0.600
REMARK UNBOUND:                -0.590
REMARK SMILES O=C([O-])CCCCCCCCC(=O)[O-]
REMARK SMILES IDX 7 1 6 2 5 3 4 4 2 5 1 6 3 7 8 8 9 9 10 10 11 11 12 12 13 13
REMARK SMILES IDX 14 14
REMARK H PARENT
REMARK Flexibility Score: inf
ROOT
ATOM      1  C   UNL     1      56.908  27.573  50.657  1.00  0.00     0.000 C 
ENDROOT
BRANCH   1   2
ATOM      2  C   UNL     1      57.997  28.612  50.348  1.00  0.00     0.000 C 
BRANCH   2   3
ATOM      3  C   UNL     1      59.118  28.049  49.457  1.00  0.00     0.006 C 
BRANCH   3   4
ATOM      4  C   UNL     1      59.339  26.549  49.684  1.00  0.00     0.053 C 
BRANCH   4   5
ATOM      5  C   UNL     1      60.506  26.288  50.588  1.00  0.00     0.041 C 
ATOM      6  O   UNL     1      60.334  26.179  51.830  1.00  0.00    -0.550 OA
ATOM      7  O   UNL     1      61.787  26.196  50.058  1.00  0.00    -0.550 OA
ENDBRANCH   4   5
ENDBRANCH   3   4
ENDBRANCH   2   3
ENDBRANCH   1   2
BRANCH   1   8
ATOM      8  C   UNL     1      55.522  28.206  50.856  1.00  0.00     0.000 C 
BRANCH   8   9
ATOM      9  C   UNL     1      54.427  27.336  50.220  1.00  0.00     0.000 C 
BRANCH   9  10
ATOM     10  C   UNL     1      54.876  25.882  50.002  1.00  0.00     0.006 C 
BRANCH  10  11
ATOM     11  C   UNL     1      53.791  24.866  50.384  1.00  0.00     0.053 C 
BRANCH  11  12
ATOM     12  C   UNL     1      54.014  24.362  51.775  1.00  0.00     0.041 C 
ATOM     13  O   UNL     1      53.259  23.476  52.256  1.00  0.00    -0.550 OA
ATOM     14  O   UNL     1      55.085  24.834  52.521  1.00  0.00    -0.550 OA
ENDBRANCH  11  12
ENDBRANCH  10  11
ENDBRANCH   9  10
ENDBRANCH   8   9
ENDBRANCH   1   8
TORSDOF 9
ENDMDL
MODEL 7
REMARK VINA RESULT:    -3.335     12.296     13.413
REMARK INTER + INTRA:          -5.679
REMARK INTER:                  -5.143
REMARK INTRA:                  -0.536
REMARK UNBOUND:                -0.590
REMARK SMILES O=C([O-])CCCCCCCCC(=O)[O-]
REMARK SMILES IDX 7 1 6 2 5 3 4 4 2 5 1 6 3 7 8 8 9 9 10 10 11 11 12 12 13 13
REMARK SMILES IDX 14 14
REMARK H PARENT
REMARK Flexibility Score: inf
ROOT
ATOM      1  C   UNL     1      58.866  28.337  49.534  1.00  0.00     0.000 C 
ENDROOT
BRANCH   1   2
ATOM      2  C   UNL     1      58.119  28.538  50.861  1.00  0.00     0.000 C 
BRANCH   2   3
ATOM      3  C   UNL     1      56.593  28.408  50.708  1.00  0.00     0.006 C 
BRANCH   3   4
ATOM      4  C   UNL     1      56.088  27.016  51.107  1.00  0.00     0.053 C 
BRANCH   4   5
ATOM      5  C   UNL     1      54.957  26.562  50.234  1.00  0.00     0.041 C 
ATOM      6  O   UNL     1      54.995  25.431  49.684  1.00  0.00    -0.550 OA
ATOM      7  O   UNL     1      53.875  27.404  50.008  1.00  0.00    -0.550 OA
ENDBRANCH   4   5
ENDBRANCH   3   4
ENDBRANCH   2   3
ENDBRANCH   1   2
BRANCH   1   8
ATOM      8  C   UNL     1      59.943  27.245  49.618  1.00  0.00     0.000 C 
BRANCH   8   9
ATOM      9  C   UNL     1      59.303  25.854  49.747  1.00  0.00     0.000 C 
BRANCH   9  10
ATOM     10  C   UNL     1      60.199  24.856  50.498  1.00  0.00     0.006 C 
BRANCH  10  11
ATOM     11  C   UNL     1      61.630  25.375  50.689  1.00  0.00     0.053 C 
BRANCH  11  12
ATOM     12  C   UNL     1      62.620  24.281  50.443  1.00  0.00     0.041 C 
ATOM     13  O   UNL     1      63.838  24.554  50.278  1.00  0.00    -0.550 OA
ATOM     14  O   UNL     1      62.206  22.956  50.446  1.00  0.00    -0.550 OA
ENDBRANCH  11  12
ENDBRANCH  10  11
ENDBRANCH   9  10
ENDBRANCH   8   9
ENDBRANCH   1   8
TORSDOF 9
ENDMDL
MODEL 8
REMARK VINA RESULT:    -3.331      2.527      3.634
REMARK INTER + INTRA:          -5.674
REMARK INTER:                  -4.855
REMARK INTRA:                  -0.819
REMARK UNBOUND:                -0.590
REMARK SMILES O=C([O-])CCCCCCCCC(=O)[O-]
REMARK SMILES IDX 7 1 6 2 5 3 4 4 2 5 1 6 3 7 8 8 9 9 10 10 11 11 12 12 13 13
REMARK SMILES IDX 14 14
REMARK H PARENT
REMARK Flexibility Score: inf
ROOT
ATOM      1  C   UNL     1      64.534  33.373  60.478  1.00  0.00     0.000 C 
ENDROOT
BRANCH   1   2
ATOM      2  C   UNL     1      64.469  34.515  61.504  1.00  0.00     0.000 C 
BRANCH   2   3
ATOM      3  C   UNL     1      63.847  35.798  60.925  1.00  0.00     0.006 C 
BRANCH   3   4
ATOM      4  C   UNL     1      62.367  35.944  61.300  1.00  0.00     0.053 C 
BRANCH   4   5
ATOM      5  C   UNL     1      61.466  35.408  60.229  1.00  0.00     0.041 C 
ATOM      6  O   UNL     1      61.828  35.429  59.024  1.00  0.00    -0.550 OA
ATOM      7  O   UNL     1      60.211  34.912  60.563  1.00  0.00    -0.550 OA
ENDBRANCH   4   5
ENDBRANCH   3   4
ENDBRANCH   2   3
ENDBRANCH   1   2
BRANCH   1   8
ATOM      8  C   UNL     1      63.752  32.129  60.924  1.00  0.00     0.000 C 
BRANCH   8   9
ATOM      9  C   UNL     1      62.550  31.877  60.000  1.00  0.00     0.000 C 
BRANCH   9  10
ATOM     10  C   UNL     1      61.278  31.494  60.773  1.00  0.00     0.006 C 
BRANCH  10  11
ATOM     11  C   UNL     1      61.555  30.508  61.915  1.00  0.00     0.053 C 
BRANCH  11  12
ATOM     12  C   UNL     1      61.754  29.127  61.375  1.00  0.00     0.041 C 
ATOM     13  O   UNL     1      60.784  28.493  60.883  1.00  0.00    -0.550 OA
ATOM     14  O   UNL     1      63.021  28.559  61.369  1.00  0.00    -0.550 OA
ENDBRANCH  11  12
ENDBRANCH  10  11
ENDBRANCH   9  10
ENDBRANCH   8   9
ENDBRANCH   1   8
TORSDOF 9
ENDMDL
MODEL 9
REMARK VINA RESULT:    -3.257     12.694     13.976
REMARK INTER + INTRA:          -5.560
REMARK INTER:                  -4.552
REMARK INTRA:                  -1.008
REMARK UNBOUND:                -0.590
REMARK SMILES O=C([O-])CCCCCCCCC(=O)[O-]
REMARK SMILES IDX 7 1 6 2 5 3 4 4 2 5 1 6 3 7 8 8 9 9 10 10 11 11 12 12 13 13
REMARK SMILES IDX 14 14
REMARK H PARENT
REMARK Flexibility Score: inf
ROOT
ATOM      1  C   UNL     1      56.460  27.815  52.097  1.00  0.00     0.000 C 
ENDROOT
BRANCH   1   2
ATOM      2  C   UNL     1      55.753  28.207  50.790  1.00  0.00     0.000 C 
BRANCH   2   3
ATOM      3  C   UNL     1      54.222  28.249  50.934  1.00  0.00     0.006 C 
BRANCH   3   4
ATOM      4  C   UNL     1      53.520  27.325  49.931  1.00  0.00     0.053 C 
BRANCH   4   5
ATOM      5  C   UNL     1      53.601  25.888  50.347  1.00  0.00     0.041 C 
ATOM      6  O   UNL     1      53.432  25.565  51.552  1.00  0.00    -0.550 OA
ATOM      7  O   UNL     1      53.894  24.908  49.406  1.00  0.00    -0.550 OA
ENDBRANCH   4   5
ENDBRANCH   3   4
ENDBRANCH   2   3
ENDBRANCH   1   2
BRANCH   1   8
ATOM      8  C   UNL     1      56.876  26.337  52.127  1.00  0.00     0.000 C 
BRANCH   8   9
ATOM      9  C   UNL     1      57.301  25.859  50.731  1.00  0.00     0.000 C 
BRANCH   9  10
ATOM     10  C   UNL     1      58.789  25.475  50.663  1.00  0.00     0.006 C 
BRANCH  10  11
ATOM     11  C   UNL     1      59.570  26.316  49.644  1.00  0.00     0.053 C 
BRANCH  11  12
ATOM     12  C   UNL     1      59.525  27.763  50.019  1.00  0.00     0.041 C 
ATOM     13  O   UNL     1      60.132  28.171  51.044  1.00  0.00    -0.550 OA
ATOM     14  O   UNL     1      58.855  28.670  49.209  1.00  0.00    -0.550 OA
ENDBRANCH  11  12
ENDBRANCH  10  11
ENDBRANCH   9  10
ENDBRANCH   8   9
ENDBRANCH   1   8
TORSDOF 9
ENDMDL
