MODEL 1
REMARK VINA RESULT:    -7.671      0.000      0.000
REMARK INTER + INTRA:          -9.308
REMARK INTER:                  -9.017
REMARK INTRA:                  -0.291
REMARK UNBOUND:                -0.291
REMARK SMILES O=c1cc(-c2ccc(O)c(O)c2)oc2cc(O)cc(O)c12
REMARK SMILES IDX 4 1 3 2 2 3 1 4 21 5 19 6 18 7 16 8 15 9 14 10 13 11 5 12
REMARK SMILES IDX 6 13 7 14 8 15 12 16 10 17 9 18 11 20 20 22 17 24
REMARK H PARENT 9 19 11 21 20 23 17 25
REMARK Flexibility Score: inf
ROOT
ATOM      1  C   UNL     1      39.993  64.070   6.250  1.00  0.00     0.138 A 
ATOM      2  C   UNL     1      41.216  64.050   5.567  1.00  0.00     0.100 A 
ATOM      3  C   UNL     1      42.075  62.959   5.720  1.00  0.00     0.197 A 
ATOM      4  O   UNL     1      43.139  62.945   5.051  1.00  0.00    -0.289 OA
ATOM      5  C   UNL     1      41.719  61.900   6.589  1.00  0.00     0.107 A 
ATOM      6  C   UNL     1      42.529  60.754   6.850  1.00  0.00     0.134 A 
ATOM      7  C   UNL     1      42.027  59.723   7.654  1.00  0.00     0.093 A 
ATOM      8  C   UNL     1      40.771  59.821   8.254  1.00  0.00     0.123 A 
ATOM      9  C   UNL     1      39.992  60.961   8.047  1.00  0.00     0.094 A 
ATOM     10  C   UNL     1      40.449  61.990   7.221  1.00  0.00     0.146 A 
ATOM     11  O   UNL     1      39.668  63.049   7.036  1.00  0.00    -0.456 OA
ENDROOT
BRANCH   1  12
ATOM     12  C   UNL     1      39.044  65.206   6.127  1.00  0.00     0.021 A 
ATOM     13  C   UNL     1      38.035  65.435   7.081  1.00  0.00     0.016 A 
ATOM     14  C   UNL     1      37.163  66.519   6.945  1.00  0.00     0.051 A 
ATOM     15  C   UNL     1      37.287  67.395   5.863  1.00  0.00     0.157 A 
ATOM     16  C   UNL     1      39.172  66.099   5.048  1.00  0.00     0.062 A 
ATOM     17  C   UNL     1      38.297  67.186   4.910  1.00  0.00     0.158 A 
BRANCH  15  18
ATOM     18  O   UNL     1      36.400  68.466   5.753  1.00  0.00    -0.504 OA
ATOM     19  H   UNL     1      35.395  68.337   5.769  1.00  0.00     0.293 HD
ENDBRANCH  15  18
BRANCH  17  20
ATOM     20  O   UNL     1      38.428  68.059   3.829  1.00  0.00    -0.504 OA
ATOM     21  H   UNL     1      37.651  68.621   3.505  1.00  0.00     0.293 HD
ENDBRANCH  17  20
ENDBRANCH   1  12
BRANCH   6  22
ATOM     22  O   UNL     1      43.831  60.587   6.367  1.00  0.00    -0.507 OA
ATOM     23  H   UNL     1      44.239  59.708   6.092  1.00  0.00     0.293 HD
ENDBRANCH   6  22
BRANCH   8  24
ATOM     24  O   UNL     1      40.312  58.783   9.060  1.00  0.00    -0.508 OA
ATOM     25  H   UNL     1      40.948  58.211   9.602  1.00  0.00     0.293 HD
ENDBRANCH   8  24
TORSDOF 5
ENDMDL
MODEL 2
REMARK VINA RESULT:    -7.580     14.720     15.318
REMARK INTER + INTRA:          -9.200
REMARK INTER:                  -8.930
REMARK INTRA:                  -0.270
REMARK UNBOUND:                -0.291
REMARK SMILES O=c1cc(-c2ccc(O)c(O)c2)oc2cc(O)cc(O)c12
REMARK SMILES IDX 4 1 3 2 2 3 1 4 21 5 19 6 18 7 16 8 15 9 14 10 13 11 5 12
REMARK SMILES IDX 6 13 7 14 8 15 12 16 10 17 9 18 11 20 20 22 17 24
REMARK H PARENT 9 19 11 21 20 23 17 25
REMARK Flexibility Score: inf
ROOT
ATOM      1  C   UNL     1      30.342  58.128  -3.400  1.00  0.00     0.138 A 
ATOM      2  C   UNL     1      31.677  58.498  -3.190  1.00  0.00     0.100 A 
ATOM      3  C   UNL     1      32.104  58.849  -1.907  1.00  0.00     0.197 A 
ATOM      4  O   UNL     1      33.319  59.123  -1.742  1.00  0.00    -0.289 OA
ATOM      5  C   UNL     1      31.177  58.863  -0.838  1.00  0.00     0.107 A 
ATOM      6  C   UNL     1      31.489  59.237   0.505  1.00  0.00     0.134 A 
ATOM      7  C   UNL     1      30.511  59.116   1.500  1.00  0.00     0.093 A 
ATOM      8  C   UNL     1      29.218  58.692   1.193  1.00  0.00     0.123 A 
ATOM      9  C   UNL     1      28.888  58.373  -0.125  1.00  0.00     0.094 A 
ATOM     10  C   UNL     1      29.851  58.449  -1.134  1.00  0.00     0.146 A 
ATOM     11  O   UNL     1      29.499  58.119  -2.372  1.00  0.00    -0.456 OA
ENDROOT
BRANCH   1  12
ATOM     12  C   UNL     1      29.834  57.749  -4.742  1.00  0.00     0.021 A 
ATOM     13  C   UNL     1      29.130  56.549  -4.957  1.00  0.00     0.016 A 
ATOM     14  C   UNL     1      28.655  56.224  -6.231  1.00  0.00     0.051 A 
ATOM     15  C   UNL     1      28.866  57.089  -7.307  1.00  0.00     0.157 A 
ATOM     16  C   UNL     1      30.032  58.622  -5.827  1.00  0.00     0.062 A 
ATOM     17  C   UNL     1      29.556  58.296  -7.106  1.00  0.00     0.158 A 
BRANCH  15  18
ATOM     18  O   UNL     1      28.382  56.736  -8.567  1.00  0.00    -0.504 OA
ATOM     19  H   UNL     1      28.977  56.323  -9.275  1.00  0.00     0.293 HD
ENDBRANCH  15  18
BRANCH  17  20
ATOM     20  O   UNL     1      29.768  59.166  -8.176  1.00  0.00    -0.504 OA
ATOM     21  H   UNL     1      30.591  59.754  -8.226  1.00  0.00     0.293 HD
ENDBRANCH  17  20
ENDBRANCH   1  12
BRANCH   6  22
ATOM     22  O   UNL     1      32.726  59.749   0.909  1.00  0.00    -0.507 OA
ATOM     23  H   UNL     1      33.590  59.229   0.930  1.00  0.00     0.293 HD
ENDBRANCH   6  22
BRANCH   8  24
ATOM     24  O   UNL     1      28.267  58.599   2.206  1.00  0.00    -0.508 OA
ATOM     25  H   UNL     1      27.518  57.918   2.169  1.00  0.00     0.293 HD
ENDBRANCH   8  24
TORSDOF 5
ENDMDL
MODEL 3
REMARK VINA RESULT:    -7.251     14.987     15.915
REMARK INTER + INTRA:          -8.813
REMARK INTER:                  -8.512
REMARK INTRA:                  -0.301
REMARK UNBOUND:                -0.291
REMARK SMILES O=c1cc(-c2ccc(O)c(O)c2)oc2cc(O)cc(O)c12
REMARK SMILES IDX 4 1 3 2 2 3 1 4 21 5 19 6 18 7 16 8 15 9 14 10 13 11 5 12
REMARK SMILES IDX 6 13 7 14 8 15 12 16 10 17 9 18 11 20 20 22 17 24
REMARK H PARENT 9 19 11 21 20 23 17 25
REMARK Flexibility Score: inf
ROOT
ATOM      1  C   UNL     1      28.738  57.815  -0.622  1.00  0.00     0.138 A 
ATOM      2  C   UNL     1      29.645  58.876  -0.747  1.00  0.00     0.100 A 
ATOM      3  C   UNL     1      30.249  59.128  -1.981  1.00  0.00     0.197 A 
ATOM      4  O   UNL     1      31.014  60.121  -2.074  1.00  0.00    -0.289 OA
ATOM      5  C   UNL     1      29.968  58.289  -3.085  1.00  0.00     0.107 A 
ATOM      6  C   UNL     1      30.549  58.427  -4.382  1.00  0.00     0.134 A 
ATOM      7  C   UNL     1      30.119  57.596  -5.424  1.00  0.00     0.093 A 
ATOM      8  C   UNL     1      29.173  56.595  -5.205  1.00  0.00     0.123 A 
ATOM      9  C   UNL     1      28.635  56.417  -3.929  1.00  0.00     0.094 A 
ATOM     10  C   UNL     1      29.018  57.253  -2.877  1.00  0.00     0.146 A 
ATOM     11  O   UNL     1      28.468  57.061  -1.682  1.00  0.00    -0.456 OA
ENDROOT
BRANCH   1  12
ATOM     12  C   UNL     1      28.070  57.500   0.666  1.00  0.00     0.021 A 
ATOM     13  C   UNL     1      27.658  58.512   1.554  1.00  0.00     0.016 A 
ATOM     14  C   UNL     1      27.023  58.186   2.755  1.00  0.00     0.051 A 
ATOM     15  C   UNL     1      26.781  56.851   3.088  1.00  0.00     0.157 A 
ATOM     16  C   UNL     1      27.811  56.159   1.001  1.00  0.00     0.062 A 
ATOM     17  C   UNL     1      27.175  55.831   2.207  1.00  0.00     0.158 A 
BRANCH  15  18
ATOM     18  O   UNL     1      26.147  56.558   4.295  1.00  0.00    -0.504 OA
ATOM     19  H   UNL     1      26.509  55.865   4.939  1.00  0.00     0.293 HD
ENDBRANCH  15  18
BRANCH  17  20
ATOM     20  O   UNL     1      26.933  54.496   2.531  1.00  0.00    -0.504 OA
ATOM     21  H   UNL     1      25.995  54.115   2.545  1.00  0.00     0.293 HD
ENDBRANCH  17  20
ENDBRANCH   1  12
BRANCH   6  22
ATOM     22  O   UNL     1      31.560  59.342  -4.694  1.00  0.00    -0.507 OA
ATOM     23  H   UNL     1      31.854  60.105  -4.104  1.00  0.00     0.293 HD
ENDBRANCH   6  22
BRANCH   8  24
ATOM     24  O   UNL     1      28.781  55.778  -6.261  1.00  0.00    -0.508 OA
ATOM     25  H   UNL     1      29.423  55.524  -7.003  1.00  0.00     0.293 HD
ENDBRANCH   8  24
TORSDOF 5
ENDMDL
MODEL 4
REMARK VINA RESULT:    -7.074      2.422      4.613
REMARK INTER + INTRA:          -8.606
REMARK INTER:                  -8.292
REMARK INTRA:                  -0.314
REMARK UNBOUND:                -0.291
REMARK SMILES O=c1cc(-c2ccc(O)c(O)c2)oc2cc(O)cc(O)c12
REMARK SMILES IDX 4 1 3 2 2 3 1 4 21 5 19 6 18 7 16 8 15 9 14 10 13 11 5 12
REMARK SMILES IDX 6 13 7 14 8 15 12 16 10 17 9 18 11 20 20 22 17 24
REMARK H PARENT 9 19 11 21 20 23 17 25
REMARK Flexibility Score: inf
ROOT
ATOM      1  C   UNL     1      40.952  60.543   7.466  1.00  0.00     0.138 A 
ATOM      2  C   UNL     1      40.548  59.529   8.344  1.00  0.00     0.100 A 
ATOM      3  C   UNL     1      41.085  58.246   8.213  1.00  0.00     0.197 A 
ATOM      4  O   UNL     1      40.745  57.373   9.051  1.00  0.00    -0.289 OA
ATOM      5  C   UNL     1      42.004  57.972   7.172  1.00  0.00     0.107 A 
ATOM      6  C   UNL     1      42.590  56.695   6.918  1.00  0.00     0.134 A 
ATOM      7  C   UNL     1      43.564  56.569   5.919  1.00  0.00     0.093 A 
ATOM      8  C   UNL     1      43.929  57.656   5.126  1.00  0.00     0.123 A 
ATOM      9  C   UNL     1      43.325  58.897   5.331  1.00  0.00     0.094 A 
ATOM     10  C   UNL     1      42.377  59.065   6.343  1.00  0.00     0.146 A 
ATOM     11  O   UNL     1      41.839  60.268   6.516  1.00  0.00    -0.456 OA
ENDROOT
BRANCH   1  12
ATOM     12  C   UNL     1      40.411  61.923   7.559  1.00  0.00     0.021 A 
ATOM     13  C   UNL     1      39.786  62.396   8.728  1.00  0.00     0.016 A 
ATOM     14  C   UNL     1      39.295  63.704   8.789  1.00  0.00     0.051 A 
ATOM     15  C   UNL     1      39.425  64.561   7.693  1.00  0.00     0.157 A 
ATOM     16  C   UNL     1      40.551  62.795   6.464  1.00  0.00     0.062 A 
ATOM     17  C   UNL     1      40.058  64.107   6.525  1.00  0.00     0.158 A 
BRANCH  15  18
ATOM     18  O   UNL     1      38.924  65.859   7.785  1.00  0.00    -0.504 OA
ATOM     19  H   UNL     1      39.208  66.495   8.520  1.00  0.00     0.293 HD
ENDBRANCH  15  18
BRANCH  17  20
ATOM     20  O   UNL     1      40.195  64.958   5.429  1.00  0.00    -0.504 OA
ATOM     21  H   UNL     1      40.816  65.758   5.453  1.00  0.00     0.293 HD
ENDBRANCH  17  20
ENDBRANCH   1  12
BRANCH   6  22
ATOM     22  O   UNL     1      42.241  55.524   7.598  1.00  0.00    -0.507 OA
ATOM     23  H   UNL     1      42.534  55.287   8.533  1.00  0.00     0.293 HD
ENDBRANCH   6  22
BRANCH   8  24
ATOM     24  O   UNL     1      44.889  57.489   4.131  1.00  0.00    -0.508 OA
ATOM     25  H   UNL     1      44.697  56.950   3.295  1.00  0.00     0.293 HD
ENDBRANCH   8  24
TORSDOF 5
ENDMDL
MODEL 5
REMARK VINA RESULT:    -6.960      3.130      6.697
REMARK INTER + INTRA:          -8.471
REMARK INTER:                  -8.191
REMARK INTRA:                  -0.280
REMARK UNBOUND:                -0.291
REMARK SMILES O=c1cc(-c2ccc(O)c(O)c2)oc2cc(O)cc(O)c12
REMARK SMILES IDX 4 1 3 2 2 3 1 4 21 5 19 6 18 7 16 8 15 9 14 10 13 11 5 12
REMARK SMILES IDX 6 13 7 14 8 15 12 16 10 17 9 18 11 20 20 22 17 24
REMARK H PARENT 9 19 11 21 20 23 17 25
REMARK Flexibility Score: inf
ROOT
ATOM      1  C   UNL     1      40.284  61.634   6.391  1.00  0.00     0.138 A 
ATOM      2  C   UNL     1      39.842  62.588   7.317  1.00  0.00     0.100 A 
ATOM      3  C   UNL     1      40.486  63.825   7.397  1.00  0.00     0.197 A 
ATOM      4  O   UNL     1      40.031  64.679   8.198  1.00  0.00    -0.289 OA
ATOM      5  C   UNL     1      41.602  64.090   6.568  1.00  0.00     0.107 A 
ATOM      6  C   UNL     1      42.359  65.301   6.585  1.00  0.00     0.134 A 
ATOM      7  C   UNL     1      43.383  65.488   5.647  1.00  0.00     0.093 A 
ATOM      8  C   UNL     1      43.717  64.488   4.734  1.00  0.00     0.123 A 
ATOM      9  C   UNL     1      43.017  63.281   4.742  1.00  0.00     0.094 A 
ATOM     10  C   UNL     1      41.967  63.077   5.641  1.00  0.00     0.146 A 
ATOM     11  O   UNL     1      41.315  61.920   5.603  1.00  0.00    -0.456 OA
ENDROOT
BRANCH   1  12
ATOM     12  C   UNL     1      39.639  60.303   6.267  1.00  0.00     0.021 A 
ATOM     13  C   UNL     1      39.467  59.676   5.018  1.00  0.00     0.016 A 
ATOM     14  C   UNL     1      38.865  58.418   4.934  1.00  0.00     0.051 A 
ATOM     15  C   UNL     1      38.432  57.761   6.089  1.00  0.00     0.157 A 
ATOM     16  C   UNL     1      39.213  59.630   7.427  1.00  0.00     0.062 A 
ATOM     17  C   UNL     1      38.608  58.368   7.343  1.00  0.00     0.158 A 
BRANCH  15  18
ATOM     18  O   UNL     1      37.832  56.507   5.971  1.00  0.00    -0.504 OA
ATOM     19  H   UNL     1      37.632  56.089   5.070  1.00  0.00     0.293 HD
ENDBRANCH  15  18
BRANCH  17  20
ATOM     20  O   UNL     1      38.181  57.716   8.500  1.00  0.00    -0.504 OA
ATOM     21  H   UNL     1      37.242  57.347   8.585  1.00  0.00     0.293 HD
ENDBRANCH  17  20
ENDBRANCH   1  12
BRANCH   6  22
ATOM     22  O   UNL     1      42.164  66.335   7.506  1.00  0.00    -0.507 OA
ATOM     23  H   UNL     1      41.594  66.272   8.335  1.00  0.00     0.293 HD
ENDBRANCH   6  22
BRANCH   8  24
ATOM     24  O   UNL     1      44.752  64.704   3.827  1.00  0.00    -0.508 OA
ATOM     25  H   UNL     1      44.805  65.552   3.276  1.00  0.00     0.293 HD
ENDBRANCH   8  24
TORSDOF 5
ENDMDL
MODEL 6
REMARK VINA RESULT:    -6.942     14.185     15.080
REMARK INTER + INTRA:          -8.451
REMARK INTER:                  -8.157
REMARK INTRA:                  -0.294
REMARK UNBOUND:                -0.291
REMARK SMILES O=c1cc(-c2ccc(O)c(O)c2)oc2cc(O)cc(O)c12
REMARK SMILES IDX 4 1 3 2 2 3 1 4 21 5 19 6 18 7 16 8 15 9 14 10 13 11 5 12
REMARK SMILES IDX 6 13 7 14 8 15 12 16 10 17 9 18 11 20 20 22 17 24
REMARK H PARENT 9 19 11 21 20 23 17 25
REMARK Flexibility Score: inf
ROOT
ATOM      1  C   UNL     1      29.207  57.970  -1.213  1.00  0.00     0.138 A 
ATOM      2  C   UNL     1      28.144  57.102  -0.928  1.00  0.00     0.100 A 
ATOM      3  C   UNL     1      27.671  56.994   0.382  1.00  0.00     0.197 A 
ATOM      4  O   UNL     1      26.681  56.250   0.594  1.00  0.00    -0.289 OA
ATOM      5  C   UNL     1      28.291  57.735   1.416  1.00  0.00     0.107 A 
ATOM      6  C   UNL     1      27.918  57.680   2.794  1.00  0.00     0.134 A 
ATOM      7  C   UNL     1      28.542  58.534   3.712  1.00  0.00     0.093 A 
ATOM      8  C   UNL     1      29.563  59.397   3.316  1.00  0.00     0.123 A 
ATOM      9  C   UNL     1      29.971  59.423   1.982  1.00  0.00     0.094 A 
ATOM     10  C   UNL     1      29.345  58.609   1.035  1.00  0.00     0.146 A 
ATOM     11  O   UNL     1      29.752  58.677  -0.228  1.00  0.00    -0.456 OA
ENDROOT
BRANCH   1  12
ATOM     12  C   UNL     1      29.751  58.121  -2.586  1.00  0.00     0.021 A 
ATOM     13  C   UNL     1      30.690  59.119  -2.905  1.00  0.00     0.016 A 
ATOM     14  C   UNL     1      31.192  59.230  -4.205  1.00  0.00     0.051 A 
ATOM     15  C   UNL     1      30.775  58.346  -5.203  1.00  0.00     0.157 A 
ATOM     16  C   UNL     1      29.345  57.225  -3.592  1.00  0.00     0.062 A 
ATOM     17  C   UNL     1      29.848  57.336  -4.896  1.00  0.00     0.158 A 
BRANCH  15  18
ATOM     18  O   UNL     1      31.293  58.483  -6.491  1.00  0.00    -0.504 OA
ATOM     19  H   UNL     1      30.712  58.740  -7.280  1.00  0.00     0.293 HD
ENDBRANCH  15  18
BRANCH  17  20
ATOM     20  O   UNL     1      29.430  56.448  -5.887  1.00  0.00    -0.504 OA
ATOM     21  H   UNL     1      30.075  55.804  -6.328  1.00  0.00     0.293 HD
ENDBRANCH  17  20
ENDBRANCH   1  12
BRANCH   6  22
ATOM     22  O   UNL     1      26.965  56.798   3.313  1.00  0.00    -0.507 OA
ATOM     23  H   UNL     1      26.646  56.787   4.269  1.00  0.00     0.293 HD
ENDBRANCH   6  22
BRANCH   8  24
ATOM     24  O   UNL     1      30.171  60.221   4.261  1.00  0.00    -0.508 OA
ATOM     25  H   UNL     1      29.921  60.176   5.242  1.00  0.00     0.293 HD
ENDBRANCH   8  24
TORSDOF 5
ENDMDL
MODEL 7
REMARK VINA RESULT:    -6.911      2.575      3.636
REMARK INTER + INTRA:          -8.414
REMARK INTER:                  -8.147
REMARK INTRA:                  -0.267
REMARK UNBOUND:                -0.291
REMARK SMILES O=c1cc(-c2ccc(O)c(O)c2)oc2cc(O)cc(O)c12
REMARK SMILES IDX 4 1 3 2 2 3 1 4 21 5 19 6 18 7 16 8 15 9 14 10 13 11 5 12
REMARK SMILES IDX 6 13 7 14 8 15 12 16 10 17 9 18 11 20 20 22 17 24
REMARK H PARENT 9 19 11 21 20 23 17 25
REMARK Flexibility Score: inf
ROOT
ATOM      1  C   UNL     1      41.426  61.272   6.566  1.00  0.00     0.138 A 
ATOM      2  C   UNL     1      42.723  61.409   6.053  1.00  0.00     0.100 A 
ATOM      3  C   UNL     1      43.392  60.288   5.557  1.00  0.00     0.197 A 
ATOM      4  O   UNL     1      44.532  60.454   5.053  1.00  0.00    -0.289 OA
ATOM      5  C   UNL     1      42.770  59.018   5.609  1.00  0.00     0.107 A 
ATOM      6  C   UNL     1      43.368  57.799   5.166  1.00  0.00     0.134 A 
ATOM      7  C   UNL     1      42.616  56.618   5.176  1.00  0.00     0.093 A 
ATOM      8  C   UNL     1      41.312  56.597   5.668  1.00  0.00     0.123 A 
ATOM      9  C   UNL     1      40.734  57.772   6.151  1.00  0.00     0.094 A 
ATOM     10  C   UNL     1      41.445  58.974   6.122  1.00  0.00     0.146 A 
ATOM     11  O   UNL     1      40.852  60.073   6.575  1.00  0.00    -0.456 OA
ENDROOT
BRANCH   1  12
ATOM     12  C   UNL     1      40.670  62.429   7.109  1.00  0.00     0.021 A 
ATOM     13  C   UNL     1      40.178  62.440   8.428  1.00  0.00     0.016 A 
ATOM     14  C   UNL     1      39.479  63.548   8.914  1.00  0.00     0.051 A 
ATOM     15  C   UNL     1      39.266  64.664   8.101  1.00  0.00     0.157 A 
ATOM     16  C   UNL     1      40.465  63.561   6.300  1.00  0.00     0.062 A 
ATOM     17  C   UNL     1      39.763  64.673   6.787  1.00  0.00     0.158 A 
BRANCH  15  18
ATOM     18  O   UNL     1      38.563  65.753   8.615  1.00  0.00    -0.504 OA
ATOM     19  H   UNL     1      37.588  65.918   8.393  1.00  0.00     0.293 HD
ENDBRANCH  15  18
BRANCH  17  20
ATOM     20  O   UNL     1      39.557  65.785   5.971  1.00  0.00    -0.504 OA
ATOM     21  H   UNL     1      40.248  66.521   5.894  1.00  0.00     0.293 HD
ENDBRANCH  17  20
ENDBRANCH   1  12
BRANCH   6  22
ATOM     22  O   UNL     1      44.692  57.690   4.729  1.00  0.00    -0.507 OA
ATOM     23  H   UNL     1      45.502  57.984   5.254  1.00  0.00     0.293 HD
ENDBRANCH   6  22
BRANCH   8  24
ATOM     24  O   UNL     1      40.600  55.400   5.677  1.00  0.00    -0.508 OA
ATOM     25  H   UNL     1      40.714  54.721   6.421  1.00  0.00     0.293 HD
ENDBRANCH   8  24
TORSDOF 5
ENDMDL
MODEL 8
REMARK VINA RESULT:    -6.806     12.321     13.721
REMARK INTER + INTRA:          -8.291
REMARK INTER:                  -7.998
REMARK INTRA:                  -0.292
REMARK UNBOUND:                -0.291
REMARK SMILES O=c1cc(-c2ccc(O)c(O)c2)oc2cc(O)cc(O)c12
REMARK SMILES IDX 4 1 3 2 2 3 1 4 21 5 19 6 18 7 16 8 15 9 14 10 13 11 5 12
REMARK SMILES IDX 6 13 7 14 8 15 12 16 10 17 9 18 11 20 20 22 17 24
REMARK H PARENT 9 19 11 21 20 23 17 25
REMARK Flexibility Score: inf
ROOT
ATOM      1  C   UNL     1      29.800  58.203   2.759  1.00  0.00     0.138 A 
ATOM      2  C   UNL     1      30.584  59.357   2.618  1.00  0.00     0.100 A 
ATOM      3  C   UNL     1      30.835  59.870   1.344  1.00  0.00     0.197 A 
ATOM      4  O   UNL     1      31.495  60.936   1.255  1.00  0.00    -0.289 OA
ATOM      5  C   UNL     1      30.327  59.203   0.204  1.00  0.00     0.107 A 
ATOM      6  C   UNL     1      30.548  59.613  -1.146  1.00  0.00     0.134 A 
ATOM      7  C   UNL     1      29.910  58.928  -2.189  1.00  0.00     0.093 A 
ATOM      8  C   UNL     1      29.110  57.814  -1.937  1.00  0.00     0.123 A 
ATOM      9  C   UNL     1      28.929  57.373  -0.625  1.00  0.00     0.094 A 
ATOM     10  C   UNL     1      29.521  58.056   0.439  1.00  0.00     0.146 A 
ATOM     11  O   UNL     1      29.308  57.613   1.674  1.00  0.00    -0.456 OA
ENDROOT
BRANCH   1  12
ATOM     12  C   UNL     1      29.504  57.613   4.088  1.00  0.00     0.021 A 
ATOM     13  C   UNL     1      28.507  56.635   4.259  1.00  0.00     0.016 A 
ATOM     14  C   UNL     1      28.258  56.089   5.522  1.00  0.00     0.051 A 
ATOM     15  C   UNL     1      29.001  56.503   6.631  1.00  0.00     0.157 A 
ATOM     16  C   UNL     1      30.258  58.015   5.206  1.00  0.00     0.062 A 
ATOM     17  C   UNL     1      30.008  57.469   6.473  1.00  0.00     0.158 A 
BRANCH  15  18
ATOM     18  O   UNL     1      28.727  55.941   7.878  1.00  0.00    -0.504 OA
ATOM     19  H   UNL     1      27.803  55.610   8.128  1.00  0.00     0.293 HD
ENDBRANCH  15  18
BRANCH  17  20
ATOM     20  O   UNL     1      30.756  57.883   7.575  1.00  0.00    -0.504 OA
ATOM     21  H   UNL     1      31.719  58.183   7.480  1.00  0.00     0.293 HD
ENDBRANCH  17  20
ENDBRANCH   1  12
BRANCH   6  22
ATOM     22  O   UNL     1      31.392  60.664  -1.518  1.00  0.00    -0.507 OA
ATOM     23  H   UNL     1      32.369  60.569  -1.747  1.00  0.00     0.293 HD
ENDBRANCH   6  22
BRANCH   8  24
ATOM     24  O   UNL     1      28.505  57.149  -3.000  1.00  0.00    -0.508 OA
ATOM     25  H   UNL     1      27.522  57.271  -3.212  1.00  0.00     0.293 HD
ENDBRANCH   8  24
TORSDOF 5
ENDMDL
MODEL 9
REMARK VINA RESULT:    -6.688     13.027     13.898
REMARK INTER + INTRA:          -8.152
REMARK INTER:                  -7.835
REMARK INTRA:                  -0.317
REMARK UNBOUND:                -0.291
REMARK SMILES O=c1cc(-c2ccc(O)c(O)c2)oc2cc(O)cc(O)c12
REMARK SMILES IDX 4 1 3 2 2 3 1 4 21 5 19 6 18 7 16 8 15 9 14 10 13 11 5 12
REMARK SMILES IDX 6 13 7 14 8 15 12 16 10 17 9 18 11 20 20 22 17 24
REMARK H PARENT 9 19 11 21 20 23 17 25
REMARK Flexibility Score: inf
ROOT
ATOM      1  C   UNL     1      29.335  57.303   0.946  1.00  0.00     0.138 A 
ATOM      2  C   UNL     1      28.338  56.318   0.950  1.00  0.00     0.100 A 
ATOM      3  C   UNL     1      27.937  55.746   2.160  1.00  0.00     0.197 A 
ATOM      4  O   UNL     1      27.002  54.906   2.136  1.00  0.00    -0.289 OA
ATOM      5  C   UNL     1      28.564  56.140   3.366  1.00  0.00     0.107 A 
ATOM      6  C   UNL     1      28.263  55.602   4.654  1.00  0.00     0.134 A 
ATOM      7  C   UNL     1      28.881  56.142   5.789  1.00  0.00     0.093 A 
ATOM      8  C   UNL     1      29.831  57.157   5.680  1.00  0.00     0.123 A 
ATOM      9  C   UNL     1      30.171  57.655   4.421  1.00  0.00     0.094 A 
ATOM     10  C   UNL     1      29.546  57.163   3.272  1.00  0.00     0.146 A 
ATOM     11  O   UNL     1      29.886  57.678   2.095  1.00  0.00    -0.456 OA
ENDROOT
BRANCH   1  12
ATOM     12  C   UNL     1      29.802  57.942  -0.311  1.00  0.00     0.021 A 
ATOM     13  C   UNL     1      29.120  57.764  -1.530  1.00  0.00     0.016 A 
ATOM     14  C   UNL     1      29.577  58.386  -2.695  1.00  0.00     0.051 A 
ATOM     15  C   UNL     1      30.713  59.199  -2.664  1.00  0.00     0.157 A 
ATOM     16  C   UNL     1      30.936  58.773  -0.284  1.00  0.00     0.062 A 
ATOM     17  C   UNL     1      31.396  59.396  -1.453  1.00  0.00     0.158 A 
BRANCH  15  18
ATOM     18  O   UNL     1      31.146  59.804  -3.844  1.00  0.00    -0.504 OA
ATOM     19  H   UNL     1      31.295  60.804  -3.912  1.00  0.00     0.293 HD
ENDBRANCH  15  18
BRANCH  17  20
ATOM     20  O   UNL     1      32.529  60.209  -1.414  1.00  0.00    -0.504 OA
ATOM     21  H   UNL     1      33.077  60.395  -2.245  1.00  0.00     0.293 HD
ENDBRANCH  17  20
ENDBRANCH   1  12
BRANCH   6  22
ATOM     22  O   UNL     1      27.388  54.533   4.871  1.00  0.00    -0.507 OA
ATOM     23  H   UNL     1      26.806  54.107   4.166  1.00  0.00     0.293 HD
ENDBRANCH   6  22
BRANCH   8  24
ATOM     24  O   UNL     1      30.436  57.658   6.829  1.00  0.00    -0.508 OA
ATOM     25  H   UNL     1      31.444  57.715   6.916  1.00  0.00     0.293 HD
ENDBRANCH   8  24
TORSDOF 5
ENDMDL
