MODEL 1
REMARK VINA RESULT:    -6.919      0.000      0.000
REMARK INTER + INTRA:         -12.244
REMARK INTER:                  -9.346
REMARK INTRA:                  -2.898
REMARK UNBOUND:                -2.898
REMARK SMILES CC[C@@H](CC[C@H](C)[C@@H]1CC[C@@H]2[C@H]3CC(=O)C4=CC(=O)CC[C@@]4(C)[C@@H]3CC[C@@]21C)C(C)C
REMARK SMILES IDX 4 1 3 2 2 3 1 4 29 5 30 6 31 7 5 8 6 9 7 10 8 11 9 12 27 13
REMARK SMILES IDX 10 14 11 15 26 16 28 17 12 18 25 19 24 20 13 21 22 22 14 23
REMARK SMILES IDX 16 24 21 25 23 26 15 27 17 28 20 29 18 30 19 31
REMARK H PARENT
REMARK Flexibility Score: inf
ROOT
ATOM      1  C   UNL     1     101.712 112.323 113.700  1.00  0.00     0.004 C 
ENDROOT
BRANCH   1   2
ATOM      2  C   UNL     1     102.294 111.003 114.286  1.00  0.00    -0.009 C 
BRANCH   2   3
ATOM      3  C   UNL     1     102.391 111.066 115.835  1.00  0.00     0.000 C 
ATOM      4  C   UNL     1     101.669 112.276 116.431  1.00  0.00     0.004 C 
ENDBRANCH   2   3
BRANCH   2   5
ATOM      5  C   UNL     1     103.580 110.442 113.581  1.00  0.00    -0.014 C 
ATOM      6  C   UNL     1     104.696 111.491 113.468  1.00  0.00     0.007 C 
ATOM      7  C   UNL     1     104.133 109.129 114.164  1.00  0.00     0.007 C 
ENDBRANCH   2   5
ENDBRANCH   1   2
BRANCH   1   8
ATOM      8  C   UNL     1     100.723 112.158 112.528  1.00  0.00     0.004 C 
BRANCH   8   9
ATOM      9  C   UNL     1     100.280 110.686 112.291  1.00  0.00    -0.011 C 
ATOM     10  C   UNL     1     100.718 110.241 110.876  1.00  0.00     0.008 C 
BRANCH   9  11
ATOM     11  C   UNL     1      98.727 110.426 112.474  1.00  0.00    -0.002 C 
ATOM     12  C   UNL     1      97.975 111.596 113.128  1.00  0.00     0.005 C 
ATOM     13  C   UNL     1      98.337 109.216 113.414  1.00  0.00    -0.026 C 
ATOM     14  C   UNL     1      98.156 111.385 114.613  1.00  0.00     0.005 C 
ATOM     15  C   UNL     1      98.135 109.861 114.828  1.00  0.00    -0.001 C 
ATOM     16  C   UNL     1      99.353 108.028 113.458  1.00  0.00     0.007 C 
ATOM     17  C   UNL     1      96.977 108.639 112.917  1.00  0.00     0.012 C 
ATOM     18  C   UNL     1      99.184 109.395 115.881  1.00  0.00     0.004 C 
ATOM     19  C   UNL     1      99.128 107.103 114.661  1.00  0.00     0.005 C 
ATOM     20  C   UNL     1      99.152 107.842 116.037  1.00  0.00     0.003 C 
ATOM     21  C   UNL     1      98.922 110.063 117.245  1.00  0.00     0.085 C 
ATOM     22  C   UNL     1     100.254 107.307 117.036  1.00  0.00    -0.000 C 
ATOM     23  C   UNL     1      99.849 109.549 118.300  1.00  0.00     0.159 C 
ATOM     24  C   UNL     1     100.212 108.114 118.340  1.00  0.00     0.005 C 
ATOM     25  C   UNL     1      99.963 105.804 117.359  1.00  0.00     0.020 C 
ATOM     26  C   UNL     1     101.680 107.453 116.439  1.00  0.00     0.017 C 
ATOM     27  O   UNL     1     100.252 110.337 119.198  1.00  0.00    -0.295 OA
ATOM     28  C   UNL     1     100.588 107.567 119.512  1.00  0.00     0.055 C 
ATOM     29  C   UNL     1     100.879 105.234 118.450  1.00  0.00     0.081 C 
ATOM     30  C   UNL     1     100.935 106.144 119.636  1.00  0.00     0.156 C 
ATOM     31  O   UNL     1     101.309 105.690 120.749  1.00  0.00    -0.295 OA
ENDBRANCH   9  11
ENDBRANCH   8   9
ENDBRANCH   1   8
TORSDOF 6
ENDMDL
MODEL 2
REMARK VINA RESULT:    -6.363      1.075      1.234
REMARK INTER + INTRA:         -11.493
REMARK INTER:                  -8.562
REMARK INTRA:                  -2.931
REMARK UNBOUND:                -2.898
REMARK SMILES CC[C@@H](CC[C@H](C)[C@@H]1CC[C@@H]2[C@H]3CC(=O)C4=CC(=O)CC[C@@]4(C)[C@@H]3CC[C@@]21C)C(C)C
REMARK SMILES IDX 4 1 3 2 2 3 1 4 29 5 30 6 31 7 5 8 6 9 7 10 8 11 9 12 27 13
REMARK SMILES IDX 10 14 11 15 26 16 28 17 12 18 25 19 24 20 13 21 22 22 14 23
REMARK SMILES IDX 16 24 21 25 23 26 15 27 17 28 20 29 18 30 19 31
REMARK H PARENT
REMARK Flexibility Score: inf
ROOT
ATOM      1  C   UNL     1     100.800 112.675 112.652  1.00  0.00     0.004 C 
ENDROOT
BRANCH   1   2
ATOM      2  C   UNL     1     101.505 111.492 113.380  1.00  0.00    -0.009 C 
BRANCH   2   3
ATOM      3  C   UNL     1     101.475 111.677 114.921  1.00  0.00     0.000 C 
ATOM      4  C   UNL     1     100.545 112.807 115.369  1.00  0.00     0.004 C 
ENDBRANCH   2   3
BRANCH   2   5
ATOM      5  C   UNL     1     102.904 111.064 112.809  1.00  0.00    -0.014 C 
ATOM      6  C   UNL     1     103.726 112.260 112.305  1.00  0.00     0.007 C 
ATOM      7  C   UNL     1     103.755 110.180 113.738  1.00  0.00     0.007 C 
ENDBRANCH   2   5
ENDBRANCH   1   2
BRANCH   1   8
ATOM      8  C   UNL     1      99.975 112.298 111.404  1.00  0.00     0.004 C 
BRANCH   8   9
ATOM      9  C   UNL     1      99.771 110.765 111.233  1.00  0.00    -0.011 C 
ATOM     10  C   UNL     1     100.364 110.318 109.876  1.00  0.00     0.008 C 
BRANCH   9  11
ATOM     11  C   UNL     1      98.265 110.284 111.340  1.00  0.00    -0.002 C 
ATOM     12  C   UNL     1      97.306 111.360 111.876  1.00  0.00     0.005 C 
ATOM     13  C   UNL     1      97.995 109.080 112.329  1.00  0.00    -0.026 C 
ATOM     14  C   UNL     1      97.417 111.256 113.380  1.00  0.00     0.005 C 
ATOM     15  C   UNL     1      97.606 109.759 113.686  1.00  0.00    -0.001 C 
ATOM     16  C   UNL     1      99.170 108.062 112.504  1.00  0.00     0.007 C 
ATOM     17  C   UNL     1      96.772 108.279 111.788  1.00  0.00     0.012 C 
ATOM     18  C   UNL     1      98.639 109.512 114.825  1.00  0.00     0.004 C 
ATOM     19  C   UNL     1      99.004 107.177 113.746  1.00  0.00     0.005 C 
ATOM     20  C   UNL     1      98.826 107.982 115.073  1.00  0.00     0.003 C 
ATOM     21  C   UNL     1      98.191 110.203 116.128  1.00  0.00     0.085 C 
ATOM     22  C   UNL     1      99.925 107.672 116.166  1.00  0.00    -0.000 C 
ATOM     23  C   UNL     1      99.111 109.889 117.264  1.00  0.00     0.159 C 
ATOM     24  C   UNL     1      99.678 108.530 117.414  1.00  0.00     0.005 C 
ATOM     25  C   UNL     1      99.838 106.161 116.563  1.00  0.00     0.020 C 
ATOM     26  C   UNL     1     101.351 108.001 115.645  1.00  0.00     0.017 C 
ATOM     27  O   UNL     1      99.333 110.775 118.134  1.00  0.00    -0.295 OA
ATOM     28  C   UNL     1     100.051 108.108 118.637  1.00  0.00     0.055 C 
ATOM     29  C   UNL     1     100.753 105.793 117.739  1.00  0.00     0.081 C 
ATOM     30  C   UNL     1     100.595 106.761 118.868  1.00  0.00     0.156 C 
ATOM     31  O   UNL     1     100.957 106.428 120.027  1.00  0.00    -0.295 OA
ENDBRANCH   9  11
ENDBRANCH   8   9
ENDBRANCH   1   8
TORSDOF 6
ENDMDL
MODEL 3
REMARK VINA RESULT:    -6.305      1.925      3.075
REMARK INTER + INTRA:         -11.414
REMARK INTER:                  -9.819
REMARK INTRA:                  -1.595
REMARK UNBOUND:                -2.898
REMARK SMILES CC[C@@H](CC[C@H](C)[C@@H]1CC[C@@H]2[C@H]3CC(=O)C4=CC(=O)CC[C@@]4(C)[C@@H]3CC[C@@]21C)C(C)C
REMARK SMILES IDX 4 1 3 2 2 3 1 4 29 5 30 6 31 7 5 8 6 9 7 10 8 11 9 12 27 13
REMARK SMILES IDX 10 14 11 15 26 16 28 17 12 18 25 19 24 20 13 21 22 22 14 23
REMARK SMILES IDX 16 24 21 25 23 26 15 27 17 28 20 29 18 30 19 31
REMARK H PARENT
REMARK Flexibility Score: inf
ROOT
ATOM      1  C   UNL     1     100.605 113.704 113.434  1.00  0.00     0.004 C 
ENDROOT
BRANCH   1   2
ATOM      2  C   UNL     1      99.736 114.866 113.998  1.00  0.00    -0.009 C 
BRANCH   2   3
ATOM      3  C   UNL     1      99.688 114.836 115.550  1.00  0.00     0.000 C 
ATOM      4  C   UNL     1     100.032 116.185 116.185  1.00  0.00     0.004 C 
ENDBRANCH   2   3
BRANCH   2   5
ATOM      5  C   UNL     1      98.339 115.080 113.314  1.00  0.00    -0.014 C 
ATOM      6  C   UNL     1      98.038 116.560 113.038  1.00  0.00     0.007 C 
ATOM      7  C   UNL     1      98.085 114.235 112.052  1.00  0.00     0.007 C 
ENDBRANCH   2   5
ENDBRANCH   1   2
BRANCH   1   8
ATOM      8  C   UNL     1     100.810 112.501 114.378  1.00  0.00     0.004 C 
BRANCH   8   9
ATOM      9  C   UNL     1     100.428 111.136 113.738  1.00  0.00    -0.011 C 
ATOM     10  C   UNL     1     100.827 111.142 112.244  1.00  0.00     0.008 C 
BRANCH   9  11
ATOM     11  C   UNL     1      98.898 110.745 113.879  1.00  0.00    -0.002 C 
ATOM     12  C   UNL     1      98.108 111.665 114.823  1.00  0.00     0.005 C 
ATOM     13  C   UNL     1      98.606 109.316 114.490  1.00  0.00    -0.026 C 
ATOM     14  C   UNL     1      98.351 111.098 116.203  1.00  0.00     0.005 C 
ATOM     15  C   UNL     1      98.418 109.570 116.024  1.00  0.00    -0.001 C 
ATOM     16  C   UNL     1      99.685 108.219 114.211  1.00  0.00     0.007 C 
ATOM     17  C   UNL     1      97.263 108.802 113.889  1.00  0.00     0.012 C 
ATOM     18  C   UNL     1      99.526 108.918 116.904  1.00  0.00     0.004 C 
ATOM     19  C   UNL     1      99.551 107.008 115.143  1.00  0.00     0.005 C 
ATOM     20  C   UNL     1      99.582 107.377 116.661  1.00  0.00     0.003 C 
ATOM     21  C   UNL     1      99.275 109.204 118.398  1.00  0.00     0.085 C 
ATOM     22  C   UNL     1     100.744 106.675 117.471  1.00  0.00    -0.000 C 
ATOM     23  C   UNL     1     100.264 108.497 119.269  1.00  0.00     0.159 C 
ATOM     24  C   UNL     1     100.704 107.123 118.937  1.00  0.00     0.005 C 
ATOM     25  C   UNL     1     100.545 105.124 117.408  1.00  0.00     0.020 C 
ATOM     26  C   UNL     1     102.139 107.053 116.902  1.00  0.00     0.017 C 
ATOM     27  O   UNL     1     100.655 109.057 120.330  1.00  0.00    -0.295 OA
ATOM     28  C   UNL     1     101.149 106.323 119.925  1.00  0.00     0.055 C 
ATOM     29  C   UNL     1     101.527 104.354 118.300  1.00  0.00     0.081 C 
ATOM     30  C   UNL     1     101.575 104.937 119.677  1.00  0.00     0.156 C 
ATOM     31  O   UNL     1     102.011 104.241 120.631  1.00  0.00    -0.295 OA
ENDBRANCH   9  11
ENDBRANCH   8   9
ENDBRANCH   1   8
TORSDOF 6
ENDMDL
MODEL 4
REMARK VINA RESULT:    -6.299      1.018      2.089
REMARK INTER + INTRA:         -11.407
REMARK INTER:                  -8.756
REMARK INTRA:                  -2.651
REMARK UNBOUND:                -2.898
REMARK SMILES CC[C@@H](CC[C@H](C)[C@@H]1CC[C@@H]2[C@H]3CC(=O)C4=CC(=O)CC[C@@]4(C)[C@@H]3CC[C@@]21C)C(C)C
REMARK SMILES IDX 4 1 3 2 2 3 1 4 29 5 30 6 31 7 5 8 6 9 7 10 8 11 9 12 27 13
REMARK SMILES IDX 10 14 11 15 26 16 28 17 12 18 25 19 24 20 13 21 22 22 14 23
REMARK SMILES IDX 16 24 21 25 23 26 15 27 17 28 20 29 18 30 19 31
REMARK H PARENT
REMARK Flexibility Score: inf
ROOT
ATOM      1  C   UNL     1     101.855 112.806 113.257  1.00  0.00     0.004 C 
ENDROOT
BRANCH   1   2
ATOM      2  C   UNL     1     101.586 113.296 114.710  1.00  0.00    -0.009 C 
BRANCH   2   3
ATOM      3  C   UNL     1     101.601 112.114 115.717  1.00  0.00     0.000 C 
ATOM      4  C   UNL     1     102.488 110.953 115.264  1.00  0.00     0.004 C 
ENDBRANCH   2   3
BRANCH   2   5
ATOM      5  C   UNL     1     100.382 114.286 114.894  1.00  0.00    -0.014 C 
ATOM      6  C   UNL     1      99.782 114.228 116.307  1.00  0.00     0.007 C 
ATOM      7  C   UNL     1     100.657 115.745 114.487  1.00  0.00     0.007 C 
ENDBRANCH   2   5
ENDBRANCH   1   2
BRANCH   1   8
ATOM      8  C   UNL     1     100.602 112.499 112.410  1.00  0.00     0.004 C 
BRANCH   8   9
ATOM      9  C   UNL     1     100.261 110.984 112.329  1.00  0.00    -0.011 C 
ATOM     10  C   UNL     1     100.815 110.404 111.006  1.00  0.00     0.008 C 
BRANCH   9  11
ATOM     11  C   UNL     1      98.718 110.646 112.452  1.00  0.00    -0.002 C 
ATOM     12  C   UNL     1      97.894 111.751 113.135  1.00  0.00     0.005 C 
ATOM     13  C   UNL     1      98.357 109.379 113.327  1.00  0.00    -0.026 C 
ATOM     14  C   UNL     1      98.043 111.481 114.614  1.00  0.00     0.005 C 
ATOM     15  C   UNL     1      98.085 109.949 114.761  1.00  0.00    -0.001 C 
ATOM     16  C   UNL     1      99.426 108.237 113.349  1.00  0.00     0.007 C 
ATOM     17  C   UNL     1      97.041 108.765 112.763  1.00  0.00     0.012 C 
ATOM     18  C   UNL     1      99.125 109.483 115.823  1.00  0.00     0.004 C 
ATOM     19  C   UNL     1      99.210 107.249 114.502  1.00  0.00     0.005 C 
ATOM     20  C   UNL     1      99.160 107.925 115.909  1.00  0.00     0.003 C 
ATOM     21  C   UNL     1      98.794 110.077 117.207  1.00  0.00     0.085 C 
ATOM     22  C   UNL     1     100.257 107.395 116.917  1.00  0.00    -0.000 C 
ATOM     23  C   UNL     1      99.713 109.556 118.266  1.00  0.00     0.159 C 
ATOM     24  C   UNL     1     100.141 108.139 118.254  1.00  0.00     0.005 C 
ATOM     25  C   UNL     1     100.027 105.867 117.165  1.00  0.00     0.020 C 
ATOM     26  C   UNL     1     101.691 107.633 116.371  1.00  0.00     0.017 C 
ATOM     27  O   UNL     1     100.054 110.321 119.210  1.00  0.00    -0.295 OA
ATOM     28  C   UNL     1     100.508 107.558 119.412  1.00  0.00     0.055 C 
ATOM     29  C   UNL     1     100.937 105.290 118.257  1.00  0.00     0.081 C 
ATOM     30  C   UNL     1     100.917 106.147 119.483  1.00  0.00     0.156 C 
ATOM     31  O   UNL     1     101.280 105.660 120.586  1.00  0.00    -0.295 OA
ENDBRANCH   9  11
ENDBRANCH   8   9
ENDBRANCH   1   8
TORSDOF 6
ENDMDL
MODEL 5
REMARK VINA RESULT:    -6.152      3.243      6.777
REMARK INTER + INTRA:         -11.208
REMARK INTER:                  -8.104
REMARK INTRA:                  -3.104
REMARK UNBOUND:                -2.898
REMARK SMILES CC[C@@H](CC[C@H](C)[C@@H]1CC[C@@H]2[C@H]3CC(=O)C4=CC(=O)CC[C@@]4(C)[C@@H]3CC[C@@]21C)C(C)C
REMARK SMILES IDX 4 1 3 2 2 3 1 4 29 5 30 6 31 7 5 8 6 9 7 10 8 11 9 12 27 13
REMARK SMILES IDX 10 14 11 15 26 16 28 17 12 18 25 19 24 20 13 21 22 22 14 23
REMARK SMILES IDX 16 24 21 25 23 26 15 27 17 28 20 29 18 30 19 31
REMARK H PARENT
REMARK Flexibility Score: inf
ROOT
ATOM      1  C   UNL     1      99.853 107.675 113.152  1.00  0.00     0.004 C 
ENDROOT
BRANCH   1   2
ATOM      2  C   UNL     1      99.894 109.030 113.919  1.00  0.00    -0.009 C 
BRANCH   2   3
ATOM      3  C   UNL     1     101.289 109.703 113.805  1.00  0.00     0.000 C 
ATOM      4  C   UNL     1     101.579 110.676 114.950  1.00  0.00     0.004 C 
ENDBRANCH   2   3
BRANCH   2   5
ATOM      5  C   UNL     1      99.300 109.019 115.372  1.00  0.00    -0.014 C 
ATOM      6  C   UNL     1      98.009 109.844 115.487  1.00  0.00     0.007 C 
ATOM      7  C   UNL     1      99.106 107.626 115.998  1.00  0.00     0.007 C 
ENDBRANCH   2   5
ENDBRANCH   1   2
BRANCH   1   8
ATOM      8  C   UNL     1      98.809 107.576 112.021  1.00  0.00     0.004 C 
BRANCH   8   9
ATOM      9  C   UNL     1      97.753 108.719 112.048  1.00  0.00    -0.011 C 
ATOM     10  C   UNL     1      96.401 108.155 112.543  1.00  0.00     0.008 C 
BRANCH   9  11
ATOM     11  C   UNL     1      97.545 109.459 110.662  1.00  0.00    -0.002 C 
ATOM     12  C   UNL     1      98.687 109.226 109.658  1.00  0.00     0.005 C 
ATOM     13  C   UNL     1      97.480 111.037 110.726  1.00  0.00    -0.026 C 
ATOM     14  C   UNL     1      99.731 110.256 110.019  1.00  0.00     0.005 C 
ATOM     15  C   UNL     1      98.952 111.507 110.465  1.00  0.00    -0.001 C 
ATOM     16  C   UNL     1      96.902 111.645 112.047  1.00  0.00     0.007 C 
ATOM     17  C   UNL     1      96.572 111.529 109.559  1.00  0.00     0.012 C 
ATOM     18  C   UNL     1      99.608 112.210 111.691  1.00  0.00     0.004 C 
ATOM     19  C   UNL     1      97.236 113.133 112.207  1.00  0.00     0.005 C 
ATOM     20  C   UNL     1      98.764 113.447 112.130  1.00  0.00     0.003 C 
ATOM     21  C   UNL     1     101.049 112.649 111.362  1.00  0.00     0.085 C 
ATOM     22  C   UNL     1      99.343 114.152 113.422  1.00  0.00    -0.000 C 
ATOM     23  C   UNL     1     101.661 113.422 112.486  1.00  0.00     0.159 C 
ATOM     24  C   UNL     1     100.849 114.390 113.256  1.00  0.00     0.005 C 
ATOM     25  C   UNL     1      98.628 115.531 113.614  1.00  0.00     0.020 C 
ATOM     26  C   UNL     1      99.142 113.271 114.685  1.00  0.00     0.017 C 
ATOM     27  O   UNL     1     102.896 113.295 112.714  1.00  0.00    -0.295 OA
ATOM     28  C   UNL     1     101.466 115.415 113.875  1.00  0.00     0.055 C 
ATOM     29  C   UNL     1      99.234 116.370 114.747  1.00  0.00     0.081 C 
ATOM     30  C   UNL     1     100.724 116.432 114.635  1.00  0.00     0.156 C 
ATOM     31  O   UNL     1     101.353 117.353 115.219  1.00  0.00    -0.295 OA
ENDBRANCH   9  11
ENDBRANCH   8   9
ENDBRANCH   1   8
TORSDOF 6
ENDMDL
MODEL 6
REMARK VINA RESULT:    -6.119      1.851      4.557
REMARK INTER + INTRA:         -11.163
REMARK INTER:                  -8.278
REMARK INTRA:                  -2.886
REMARK UNBOUND:                -2.898
REMARK SMILES CC[C@@H](CC[C@H](C)[C@@H]1CC[C@@H]2[C@H]3CC(=O)C4=CC(=O)CC[C@@]4(C)[C@@H]3CC[C@@]21C)C(C)C
REMARK SMILES IDX 4 1 3 2 2 3 1 4 29 5 30 6 31 7 5 8 6 9 7 10 8 11 9 12 27 13
REMARK SMILES IDX 10 14 11 15 26 16 28 17 12 18 25 19 24 20 13 21 22 22 14 23
REMARK SMILES IDX 16 24 21 25 23 26 15 27 17 28 20 29 18 30 19 31
REMARK H PARENT
REMARK Flexibility Score: inf
ROOT
ATOM      1  C   UNL     1      98.930 113.521 113.802  1.00  0.00     0.004 C 
ENDROOT
BRANCH   1   2
ATOM      2  C   UNL     1      98.748 111.975 113.844  1.00  0.00    -0.009 C 
BRANCH   2   3
ATOM      3  C   UNL     1      97.548 111.522 112.968  1.00  0.00     0.000 C 
ATOM      4  C   UNL     1      97.958 110.584 111.831  1.00  0.00     0.004 C 
ENDBRANCH   2   3
BRANCH   2   5
ATOM      5  C   UNL     1      98.795 111.312 115.266  1.00  0.00    -0.014 C 
ATOM      6  C   UNL     1      99.147 112.316 116.374  1.00  0.00     0.007 C 
ATOM      7  C   UNL     1      97.549 110.496 115.657  1.00  0.00     0.007 C 
ENDBRANCH   2   5
ENDBRANCH   1   2
BRANCH   1   8
ATOM      8  C   UNL     1     100.268 114.023 113.220  1.00  0.00     0.004 C 
BRANCH   8   9
ATOM      9  C   UNL     1     101.511 113.576 114.043  1.00  0.00    -0.011 C 
ATOM     10  C   UNL     1     102.112 114.803 114.769  1.00  0.00     0.008 C 
BRANCH   9  11
ATOM     11  C   UNL     1     102.639 112.854 113.196  1.00  0.00    -0.002 C 
ATOM     12  C   UNL     1     102.173 112.401 111.803  1.00  0.00     0.005 C 
ATOM     13  C   UNL     1     103.205 111.511 113.807  1.00  0.00    -0.026 C 
ATOM     14  C   UNL     1     101.525 111.055 112.034  1.00  0.00     0.005 C 
ATOM     15  C   UNL     1     102.345 110.379 113.149  1.00  0.00    -0.001 C 
ATOM     16  C   UNL     1     103.197 111.412 115.369  1.00  0.00     0.007 C 
ATOM     17  C   UNL     1     104.687 111.360 113.347  1.00  0.00     0.012 C 
ATOM     18  C   UNL     1     101.447 109.610 114.162  1.00  0.00     0.004 C 
ATOM     19  C   UNL     1     103.370 109.973 115.871  1.00  0.00     0.005 C 
ATOM     20  C   UNL     1     102.316 108.975 115.293  1.00  0.00     0.003 C 
ATOM     21  C   UNL     1     100.634 108.511 113.448  1.00  0.00     0.085 C 
ATOM     22  C   UNL     1     101.447 108.248 116.395  1.00  0.00    -0.000 C 
ATOM     23  C   UNL     1      99.848 107.688 114.417  1.00  0.00     0.159 C 
ATOM     24  C   UNL     1     100.429 107.315 115.726  1.00  0.00     0.005 C 
ATOM     25  C   UNL     1     102.389 107.398 117.310  1.00  0.00     0.020 C 
ATOM     26  C   UNL     1     100.653 109.269 117.255  1.00  0.00     0.017 C 
ATOM     27  O   UNL     1      98.716 107.251 114.070  1.00  0.00    -0.295 OA
ATOM     28  C   UNL     1      99.984 106.206 116.347  1.00  0.00     0.055 C 
ATOM     29  C   UNL     1     101.627 106.521 118.312  1.00  0.00     0.081 C 
ATOM     30  C   UNL     1     100.534 105.757 117.635  1.00  0.00     0.156 C 
ATOM     31  O   UNL     1     100.060 104.729 118.188  1.00  0.00    -0.295 OA
ENDBRANCH   9  11
ENDBRANCH   8   9
ENDBRANCH   1   8
TORSDOF 6
ENDMDL
MODEL 7
REMARK VINA RESULT:    -6.070      2.961      5.602
REMARK INTER + INTRA:         -11.097
REMARK INTER:                  -7.941
REMARK INTRA:                  -3.156
REMARK UNBOUND:                -2.898
REMARK SMILES CC[C@@H](CC[C@H](C)[C@@H]1CC[C@@H]2[C@H]3CC(=O)C4=CC(=O)CC[C@@]4(C)[C@@H]3CC[C@@]21C)C(C)C
REMARK SMILES IDX 4 1 3 2 2 3 1 4 29 5 30 6 31 7 5 8 6 9 7 10 8 11 9 12 27 13
REMARK SMILES IDX 10 14 11 15 26 16 28 17 12 18 25 19 24 20 13 21 22 22 14 23
REMARK SMILES IDX 16 24 21 25 23 26 15 27 17 28 20 29 18 30 19 31
REMARK H PARENT
REMARK Flexibility Score: inf
ROOT
ATOM      1  C   UNL     1     104.065 113.740 115.934  1.00  0.00     0.004 C 
ENDROOT
BRANCH   1   2
ATOM      2  C   UNL     1     103.362 112.789 114.921  1.00  0.00    -0.009 C 
BRANCH   2   3
ATOM      3  C   UNL     1     102.768 111.543 115.633  1.00  0.00     0.000 C 
ATOM      4  C   UNL     1     102.633 111.726 117.146  1.00  0.00     0.004 C 
ENDBRANCH   2   3
BRANCH   2   5
ATOM      5  C   UNL     1     104.160 112.465 113.609  1.00  0.00    -0.014 C 
ATOM      6  C   UNL     1     104.384 110.958 113.413  1.00  0.00     0.007 C 
ATOM      7  C   UNL     1     103.602 113.097 112.322  1.00  0.00     0.007 C 
ENDBRANCH   2   5
ENDBRANCH   1   2
BRANCH   1   8
ATOM      8  C   UNL     1     103.451 115.149 116.071  1.00  0.00     0.004 C 
BRANCH   8   9
ATOM      9  C   UNL     1     102.703 115.627 114.793  1.00  0.00    -0.011 C 
ATOM     10  C   UNL     1     103.603 116.613 114.012  1.00  0.00     0.008 C 
BRANCH   9  11
ATOM     11  C   UNL     1     101.292 116.295 115.065  1.00  0.00    -0.002 C 
ATOM     12  C   UNL     1     100.886 116.304 116.548  1.00  0.00     0.005 C 
ATOM     13  C   UNL     1     100.051 115.586 114.388  1.00  0.00    -0.026 C 
ATOM     14  C   UNL     1     100.257 114.949 116.781  1.00  0.00     0.005 C 
ATOM     15  C   UNL     1      99.509 114.603 115.481  1.00  0.00    -0.001 C 
ATOM     16  C   UNL     1     100.337 114.852 113.036  1.00  0.00     0.007 C 
ATOM     17  C   UNL     1      98.974 116.675 114.101  1.00  0.00     0.012 C 
ATOM     18  C   UNL     1      99.656 113.101 115.094  1.00  0.00     0.004 C 
ATOM     19  C   UNL     1      99.223 113.870 112.651  1.00  0.00     0.005 C 
ATOM     20  C   UNL     1      98.916 112.805 113.752  1.00  0.00     0.003 C 
ATOM     21  C   UNL     1      99.100 112.193 116.210  1.00  0.00     0.085 C 
ATOM     22  C   UNL     1      99.100 111.311 113.271  1.00  0.00    -0.000 C 
ATOM     23  C   UNL     1      99.129 110.751 115.815  1.00  0.00     0.159 C 
ATOM     24  C   UNL     1      98.801 110.349 114.429  1.00  0.00     0.005 C 
ATOM     25  C   UNL     1      98.099 111.024 112.102  1.00  0.00     0.020 C 
ATOM     26  C   UNL     1     100.555 111.042 112.800  1.00  0.00     0.017 C 
ATOM     27  O   UNL     1      99.360 109.880 116.698  1.00  0.00    -0.295 OA
ATOM     28  C   UNL     1      98.331 109.107 114.202  1.00  0.00     0.055 C 
ATOM     29  C   UNL     1      98.080 109.551 111.672  1.00  0.00     0.081 C 
ATOM     30  C   UNL     1      97.956 108.646 112.857  1.00  0.00     0.156 C 
ATOM     31  O   UNL     1      97.550 107.465 112.696  1.00  0.00    -0.295 OA
ENDBRANCH   9  11
ENDBRANCH   8   9
ENDBRANCH   1   8
TORSDOF 6
ENDMDL
MODEL 8
REMARK VINA RESULT:    -6.059      1.707      4.747
REMARK INTER + INTRA:         -11.082
REMARK INTER:                  -7.950
REMARK INTRA:                  -3.132
REMARK UNBOUND:                -2.898
REMARK SMILES CC[C@@H](CC[C@H](C)[C@@H]1CC[C@@H]2[C@H]3CC(=O)C4=CC(=O)CC[C@@]4(C)[C@@H]3CC[C@@]21C)C(C)C
REMARK SMILES IDX 4 1 3 2 2 3 1 4 29 5 30 6 31 7 5 8 6 9 7 10 8 11 9 12 27 13
REMARK SMILES IDX 10 14 11 15 26 16 28 17 12 18 25 19 24 20 13 21 22 22 14 23
REMARK SMILES IDX 16 24 21 25 23 26 15 27 17 28 20 29 18 30 19 31
REMARK H PARENT
REMARK Flexibility Score: inf
ROOT
ATOM      1  C   UNL     1      99.517 108.546 113.040  1.00  0.00     0.004 C 
ENDROOT
BRANCH   1   2
ATOM      2  C   UNL     1      99.250 108.579 114.574  1.00  0.00    -0.009 C 
BRANCH   2   3
ATOM      3  C   UNL     1      99.910 107.368 115.289  1.00  0.00     0.000 C 
ATOM      4  C   UNL     1      99.204 106.987 116.592  1.00  0.00     0.004 C 
ENDBRANCH   2   3
BRANCH   2   5
ATOM      5  C   UNL     1      97.769 108.859 115.013  1.00  0.00    -0.014 C 
ATOM      6  C   UNL     1      97.629 110.157 115.821  1.00  0.00     0.007 C 
ATOM      7  C   UNL     1      96.725 108.814 113.882  1.00  0.00     0.007 C 
ENDBRANCH   2   5
ENDBRANCH   1   2
BRANCH   1   8
ATOM      8  C   UNL     1      99.978 109.877 112.411  1.00  0.00     0.004 C 
BRANCH   8   9
ATOM      9  C   UNL     1     100.157 111.025 113.446  1.00  0.00    -0.011 C 
ATOM     10  C   UNL     1      99.195 112.184 113.096  1.00  0.00     0.008 C 
BRANCH   9  11
ATOM     11  C   UNL     1     101.637 111.580 113.567  1.00  0.00    -0.002 C 
ATOM     12  C   UNL     1     102.706 110.619 113.020  1.00  0.00     0.005 C 
ATOM     13  C   UNL     1     102.155 111.847 115.036  1.00  0.00    -0.026 C 
ATOM     14  C   UNL     1     102.996 109.677 114.165  1.00  0.00     0.005 C 
ATOM     15  C   UNL     1     102.890 110.525 115.446  1.00  0.00    -0.001 C 
ATOM     16  C   UNL     1     101.065 112.253 116.083  1.00  0.00     0.007 C 
ATOM     17  C   UNL     1     103.190 113.011 114.978  1.00  0.00     0.012 C 
ATOM     18  C   UNL     1     102.193 109.759 116.609  1.00  0.00     0.004 C 
ATOM     19  C   UNL     1     101.550 112.102 117.530  1.00  0.00     0.005 C 
ATOM     20  C   UNL     1     102.074 110.670 117.872  1.00  0.00     0.003 C 
ATOM     21  C   UNL     1     102.971 108.476 116.961  1.00  0.00     0.085 C 
ATOM     22  C   UNL     1     101.301 109.968 119.058  1.00  0.00    -0.000 C 
ATOM     23  C   UNL     1     102.383 107.781 118.147  1.00  0.00     0.159 C 
ATOM     24  C   UNL     1     101.872 108.563 119.295  1.00  0.00     0.005 C 
ATOM     25  C   UNL     1     101.486 110.817 120.360  1.00  0.00     0.020 C 
ATOM     26  C   UNL     1      99.790 109.813 118.738  1.00  0.00     0.017 C 
ATOM     27  O   UNL     1     102.402 106.520 118.189  1.00  0.00    -0.295 OA
ATOM     28  C   UNL     1     101.833 107.990 120.513  1.00  0.00     0.055 C 
ATOM     29  C   UNL     1     100.913 110.136 121.610  1.00  0.00     0.081 C 
ATOM     30  C   UNL     1     101.366 108.713 121.704  1.00  0.00     0.156 C 
ATOM     31  O   UNL     1     101.322 108.120 122.814  1.00  0.00    -0.295 OA
ENDBRANCH   9  11
ENDBRANCH   8   9
ENDBRANCH   1   8
TORSDOF 6
ENDMDL
MODEL 9
REMARK VINA RESULT:    -6.053      3.103      6.482
REMARK INTER + INTRA:         -11.074
REMARK INTER:                  -8.598
REMARK INTRA:                  -2.475
REMARK UNBOUND:                -2.898
REMARK SMILES CC[C@@H](CC[C@H](C)[C@@H]1CC[C@@H]2[C@H]3CC(=O)C4=CC(=O)CC[C@@]4(C)[C@@H]3CC[C@@]21C)C(C)C
REMARK SMILES IDX 4 1 3 2 2 3 1 4 29 5 30 6 31 7 5 8 6 9 7 10 8 11 9 12 27 13
REMARK SMILES IDX 10 14 11 15 26 16 28 17 12 18 25 19 24 20 13 21 22 22 14 23
REMARK SMILES IDX 16 24 21 25 23 26 15 27 17 28 20 29 18 30 19 31
REMARK H PARENT
REMARK Flexibility Score: inf
ROOT
ATOM      1  C   UNL     1      95.768 110.130 111.571  1.00  0.00     0.004 C 
ENDROOT
BRANCH   1   2
ATOM      2  C   UNL     1      95.859 111.576 112.140  1.00  0.00    -0.009 C 
BRANCH   2   3
ATOM      3  C   UNL     1      94.720 112.475 111.586  1.00  0.00     0.000 C 
ATOM      4  C   UNL     1      93.733 112.923 112.666  1.00  0.00     0.004 C 
ENDBRANCH   2   3
BRANCH   2   5
ATOM      5  C   UNL     1      97.279 112.243 112.109  1.00  0.00    -0.014 C 
ATOM      6  C   UNL     1      98.203 111.616 111.054  1.00  0.00     0.007 C 
ATOM      7  C   UNL     1      97.287 113.778 111.986  1.00  0.00     0.007 C 
ENDBRANCH   2   5
ENDBRANCH   1   2
BRANCH   1   8
ATOM      8  C   UNL     1      95.831 108.994 112.613  1.00  0.00     0.004 C 
BRANCH   8   9
ATOM      9  C   UNL     1      97.274 108.482 112.889  1.00  0.00    -0.011 C 
ATOM     10  C   UNL     1      97.484 107.129 112.168  1.00  0.00     0.008 C 
BRANCH   9  11
ATOM     11  C   UNL     1      97.639 108.330 114.423  1.00  0.00    -0.002 C 
ATOM     12  C   UNL     1      96.837 109.261 115.347  1.00  0.00     0.005 C 
ATOM     13  C   UNL     1      99.130 108.681 114.815  1.00  0.00    -0.026 C 
ATOM     14  C   UNL     1      97.596 110.568 115.325  1.00  0.00     0.005 C 
ATOM     15  C   UNL     1      99.086 110.189 115.239  1.00  0.00    -0.001 C 
ATOM     16  C   UNL     1     100.208 108.420 113.711  1.00  0.00     0.007 C 
ATOM     17  C   UNL     1      99.520 107.814 116.050  1.00  0.00     0.012 C 
ATOM     18  C   UNL     1      99.883 111.128 114.285  1.00  0.00     0.004 C 
ATOM     19  C   UNL     1     101.531 109.141 113.996  1.00  0.00     0.005 C 
ATOM     20  C   UNL     1     101.377 110.682 114.200  1.00  0.00     0.003 C 
ATOM     21  C   UNL     1      99.799 112.591 114.764  1.00  0.00     0.085 C 
ATOM     22  C   UNL     1     102.215 111.554 113.182  1.00  0.00    -0.000 C 
ATOM     23  C   UNL     1     100.646 113.495 113.927  1.00  0.00     0.159 C 
ATOM     24  C   UNL     1     101.973 113.045 113.448  1.00  0.00     0.005 C 
ATOM     25  C   UNL     1     103.736 111.244 113.377  1.00  0.00     0.020 C 
ATOM     26  C   UNL     1     101.800 111.265 111.713  1.00  0.00     0.017 C 
ATOM     27  O   UNL     1     100.249 114.672 113.704  1.00  0.00    -0.295 OA
ATOM     28  C   UNL     1     102.914 113.967 113.167  1.00  0.00     0.055 C 
ATOM     29  C   UNL     1     104.649 112.159 112.550  1.00  0.00     0.081 C 
ATOM     30  C   UNL     1     104.262 113.595 112.714  1.00  0.00     0.156 C 
ATOM     31  O   UNL     1     105.095 114.497 112.437  1.00  0.00    -0.295 OA
ENDBRANCH   9  11
ENDBRANCH   8   9
ENDBRANCH   1   8
TORSDOF 6
ENDMDL
