MODEL 1
REMARK VINA RESULT:    -0.942      0.000      0.000
REMARK INTER + INTRA:          -1.387
REMARK INTER:                  -1.108
REMARK INTRA:                  -0.279
REMARK UNBOUND:                -0.279
REMARK SMILES O=c1cc(-c2ccc(O)c(O)c2)oc2cc(O)cc(O)c12
REMARK SMILES IDX 4 1 3 2 2 3 1 4 21 5 19 6 18 7 16 8 15 9 14 10 13 11 5 12
REMARK SMILES IDX 6 13 7 14 8 15 12 16 10 17 9 18 11 20 20 22 17 24
REMARK H PARENT 9 19 11 21 20 23 17 25
REMARK Flexibility Score: inf
ROOT
ATOM      1  C   UNL     1    -116.952 -99.535  37.212  1.00  0.00     0.138 A 
ATOM      2  C   UNL     1    -115.623 -99.846  36.878  1.00  0.00     0.100 A 
ATOM      3  C   UNL     1    -115.233 -99.846  35.539  1.00  0.00     0.197 A 
ATOM      4  O   UNL     1    -114.038-100.125  35.249  1.00  0.00    -0.289 OA
ATOM      5  C   UNL     1    -116.176 -99.531  34.540  1.00  0.00     0.107 A 
ATOM      6  C   UNL     1    -115.864 -99.509  33.159  1.00  0.00     0.134 A 
ATOM      7  C   UNL     1    -116.859 -99.181  32.228  1.00  0.00     0.093 A 
ATOM      8  C   UNL     1    -118.155 -98.874  32.647  1.00  0.00     0.123 A 
ATOM      9  C   UNL     1    -118.469 -98.893  34.010  1.00  0.00     0.094 A 
ATOM     10  C   UNL     1    -117.492 -99.219  34.955  1.00  0.00     0.146 A 
ATOM     11  O   UNL     1    -117.816 -99.233  36.244  1.00  0.00    -0.456 OA
ENDROOT
BRANCH   1  12
ATOM     12  C   UNL     1    -117.422 -99.519  38.619  1.00  0.00     0.021 A 
ATOM     13  C   UNL     1    -118.652-100.114  38.943  1.00  0.00     0.016 A 
ATOM     14  C   UNL     1    -119.114-100.117  40.260  1.00  0.00     0.051 A 
ATOM     15  C   UNL     1    -118.357 -99.539  41.284  1.00  0.00     0.157 A 
ATOM     16  C   UNL     1    -116.653 -98.950  39.652  1.00  0.00     0.062 A 
ATOM     17  C   UNL     1    -117.108 -98.952  40.977  1.00  0.00     0.158 A 
BRANCH  15  18
ATOM     18  O   UNL     1    -118.879 -99.571  42.579  1.00  0.00    -0.504 OA
ATOM     19  H   UNL     1    -118.403 -99.980  43.369  1.00  0.00     0.293 HD
ENDBRANCH  15  18
BRANCH  17  20
ATOM     20  O   UNL     1    -116.290 -98.370  41.947  1.00  0.00    -0.504 OA
ATOM     21  H   UNL     1    -116.619 -98.053  42.848  1.00  0.00     0.293 HD
ENDBRANCH  17  20
ENDBRANCH   1  12
BRANCH   6  22
ATOM     22  O   UNL     1    -114.578 -99.812  32.710  1.00  0.00    -0.507 OA
ATOM     23  H   UNL     1    -113.774 -99.259  32.984  1.00  0.00     0.293 HD
ENDBRANCH   6  22
BRANCH   8  24
ATOM     24  O   UNL     1    -119.125 -98.550  31.701  1.00  0.00    -0.508 OA
ATOM     25  H   UNL     1    -120.086 -98.856  31.800  1.00  0.00     0.293 HD
ENDBRANCH   8  24
TORSDOF 5
ENDMDL
MODEL 2
REMARK VINA RESULT:     1.836      1.612      2.525
REMARK INTER + INTRA:           1.879
REMARK INTER:                   2.192
REMARK INTRA:                  -0.313
REMARK UNBOUND:                -0.279
REMARK SMILES O=c1cc(-c2ccc(O)c(O)c2)oc2cc(O)cc(O)c12
REMARK SMILES IDX 4 1 3 2 2 3 1 4 21 5 19 6 18 7 16 8 15 9 14 10 13 11 5 12
REMARK SMILES IDX 6 13 7 14 8 15 12 16 10 17 9 18 11 20 20 22 17 24
REMARK H PARENT 9 19 11 21 20 23 17 25
REMARK Flexibility Score: inf
ROOT
ATOM      1  C   UNL     1    -117.512 -99.174  37.131  1.00  0.00     0.138 A 
ATOM      2  C   UNL     1    -118.412 -99.799  36.251  1.00  0.00     0.100 A 
ATOM      3  C   UNL     1    -118.314 -99.557  34.881  1.00  0.00     0.197 A 
ATOM      4  O   UNL     1    -119.125-100.124  34.100  1.00  0.00    -0.289 OA
ATOM      5  C   UNL     1    -117.312 -98.691  34.398  1.00  0.00     0.107 A 
ATOM      6  C   UNL     1    -117.144 -98.391  33.025  1.00  0.00     0.134 A 
ATOM      7  C   UNL     1    -116.119 -97.523  32.624  1.00  0.00     0.093 A 
ATOM      8  C   UNL     1    -115.260 -96.951  33.565  1.00  0.00     0.123 A 
ATOM      9  C   UNL     1    -115.421 -97.245  34.924  1.00  0.00     0.094 A 
ATOM     10  C   UNL     1    -116.438 -98.107  35.344  1.00  0.00     0.146 A 
ATOM     11  O   UNL     1    -116.572 -98.369  36.640  1.00  0.00    -0.456 OA
ENDROOT
BRANCH   1  12
ATOM     12  C   UNL     1    -117.569 -99.395  38.597  1.00  0.00     0.021 A 
ATOM     13  C   UNL     1    -118.746 -99.901  39.173  1.00  0.00     0.016 A 
ATOM     14  C   UNL     1    -118.823-100.124  40.549  1.00  0.00     0.051 A 
ATOM     15  C   UNL     1    -117.729 -99.859  41.378  1.00  0.00     0.157 A 
ATOM     16  C   UNL     1    -116.463 -99.142  39.429  1.00  0.00     0.062 A 
ATOM     17  C   UNL     1    -116.531 -99.367  40.810  1.00  0.00     0.158 A 
BRANCH  15  18
ATOM     18  O   UNL     1    -117.873-100.099  42.746  1.00  0.00    -0.504 OA
ATOM     19  H   UNL     1    -117.352-100.796  43.256  1.00  0.00     0.293 HD
ENDBRANCH  15  18
BRANCH  17  20
ATOM     20  O   UNL     1    -115.393 -99.094  41.571  1.00  0.00    -0.504 OA
ATOM     21  H   UNL     1    -114.499 -98.836  41.179  1.00  0.00     0.293 HD
ENDBRANCH  17  20
ENDBRANCH   1  12
BRANCH   6  22
ATOM     22  O   UNL     1    -117.987 -98.947  32.061  1.00  0.00    -0.507 OA
ATOM     23  H   UNL     1    -118.985 -98.768  32.059  1.00  0.00     0.293 HD
ENDBRANCH   6  22
BRANCH   8  24
ATOM     24  O   UNL     1    -114.249 -96.092  33.141  1.00  0.00    -0.508 OA
ATOM     25  H   UNL     1    -114.352 -95.520  32.311  1.00  0.00     0.293 HD
ENDBRANCH   8  24
TORSDOF 5
ENDMDL
