MODEL 1
REMARK VINA RESULT:    -3.506      0.000      0.000
REMARK INTER + INTRA:          -3.714
REMARK INTER:                  -5.351
REMARK INTRA:                   1.636
REMARK UNBOUND:                 1.636
REMARK SMILES CC1=CCC[C@H](C)C(=O)C[C@@H](C(C)C)C(=O)C1
REMARK SMILES IDX 8 1 9 2 6 3 7 4 5 5 4 6 3 7 2 8 1 9 10 11 11 12 15 13 16 14
REMARK SMILES IDX 17 15 12 17 13 18 14 19
REMARK H PARENT
REMARK Flexibility Score: 70.00
ROOT
ATOM      1  C   UNL     1     103.916  47.850  53.818  1.00  0.00     0.136 C 
ATOM      2  O   UNL     1     104.528  47.749  52.763  1.00  0.00    -0.299 OA
ENDROOT
BRANCH   1   3
ATOM      3  C   UNL     1     102.447  47.472  53.865  1.00  0.00     0.053 C 
ATOM      4  C   UNL     1     101.987  46.942  52.500  1.00  0.00     0.016 C 
BRANCH   3   5
ATOM      5  C   UNL     1     102.192  46.430  54.978  1.00  0.00     0.015 C 
BRANCH   5   6
ATOM      6  C   UNL     1     101.713  47.097  56.282  1.00  0.00     0.028 C 
BRANCH   6   7
ATOM      7  C   UNL     1     102.775  47.137  57.355  1.00  0.00    -0.028 C 
ATOM      8  C   UNL     1     103.215  48.256  57.983  1.00  0.00    -0.070 CG0
ATOM      9  C   UNL     1     104.227  48.120  59.091  1.00  0.00     0.039 C 
ATOM     10  G   UNL     1     102.836  49.667  57.558  1.00  0.00     0.000 G0
ENDBRANCH   6   7
ENDBRANCH   5   6
ENDBRANCH   3   5
ENDBRANCH   1   3
BRANCH   1  11
ATOM     11  C   UNL     1     104.644  48.357  55.043  1.00  0.00     0.087 C 
BRANCH  11  12
ATOM     12  C   UNL     1     104.277  49.827  55.371  1.00  0.00     0.066 C 
BRANCH  12  13
ATOM     13  C   UNL     1     102.933  49.912  56.080  1.00  0.00     0.140 C 
ATOM     14  O   UNL     1     101.919  50.194  55.460  1.00  0.00    -0.299 OA
BRANCH  13  15
ATOM     15  C   UNL     1     102.856  49.675  57.569  1.00  0.00     0.106 CG0
ATOM     16  G   UNL     1     103.233  48.263  57.992  1.00  0.00     0.000 G0
ENDBRANCH  13  15
ENDBRANCH  12  13
BRANCH  12  17
ATOM     17  C   UNL     1     104.406  50.764  54.129  1.00  0.00    -0.006 C 
ATOM     18  C   UNL     1     105.861  50.877  53.651  1.00  0.00     0.008 C 
ATOM     19  C   UNL     1     103.793  52.165  54.316  1.00  0.00     0.008 C 
ENDBRANCH  12  17
ENDBRANCH  11  12
ENDBRANCH   1  11
TORSDOF 1
ENDMDL
MODEL 2
REMARK VINA RESULT:    -2.968      1.872      3.948
REMARK INTER + INTRA:          -2.892
REMARK INTER:                  -4.731
REMARK INTRA:                   1.838
REMARK UNBOUND:                 1.636
REMARK SMILES CC1=CCC[C@H](C)C(=O)C[C@@H](C(C)C)C(=O)C1
REMARK SMILES IDX 8 1 9 2 6 3 7 4 5 5 4 6 3 7 2 8 1 9 10 11 11 12 15 13 16 14
REMARK SMILES IDX 17 15 12 17 13 18 14 19
REMARK H PARENT
REMARK Flexibility Score: 70.00
ROOT
ATOM      1  C   UNL     1     102.892  49.530  56.827  1.00  0.00     0.136 C 
ATOM      2  O   UNL     1     103.037  50.342  57.732  1.00  0.00    -0.299 OA
ENDROOT
BRANCH   1   3
ATOM      3  C   UNL     1     103.238  48.073  57.071  1.00  0.00     0.053 C 
ATOM      4  C   UNL     1     103.739  47.876  58.509  1.00  0.00     0.016 C 
BRANCH   3   5
ATOM      5  C   UNL     1     102.016  47.171  56.783  1.00  0.00     0.015 C 
BRANCH   5   6
ATOM      6  C   UNL     1     102.270  46.236  55.584  1.00  0.00     0.028 C 
BRANCH   6   7
ATOM      7  C   UNL     1     101.900  46.854  54.258  1.00  0.00    -0.028 C 
ATOM      8  C   UNL     1     102.772  47.421  53.386  1.00  0.00    -0.070 CG0
ATOM      9  C   UNL     1     102.255  47.925  52.063  1.00  0.00     0.039 C 
ATOM     10  G   UNL     1     104.234  47.689  53.708  1.00  0.00     0.000 G0
ENDBRANCH   6   7
ENDBRANCH   5   6
ENDBRANCH   3   5
ENDBRANCH   1   3
BRANCH   1  11
ATOM     11  C   UNL     1     102.379  50.009  55.487  1.00  0.00     0.087 C 
BRANCH  11  12
ATOM     12  C   UNL     1     103.511  50.111  54.433  1.00  0.00     0.066 C 
BRANCH  12  13
ATOM     13  C   UNL     1     104.465  48.930  54.536  1.00  0.00     0.140 C 
ATOM     14  O   UNL     1     105.432  48.975  55.283  1.00  0.00    -0.299 OA
BRANCH  13  15
ATOM     15  C   UNL     1     104.234  47.704  53.687  1.00  0.00     0.106 CG0
ATOM     16  G   UNL     1     102.768  47.417  53.398  1.00  0.00     0.000 G0
ENDBRANCH  13  15
ENDBRANCH  12  13
BRANCH  12  17
ATOM     17  C   UNL     1     104.214  51.505  54.446  1.00  0.00    -0.006 C 
ATOM     18  C   UNL     1     103.259  52.627  54.011  1.00  0.00     0.008 C 
ATOM     19  C   UNL     1     105.523  51.571  53.637  1.00  0.00     0.008 C 
ENDBRANCH  12  17
ENDBRANCH  11  12
ENDBRANCH   1  11
TORSDOF 1
ENDMDL
MODEL 3
REMARK VINA RESULT:    -2.894      1.453      3.642
REMARK INTER + INTRA:          -2.781
REMARK INTER:                  -3.419
REMARK INTRA:                   0.638
REMARK UNBOUND:                 1.636
REMARK SMILES CC1=CCC[C@H](C)C(=O)C[C@@H](C(C)C)C(=O)C1
REMARK SMILES IDX 8 1 9 2 6 3 7 4 5 5 4 6 3 7 2 8 1 9 10 11 11 12 15 13 16 14
REMARK SMILES IDX 17 15 12 17 13 18 14 19
REMARK H PARENT
REMARK Flexibility Score: 70.00
ROOT
ATOM      1  C   UNL     1     104.310  50.413  54.017  1.00  0.00     0.136 C 
ATOM      2  O   UNL     1     105.519  50.517  53.854  1.00  0.00    -0.299 OA
ENDROOT
BRANCH   1   3
ATOM      3  C   UNL     1     103.559  51.517  54.738  1.00  0.00     0.053 C 
ATOM      4  C   UNL     1     103.058  52.566  53.735  1.00  0.00     0.016 C 
BRANCH   3   5
ATOM      5  C   UNL     1     102.385  50.928  55.555  1.00  0.00     0.015 C 
BRANCH   5   6
ATOM      6  C   UNL     1     102.738  50.809  57.050  1.00  0.00     0.028 C 
BRANCH   6   7
ATOM      7  C   UNL     1     102.464  49.438  57.619  1.00  0.00    -0.028 C 
ATOM      8  C   UNL     1     103.335  48.398  57.618  1.00  0.00    -0.070 CG0
ATOM      9  C   UNL     1     102.938  47.113  58.299  1.00  0.00     0.039 C 
ATOM     10  G   UNL     1     104.657  48.406  56.866  1.00  0.00     0.000 G0
ENDBRANCH   6   7
ENDBRANCH   5   6
ENDBRANCH   3   5
ENDBRANCH   1   3
BRANCH   1  11
ATOM     11  C   UNL     1     103.604  49.179  53.500  1.00  0.00     0.087 C 
BRANCH  11  12
ATOM     12  C   UNL     1     103.323  48.154  54.628  1.00  0.00     0.066 C 
BRANCH  12  13
ATOM     13  C   UNL     1     104.575  47.886  55.451  1.00  0.00     0.140 C 
ATOM     14  O   UNL     1     105.504  47.247  54.980  1.00  0.00    -0.299 OA
BRANCH  13  15
ATOM     15  C   UNL     1     104.659  48.387  56.872  1.00  0.00     0.106 CG0
ATOM     16  G   UNL     1     103.327  48.388  57.608  1.00  0.00     0.000 G0
ENDBRANCH  13  15
ENDBRANCH  12  13
BRANCH  12  17
ATOM     17  C   UNL     1     102.617  46.865  54.099  1.00  0.00    -0.006 C 
ATOM     18  C   UNL     1     101.931  47.109  52.746  1.00  0.00     0.008 C 
ATOM     19  C   UNL     1     101.632  46.220  55.091  1.00  0.00     0.008 C 
ENDBRANCH  12  17
ENDBRANCH  11  12
ENDBRANCH   1  11
TORSDOF 1
ENDMDL
MODEL 4
REMARK VINA RESULT:    -2.824      7.984     10.115
REMARK INTER + INTRA:          -2.674
REMARK INTER:                  -3.444
REMARK INTRA:                   0.770
REMARK UNBOUND:                 1.636
REMARK SMILES CC1=CCC[C@H](C)C(=O)C[C@@H](C(C)C)C(=O)C1
REMARK SMILES IDX 8 1 9 2 6 3 7 4 5 5 4 6 3 7 2 8 1 9 10 11 11 12 15 13 16 14
REMARK SMILES IDX 17 15 12 17 13 18 14 19
REMARK H PARENT
REMARK Flexibility Score: 70.00
ROOT
ATOM      1  C   UNL     1     109.028  48.741  62.522  1.00  0.00     0.136 C 
ATOM      2  O   UNL     1     110.238  48.584  62.419  1.00  0.00    -0.299 OA
ENDROOT
BRANCH   1   3
ATOM      3  C   UNL     1     108.101  47.566  62.272  1.00  0.00     0.053 C 
ATOM      4  C   UNL     1     107.703  47.504  60.790  1.00  0.00     0.016 C 
BRANCH   3   5
ATOM      5  C   UNL     1     108.767  46.245  62.720  1.00  0.00     0.015 C 
BRANCH   5   6
ATOM      6  C   UNL     1     108.201  45.752  64.066  1.00  0.00     0.028 C 
BRANCH   6   7
ATOM      7  C   UNL     1     108.698  46.547  65.249  1.00  0.00    -0.028 C 
ATOM      8  C   UNL     1     108.068  47.616  65.798  1.00  0.00    -0.070 CG0
ATOM      9  C   UNL     1     108.655  48.256  67.029  1.00  0.00     0.039 C 
ATOM     10  G   UNL     1     106.855  48.291  65.175  1.00  0.00     0.000 G0
ENDBRANCH   6   7
ENDBRANCH   5   6
ENDBRANCH   3   5
ENDBRANCH   1   3
BRANCH   1  11
ATOM     11  C   UNL     1     108.495  50.108  62.888  1.00  0.00     0.087 C 
BRANCH  11  12
ATOM     12  C   UNL     1     108.376  50.295  64.422  1.00  0.00     0.066 C 
BRANCH  12  13
ATOM     13  C   UNL     1     107.042  49.776  64.937  1.00  0.00     0.140 C 
ATOM     14  O   UNL     1     106.124  50.547  65.175  1.00  0.00    -0.299 OA
BRANCH  13  15
ATOM     15  C   UNL     1     106.858  48.298  65.184  1.00  0.00     0.106 CG0
ATOM     16  G   UNL     1     108.072  47.617  65.799  1.00  0.00     0.000 G0
ENDBRANCH  13  15
ENDBRANCH  12  13
BRANCH  12  17
ATOM     17  C   UNL     1     108.712  51.753  64.872  1.00  0.00    -0.006 C 
ATOM     18  C   UNL     1     108.674  52.734  63.690  1.00  0.00     0.008 C 
ATOM     19  C   UNL     1     110.035  51.897  65.646  1.00  0.00     0.008 C 
ENDBRANCH  12  17
ENDBRANCH  11  12
ENDBRANCH   1  11
TORSDOF 1
ENDMDL
MODEL 5
REMARK VINA RESULT:    -2.638      1.899      4.100
REMARK INTER + INTRA:          -2.390
REMARK INTER:                  -4.169
REMARK INTRA:                   1.778
REMARK UNBOUND:                 1.636
REMARK SMILES CC1=CCC[C@H](C)C(=O)C[C@@H](C(C)C)C(=O)C1
REMARK SMILES IDX 8 1 9 2 6 3 7 4 5 5 4 6 3 7 2 8 1 9 10 11 11 12 15 13 16 14
REMARK SMILES IDX 17 15 12 17 13 18 14 19
REMARK H PARENT
REMARK Flexibility Score: 70.00
ROOT
ATOM      1  C   UNL     1     103.502  50.576  54.433  1.00  0.00     0.136 C 
ATOM      2  O   UNL     1     103.349  51.789  54.371  1.00  0.00    -0.299 OA
ENDROOT
BRANCH   1   3
ATOM      3  C   UNL     1     104.569  49.915  53.580  1.00  0.00     0.053 C 
ATOM      4  C   UNL     1     105.959  50.143  54.190  1.00  0.00     0.016 C 
BRANCH   3   5
ATOM      5  C   UNL     1     104.276  48.406  53.419  1.00  0.00     0.015 C 
BRANCH   5   6
ATOM      6  C   UNL     1     102.828  48.155  52.955  1.00  0.00     0.028 C 
BRANCH   6   7
ATOM      7  C   UNL     1     102.363  46.739  53.193  1.00  0.00    -0.028 C 
ATOM      8  C   UNL     1     101.765  46.289  54.325  1.00  0.00    -0.070 CG0
ATOM      9  C   UNL     1     101.286  44.860  54.378  1.00  0.00     0.039 C 
ATOM     10  G   UNL     1     101.650  47.108  55.602  1.00  0.00     0.000 G0
ENDBRANCH   6   7
ENDBRANCH   5   6
ENDBRANCH   3   5
ENDBRANCH   1   3
BRANCH   1  11
ATOM     11  C   UNL     1     102.613  49.771  55.355  1.00  0.00     0.087 C 
BRANCH  11  12
ATOM     12  C   UNL     1     103.433  48.887  56.329  1.00  0.00     0.066 C 
BRANCH  12  13
ATOM     13  C   UNL     1     102.968  47.438  56.278  1.00  0.00     0.140 C 
ATOM     14  O   UNL     1     103.660  46.546  56.744  1.00  0.00    -0.299 OA
BRANCH  13  15
ATOM     15  C   UNL     1     101.653  47.096  55.620  1.00  0.00     0.106 CG0
ATOM     16  G   UNL     1     101.792  46.284  54.341  1.00  0.00     0.000 G0
ENDBRANCH  13  15
ENDBRANCH  12  13
BRANCH  12  17
ATOM     17  C   UNL     1     103.497  49.488  57.768  1.00  0.00    -0.006 C 
ATOM     18  C   UNL     1     103.521  48.388  58.842  1.00  0.00     0.008 C 
ATOM     19  C   UNL     1     102.398  50.520  58.083  1.00  0.00     0.008 C 
ENDBRANCH  12  17
ENDBRANCH  11  12
ENDBRANCH   1  11
TORSDOF 1
ENDMDL
MODEL 6
REMARK VINA RESULT:    -2.506      7.961     10.407
REMARK INTER + INTRA:          -2.188
REMARK INTER:                  -3.052
REMARK INTRA:                   0.864
REMARK UNBOUND:                 1.636
REMARK SMILES CC1=CCC[C@H](C)C(=O)C[C@@H](C(C)C)C(=O)C1
REMARK SMILES IDX 8 1 9 2 6 3 7 4 5 5 4 6 3 7 2 8 1 9 10 11 11 12 15 13 16 14
REMARK SMILES IDX 17 15 12 17 13 18 14 19
REMARK H PARENT
REMARK Flexibility Score: 70.00
ROOT
ATOM      1  C   UNL     1     107.084  48.488  65.202  1.00  0.00     0.136 C 
ATOM      2  O   UNL     1     106.287  48.778  66.085  1.00  0.00    -0.299 OA
ENDROOT
BRANCH   1   3
ATOM      3  C   UNL     1     108.296  47.640  65.542  1.00  0.00     0.053 C 
ATOM      4  C   UNL     1     108.726  47.879  66.996  1.00  0.00     0.016 C 
BRANCH   3   5
ATOM      5  C   UNL     1     107.996  46.144  65.293  1.00  0.00     0.015 C 
BRANCH   5   6
ATOM      6  C   UNL     1     108.862  45.573  64.152  1.00  0.00     0.028 C 
BRANCH   6   7
ATOM      7  C   UNL     1     108.371  45.963  62.779  1.00  0.00    -0.028 C 
ATOM      8  C   UNL     1     108.723  47.090  62.110  1.00  0.00    -0.070 CG0
ATOM      9  C   UNL     1     108.207  47.298  60.710  1.00  0.00     0.039 C 
ATOM     10  G   UNL     1     109.520  48.227  62.732  1.00  0.00     0.000 G0
ENDBRANCH   6   7
ENDBRANCH   5   6
ENDBRANCH   3   5
ENDBRANCH   1   3
BRANCH   1  11
ATOM     11  C   UNL     1     106.839  48.995  63.798  1.00  0.00     0.087 C 
BRANCH  11  12
ATOM     12  C   UNL     1     107.823  50.126  63.407  1.00  0.00     0.066 C 
BRANCH  12  13
ATOM     13  C   UNL     1     108.924  49.606  62.494  1.00  0.00     0.140 C 
ATOM     14  O   UNL     1     109.322  50.277  61.553  1.00  0.00    -0.299 OA
BRANCH  13  15
ATOM     15  C   UNL     1     109.509  48.235  62.733  1.00  0.00     0.106 CG0
ATOM     16  G   UNL     1     108.712  47.102  62.105  1.00  0.00     0.000 G0
ENDBRANCH  13  15
ENDBRANCH  12  13
BRANCH  12  17
ATOM     17  C   UNL     1     108.343  50.919  64.648  1.00  0.00    -0.006 C 
ATOM     18  C   UNL     1     107.546  52.213  64.869  1.00  0.00     0.008 C 
ATOM     19  C   UNL     1     109.854  51.215  64.633  1.00  0.00     0.008 C 
ENDBRANCH  12  17
ENDBRANCH  11  12
ENDBRANCH   1  11
TORSDOF 1
ENDMDL
MODEL 7
REMARK VINA RESULT:    -2.435      1.917      4.478
REMARK INTER + INTRA:          -2.080
REMARK INTER:                  -5.028
REMARK INTRA:                   2.947
REMARK UNBOUND:                 1.636
REMARK SMILES CC1=CCC[C@H](C)C(=O)C[C@@H](C(C)C)C(=O)C1
REMARK SMILES IDX 8 1 9 2 6 3 7 4 5 5 4 6 3 7 2 8 1 9 10 11 11 12 15 13 16 14
REMARK SMILES IDX 17 15 12 17 13 18 14 19
REMARK H PARENT
REMARK Flexibility Score: 70.00
ROOT
ATOM      1  C   UNL     1     102.757  47.582  56.783  1.00  0.00     0.136 C 
ATOM      2  O   UNL     1     101.638  47.266  56.397  1.00  0.00    -0.299 OA
ENDROOT
BRANCH   1   3
ATOM      3  C   UNL     1     102.900  48.477  58.000  1.00  0.00     0.053 C 
ATOM      4  C   UNL     1     104.239  48.214  58.702  1.00  0.00     0.016 C 
BRANCH   3   5
ATOM      5  C   UNL     1     102.770  49.964  57.596  1.00  0.00     0.015 C 
BRANCH   5   6
ATOM      6  C   UNL     1     102.257  50.117  56.150  1.00  0.00     0.028 C 
BRANCH   6   7
ATOM      7  C   UNL     1     102.815  51.330  55.446  1.00  0.00    -0.028 C 
ATOM      8  C   UNL     1     103.494  51.313  54.272  1.00  0.00    -0.070 CG0
ATOM      9  C   UNL     1     103.919  52.621  53.656  1.00  0.00     0.039 C 
ATOM     10  G   UNL     1     103.963  50.038  53.586  1.00  0.00     0.000 G0
ENDBRANCH   6   7
ENDBRANCH   5   6
ENDBRANCH   3   5
ENDBRANCH   1   3
BRANCH   1  11
ATOM     11  C   UNL     1     103.964  47.075  56.025  1.00  0.00     0.087 C 
BRANCH  11  12
ATOM     12  C   UNL     1     103.999  47.600  54.567  1.00  0.00     0.066 C 
BRANCH  12  13
ATOM     13  C   UNL     1     104.591  49.001  54.503  1.00  0.00     0.140 C 
ATOM     14  O   UNL     1     105.542  49.308  55.206  1.00  0.00    -0.299 OA
BRANCH  13  15
ATOM     15  C   UNL     1     103.978  50.031  53.586  1.00  0.00     0.106 CG0
ATOM     16  G   UNL     1     103.505  51.291  54.295  1.00  0.00     0.000 G0
ENDBRANCH  13  15
ENDBRANCH  12  13
BRANCH  12  17
ATOM     17  C   UNL     1     102.621  47.454  53.847  1.00  0.00    -0.006 C 
ATOM     18  C   UNL     1     102.045  46.039  54.008  1.00  0.00     0.008 C 
ATOM     19  C   UNL     1     102.626  47.866  52.364  1.00  0.00     0.008 C 
ENDBRANCH  12  17
ENDBRANCH  11  12
ENDBRANCH   1  11
TORSDOF 1
ENDMDL
MODEL 8
REMARK VINA RESULT:    -1.865      7.456     10.292
REMARK INTER + INTRA:          -1.210
REMARK INTER:                  -1.671
REMARK INTRA:                   0.462
REMARK UNBOUND:                 1.636
REMARK SMILES CC1=CCC[C@H](C)C(=O)C[C@@H](C(C)C)C(=O)C1
REMARK SMILES IDX 8 1 9 2 6 3 7 4 5 5 4 6 3 7 2 8 1 9 10 11 11 12 15 13 16 14
REMARK SMILES IDX 17 15 12 17 13 18 14 19
REMARK H PARENT
REMARK Flexibility Score: 70.00
ROOT
ATOM      1  C   UNL     1     109.095  50.690  63.298  1.00  0.00     0.136 C 
ATOM      2  O   UNL     1     109.122  51.551  62.427  1.00  0.00    -0.299 OA
ENDROOT
BRANCH   1   3
ATOM      3  C   UNL     1     108.744  51.081  64.721  1.00  0.00     0.053 C 
ATOM      4  C   UNL     1     109.511  52.345  65.133  1.00  0.00     0.016 C 
BRANCH   3   5
ATOM      5  C   UNL     1     107.219  51.289  64.865  1.00  0.00     0.015 C 
BRANCH   5   6
ATOM      6  C   UNL     1     106.517  50.013  65.370  1.00  0.00     0.028 C 
BRANCH   6   7
ATOM      7  C   UNL     1     107.418  49.123  66.191  1.00  0.00    -0.028 C 
ATOM      8  C   UNL     1     107.807  47.868  65.849  1.00  0.00    -0.070 CG0
ATOM      9  C   UNL     1     108.775  47.136  66.742  1.00  0.00     0.039 C 
ATOM     10  G   UNL     1     107.232  47.099  64.669  1.00  0.00     0.000 G0
ENDBRANCH   6   7
ENDBRANCH   5   6
ENDBRANCH   3   5
ENDBRANCH   1   3
BRANCH   1  11
ATOM     11  C   UNL     1     109.422  49.261  62.926  1.00  0.00     0.087 C 
BRANCH  11  12
ATOM     12  C   UNL     1     108.149  48.433  62.617  1.00  0.00     0.066 C 
BRANCH  12  13
ATOM     13  C   UNL     1     108.112  47.155  63.442  1.00  0.00     0.140 C 
ATOM     14  O   UNL     1     108.757  46.175  63.101  1.00  0.00    -0.299 OA
BRANCH  13  15
ATOM     15  C   UNL     1     107.247  47.085  64.678  1.00  0.00     0.106 CG0
ATOM     16  G   UNL     1     107.793  47.870  65.861  1.00  0.00     0.000 G0
ENDBRANCH  13  15
ENDBRANCH  12  13
BRANCH  12  17
ATOM     17  C   UNL     1     107.938  48.212  61.086  1.00  0.00    -0.006 C 
ATOM     18  C   UNL     1     106.448  48.115  60.727  1.00  0.00     0.008 C 
ATOM     19  C   UNL     1     108.710  47.016  60.498  1.00  0.00     0.008 C 
ENDBRANCH  12  17
ENDBRANCH  11  12
ENDBRANCH   1  11
TORSDOF 1
ENDMDL
MODEL 9
REMARK VINA RESULT:    -1.850      1.922      3.797
REMARK INTER + INTRA:          -1.187
REMARK INTER:                  -2.007
REMARK INTRA:                   0.820
REMARK UNBOUND:                 1.636
REMARK SMILES CC1=CCC[C@H](C)C(=O)C[C@@H](C(C)C)C(=O)C1
REMARK SMILES IDX 8 1 9 2 6 3 7 4 5 5 4 6 3 7 2 8 1 9 10 11 11 12 15 13 16 14
REMARK SMILES IDX 17 15 12 17 13 18 14 19
REMARK H PARENT
REMARK Flexibility Score: 70.00
ROOT
ATOM      1  C   UNL     1     102.005  46.927  55.501  1.00  0.00     0.136 C 
ATOM      2  O   UNL     1     101.836  46.067  56.357  1.00  0.00    -0.299 OA
ENDROOT
BRANCH   1   3
ATOM      3  C   UNL     1     102.691  46.557  54.199  1.00  0.00     0.053 C 
ATOM      4  C   UNL     1     101.710  46.677  53.025  1.00  0.00     0.016 C 
BRANCH   3   5
ATOM      5  C   UNL     1     103.936  47.445  53.973  1.00  0.00     0.015 C 
BRANCH   5   6
ATOM      6  C   UNL     1     103.659  48.560  52.945  1.00  0.00     0.028 C 
BRANCH   6   7
ATOM      7  C   UNL     1     104.410  49.836  53.234  1.00  0.00    -0.028 C 
ATOM      8  C   UNL     1     104.032  50.786  54.127  1.00  0.00    -0.070 CG0
ATOM      9  C   UNL     1     104.935  51.970  54.358  1.00  0.00     0.039 C 
ATOM     10  G   UNL     1     102.684  50.791  54.833  1.00  0.00     0.000 G0
ENDBRANCH   6   7
ENDBRANCH   5   6
ENDBRANCH   3   5
ENDBRANCH   1   3
BRANCH   1  11
ATOM     11  C   UNL     1     101.529  48.337  55.774  1.00  0.00     0.087 C 
BRANCH  11  12
ATOM     12  C   UNL     1     102.437  49.071  56.793  1.00  0.00     0.066 C 
BRANCH  12  13
ATOM     13  C   UNL     1     102.773  50.476  56.315  1.00  0.00     0.140 C 
ATOM     14  O   UNL     1     103.081  51.348  57.115  1.00  0.00    -0.299 OA
BRANCH  13  15
ATOM     15  C   UNL     1     102.697  50.805  54.844  1.00  0.00     0.106 CG0
ATOM     16  G   UNL     1     104.043  50.784  54.134  1.00  0.00     0.000 G0
ENDBRANCH  13  15
ENDBRANCH  12  13
BRANCH  12  17
ATOM     17  C   UNL     1     103.681  48.220  57.203  1.00  0.00    -0.006 C 
ATOM     18  C   UNL     1     103.877  48.200  58.727  1.00  0.00     0.008 C 
ATOM     19  C   UNL     1     104.991  48.619  56.500  1.00  0.00     0.008 C 
ENDBRANCH  12  17
ENDBRANCH  11  12
ENDBRANCH   1  11
TORSDOF 1
ENDMDL
