MODEL 1
REMARK VINA RESULT:    -4.216      0.000      0.000
REMARK INTER + INTRA:          -6.398
REMARK INTER:                  -6.064
REMARK INTRA:                  -0.334
REMARK UNBOUND:                -0.334
REMARK SMILES CCCCCCCCCO
REMARK SMILES IDX 6 1 5 2 4 3 3 4 2 5 1 6 7 7 8 8 9 9 10 10
REMARK H PARENT 10 11
REMARK Flexibility Score: inf
ROOT
ATOM      1  C   UNL     1      21.584 -23.094  18.013  1.00  0.00     0.000 C 
ENDROOT
BRANCH   1   2
ATOM      2  C   UNL     1      23.008 -23.081  18.590  1.00  0.00     0.000 C 
BRANCH   2   3
ATOM      3  C   UNL     1      23.792 -21.816  18.207  1.00  0.00    -0.000 C 
BRANCH   3   4
ATOM      4  C   UNL     1      22.878 -20.665  17.760  1.00  0.00    -0.000 C 
BRANCH   4   5
ATOM      5  C   UNL     1      23.638 -19.676  16.870  1.00  0.00    -0.003 C 
ATOM      6  C   UNL     1      22.792 -18.443  16.567  1.00  0.00     0.004 C 
ENDBRANCH   4   5
ENDBRANCH   3   4
ENDBRANCH   2   3
ENDBRANCH   1   2
BRANCH   1   7
ATOM      7  C   UNL     1      20.833 -24.363  18.432  1.00  0.00     0.002 C 
BRANCH   7   8
ATOM      8  C   UNL     1      21.612 -25.135  19.506  1.00  0.00     0.028 C 
BRANCH   8   9
ATOM      9  C   UNL     1      20.821 -25.242  20.814  1.00  0.00     0.156 C 
BRANCH   9  10
ATOM     10  O   UNL     1      19.912 -24.182  20.938  1.00  0.00    -0.396 OA
ATOM     11  H   UNL     1      19.087 -24.458  20.458  1.00  0.00     0.210 HD
ENDBRANCH   9  10
ENDBRANCH   8   9
ENDBRANCH   7   8
ENDBRANCH   1   7
TORSDOF 8
ENDMDL
MODEL 2
REMARK VINA RESULT:    -3.898     13.835     15.136
REMARK INTER + INTRA:          -5.941
REMARK INTER:                  -5.180
REMARK INTRA:                  -0.760
REMARK UNBOUND:                -0.334
REMARK SMILES CCCCCCCCCO
REMARK SMILES IDX 6 1 5 2 4 3 3 4 2 5 1 6 7 7 8 8 9 9 10 10
REMARK H PARENT 10 11
REMARK Flexibility Score: inf
ROOT
ATOM      1  C   UNL     1       7.890 -25.818  13.592  1.00  0.00     0.000 C 
ENDROOT
BRANCH   1   2
ATOM      2  C   UNL     1       9.326 -25.461  14.000  1.00  0.00     0.000 C 
BRANCH   2   3
ATOM      3  C   UNL     1      10.249 -26.688  14.060  1.00  0.00    -0.000 C 
BRANCH   3   4
ATOM      4  C   UNL     1       9.695 -27.804  14.959  1.00  0.00    -0.000 C 
BRANCH   4   5
ATOM      5  C   UNL     1       9.612 -27.341  16.418  1.00  0.00    -0.003 C 
ATOM      6  C   UNL     1       8.236 -27.631  17.011  1.00  0.00     0.004 C 
ENDBRANCH   4   5
ENDBRANCH   3   4
ENDBRANCH   2   3
ENDBRANCH   1   2
BRANCH   1   7
ATOM      7  C   UNL     1       6.873 -25.197  14.556  1.00  0.00     0.002 C 
BRANCH   7   8
ATOM      8  C   UNL     1       7.551 -24.198  15.504  1.00  0.00     0.028 C 
BRANCH   8   9
ATOM      9  C   UNL     1       6.807 -24.086  16.838  1.00  0.00     0.156 C 
BRANCH   9  10
ATOM     10  O   UNL     1       5.896 -23.021  16.817  1.00  0.00    -0.396 OA
ATOM     11  H   UNL     1       6.141 -22.423  17.571  1.00  0.00     0.210 HD
ENDBRANCH   9  10
ENDBRANCH   8   9
ENDBRANCH   7   8
ENDBRANCH   1   7
TORSDOF 8
ENDMDL
MODEL 3
REMARK VINA RESULT:    -3.800     11.926     13.801
REMARK INTER + INTRA:          -5.801
REMARK INTER:                  -5.536
REMARK INTRA:                  -0.264
REMARK UNBOUND:                -0.334
REMARK SMILES CCCCCCCCCO
REMARK SMILES IDX 6 1 5 2 4 3 3 4 2 5 1 6 7 7 8 8 9 9 10 10
REMARK H PARENT 10 11
REMARK Flexibility Score: inf
ROOT
ATOM      1  C   UNL     1      11.893 -26.475  13.802  1.00  0.00     0.000 C 
ENDROOT
BRANCH   1   2
ATOM      2  C   UNL     1      10.486 -26.533  14.414  1.00  0.00     0.000 C 
BRANCH   2   3
ATOM      3  C   UNL     1       9.557 -25.435  13.874  1.00  0.00    -0.000 C 
BRANCH   3   4
ATOM      4  C   UNL     1       8.087 -25.879  13.813  1.00  0.00    -0.000 C 
BRANCH   4   5
ATOM      5  C   UNL     1       7.149 -24.716  14.156  1.00  0.00    -0.003 C 
ATOM      6  C   UNL     1       7.488 -24.118  15.518  1.00  0.00     0.004 C 
ENDBRANCH   4   5
ENDBRANCH   3   4
ENDBRANCH   2   3
ENDBRANCH   1   2
BRANCH   1   7
ATOM      7  C   UNL     1      12.137 -25.127  13.113  1.00  0.00     0.002 C 
BRANCH   7   8
ATOM      8  C   UNL     1      13.266 -25.234  12.078  1.00  0.00     0.028 C 
BRANCH   8   9
ATOM      9  C   UNL     1      13.682 -23.858  11.548  1.00  0.00     0.156 C 
BRANCH   9  10
ATOM     10  O   UNL     1      12.823 -23.432  10.525  1.00  0.00    -0.396 OA
ATOM     11  H   UNL     1      13.387 -23.299   9.718  1.00  0.00     0.210 HD
ENDBRANCH   9  10
ENDBRANCH   8   9
ENDBRANCH   7   8
ENDBRANCH   1   7
TORSDOF 8
ENDMDL
MODEL 4
REMARK VINA RESULT:    -3.790     11.054     12.363
REMARK INTER + INTRA:          -5.786
REMARK INTER:                  -5.501
REMARK INTRA:                  -0.285
REMARK UNBOUND:                -0.334
REMARK SMILES CCCCCCCCCO
REMARK SMILES IDX 6 1 5 2 4 3 3 4 2 5 1 6 7 7 8 8 9 9 10 10
REMARK H PARENT 10 11
REMARK Flexibility Score: inf
ROOT
ATOM      1  C   UNL     1      10.866 -26.635  13.816  1.00  0.00     0.000 C 
ENDROOT
BRANCH   1   2
ATOM      2  C   UNL     1      12.153 -26.391  13.013  1.00  0.00     0.000 C 
BRANCH   2   3
ATOM      3  C   UNL     1      12.654 -24.943  13.119  1.00  0.00    -0.000 C 
BRANCH   3   4
ATOM      4  C   UNL     1      13.131 -24.380  11.771  1.00  0.00    -0.000 C 
BRANCH   4   5
ATOM      5  C   UNL     1      14.348 -23.467  11.958  1.00  0.00    -0.003 C 
ATOM      6  C   UNL     1      15.486 -24.202  12.661  1.00  0.00     0.004 C 
ENDBRANCH   4   5
ENDBRANCH   3   4
ENDBRANCH   2   3
ENDBRANCH   1   2
BRANCH   1   7
ATOM      7  C   UNL     1      10.019 -25.360  13.896  1.00  0.00     0.002 C 
BRANCH   7   8
ATOM      8  C   UNL     1       8.541 -25.695  14.140  1.00  0.00     0.028 C 
BRANCH   8   9
ATOM      9  C   UNL     1       7.840 -24.608  14.961  1.00  0.00     0.156 C 
BRANCH   9  10
ATOM     10  O   UNL     1       8.692 -24.099  15.952  1.00  0.00    -0.396 OA
ATOM     11  H   UNL     1       8.450 -24.559  16.798  1.00  0.00     0.210 HD
ENDBRANCH   9  10
ENDBRANCH   8   9
ENDBRANCH   7   8
ENDBRANCH   1   7
TORSDOF 8
ENDMDL
MODEL 5
REMARK VINA RESULT:    -3.782     12.336     14.099
REMARK INTER + INTRA:          -5.774
REMARK INTER:                  -5.108
REMARK INTRA:                  -0.666
REMARK UNBOUND:                -0.334
REMARK SMILES CCCCCCCCCO
REMARK SMILES IDX 6 1 5 2 4 3 3 4 2 5 1 6 7 7 8 8 9 9 10 10
REMARK H PARENT 10 11
REMARK Flexibility Score: inf
ROOT
ATOM      1  C   UNL     1      10.209 -26.755  14.092  1.00  0.00     0.000 C 
ENDROOT
BRANCH   1   2
ATOM      2  C   UNL     1       9.317 -25.511  13.961  1.00  0.00     0.000 C 
BRANCH   2   3
ATOM      3  C   UNL     1       7.849 -25.861  13.671  1.00  0.00    -0.000 C 
BRANCH   3   4
ATOM      4  C   UNL     1       6.880 -25.239  14.689  1.00  0.00    -0.000 C 
BRANCH   4   5
ATOM      5  C   UNL     1       7.576 -24.152  15.515  1.00  0.00    -0.003 C 
ATOM      6  C   UNL     1       7.110 -24.180  16.968  1.00  0.00     0.004 C 
ENDBRANCH   4   5
ENDBRANCH   3   4
ENDBRANCH   2   3
ENDBRANCH   1   2
BRANCH   1   7
ATOM      7  C   UNL     1       9.763 -27.630  15.269  1.00  0.00     0.002 C 
BRANCH   7   8
ATOM      8  C   UNL     1       9.931 -26.887  16.602  1.00  0.00     0.028 C 
BRANCH   8   9
ATOM      9  C   UNL     1      11.238 -27.269  17.304  1.00  0.00     0.156 C 
BRANCH   9  10
ATOM     10  O   UNL     1      12.271 -26.387  16.957  1.00  0.00    -0.396 OA
ATOM     11  H   UNL     1      12.060 -26.045  16.049  1.00  0.00     0.210 HD
ENDBRANCH   9  10
ENDBRANCH   8   9
ENDBRANCH   7   8
ENDBRANCH   1   7
TORSDOF 8
ENDMDL
MODEL 6
REMARK VINA RESULT:    -3.738     12.191     13.619
REMARK INTER + INTRA:          -5.712
REMARK INTER:                  -5.483
REMARK INTRA:                  -0.228
REMARK UNBOUND:                -0.334
REMARK SMILES CCCCCCCCCO
REMARK SMILES IDX 6 1 5 2 4 3 3 4 2 5 1 6 7 7 8 8 9 9 10 10
REMARK H PARENT 10 11
REMARK Flexibility Score: inf
ROOT
ATOM      1  C   UNL     1       9.022 -26.232  14.436  1.00  0.00     0.000 C 
ENDROOT
BRANCH   1   2
ATOM      2  C   UNL     1      10.254 -25.533  13.843  1.00  0.00     0.000 C 
BRANCH   2   3
ATOM      3  C   UNL     1      11.523 -26.395  13.928  1.00  0.00    -0.000 C 
BRANCH   3   4
ATOM      4  C   UNL     1      12.541 -26.061  12.826  1.00  0.00    -0.000 C 
BRANCH   4   5
ATOM      5  C   UNL     1      13.019 -24.609  12.943  1.00  0.00    -0.003 C 
ATOM      6  C   UNL     1      13.350 -24.026  11.572  1.00  0.00     0.004 C 
ENDBRANCH   4   5
ENDBRANCH   3   4
ENDBRANCH   2   3
ENDBRANCH   1   2
BRANCH   1   7
ATOM      7  C   UNL     1       7.736 -25.754  13.751  1.00  0.00     0.002 C 
BRANCH   7   8
ATOM      8  C   UNL     1       7.285 -24.397  14.311  1.00  0.00     0.028 C 
BRANCH   8   9
ATOM      9  C   UNL     1       7.311 -24.378  15.842  1.00  0.00     0.156 C 
BRANCH   9  10
ATOM     10  O   UNL     1       6.610 -23.272  16.342  1.00  0.00    -0.396 OA
ATOM     11  H   UNL     1       6.949 -23.113  17.262  1.00  0.00     0.210 HD
ENDBRANCH   9  10
ENDBRANCH   8   9
ENDBRANCH   7   8
ENDBRANCH   1   7
TORSDOF 8
ENDMDL
MODEL 7
REMARK VINA RESULT:    -3.690     12.846     14.817
REMARK INTER + INTRA:          -5.642
REMARK INTER:                  -5.094
REMARK INTRA:                  -0.548
REMARK UNBOUND:                -0.334
REMARK SMILES CCCCCCCCCO
REMARK SMILES IDX 6 1 5 2 4 3 3 4 2 5 1 6 7 7 8 8 9 9 10 10
REMARK H PARENT 10 11
REMARK Flexibility Score: inf
ROOT
ATOM      1  C   UNL     1       8.044 -25.896  13.584  1.00  0.00     0.000 C 
ENDROOT
BRANCH   1   2
ATOM      2  C   UNL     1       6.994 -25.014  14.275  1.00  0.00     0.000 C 
BRANCH   2   3
ATOM      3  C   UNL     1       7.589 -24.156  15.403  1.00  0.00    -0.000 C 
BRANCH   3   4
ATOM      4  C   UNL     1       7.044 -24.540  16.788  1.00  0.00    -0.000 C 
BRANCH   4   5
ATOM      5  C   UNL     1       6.481 -25.966  16.780  1.00  0.00    -0.003 C 
ATOM      6  C   UNL     1       7.547 -26.982  17.182  1.00  0.00     0.004 C 
ENDBRANCH   4   5
ENDBRANCH   3   4
ENDBRANCH   2   3
ENDBRANCH   1   2
BRANCH   1   7
ATOM      7  C   UNL     1       9.464 -25.466  13.971  1.00  0.00     0.002 C 
BRANCH   7   8
ATOM      8  C   UNL     1      10.242 -26.633  14.595  1.00  0.00     0.028 C 
BRANCH   8   9
ATOM      9  C   UNL     1      11.734 -26.568  14.254  1.00  0.00     0.156 C 
BRANCH   9  10
ATOM     10  O   UNL     1      12.507 -26.396  15.411  1.00  0.00    -0.396 OA
ATOM     11  H   UNL     1      12.169 -27.050  16.078  1.00  0.00     0.210 HD
ENDBRANCH   9  10
ENDBRANCH   8   9
ENDBRANCH   7   8
ENDBRANCH   1   7
TORSDOF 8
ENDMDL
MODEL 8
REMARK VINA RESULT:    -3.645      2.857      5.650
REMARK INTER + INTRA:          -5.578
REMARK INTER:                  -5.315
REMARK INTRA:                  -0.263
REMARK UNBOUND:                -0.334
REMARK SMILES CCCCCCCCCO
REMARK SMILES IDX 6 1 5 2 4 3 3 4 2 5 1 6 7 7 8 8 9 9 10 10
REMARK H PARENT 10 11
REMARK Flexibility Score: inf
ROOT
ATOM      1  C   UNL     1      24.027 -21.540  18.030  1.00  0.00     0.000 C 
ENDROOT
BRANCH   1   2
ATOM      2  C   UNL     1      22.580 -21.920  18.375  1.00  0.00     0.000 C 
BRANCH   2   3
ATOM      3  C   UNL     1      22.241 -23.372  18.001  1.00  0.00    -0.000 C 
BRANCH   3   4
ATOM      4  C   UNL     1      21.498 -24.115  19.122  1.00  0.00    -0.000 C 
BRANCH   4   5
ATOM      5  C   UNL     1      20.006 -24.246  18.796  1.00  0.00    -0.003 C 
ATOM      6  C   UNL     1      19.750 -24.071  17.302  1.00  0.00     0.004 C 
ENDBRANCH   4   5
ENDBRANCH   3   4
ENDBRANCH   2   3
ENDBRANCH   1   2
BRANCH   1   7
ATOM      7  C   UNL     1      24.078 -20.220  17.252  1.00  0.00     0.002 C 
BRANCH   7   8
ATOM      8  C   UNL     1      22.692 -19.563  17.191  1.00  0.00     0.028 C 
BRANCH   8   9
ATOM      9  C   UNL     1      22.691 -18.322  16.293  1.00  0.00     0.156 C 
BRANCH   9  10
ATOM     10  O   UNL     1      22.167 -18.619  15.027  1.00  0.00    -0.396 OA
ATOM     11  H   UNL     1      21.700 -17.800  14.713  1.00  0.00     0.210 HD
ENDBRANCH   9  10
ENDBRANCH   8   9
ENDBRANCH   7   8
ENDBRANCH   1   7
TORSDOF 8
ENDMDL
MODEL 9
REMARK VINA RESULT:    -1.735      2.510      5.733
REMARK INTER + INTRA:          -2.830
REMARK INTER:                  -2.539
REMARK INTRA:                  -0.290
REMARK UNBOUND:                -0.334
REMARK SMILES CCCCCCCCCO
REMARK SMILES IDX 6 1 5 2 4 3 3 4 2 5 1 6 7 7 8 8 9 9 10 10
REMARK H PARENT 10 11
REMARK Flexibility Score: inf
ROOT
ATOM      1  C   UNL     1      22.695 -21.396  18.194  1.00  0.00     0.000 C 
ENDROOT
BRANCH   1   2
ATOM      2  C   UNL     1      22.585 -22.921  18.340  1.00  0.00     0.000 C 
BRANCH   2   3
ATOM      3  C   UNL     1      21.244 -23.472  17.832  1.00  0.00    -0.000 C 
BRANCH   3   4
ATOM      4  C   UNL     1      20.753 -24.680  18.646  1.00  0.00    -0.000 C 
BRANCH   4   5
ATOM      5  C   UNL     1      21.759 -25.048  19.742  1.00  0.00    -0.003 C 
ATOM      6  C   UNL     1      21.051 -25.374  21.053  1.00  0.00     0.004 C 
ENDBRANCH   4   5
ENDBRANCH   3   4
ENDBRANCH   2   3
ENDBRANCH   1   2
BRANCH   1   7
ATOM      7  C   UNL     1      24.125 -20.980  17.832  1.00  0.00     0.002 C 
BRANCH   7   8
ATOM      8  C   UNL     1      24.124 -19.802  16.848  1.00  0.00     0.028 C 
BRANCH   8   9
ATOM      9  C   UNL     1      22.763 -19.101  16.804  1.00  0.00     0.156 C 
BRANCH   9  10
ATOM     10  O   UNL     1      22.798 -17.893  17.515  1.00  0.00    -0.396 OA
ATOM     11  H   UNL     1      22.097 -17.310  17.120  1.00  0.00     0.210 HD
ENDBRANCH   9  10
ENDBRANCH   8   9
ENDBRANCH   7   8
ENDBRANCH   1   7
TORSDOF 8
ENDMDL
