MODEL 1
REMARK VINA RESULT:    34.442      0.000      0.000
REMARK INTER + INTRA:          43.688
REMARK INTER:                  42.496
REMARK INTRA:                   1.191
REMARK UNBOUND:                 1.191
REMARK SMILES COc1cc(-c2oc3cc(O)cc(O)c3c(=O)c2O)ccc1O
REMARK SMILES IDX 6 1 18 2 16 3 17 4 15 5 13 6 12 7 10 8 9 9 8 10 7 11 5 12
REMARK SMILES IDX 3 13 22 14 4 15 21 16 20 17 2 18 1 19 23 20 19 22 14 24
REMARK SMILES IDX 11 26
REMARK H PARENT 23 21 19 23 14 25 11 27
REMARK Flexibility Score: inf
ROOT
ATOM      1  C   UNL     1      11.639  12.992  29.064  1.00  0.00     0.180 A 
ATOM      2  C   UNL     1      12.938  13.528  29.038  1.00  0.00     0.208 A 
ATOM      3  C   UNL     1      13.332  14.304  27.936  1.00  0.00     0.238 A 
ATOM      4  O   UNL     1      14.470  14.842  27.955  1.00  0.00    -0.285 OA
ATOM      5  C   UNL     1      12.445  14.487  26.849  1.00  0.00     0.111 A 
ATOM      6  C   UNL     1      12.755  15.216  25.660  1.00  0.00     0.134 A 
ATOM      7  C   UNL     1      11.759  15.421  24.697  1.00  0.00     0.093 A 
ATOM      8  C   UNL     1      10.485  14.869  24.848  1.00  0.00     0.123 A 
ATOM      9  C   UNL     1      10.189  14.110  25.977  1.00  0.00     0.094 A 
ATOM     10  C   UNL     1      11.149  13.921  26.975  1.00  0.00     0.146 A 
ATOM     11  O   UNL     1      10.817  13.208  28.045  1.00  0.00    -0.452 OA
ENDROOT
BRANCH   1  12
ATOM     12  C   UNL     1      11.145  12.176  30.197  1.00  0.00     0.025 A 
ATOM     13  C   UNL     1       9.428  10.710  31.138  1.00  0.00     0.161 A 
ATOM     14  C   UNL     1      10.143  10.665  32.349  1.00  0.00     0.157 A 
ATOM     15  C   UNL     1       9.935  11.476  30.069  1.00  0.00     0.062 A 
ATOM     16  C   UNL     1      11.337  11.378  32.484  1.00  0.00     0.051 A 
ATOM     17  C   UNL     1      11.833  12.134  31.421  1.00  0.00     0.016 A 
BRANCH  13  18
ATOM     18  O   UNL     1       8.227   9.990  31.033  1.00  0.00    -0.493 OA
ATOM     19  C   UNL     1       7.876   8.880  31.852  1.00  0.00     0.278 C 
ENDBRANCH  13  18
BRANCH  14  20
ATOM     20  O   UNL     1       9.678   9.918  33.432  1.00  0.00    -0.504 OA
ATOM     21  H   UNL     1      10.304   9.481  34.096  1.00  0.00     0.293 HD
ENDBRANCH  14  20
ENDBRANCH   1  12
BRANCH   2  22
ATOM     22  O   UNL     1      13.826  13.273  30.087  1.00  0.00    -0.502 OA
ATOM     23  H   UNL     1      13.588  13.448  31.056  1.00  0.00     0.293 HD
ENDBRANCH   2  22
BRANCH   6  24
ATOM     24  O   UNL     1      14.019  15.734  25.367  1.00  0.00    -0.507 OA
ATOM     25  H   UNL     1      14.846  15.181  25.200  1.00  0.00     0.293 HD
ENDBRANCH   6  24
BRANCH   8  26
ATOM     26  O   UNL     1       9.507  15.064  23.875  1.00  0.00    -0.508 OA
ATOM     27  H   UNL     1       9.337  15.976  23.468  1.00  0.00     0.293 HD
ENDBRANCH   8  26
TORSDOF 6
ENDMDL
MODEL 2
REMARK VINA RESULT:    34.578      2.731      4.391
REMARK INTER + INTRA:          43.855
REMARK INTER:                  43.434
REMARK INTRA:                   0.421
REMARK UNBOUND:                 1.191
REMARK SMILES COc1cc(-c2oc3cc(O)cc(O)c3c(=O)c2O)ccc1O
REMARK SMILES IDX 6 1 18 2 16 3 17 4 15 5 13 6 12 7 10 8 9 9 8 10 7 11 5 12
REMARK SMILES IDX 3 13 22 14 4 15 21 16 20 17 2 18 1 19 23 20 19 22 14 24
REMARK SMILES IDX 11 26
REMARK H PARENT 23 21 19 23 14 25 11 27
REMARK Flexibility Score: inf
ROOT
ATOM      1  C   UNL     1      10.378  11.046  30.759  1.00  0.00     0.180 A 
ATOM      2  C   UNL     1      10.028  12.287  30.200  1.00  0.00     0.208 A 
ATOM      3  C   UNL     1      11.003  13.020  29.503  1.00  0.00     0.238 A 
ATOM      4  O   UNL     1      10.662  14.093  28.942  1.00  0.00    -0.285 OA
ATOM      5  C   UNL     1      12.329  12.531  29.423  1.00  0.00     0.111 A 
ATOM      6  C   UNL     1      13.408  13.211  28.781  1.00  0.00     0.134 A 
ATOM      7  C   UNL     1      14.654  12.579  28.672  1.00  0.00     0.093 A 
ATOM      8  C   UNL     1      14.877  11.322  29.237  1.00  0.00     0.123 A 
ATOM      9  C   UNL     1      13.846  10.674  29.912  1.00  0.00     0.094 A 
ATOM     10  C   UNL     1      12.581  11.261  30.004  1.00  0.00     0.146 A 
ATOM     11  O   UNL     1      11.622  10.598  30.639  1.00  0.00    -0.452 OA
ENDROOT
BRANCH   1  12
ATOM     12  C   UNL     1       9.403  10.209  31.496  1.00  0.00     0.025 A 
ATOM     13  C   UNL     1       7.504   8.668  31.452  1.00  0.00     0.161 A 
ATOM     14  C   UNL     1       7.493   8.656  32.859  1.00  0.00     0.157 A 
ATOM     15  C   UNL     1       8.460   9.455  30.779  1.00  0.00     0.062 A 
ATOM     16  C   UNL     1       8.418   9.424  33.573  1.00  0.00     0.051 A 
ATOM     17  C   UNL     1       9.362  10.200  32.900  1.00  0.00     0.016 A 
BRANCH  13  18
ATOM     18  O   UNL     1       6.558   7.894  30.761  1.00  0.00    -0.493 OA
ATOM     19  C   UNL     1       5.967   6.701  31.265  1.00  0.00     0.278 C 
ENDBRANCH  13  18
BRANCH  14  20
ATOM     20  O   UNL     1       6.565   7.891  33.565  1.00  0.00    -0.504 OA
ATOM     21  H   UNL     1       5.765   7.463  33.117  1.00  0.00     0.293 HD
ENDBRANCH  14  20
ENDBRANCH   1  12
BRANCH   2  22
ATOM     22  O   UNL     1       8.733  12.788  30.356  1.00  0.00    -0.502 OA
ATOM     23  H   UNL     1       8.469  13.718  30.053  1.00  0.00     0.293 HD
ENDBRANCH   2  22
BRANCH   6  24
ATOM     24  O   UNL     1      13.319  14.505  28.262  1.00  0.00    -0.507 OA
ATOM     25  H   UNL     1      13.901  15.280  28.540  1.00  0.00     0.293 HD
ENDBRANCH   6  24
BRANCH   8  26
ATOM     26  O   UNL     1      16.125  10.710  29.137  1.00  0.00    -0.508 OA
ATOM     27  H   UNL     1      16.692  10.795  28.302  1.00  0.00     0.293 HD
ENDBRANCH   8  26
TORSDOF 6
ENDMDL
MODEL 3
REMARK VINA RESULT:    34.636      3.160      4.247
REMARK INTER + INTRA:          43.927
REMARK INTER:                  42.721
REMARK INTRA:                   1.206
REMARK UNBOUND:                 1.191
REMARK SMILES COc1cc(-c2oc3cc(O)cc(O)c3c(=O)c2O)ccc1O
REMARK SMILES IDX 6 1 18 2 16 3 17 4 15 5 13 6 12 7 10 8 9 9 8 10 7 11 5 12
REMARK SMILES IDX 3 13 22 14 4 15 21 16 20 17 2 18 1 19 23 20 19 22 14 24
REMARK SMILES IDX 11 26
REMARK H PARENT 23 21 19 23 14 25 11 27
REMARK Flexibility Score: inf
ROOT
ATOM      1  C   UNL     1      10.792  11.375  31.171  1.00  0.00     0.180 A 
ATOM      2  C   UNL     1      11.512  10.903  30.060  1.00  0.00     0.208 A 
ATOM      3  C   UNL     1      12.514  11.715  29.503  1.00  0.00     0.238 A 
ATOM      4  O   UNL     1      13.204  11.255  28.557  1.00  0.00    -0.285 OA
ATOM      5  C   UNL     1      12.744  13.010  30.026  1.00  0.00     0.111 A 
ATOM      6  C   UNL     1      13.702  13.936  29.511  1.00  0.00     0.134 A 
ATOM      7  C   UNL     1      13.917  15.149  30.177  1.00  0.00     0.093 A 
ATOM      8  C   UNL     1      13.163  15.497  31.301  1.00  0.00     0.123 A 
ATOM      9  C   UNL     1      12.189  14.625  31.779  1.00  0.00     0.094 A 
ATOM     10  C   UNL     1      11.978  13.390  31.158  1.00  0.00     0.146 A 
ATOM     11  O   UNL     1      11.053  12.581  31.660  1.00  0.00    -0.452 OA
ENDROOT
BRANCH   1  12
ATOM     12  C   UNL     1       9.732  10.572  31.822  1.00  0.00     0.025 A 
ATOM     13  C   UNL     1       7.910   8.951  31.632  1.00  0.00     0.161 A 
ATOM     14  C   UNL     1       7.666   9.077  33.011  1.00  0.00     0.157 A 
ATOM     15  C   UNL     1       8.942   9.710  31.044  1.00  0.00     0.062 A 
ATOM     16  C   UNL     1       8.438   9.951  33.782  1.00  0.00     0.051 A 
ATOM     17  C   UNL     1       9.459  10.699  33.194  1.00  0.00     0.016 A 
BRANCH  13  18
ATOM     18  O   UNL     1       7.114   8.072  30.880  1.00  0.00    -0.493 OA
ATOM     19  C   UNL     1       6.029   7.314  31.406  1.00  0.00     0.278 C 
ENDBRANCH  13  18
BRANCH  14  20
ATOM     20  O   UNL     1       6.655   8.344  33.633  1.00  0.00    -0.504 OA
ATOM     21  H   UNL     1       5.690   8.650  33.638  1.00  0.00     0.293 HD
ENDBRANCH  14  20
ENDBRANCH   1  12
BRANCH   2  22
ATOM     22  O   UNL     1      11.218   9.652  29.511  1.00  0.00    -0.502 OA
ATOM     23  H   UNL     1      10.756   8.921  30.038  1.00  0.00     0.293 HD
ENDBRANCH   2  22
BRANCH   6  24
ATOM     24  O   UNL     1      14.445  13.727  28.345  1.00  0.00    -0.507 OA
ATOM     25  H   UNL     1      14.129  13.944  27.413  1.00  0.00     0.293 HD
ENDBRANCH   6  24
BRANCH   8  26
ATOM     26  O   UNL     1      13.373  16.714  31.946  1.00  0.00    -0.508 OA
ATOM     27  H   UNL     1      13.652  16.758  32.919  1.00  0.00     0.293 HD
ENDBRANCH   8  26
TORSDOF 6
ENDMDL
MODEL 4
REMARK VINA RESULT:    35.090      1.698      3.308
REMARK INTER + INTRA:          44.487
REMARK INTER:                  43.242
REMARK INTRA:                   1.245
REMARK UNBOUND:                 1.191
REMARK SMILES COc1cc(-c2oc3cc(O)cc(O)c3c(=O)c2O)ccc1O
REMARK SMILES IDX 6 1 18 2 16 3 17 4 15 5 13 6 12 7 10 8 9 9 8 10 7 11 5 12
REMARK SMILES IDX 3 13 22 14 4 15 21 16 20 17 2 18 1 19 23 20 19 22 14 24
REMARK SMILES IDX 11 26
REMARK H PARENT 23 21 19 23 14 25 11 27
REMARK Flexibility Score: inf
ROOT
ATOM      1  C   UNL     1      10.260  11.303  30.527  1.00  0.00     0.180 A 
ATOM      2  C   UNL     1      11.370  11.703  31.291  1.00  0.00     0.208 A 
ATOM      3  C   UNL     1      12.292  12.606  30.734  1.00  0.00     0.238 A 
ATOM      4  O   UNL     1      13.240  13.016  31.452  1.00  0.00    -0.285 OA
ATOM      5  C   UNL     1      12.124  13.052  29.402  1.00  0.00     0.111 A 
ATOM      6  C   UNL     1      13.020  13.931  28.720  1.00  0.00     0.134 A 
ATOM      7  C   UNL     1      12.694  14.390  27.437  1.00  0.00     0.093 A 
ATOM      8  C   UNL     1      11.539  13.951  26.786  1.00  0.00     0.123 A 
ATOM      9  C   UNL     1      10.686  13.052  27.421  1.00  0.00     0.094 A 
ATOM     10  C   UNL     1      10.964  12.606  28.716  1.00  0.00     0.146 A 
ATOM     11  O   UNL     1      10.112  11.765  29.291  1.00  0.00    -0.452 OA
ENDROOT
BRANCH   1  12
ATOM     12  C   UNL     1       9.239  10.367  31.049  1.00  0.00     0.025 A 
ATOM     13  C   UNL     1       8.668   8.470  32.484  1.00  0.00     0.161 A 
ATOM     14  C   UNL     1       7.342   8.529  32.019  1.00  0.00     0.157 A 
ATOM     15  C   UNL     1       9.613   9.391  31.986  1.00  0.00     0.062 A 
ATOM     16  C   UNL     1       6.975   9.487  31.070  1.00  0.00     0.051 A 
ATOM     17  C   UNL     1       7.915  10.396  30.582  1.00  0.00     0.016 A 
BRANCH  13  18
ATOM     18  O   UNL     1       9.011   7.492  33.432  1.00  0.00    -0.493 OA
ATOM     19  C   UNL     1       8.104   6.538  33.973  1.00  0.00     0.278 C 
ENDBRANCH  13  18
BRANCH  14  20
ATOM     20  O   UNL     1       6.376   7.638  32.486  1.00  0.00    -0.504 OA
ATOM     21  H   UNL     1       6.287   6.697  32.123  1.00  0.00     0.293 HD
ENDBRANCH  14  20
ENDBRANCH   1  12
BRANCH   2  22
ATOM     22  O   UNL     1      11.559  11.192  32.578  1.00  0.00    -0.502 OA
ATOM     23  H   UNL     1      10.884  11.325  33.321  1.00  0.00     0.293 HD
ENDBRANCH   2  22
BRANCH   6  24
ATOM     24  O   UNL     1      14.244  14.360  29.242  1.00  0.00    -0.507 OA
ATOM     25  H   UNL     1      15.038  14.645  28.691  1.00  0.00     0.293 HD
ENDBRANCH   6  24
BRANCH   8  26
ATOM     26  O   UNL     1      11.233  14.400  25.504  1.00  0.00    -0.508 OA
ATOM     27  H   UNL     1      10.882  13.772  24.790  1.00  0.00     0.293 HD
ENDBRANCH   8  26
TORSDOF 6
ENDMDL
