MODEL 1
REMARK VINA RESULT:    -4.071      0.000      0.000
REMARK INTER + INTRA:          -9.552
REMARK INTER:                  -7.640
REMARK INTRA:                  -1.913
REMARK UNBOUND:                -1.913
REMARK SMILES O=C([O-])CCCCCCCCCCCCCCC(=O)[O-]
REMARK SMILES IDX 10 1 9 2 8 3 7 4 6 5 5 6 4 7 2 8 1 9 3 10 11 11 12 12 13 13
REMARK SMILES IDX 14 14 15 15 16 16 17 17 18 18 19 19 20 20
REMARK H PARENT
REMARK Flexibility Score: inf
ROOT
ATOM      1  C   UNL     1      29.260  30.162 -11.299  1.00  0.00     0.000 C 
ENDROOT
BRANCH   1   2
ATOM      2  C   UNL     1      29.024  30.184 -12.818  1.00  0.00     0.000 C 
BRANCH   2   3
ATOM      3  C   UNL     1      27.602  30.628 -13.190  1.00  0.00     0.000 C 
BRANCH   3   4
ATOM      4  C   UNL     1      27.273  30.257 -14.641  1.00  0.00     0.000 C 
BRANCH   4   5
ATOM      5  C   UNL     1      25.760  30.286 -14.888  1.00  0.00     0.000 C 
BRANCH   5   6
ATOM      6  C   UNL     1      24.983  30.129 -13.572  1.00  0.00     0.006 C 
BRANCH   6   7
ATOM      7  C   UNL     1      23.931  31.229 -13.385  1.00  0.00     0.053 C 
BRANCH   7   8
ATOM      8  C   UNL     1      24.036  31.873 -12.037  1.00  0.00     0.041 C 
ATOM      9  O   UNL     1      24.045  31.167 -10.994  1.00  0.00    -0.550 OA
ATOM     10  O   UNL     1      24.091  33.257 -11.930  1.00  0.00    -0.550 OA
ENDBRANCH   7   8
ENDBRANCH   6   7
ENDBRANCH   5   6
ENDBRANCH   4   5
ENDBRANCH   3   4
ENDBRANCH   2   3
ENDBRANCH   1   2
BRANCH   1  11
ATOM     11  C   UNL     1      27.956  30.286 -10.495  1.00  0.00     0.000 C 
BRANCH  11  12
ATOM     12  C   UNL     1      27.572  28.939  -9.864  1.00  0.00     0.000 C 
BRANCH  12  13
ATOM     13  C   UNL     1      26.185  28.447 -10.312  1.00  0.00     0.000 C 
BRANCH  13  14
ATOM     14  C   UNL     1      26.247  27.091 -11.036  1.00  0.00     0.000 C 
BRANCH  14  15
ATOM     15  C   UNL     1      26.879  27.197 -12.434  1.00  0.00     0.000 C 
BRANCH  15  16
ATOM     16  C   UNL     1      27.086  25.824 -13.098  1.00  0.00     0.006 C 
BRANCH  16  17
ATOM     17  C   UNL     1      26.652  24.669 -12.185  1.00  0.00     0.053 C 
BRANCH  17  18
ATOM     18  C   UNL     1      27.495  23.448 -12.397  1.00  0.00     0.041 C 
ATOM     19  O   UNL     1      28.428  23.461 -13.242  1.00  0.00    -0.550 OA
ATOM     20  O   UNL     1      27.271  22.308 -11.637  1.00  0.00    -0.550 OA
ENDBRANCH  17  18
ENDBRANCH  16  17
ENDBRANCH  15  16
ENDBRANCH  14  15
ENDBRANCH  13  14
ENDBRANCH  12  13
ENDBRANCH  11  12
ENDBRANCH   1  11
TORSDOF 15
ENDMDL
MODEL 2
REMARK VINA RESULT:    -4.060      1.676      6.672
REMARK INTER + INTRA:          -9.532
REMARK INTER:                  -7.495
REMARK INTRA:                  -2.038
REMARK UNBOUND:                -1.913
REMARK SMILES O=C([O-])CCCCCCCCCCCCCCC(=O)[O-]
REMARK SMILES IDX 10 1 9 2 8 3 7 4 6 5 5 6 4 7 2 8 1 9 3 10 11 11 12 12 13 13
REMARK SMILES IDX 14 14 15 15 16 16 17 17 18 18 19 19 20 20
REMARK H PARENT
REMARK Flexibility Score: inf
ROOT
ATOM      1  C   UNL     1      25.888  28.610 -10.638  1.00  0.00     0.000 C 
ENDROOT
BRANCH   1   2
ATOM      2  C   UNL     1      25.680  27.697 -11.857  1.00  0.00     0.000 C 
BRANCH   2   3
ATOM      3  C   UNL     1      26.997  27.119 -12.395  1.00  0.00     0.000 C 
BRANCH   3   4
ATOM      4  C   UNL     1      26.780  26.420 -13.742  1.00  0.00     0.000 C 
BRANCH   4   5
ATOM      5  C   UNL     1      26.459  24.934 -13.546  1.00  0.00     0.000 C 
BRANCH   5   6
ATOM      6  C   UNL     1      27.164  24.377 -12.300  1.00  0.00     0.006 C 
BRANCH   6   7
ATOM      7  C   UNL     1      27.965  23.106 -12.606  1.00  0.00     0.053 C 
BRANCH   7   8
ATOM      8  C   UNL     1      27.267  21.877 -12.109  1.00  0.00     0.041 C 
ATOM      9  O   UNL     1      27.616  21.345 -11.023  1.00  0.00    -0.550 OA
ATOM     10  O   UNL     1      26.253  21.301 -12.863  1.00  0.00    -0.550 OA
ENDBRANCH   7   8
ENDBRANCH   6   7
ENDBRANCH   5   6
ENDBRANCH   4   5
ENDBRANCH   3   4
ENDBRANCH   2   3
ENDBRANCH   1   2
BRANCH   1  11
ATOM     11  C   UNL     1      27.342  28.614 -10.141  1.00  0.00     0.000 C 
BRANCH  11  12
ATOM     12  C   UNL     1      27.742  30.007  -9.632  1.00  0.00     0.000 C 
BRANCH  12  13
ATOM     13  C   UNL     1      28.428  30.861 -10.712  1.00  0.00     0.000 C 
BRANCH  13  14
ATOM     14  C   UNL     1      29.266  30.017 -11.687  1.00  0.00     0.000 C 
BRANCH  14  15
ATOM     15  C   UNL     1      28.940  30.319 -13.159  1.00  0.00     0.000 C 
BRANCH  15  16
ATOM     16  C   UNL     1      27.448  30.627 -13.386  1.00  0.00     0.006 C 
BRANCH  16  17
ATOM     17  C   UNL     1      26.933  30.044 -14.708  1.00  0.00     0.053 C 
BRANCH  17  18
ATOM     18  C   UNL     1      25.441  30.142 -14.814  1.00  0.00     0.041 C 
ATOM     19  O   UNL     1      24.757  30.494 -13.817  1.00  0.00    -0.550 OA
ATOM     20  O   UNL     1      24.811  29.878 -16.022  1.00  0.00    -0.550 OA
ENDBRANCH  17  18
ENDBRANCH  16  17
ENDBRANCH  15  16
ENDBRANCH  14  15
ENDBRANCH  13  14
ENDBRANCH  12  13
ENDBRANCH  11  12
ENDBRANCH   1  11
TORSDOF 15
ENDMDL
MODEL 3
REMARK VINA RESULT:    -4.032      1.761      6.036
REMARK INTER + INTRA:          -9.480
REMARK INTER:                  -7.084
REMARK INTRA:                  -2.396
REMARK UNBOUND:                -1.913
REMARK SMILES O=C([O-])CCCCCCCCCCCCCCC(=O)[O-]
REMARK SMILES IDX 10 1 9 2 8 3 7 4 6 5 5 6 4 7 2 8 1 9 3 10 11 11 12 12 13 13
REMARK SMILES IDX 14 14 15 15 16 16 17 17 18 18 19 19 20 20
REMARK H PARENT
REMARK Flexibility Score: inf
ROOT
ATOM      1  C   UNL     1      28.923  29.920 -11.965  1.00  0.00     0.000 C 
ENDROOT
BRANCH   1   2
ATOM      2  C   UNL     1      28.750  30.257 -13.455  1.00  0.00     0.000 C 
BRANCH   2   3
ATOM      3  C   UNL     1      27.307  30.641 -13.812  1.00  0.00     0.000 C 
BRANCH   3   4
ATOM      4  C   UNL     1      26.768  29.758 -14.944  1.00  0.00     0.000 C 
BRANCH   4   5
ATOM      5  C   UNL     1      25.829  28.676 -14.399  1.00  0.00     0.000 C 
BRANCH   5   6
ATOM      6  C   UNL     1      26.373  27.271 -14.702  1.00  0.00     0.006 C 
BRANCH   6   7
ATOM      7  C   UNL     1      26.911  26.574 -13.447  1.00  0.00     0.053 C 
BRANCH   7   8
ATOM      8  C   UNL     1      26.698  25.093 -13.500  1.00  0.00     0.041 C 
ATOM      9  O   UNL     1      25.623  24.622 -13.956  1.00  0.00    -0.550 OA
ATOM     10  O   UNL     1      27.674  24.232 -13.015  1.00  0.00    -0.550 OA
ENDBRANCH   7   8
ENDBRANCH   6   7
ENDBRANCH   5   6
ENDBRANCH   4   5
ENDBRANCH   3   4
ENDBRANCH   2   3
ENDBRANCH   1   2
BRANCH   1  11
ATOM     11  C   UNL     1      27.793  30.490 -11.094  1.00  0.00     0.000 C 
BRANCH  11  12
ATOM     12  C   UNL     1      27.062  29.366 -10.344  1.00  0.00     0.000 C 
BRANCH  12  13
ATOM     13  C   UNL     1      25.653  29.098 -10.899  1.00  0.00     0.000 C 
BRANCH  13  14
ATOM     14  C   UNL     1      24.806  30.378 -11.000  1.00  0.00     0.000 C 
BRANCH  14  15
ATOM     15  C   UNL     1      23.555  30.190 -11.874  1.00  0.00     0.000 C 
BRANCH  15  16
ATOM     16  C   UNL     1      23.089  31.500 -12.534  1.00  0.00     0.006 C 
BRANCH  16  17
ATOM     17  C   UNL     1      24.268  32.363 -13.001  1.00  0.00     0.053 C 
BRANCH  17  18
ATOM     18  C   UNL     1      24.274  32.534 -14.490  1.00  0.00     0.041 C 
ATOM     19  O   UNL     1      25.164  33.232 -15.045  1.00  0.00    -0.550 OA
ATOM     20  O   UNL     1      23.317  31.896 -15.267  1.00  0.00    -0.550 OA
ENDBRANCH  17  18
ENDBRANCH  16  17
ENDBRANCH  15  16
ENDBRANCH  14  15
ENDBRANCH  13  14
ENDBRANCH  12  13
ENDBRANCH  11  12
ENDBRANCH   1  11
TORSDOF 15
ENDMDL
MODEL 4
REMARK VINA RESULT:    -3.992      1.315      2.112
REMARK INTER + INTRA:          -9.406
REMARK INTER:                  -7.073
REMARK INTRA:                  -2.333
REMARK UNBOUND:                -1.913
REMARK SMILES O=C([O-])CCCCCCCCCCCCCCC(=O)[O-]
REMARK SMILES IDX 10 1 9 2 8 3 7 4 6 5 5 6 4 7 2 8 1 9 3 10 11 11 12 12 13 13
REMARK SMILES IDX 14 14 15 15 16 16 17 17 18 18 19 19 20 20
REMARK H PARENT
REMARK Flexibility Score: inf
ROOT
ATOM      1  C   UNL     1      28.672  30.500 -13.302  1.00  0.00     0.000 C 
ENDROOT
BRANCH   1   2
ATOM      2  C   UNL     1      27.408  30.030 -14.039  1.00  0.00     0.000 C 
BRANCH   2   3
ATOM      3  C   UNL     1      26.451  31.185 -14.369  1.00  0.00     0.000 C 
BRANCH   3   4
ATOM      4  C   UNL     1      25.009  30.830 -13.987  1.00  0.00     0.000 C 
BRANCH   4   5
ATOM      5  C   UNL     1      24.143  32.089 -13.873  1.00  0.00     0.000 C 
BRANCH   5   6
ATOM      6  C   UNL     1      24.199  32.670 -12.452  1.00  0.00     0.006 C 
BRANCH   6   7
ATOM      7  C   UNL     1      24.231  31.576 -11.378  1.00  0.00     0.053 C 
BRANCH   7   8
ATOM      8  C   UNL     1      22.874  31.336 -10.791  1.00  0.00     0.041 C 
ATOM      9  O   UNL     1      22.526  31.928  -9.736  1.00  0.00    -0.550 OA
ATOM     10  O   UNL     1      22.006  30.433 -11.391  1.00  0.00    -0.550 OA
ENDBRANCH   7   8
ENDBRANCH   6   7
ENDBRANCH   5   6
ENDBRANCH   4   5
ENDBRANCH   3   4
ENDBRANCH   2   3
ENDBRANCH   1   2
BRANCH   1  11
ATOM     11  C   UNL     1      28.871  29.791 -11.953  1.00  0.00     0.000 C 
BRANCH  11  12
ATOM     12  C   UNL     1      28.101  30.513 -10.837  1.00  0.00     0.000 C 
BRANCH  12  13
ATOM     13  C   UNL     1      27.125  29.586 -10.093  1.00  0.00     0.000 C 
BRANCH  13  14
ATOM     14  C   UNL     1      26.944  28.231 -10.797  1.00  0.00     0.000 C 
BRANCH  14  15
ATOM     15  C   UNL     1      25.560  28.086 -11.451  1.00  0.00     0.000 C 
BRANCH  15  16
ATOM     16  C   UNL     1      25.547  27.050 -12.590  1.00  0.00     0.006 C 
BRANCH  16  17
ATOM     17  C   UNL     1      26.938  26.457 -12.848  1.00  0.00     0.053 C 
BRANCH  17  18
ATOM     18  C   UNL     1      26.993  25.000 -12.502  1.00  0.00     0.041 C 
ATOM     19  O   UNL     1      27.677  24.207 -13.201  1.00  0.00    -0.550 OA
ATOM     20  O   UNL     1      26.316  24.525 -11.386  1.00  0.00    -0.550 OA
ENDBRANCH  17  18
ENDBRANCH  16  17
ENDBRANCH  15  16
ENDBRANCH  14  15
ENDBRANCH  13  14
ENDBRANCH  12  13
ENDBRANCH  11  12
ENDBRANCH   1  11
TORSDOF 15
ENDMDL
MODEL 5
REMARK VINA RESULT:    -3.974      1.813      3.397
REMARK INTER + INTRA:          -9.372
REMARK INTER:                  -7.778
REMARK INTRA:                  -1.594
REMARK UNBOUND:                -1.913
REMARK SMILES O=C([O-])CCCCCCCCCCCCCCC(=O)[O-]
REMARK SMILES IDX 10 1 9 2 8 3 7 4 6 5 5 6 4 7 2 8 1 9 3 10 11 11 12 12 13 13
REMARK SMILES IDX 14 14 15 15 16 16 17 17 18 18 19 19 20 20
REMARK H PARENT
REMARK Flexibility Score: inf
ROOT
ATOM      1  C   UNL     1      25.943  28.914 -10.352  1.00  0.00     0.000 C 
ENDROOT
BRANCH   1   2
ATOM      2  C   UNL     1      27.443  29.081 -10.060  1.00  0.00     0.000 C 
BRANCH   2   3
ATOM      3  C   UNL     1      28.021  30.375 -10.652  1.00  0.00     0.000 C 
BRANCH   3   4
ATOM      4  C   UNL     1      29.314  30.093 -11.428  1.00  0.00     0.000 C 
BRANCH   4   5
ATOM      5  C   UNL     1      29.091  30.231 -12.938  1.00  0.00     0.000 C 
BRANCH   5   6
ATOM      6  C   UNL     1      27.646  30.651 -13.246  1.00  0.00     0.006 C 
BRANCH   6   7
ATOM      7  C   UNL     1      27.183  30.170 -14.627  1.00  0.00     0.053 C 
BRANCH   7   8
ATOM      8  C   UNL     1      25.693  30.229 -14.764  1.00  0.00     0.041 C 
ATOM      9  O   UNL     1      25.093  31.334 -14.699  1.00  0.00    -0.550 OA
ATOM     10  O   UNL     1      24.963  29.059 -14.933  1.00  0.00    -0.550 OA
ENDBRANCH   7   8
ENDBRANCH   6   7
ENDBRANCH   5   6
ENDBRANCH   4   5
ENDBRANCH   3   4
ENDBRANCH   2   3
ENDBRANCH   1   2
BRANCH   1  11
ATOM     11  C   UNL     1      25.669  27.933 -11.503  1.00  0.00     0.000 C 
BRANCH  11  12
ATOM     12  C   UNL     1      26.954  27.197 -11.911  1.00  0.00     0.000 C 
BRANCH  12  13
ATOM     13  C   UNL     1      26.813  26.451 -13.248  1.00  0.00     0.000 C 
BRANCH  13  14
ATOM     14  C   UNL     1      27.106  24.946 -13.118  1.00  0.00     0.000 C 
BRANCH  14  15
ATOM     15  C   UNL     1      26.412  24.114 -14.208  1.00  0.00     0.000 C 
BRANCH  15  16
ATOM     16  C   UNL     1      26.148  22.662 -13.769  1.00  0.00     0.006 C 
BRANCH  16  17
ATOM     17  C   UNL     1      26.251  22.490 -12.248  1.00  0.00     0.053 C 
BRANCH  17  18
ATOM     18  C   UNL     1      26.979  21.233 -11.881  1.00  0.00     0.041 C 
ATOM     19  O   UNL     1      26.587  20.121 -12.325  1.00  0.00    -0.550 OA
ATOM     20  O   UNL     1      28.109  21.293 -11.076  1.00  0.00    -0.550 OA
ENDBRANCH  17  18
ENDBRANCH  16  17
ENDBRANCH  15  16
ENDBRANCH  14  15
ENDBRANCH  13  14
ENDBRANCH  12  13
ENDBRANCH  11  12
ENDBRANCH   1  11
TORSDOF 15
ENDMDL
MODEL 6
REMARK VINA RESULT:    -3.972      1.550      3.217
REMARK INTER + INTRA:          -9.367
REMARK INTER:                  -7.236
REMARK INTRA:                  -2.131
REMARK UNBOUND:                -1.913
REMARK SMILES O=C([O-])CCCCCCCCCCCCCCC(=O)[O-]
REMARK SMILES IDX 10 1 9 2 8 3 7 4 6 5 5 6 4 7 2 8 1 9 3 10 11 11 12 12 13 13
REMARK SMILES IDX 14 14 15 15 16 16 17 17 18 18 19 19 20 20
REMARK H PARENT
REMARK Flexibility Score: inf
ROOT
ATOM      1  C   UNL     1      28.301  30.608 -10.658  1.00  0.00     0.000 C 
ENDROOT
BRANCH   1   2
ATOM      2  C   UNL     1      27.717  29.583  -9.671  1.00  0.00     0.000 C 
BRANCH   2   3
ATOM      3  C   UNL     1      26.710  28.631 -10.333  1.00  0.00     0.000 C 
BRANCH   3   4
ATOM      4  C   UNL     1      25.270  29.079 -10.058  1.00  0.00     0.000 C 
BRANCH   4   5
ATOM      5  C   UNL     1      24.471  29.197 -11.361  1.00  0.00     0.000 C 
BRANCH   5   6
ATOM      6  C   UNL     1      23.910  30.617 -11.537  1.00  0.00     0.006 C 
BRANCH   6   7
ATOM      7  C   UNL     1      23.163  30.785 -12.866  1.00  0.00     0.053 C 
BRANCH   7   8
ATOM      8  C   UNL     1      23.647  31.981 -13.626  1.00  0.00     0.041 C 
ATOM      9  O   UNL     1      24.483  32.768 -13.109  1.00  0.00    -0.550 OA
ATOM     10  O   UNL     1      23.150  32.245 -14.896  1.00  0.00    -0.550 OA
ENDBRANCH   7   8
ENDBRANCH   6   7
ENDBRANCH   5   6
ENDBRANCH   4   5
ENDBRANCH   3   4
ENDBRANCH   2   3
ENDBRANCH   1   2
BRANCH   1  11
ATOM     11  C   UNL     1      29.185  29.958 -11.733  1.00  0.00     0.000 C 
BRANCH  11  12
ATOM     12  C   UNL     1      28.809  30.469 -13.132  1.00  0.00     0.000 C 
BRANCH  12  13
ATOM     13  C   UNL     1      27.289  30.495 -13.367  1.00  0.00     0.000 C 
BRANCH  13  14
ATOM     14  C   UNL     1      26.912  30.179 -14.824  1.00  0.00     0.000 C 
BRANCH  14  15
ATOM     15  C   UNL     1      25.744  29.186 -14.929  1.00  0.00     0.000 C 
BRANCH  15  16
ATOM     16  C   UNL     1      26.215  27.733 -15.123  1.00  0.00     0.006 C 
BRANCH  16  17
ATOM     17  C   UNL     1      26.621  27.075 -13.797  1.00  0.00     0.053 C 
BRANCH  17  18
ATOM     18  C   UNL     1      26.683  25.582 -13.916  1.00  0.00     0.041 C 
ATOM     19  O   UNL     1      26.047  24.992 -14.828  1.00  0.00    -0.550 OA
ATOM     20  O   UNL     1      27.471  24.848 -13.039  1.00  0.00    -0.550 OA
ENDBRANCH  17  18
ENDBRANCH  16  17
ENDBRANCH  15  16
ENDBRANCH  14  15
ENDBRANCH  13  14
ENDBRANCH  12  13
ENDBRANCH  11  12
ENDBRANCH   1  11
TORSDOF 15
ENDMDL
MODEL 7
REMARK VINA RESULT:    -3.971      2.121      5.803
REMARK INTER + INTRA:          -9.365
REMARK INTER:                  -7.048
REMARK INTRA:                  -2.317
REMARK UNBOUND:                -1.913
REMARK SMILES O=C([O-])CCCCCCCCCCCCCCC(=O)[O-]
REMARK SMILES IDX 10 1 9 2 8 3 7 4 6 5 5 6 4 7 2 8 1 9 3 10 11 11 12 12 13 13
REMARK SMILES IDX 14 14 15 15 16 16 17 17 18 18 19 19 20 20
REMARK H PARENT
REMARK Flexibility Score: inf
ROOT
ATOM      1  C   UNL     1      26.355  31.057 -14.268  1.00  0.00     0.000 C 
ENDROOT
BRANCH   1   2
ATOM      2  C   UNL     1      26.244  29.762 -15.089  1.00  0.00     0.000 C 
BRANCH   2   3
ATOM      3  C   UNL     1      24.801  29.247 -15.191  1.00  0.00     0.000 C 
BRANCH   3   4
ATOM      4  C   UNL     1      24.714  27.773 -14.775  1.00  0.00     0.000 C 
BRANCH   4   5
ATOM      5  C   UNL     1      26.110  27.163 -14.611  1.00  0.00     0.000 C 
BRANCH   5   6
ATOM      6  C   UNL     1      26.143  26.167 -13.442  1.00  0.00     0.006 C 
BRANCH   6   7
ATOM      7  C   UNL     1      27.296  25.163 -13.566  1.00  0.00     0.053 C 
BRANCH   7   8
ATOM      8  C   UNL     1      27.264  24.143 -12.471  1.00  0.00     0.041 C 
ATOM      9  O   UNL     1      27.860  23.043 -12.610  1.00  0.00    -0.550 OA
ATOM     10  O   UNL     1      26.548  24.394 -11.307  1.00  0.00    -0.550 OA
ENDBRANCH   7   8
ENDBRANCH   6   7
ENDBRANCH   5   6
ENDBRANCH   4   5
ENDBRANCH   3   4
ENDBRANCH   2   3
ENDBRANCH   1   2
BRANCH   1  11
ATOM     11  C   UNL     1      25.164  32.003 -14.490  1.00  0.00     0.000 C 
BRANCH  11  12
ATOM     12  C   UNL     1      24.338  32.153 -13.203  1.00  0.00     0.000 C 
BRANCH  12  13
ATOM     13  C   UNL     1      25.122  31.750 -11.943  1.00  0.00     0.000 C 
BRANCH  13  14
ATOM     14  C   UNL     1      24.427  30.631 -11.148  1.00  0.00     0.000 C 
BRANCH  14  15
ATOM     15  C   UNL     1      25.029  29.246 -11.431  1.00  0.00     0.000 C 
BRANCH  15  16
ATOM     16  C   UNL     1      26.333  28.994 -10.652  1.00  0.00     0.006 C 
BRANCH  16  17
ATOM     17  C   UNL     1      27.547  28.867 -11.582  1.00  0.00     0.053 C 
BRANCH  17  18
ATOM     18  C   UNL     1      28.497  30.014 -11.412  1.00  0.00     0.041 C 
ATOM     19  O   UNL     1      29.433  30.189 -12.235  1.00  0.00    -0.550 OA
ATOM     20  O   UNL     1      28.327  30.907 -10.363  1.00  0.00    -0.550 OA
ENDBRANCH  17  18
ENDBRANCH  16  17
ENDBRANCH  15  16
ENDBRANCH  14  15
ENDBRANCH  13  14
ENDBRANCH  12  13
ENDBRANCH  11  12
ENDBRANCH   1  11
TORSDOF 15
ENDMDL
MODEL 8
REMARK VINA RESULT:    -3.966      2.312      2.723
REMARK INTER + INTRA:          -9.356
REMARK INTER:                  -6.905
REMARK INTRA:                  -2.451
REMARK UNBOUND:                -1.913
REMARK SMILES O=C([O-])CCCCCCCCCCCCCCC(=O)[O-]
REMARK SMILES IDX 10 1 9 2 8 3 7 4 6 5 5 6 4 7 2 8 1 9 3 10 11 11 12 12 13 13
REMARK SMILES IDX 14 14 15 15 16 16 17 17 18 18 19 19 20 20
REMARK H PARENT
REMARK Flexibility Score: inf
ROOT
ATOM      1  C   UNL     1      28.080  30.450 -10.209  1.00  0.00     0.000 C 
ENDROOT
BRANCH   1   2
ATOM      2  C   UNL     1      28.975  30.424 -11.458  1.00  0.00     0.000 C 
BRANCH   2   3
ATOM      3  C   UNL     1      28.355  29.623 -12.613  1.00  0.00     0.000 C 
BRANCH   3   4
ATOM      4  C   UNL     1      27.479  30.520 -13.495  1.00  0.00     0.000 C 
BRANCH   4   5
ATOM      5  C   UNL     1      26.060  29.954 -13.621  1.00  0.00     0.000 C 
BRANCH   5   6
ATOM      6  C   UNL     1      25.126  30.568 -12.567  1.00  0.00     0.006 C 
BRANCH   6   7
ATOM      7  C   UNL     1      24.996  32.088 -12.723  1.00  0.00     0.053 C 
BRANCH   7   8
ATOM      8  C   UNL     1      24.322  32.458 -14.008  1.00  0.00     0.041 C 
ATOM      9  O   UNL     1      23.121  32.139 -14.210  1.00  0.00    -0.550 OA
ATOM     10  O   UNL     1      25.031  33.129 -14.996  1.00  0.00    -0.550 OA
ENDBRANCH   7   8
ENDBRANCH   6   7
ENDBRANCH   5   6
ENDBRANCH   4   5
ENDBRANCH   3   4
ENDBRANCH   2   3
ENDBRANCH   1   2
BRANCH   1  11
ATOM     11  C   UNL     1      27.671  29.044  -9.742  1.00  0.00     0.000 C 
BRANCH  11  12
ATOM     12  C   UNL     1      26.181  29.003  -9.372  1.00  0.00     0.000 C 
BRANCH  12  13
ATOM     13  C   UNL     1      25.411  27.905 -10.125  1.00  0.00     0.000 C 
BRANCH  13  14
ATOM     14  C   UNL     1      26.338  26.994 -10.948  1.00  0.00     0.000 C 
BRANCH  14  15
ATOM     15  C   UNL     1      25.784  26.704 -12.352  1.00  0.00     0.000 C 
BRANCH  15  16
ATOM     16  C   UNL     1      26.856  26.160 -13.313  1.00  0.00     0.006 C 
BRANCH  16  17
ATOM     17  C   UNL     1      26.242  25.383 -14.485  1.00  0.00     0.053 C 
BRANCH  17  18
ATOM     18  C   UNL     1      25.144  26.159 -15.149  1.00  0.00     0.041 C 
ATOM     19  O   UNL     1      23.950  25.769 -15.062  1.00  0.00    -0.550 OA
ATOM     20  O   UNL     1      25.437  27.330 -15.834  1.00  0.00    -0.550 OA
ENDBRANCH  17  18
ENDBRANCH  16  17
ENDBRANCH  15  16
ENDBRANCH  14  15
ENDBRANCH  13  14
ENDBRANCH  12  13
ENDBRANCH  11  12
ENDBRANCH   1  11
TORSDOF 15
ENDMDL
MODEL 9
REMARK VINA RESULT:    -3.947      1.712      3.597
REMARK INTER + INTRA:          -9.320
REMARK INTER:                  -7.665
REMARK INTRA:                  -1.655
REMARK UNBOUND:                -1.913
REMARK SMILES O=C([O-])CCCCCCCCCCCCCCC(=O)[O-]
REMARK SMILES IDX 10 1 9 2 8 3 7 4 6 5 5 6 4 7 2 8 1 9 3 10 11 11 12 12 13 13
REMARK SMILES IDX 14 14 15 15 16 16 17 17 18 18 19 19 20 20
REMARK H PARENT
REMARK Flexibility Score: inf
ROOT
ATOM      1  C   UNL     1      26.600  29.622 -15.023  1.00  0.00     0.000 C 
ENDROOT
BRANCH   1   2
ATOM      2  C   UNL     1      26.990  30.666 -13.965  1.00  0.00     0.000 C 
BRANCH   2   3
ATOM      3  C   UNL     1      28.438  30.506 -13.480  1.00  0.00     0.000 C 
BRANCH   3   4
ATOM      4  C   UNL     1      28.525  29.486 -12.337  1.00  0.00     0.000 C 
BRANCH   4   5
ATOM      5  C   UNL     1      28.464  30.181 -10.973  1.00  0.00     0.000 C 
BRANCH   5   6
ATOM      6  C   UNL     1      27.679  29.335  -9.958  1.00  0.00     0.006 C 
BRANCH   6   7
ATOM      7  C   UNL     1      26.521  28.572 -10.611  1.00  0.00     0.053 C 
BRANCH   7   8
ATOM      8  C   UNL     1      25.216  29.285 -10.433  1.00  0.00     0.041 C 
ATOM      9  O   UNL     1      24.876  30.197 -11.232  1.00  0.00    -0.550 OA
ATOM     10  O   UNL     1      24.388  28.964  -9.365  1.00  0.00    -0.550 OA
ENDBRANCH   7   8
ENDBRANCH   6   7
ENDBRANCH   5   6
ENDBRANCH   4   5
ENDBRANCH   3   4
ENDBRANCH   2   3
ENDBRANCH   1   2
BRANCH   1  11
ATOM     11  C   UNL     1      25.660  28.539 -14.468  1.00  0.00     0.000 C 
BRANCH  11  12
ATOM     12  C   UNL     1      25.643  27.308 -15.386  1.00  0.00     0.000 C 
BRANCH  12  13
ATOM     13  C   UNL     1      26.006  26.010 -14.646  1.00  0.00     0.000 C 
BRANCH  13  14
ATOM     14  C   UNL     1      26.988  26.247 -13.486  1.00  0.00     0.000 C 
BRANCH  14  15
ATOM     15  C   UNL     1      27.005  25.084 -12.481  1.00  0.00     0.000 C 
BRANCH  15  16
ATOM     16  C   UNL     1      27.707  23.831 -13.034  1.00  0.00     0.006 C 
BRANCH  16  17
ATOM     17  C   UNL     1      27.049  22.535 -12.542  1.00  0.00     0.053 C 
BRANCH  17  18
ATOM     18  C   UNL     1      27.675  22.043 -11.272  1.00  0.00     0.041 C 
ATOM     19  O   UNL     1      28.687  21.295 -11.313  1.00  0.00    -0.550 OA
ATOM     20  O   UNL     1      27.161  22.440 -10.045  1.00  0.00    -0.550 OA
ENDBRANCH  17  18
ENDBRANCH  16  17
ENDBRANCH  15  16
ENDBRANCH  14  15
ENDBRANCH  13  14
ENDBRANCH  12  13
ENDBRANCH  11  12
ENDBRANCH   1  11
TORSDOF 15
ENDMDL
