MODEL 1
REMARK VINA RESULT:    -5.008      0.000      0.000
REMARK INTER + INTRA:          -7.266
REMARK INTER:                  -7.642
REMARK INTRA:                   0.376
REMARK UNBOUND:                 0.376
REMARK SMILES CC1=CCC[C@H](C)C(=O)C[C@@H](C(C)C)C(=O)C1
REMARK SMILES IDX 8 1 9 2 6 3 7 4 5 5 4 6 3 7 2 8 1 9 10 11 11 12 15 13 16 14
REMARK SMILES IDX 17 15 12 17 13 18 14 19
REMARK H PARENT
REMARK Flexibility Score: 70.00
ROOT
ATOM      1  C   UNL     1      -4.063 -10.860  29.684  1.00  0.00     0.136 C 
ATOM      2  O   UNL     1      -5.128 -10.343  29.382  1.00  0.00    -0.299 OA
ENDROOT
BRANCH   1   3
ATOM      3  C   UNL     1      -3.800 -11.138  31.152  1.00  0.00     0.053 C 
ATOM      4  C   UNL     1      -4.543 -10.124  32.030  1.00  0.00     0.016 C 
BRANCH   3   5
ATOM      5  C   UNL     1      -4.194 -12.578  31.529  1.00  0.00     0.015 C 
BRANCH   5   6
ATOM      6  C   UNL     1      -3.082 -13.612  31.259  1.00  0.00     0.028 C 
BRANCH   6   7
ATOM      7  C   UNL     1      -1.713 -13.181  31.737  1.00  0.00    -0.028 C 
ATOM      8  C   UNL     1      -0.640 -12.794  30.998  1.00  0.00    -0.070 CG0
ATOM      9  C   UNL     1       0.630 -12.496  31.762  1.00  0.00     0.039 C 
ATOM     10  G   UNL     1      -0.626 -12.537  29.492  1.00  0.00     0.000 G0
ENDBRANCH   6   7
ENDBRANCH   5   6
ENDBRANCH   3   5
ENDBRANCH   1   3
BRANCH   1  11
ATOM     11  C   UNL     1      -3.130 -11.233  28.543  1.00  0.00     0.087 C 
BRANCH  11  12
ATOM     12  C   UNL     1      -2.951 -12.725  28.133  1.00  0.00     0.066 C 
BRANCH  12  13
ATOM     13  C   UNL     1      -1.642 -13.302  28.683  1.00  0.00     0.140 C 
ATOM     14  O   UNL     1      -1.354 -14.451  28.378  1.00  0.00    -0.299 OA
BRANCH  13  15
ATOM     15  C   UNL     1      -0.631 -12.517  29.492  1.00  0.00     0.106 CG0
ATOM     16  G   UNL     1      -0.633 -12.793  30.994  1.00  0.00     0.000 G0
ENDBRANCH  13  15
ENDBRANCH  12  13
BRANCH  12  17
ATOM     17  C   UNL     1      -3.309 -13.080  26.643  1.00  0.00    -0.006 C 
ATOM     18  C   UNL     1      -3.650 -11.832  25.809  1.00  0.00     0.008 C 
ATOM     19  C   UNL     1      -4.505 -14.047  26.582  1.00  0.00     0.008 C 
ENDBRANCH  12  17
ENDBRANCH  11  12
ENDBRANCH   1  11
TORSDOF 1
ENDMDL
MODEL 2
REMARK VINA RESULT:    -4.961      1.575      3.714
REMARK INTER + INTRA:          -7.195
REMARK INTER:                  -6.856
REMARK INTRA:                  -0.339
REMARK UNBOUND:                 0.376
REMARK SMILES CC1=CCC[C@H](C)C(=O)C[C@@H](C(C)C)C(=O)C1
REMARK SMILES IDX 8 1 9 2 6 3 7 4 5 5 4 6 3 7 2 8 1 9 10 11 11 12 15 13 16 14
REMARK SMILES IDX 17 15 12 17 13 18 14 19
REMARK H PARENT
REMARK Flexibility Score: 70.00
ROOT
ATOM      1  C   UNL     1      -3.855 -12.031  28.619  1.00  0.00     0.136 C 
ATOM      2  O   UNL     1      -3.606 -10.925  28.163  1.00  0.00    -0.299 OA
ENDROOT
BRANCH   1   3
ATOM      3  C   UNL     1      -3.219 -13.235  27.948  1.00  0.00     0.053 C 
ATOM      4  C   UNL     1      -3.803 -13.435  26.544  1.00  0.00     0.016 C 
BRANCH   3   5
ATOM      5  C   UNL     1      -1.687 -13.099  27.888  1.00  0.00     0.015 C 
BRANCH   5   6
ATOM      6  C   UNL     1      -0.942 -14.141  28.747  1.00  0.00     0.028 C 
BRANCH   6   7
ATOM      7  C   UNL     1      -0.011 -13.537  29.775  1.00  0.00    -0.028 C 
ATOM      8  C   UNL     1      -0.300 -13.106  31.031  1.00  0.00    -0.070 CG0
ATOM      9  C   UNL     1       0.834 -12.468  31.800  1.00  0.00     0.039 C 
ATOM     10  G   UNL     1      -1.625 -13.295  31.768  1.00  0.00     0.000 G0
ENDBRANCH   6   7
ENDBRANCH   5   6
ENDBRANCH   3   5
ENDBRANCH   1   3
BRANCH   1  11
ATOM     11  C   UNL     1      -4.731 -12.084  29.860  1.00  0.00     0.087 C 
BRANCH  11  12
ATOM     12  C   UNL     1      -4.184 -12.705  31.180  1.00  0.00     0.066 C 
BRANCH  12  13
ATOM     13  C   UNL     1      -2.721 -12.314  31.416  1.00  0.00     0.140 C 
ATOM     14  O   UNL     1      -2.439 -11.124  31.391  1.00  0.00    -0.299 OA
BRANCH  13  15
ATOM     15  C   UNL     1      -1.621 -13.288  31.779  1.00  0.00     0.106 CG0
ATOM     16  G   UNL     1      -0.301 -13.097  31.035  1.00  0.00     0.000 G0
ENDBRANCH  13  15
ENDBRANCH  12  13
BRANCH  12  17
ATOM     17  C   UNL     1      -4.567 -14.206  31.447  1.00  0.00    -0.006 C 
ATOM     18  C   UNL     1      -5.639 -14.722  30.469  1.00  0.00     0.008 C 
ATOM     19  C   UNL     1      -5.092 -14.391  32.883  1.00  0.00     0.008 C 
ENDBRANCH  12  17
ENDBRANCH  11  12
ENDBRANCH   1  11
TORSDOF 1
ENDMDL
MODEL 3
REMARK VINA RESULT:    -4.922      1.686      2.397
REMARK INTER + INTRA:          -7.136
REMARK INTER:                  -7.056
REMARK INTRA:                  -0.080
REMARK UNBOUND:                 0.376
REMARK SMILES CC1=CCC[C@H](C)C(=O)C[C@@H](C(C)C)C(=O)C1
REMARK SMILES IDX 8 1 9 2 6 3 7 4 5 5 4 6 3 7 2 8 1 9 10 11 11 12 15 13 16 14
REMARK SMILES IDX 17 15 12 17 13 18 14 19
REMARK H PARENT
REMARK Flexibility Score: 70.00
ROOT
ATOM      1  C   UNL     1      -4.892 -13.799  30.772  1.00  0.00     0.136 C 
ATOM      2  O   UNL     1      -5.582 -14.782  31.001  1.00  0.00    -0.299 OA
ENDROOT
BRANCH   1   3
ATOM      3  C   UNL     1      -4.055 -13.238  31.906  1.00  0.00     0.053 C 
ATOM      4  C   UNL     1      -4.858 -13.238  33.213  1.00  0.00     0.016 C 
BRANCH   3   5
ATOM      5  C   UNL     1      -2.741 -14.021  32.073  1.00  0.00     0.015 C 
BRANCH   5   6
ATOM      6  C   UNL     1      -1.480 -13.168  31.825  1.00  0.00     0.028 C 
BRANCH   6   7
ATOM      7  C   UNL     1      -0.605 -13.677  30.701  1.00  0.00    -0.028 C 
ATOM      8  C   UNL     1      -0.530 -13.234  29.418  1.00  0.00    -0.070 CG0
ATOM      9  C   UNL     1       0.387 -14.002  28.494  1.00  0.00     0.039 C 
ATOM     10  G   UNL     1      -1.202 -11.983  28.853  1.00  0.00     0.000 G0
ENDBRANCH   6   7
ENDBRANCH   5   6
ENDBRANCH   3   5
ENDBRANCH   1   3
BRANCH   1  11
ATOM     11  C   UNL     1      -4.894 -13.274  29.345  1.00  0.00     0.087 C 
BRANCH  11  12
ATOM     12  C   UNL     1      -3.574 -13.245  28.518  1.00  0.00     0.066 C 
BRANCH  12  13
ATOM     13  C   UNL     1      -2.727 -12.015  28.863  1.00  0.00     0.140 C 
ATOM     14  O   UNL     1      -3.312 -11.010  29.244  1.00  0.00    -0.299 OA
BRANCH  13  15
ATOM     15  C   UNL     1      -1.214 -11.989  28.866  1.00  0.00     0.106 CG0
ATOM     16  G   UNL     1      -0.535 -13.240  29.419  1.00  0.00     0.000 G0
ENDBRANCH  13  15
ENDBRANCH  12  13
BRANCH  12  17
ATOM     17  C   UNL     1      -3.706 -13.608  26.994  1.00  0.00    -0.006 C 
ATOM     18  C   UNL     1      -3.711 -12.361  26.091  1.00  0.00     0.008 C 
ATOM     19  C   UNL     1      -4.997 -14.404  26.730  1.00  0.00     0.008 C 
ENDBRANCH  12  17
ENDBRANCH  11  12
ENDBRANCH   1  11
TORSDOF 1
ENDMDL
MODEL 4
REMARK VINA RESULT:    -4.777      1.735      3.614
REMARK INTER + INTRA:          -6.914
REMARK INTER:                  -7.462
REMARK INTRA:                   0.547
REMARK UNBOUND:                 0.376
REMARK SMILES CC1=CCC[C@H](C)C(=O)C[C@@H](C(C)C)C(=O)C1
REMARK SMILES IDX 8 1 9 2 6 3 7 4 5 5 4 6 3 7 2 8 1 9 10 11 11 12 15 13 16 14
REMARK SMILES IDX 17 15 12 17 13 18 14 19
REMARK H PARENT
REMARK Flexibility Score: 70.00
ROOT
ATOM      1  C   UNL     1      -0.782 -13.105  29.697  1.00  0.00     0.136 C 
ATOM      2  O   UNL     1       0.311 -13.013  29.157  1.00  0.00    -0.299 OA
ENDROOT
BRANCH   1   3
ATOM      3  C   UNL     1      -0.936 -12.527  31.091  1.00  0.00     0.053 C 
ATOM      4  C   UNL     1       0.415 -12.514  31.817  1.00  0.00     0.016 C 
BRANCH   3   5
ATOM      5  C   UNL     1      -1.545 -11.114  31.048  1.00  0.00     0.015 C 
BRANCH   5   6
ATOM      6  C   UNL     1      -3.085 -11.104  31.142  1.00  0.00     0.028 C 
BRANCH   6   7
ATOM      7  C   UNL     1      -3.657 -12.236  31.967  1.00  0.00    -0.028 C 
ATOM      8  C   UNL     1      -4.372 -13.313  31.547  1.00  0.00    -0.070 CG0
ATOM      9  C   UNL     1      -4.883 -14.242  32.625  1.00  0.00     0.039 C 
ATOM     10  G   UNL     1      -4.620 -13.724  30.097  1.00  0.00     0.000 G0
ENDBRANCH   6   7
ENDBRANCH   5   6
ENDBRANCH   3   5
ENDBRANCH   1   3
BRANCH   1  11
ATOM     11  C   UNL     1      -1.900 -13.738  28.885  1.00  0.00     0.087 C 
BRANCH  11  12
ATOM     12  C   UNL     1      -2.964 -12.841  28.184  1.00  0.00     0.066 C 
BRANCH  12  13
ATOM     13  C   UNL     1      -4.248 -12.745  29.016  1.00  0.00     0.140 C 
ATOM     14  O   UNL     1      -5.042 -11.859  28.734  1.00  0.00    -0.299 OA
BRANCH  13  15
ATOM     15  C   UNL     1      -4.649 -13.732  30.091  1.00  0.00     0.106 CG0
ATOM     16  G   UNL     1      -4.369 -13.292  31.526  1.00  0.00     0.000 G0
ENDBRANCH  13  15
ENDBRANCH  12  13
BRANCH  12  17
ATOM     17  C   UNL     1      -3.138 -13.058  26.636  1.00  0.00    -0.006 C 
ATOM     18  C   UNL     1      -3.472 -11.752  25.894  1.00  0.00     0.008 C 
ATOM     19  C   UNL     1      -4.255 -14.079  26.348  1.00  0.00     0.008 C 
ENDBRANCH  12  17
ENDBRANCH  11  12
ENDBRANCH   1  11
TORSDOF 1
ENDMDL
MODEL 5
REMARK VINA RESULT:    -4.663      2.059      4.608
REMARK INTER + INTRA:          -6.741
REMARK INTER:                  -6.382
REMARK INTRA:                  -0.358
REMARK UNBOUND:                 0.376
REMARK SMILES CC1=CCC[C@H](C)C(=O)C[C@@H](C(C)C)C(=O)C1
REMARK SMILES IDX 8 1 9 2 6 3 7 4 5 5 4 6 3 7 2 8 1 9 10 11 11 12 15 13 16 14
REMARK SMILES IDX 17 15 12 17 13 18 14 19
REMARK H PARENT
REMARK Flexibility Score: 70.00
ROOT
ATOM      1  C   UNL     1      -1.839 -13.389  31.713  1.00  0.00     0.136 C 
ATOM      2  O   UNL     1      -1.534 -14.392  32.341  1.00  0.00    -0.299 OA
ENDROOT
BRANCH   1   3
ATOM      3  C   UNL     1      -0.745 -12.671  30.944  1.00  0.00     0.053 C 
ATOM      4  C   UNL     1       0.350 -12.185  31.901  1.00  0.00     0.016 C 
BRANCH   3   5
ATOM      5  C   UNL     1      -0.149 -13.572  29.846  1.00  0.00     0.015 C 
BRANCH   5   6
ATOM      6  C   UNL     1      -1.173 -13.990  28.770  1.00  0.00     0.028 C 
BRANCH   6   7
ATOM      7  C   UNL     1      -1.605 -12.861  27.862  1.00  0.00    -0.028 C 
ATOM      8  C   UNL     1      -2.864 -12.512  27.485  1.00  0.00    -0.070 CG0
ATOM      9  C   UNL     1      -2.977 -11.377  26.493  1.00  0.00     0.039 C 
ATOM     10  G   UNL     1      -4.166 -13.087  28.040  1.00  0.00     0.000 G0
ENDBRANCH   6   7
ENDBRANCH   5   6
ENDBRANCH   3   5
ENDBRANCH   1   3
BRANCH   1  11
ATOM     11  C   UNL     1      -3.308 -12.995  31.714  1.00  0.00     0.087 C 
BRANCH  11  12
ATOM     12  C   UNL     1      -4.289 -13.626  30.681  1.00  0.00     0.066 C 
BRANCH  12  13
ATOM     13  C   UNL     1      -4.489 -12.708  29.471  1.00  0.00     0.140 C 
ATOM     14  O   UNL     1      -4.855 -11.560  29.682  1.00  0.00    -0.299 OA
BRANCH  13  15
ATOM     15  C   UNL     1      -4.166 -13.090  28.042  1.00  0.00     0.106 CG0
ATOM     16  G   UNL     1      -2.875 -12.499  27.478  1.00  0.00     0.000 G0
ENDBRANCH  13  15
ENDBRANCH  12  13
BRANCH  12  17
ATOM     17  C   UNL     1      -5.577 -14.302  31.277  1.00  0.00    -0.006 C 
ATOM     18  C   UNL     1      -5.264 -15.196  32.491  1.00  0.00     0.008 C 
ATOM     19  C   UNL     1      -6.288 -15.159  30.213  1.00  0.00     0.008 C 
ENDBRANCH  12  17
ENDBRANCH  11  12
ENDBRANCH   1  11
TORSDOF 1
ENDMDL
MODEL 6
REMARK VINA RESULT:    -4.572      2.186      4.599
REMARK INTER + INTRA:          -6.602
REMARK INTER:                  -6.708
REMARK INTRA:                   0.106
REMARK UNBOUND:                 0.376
REMARK SMILES CC1=CCC[C@H](C)C(=O)C[C@@H](C(C)C)C(=O)C1
REMARK SMILES IDX 8 1 9 2 6 3 7 4 5 5 4 6 3 7 2 8 1 9 10 11 11 12 15 13 16 14
REMARK SMILES IDX 17 15 12 17 13 18 14 19
REMARK H PARENT
REMARK Flexibility Score: 70.00
ROOT
ATOM      1  C   UNL     1      -2.787 -11.228  31.238  1.00  0.00     0.136 C 
ATOM      2  O   UNL     1      -2.842 -10.021  31.053  1.00  0.00    -0.299 OA
ENDROOT
BRANCH   1   3
ATOM      3  C   UNL     1      -1.440 -11.909  31.086  1.00  0.00     0.053 C 
ATOM      4  C   UNL     1      -1.401 -13.204  31.908  1.00  0.00     0.016 C 
BRANCH   3   5
ATOM      5  C   UNL     1      -1.119 -12.192  29.607  1.00  0.00     0.015 C 
BRANCH   5   6
ATOM      6  C   UNL     1      -1.393 -13.650  29.186  1.00  0.00     0.028 C 
BRANCH   6   7
ATOM      7  C   UNL     1      -2.212 -13.780  27.921  1.00  0.00    -0.028 C 
ATOM      8  C   UNL     1      -3.524 -13.482  27.727  1.00  0.00    -0.070 CG0
ATOM      9  C   UNL     1      -4.089 -13.798  26.360  1.00  0.00     0.039 C 
ATOM     10  G   UNL     1      -4.446 -12.773  28.717  1.00  0.00     0.000 G0
ENDBRANCH   6   7
ENDBRANCH   5   6
ENDBRANCH   3   5
ENDBRANCH   1   3
BRANCH   1  11
ATOM     11  C   UNL     1      -4.072 -11.918  31.667  1.00  0.00     0.087 C 
BRANCH  11  12
ATOM     12  C   UNL     1      -4.305 -13.421  31.331  1.00  0.00     0.066 C 
BRANCH  12  13
ATOM     13  C   UNL     1      -4.885 -13.595  29.923  1.00  0.00     0.140 C 
ATOM     14  O   UNL     1      -5.803 -14.390  29.781  1.00  0.00    -0.299 OA
BRANCH  13  15
ATOM     15  C   UNL     1      -4.472 -12.776  28.719  1.00  0.00     0.106 CG0
ATOM     16  G   UNL     1      -3.541 -13.479  27.733  1.00  0.00     0.000 G0
ENDBRANCH  13  15
ENDBRANCH  12  13
BRANCH  12  17
ATOM     17  C   UNL     1      -4.945 -14.293  32.473  1.00  0.00    -0.006 C 
ATOM     18  C   UNL     1      -5.252 -13.470  33.738  1.00  0.00     0.008 C 
ATOM     19  C   UNL     1      -4.014 -15.455  32.863  1.00  0.00     0.008 C 
ENDBRANCH  12  17
ENDBRANCH  11  12
ENDBRANCH   1  11
TORSDOF 1
ENDMDL
MODEL 7
REMARK VINA RESULT:    -4.568      2.046      4.195
REMARK INTER + INTRA:          -6.596
REMARK INTER:                  -6.456
REMARK INTRA:                  -0.140
REMARK UNBOUND:                 0.376
REMARK SMILES CC1=CCC[C@H](C)C(=O)C[C@@H](C(C)C)C(=O)C1
REMARK SMILES IDX 8 1 9 2 6 3 7 4 5 5 4 6 3 7 2 8 1 9 10 11 11 12 15 13 16 14
REMARK SMILES IDX 17 15 12 17 13 18 14 19
REMARK H PARENT
REMARK Flexibility Score: 70.00
ROOT
ATOM      1  C   UNL     1      -5.054 -14.170  30.676  1.00  0.00     0.136 C 
ATOM      2  O   UNL     1      -5.980 -14.728  31.246  1.00  0.00    -0.299 OA
ENDROOT
BRANCH   1   3
ATOM      3  C   UNL     1      -5.078 -14.123  29.160  1.00  0.00     0.053 C 
ATOM      4  C   UNL     1      -6.391 -14.710  28.628  1.00  0.00     0.016 C 
BRANCH   3   5
ATOM      5  C   UNL     1      -4.872 -12.689  28.640  1.00  0.00     0.015 C 
BRANCH   5   6
ATOM      6  C   UNL     1      -3.763 -12.573  27.574  1.00  0.00     0.028 C 
BRANCH   6   7
ATOM      7  C   UNL     1      -2.548 -13.429  27.856  1.00  0.00    -0.028 C 
ATOM      8  C   UNL     1      -1.477 -13.145  28.643  1.00  0.00    -0.070 CG0
ATOM      9  C   UNL     1      -0.369 -14.174  28.665  1.00  0.00     0.039 C 
ATOM     10  G   UNL     1      -1.333 -11.945  29.576  1.00  0.00     0.000 G0
ENDBRANCH   6   7
ENDBRANCH   5   6
ENDBRANCH   3   5
ENDBRANCH   1   3
BRANCH   1  11
ATOM     11  C   UNL     1      -3.997 -13.518  31.554  1.00  0.00     0.087 C 
BRANCH  11  12
ATOM     12  C   UNL     1      -3.469 -12.092  31.217  1.00  0.00     0.066 C 
BRANCH  12  13
ATOM     13  C   UNL     1      -1.960 -12.104  30.949  1.00  0.00     0.140 C 
ATOM     14  O   UNL     1      -1.217 -12.348  31.889  1.00  0.00    -0.299 OA
BRANCH  13  15
ATOM     15  C   UNL     1      -1.331 -11.938  29.582  1.00  0.00     0.106 CG0
ATOM     16  G   UNL     1      -1.485 -13.129  28.637  1.00  0.00     0.000 G0
ENDBRANCH  13  15
ENDBRANCH  12  13
BRANCH  12  17
ATOM     17  C   UNL     1      -4.018 -10.923  32.115  1.00  0.00    -0.006 C 
ATOM     18  C   UNL     1      -4.964 -11.426  33.220  1.00  0.00     0.008 C 
ATOM     19  C   UNL     1      -4.775  -9.887  31.263  1.00  0.00     0.008 C 
ENDBRANCH  12  17
ENDBRANCH  11  12
ENDBRANCH   1  11
TORSDOF 1
ENDMDL
MODEL 8
REMARK VINA RESULT:    -4.278      1.676      3.741
REMARK INTER + INTRA:          -6.153
REMARK INTER:                  -5.878
REMARK INTRA:                  -0.275
REMARK UNBOUND:                 0.376
REMARK SMILES CC1=CCC[C@H](C)C(=O)C[C@@H](C(C)C)C(=O)C1
REMARK SMILES IDX 8 1 9 2 6 3 7 4 5 5 4 6 3 7 2 8 1 9 10 11 11 12 15 13 16 14
REMARK SMILES IDX 17 15 12 17 13 18 14 19
REMARK H PARENT
REMARK Flexibility Score: 70.00
ROOT
ATOM      1  C   UNL     1      -0.718 -13.629  29.675  1.00  0.00     0.136 C 
ATOM      2  O   UNL     1      -0.297 -14.691  29.239  1.00  0.00    -0.299 OA
ENDROOT
BRANCH   1   3
ATOM      3  C   UNL     1      -0.948 -13.517  31.171  1.00  0.00     0.053 C 
ATOM      4  C   UNL     1      -0.088 -12.392  31.760  1.00  0.00     0.016 C 
BRANCH   3   5
ATOM      5  C   UNL     1      -2.436 -13.291  31.493  1.00  0.00     0.015 C 
BRANCH   5   6
ATOM      6  C   UNL     1      -2.744 -11.876  32.025  1.00  0.00     0.028 C 
BRANCH   6   7
ATOM      7  C   UNL     1      -3.947 -11.226  31.380  1.00  0.00    -0.028 C 
ATOM      8  C   UNL     1      -3.997 -10.460  30.258  1.00  0.00    -0.070 CG0
ATOM      9  C   UNL     1      -5.345  -9.876  29.902  1.00  0.00     0.039 C 
ATOM     10  G   UNL     1      -2.851 -10.218  29.278  1.00  0.00     0.000 G0
ENDBRANCH   6   7
ENDBRANCH   5   6
ENDBRANCH   3   5
ENDBRANCH   1   3
BRANCH   1  11
ATOM     11  C   UNL     1      -0.909 -12.501  28.674  1.00  0.00     0.087 C 
BRANCH  11  12
ATOM     12  C   UNL     1      -2.218 -12.412  27.834  1.00  0.00     0.066 C 
BRANCH  12  13
ATOM     13  C   UNL     1      -2.893 -11.046  27.997  1.00  0.00     0.140 C 
ATOM     14  O   UNL     1      -3.583 -10.638  27.073  1.00  0.00    -0.299 OA
BRANCH  13  15
ATOM     15  C   UNL     1      -2.851 -10.213  29.261  1.00  0.00     0.106 CG0
ATOM     16  G   UNL     1      -4.002 -10.443  30.239  1.00  0.00     0.000 G0
ENDBRANCH  13  15
ENDBRANCH  12  13
BRANCH  12  17
ATOM     17  C   UNL     1      -3.155 -13.674  27.879  1.00  0.00    -0.006 C 
ATOM     18  C   UNL     1      -3.618 -14.112  26.478  1.00  0.00     0.008 C 
ATOM     19  C   UNL     1      -4.402 -13.400  28.740  1.00  0.00     0.008 C 
ENDBRANCH  12  17
ENDBRANCH  11  12
ENDBRANCH   1  11
TORSDOF 1
ENDMDL
MODEL 9
REMARK VINA RESULT:    -4.271      2.084      4.269
REMARK INTER + INTRA:          -6.143
REMARK INTER:                  -5.901
REMARK INTRA:                  -0.242
REMARK UNBOUND:                 0.376
REMARK SMILES CC1=CCC[C@H](C)C(=O)C[C@@H](C(C)C)C(=O)C1
REMARK SMILES IDX 8 1 9 2 6 3 7 4 5 5 4 6 3 7 2 8 1 9 10 11 11 12 15 13 16 14
REMARK SMILES IDX 17 15 12 17 13 18 14 19
REMARK H PARENT
REMARK Flexibility Score: 70.00
ROOT
ATOM      1  C   UNL     1      -3.747 -13.687  31.750  1.00  0.00     0.136 C 
ATOM      2  O   UNL     1      -4.037 -12.765  32.499  1.00  0.00    -0.299 OA
ENDROOT
BRANCH   1   3
ATOM      3  C   UNL     1      -4.859 -14.617  31.305  1.00  0.00     0.053 C 
ATOM      4  C   UNL     1      -5.666 -15.104  32.515  1.00  0.00     0.016 C 
BRANCH   3   5
ATOM      5  C   UNL     1      -5.779 -13.938  30.274  1.00  0.00     0.015 C 
BRANCH   5   6
ATOM      6  C   UNL     1      -5.474 -14.340  28.817  1.00  0.00     0.028 C 
BRANCH   6   7
ATOM      7  C   UNL     1      -4.891 -13.223  27.980  1.00  0.00    -0.028 C 
ATOM      8  C   UNL     1      -3.597 -13.021  27.619  1.00  0.00    -0.070 CG0
ATOM      9  C   UNL     1      -3.305 -11.759  26.840  1.00  0.00     0.039 C 
ATOM     10  G   UNL     1      -2.436 -13.990  27.838  1.00  0.00     0.000 G0
ENDBRANCH   6   7
ENDBRANCH   5   6
ENDBRANCH   3   5
ENDBRANCH   1   3
BRANCH   1  11
ATOM     11  C   UNL     1      -2.301 -13.769  31.287  1.00  0.00     0.087 C 
BRANCH  11  12
ATOM     12  C   UNL     1      -1.778 -12.810  30.176  1.00  0.00     0.066 C 
BRANCH  12  13
ATOM     13  C   UNL     1      -1.425 -13.578  28.898  1.00  0.00     0.140 C 
ATOM     14  O   UNL     1      -0.270 -13.956  28.762  1.00  0.00    -0.299 OA
BRANCH  13  15
ATOM     15  C   UNL     1      -2.427 -13.992  27.841  1.00  0.00     0.106 CG0
ATOM     16  G   UNL     1      -3.585 -13.022  27.617  1.00  0.00     0.000 G0
ENDBRANCH  13  15
ENDBRANCH  12  13
BRANCH  12  17
ATOM     17  C   UNL     1      -0.761 -11.705  30.641  1.00  0.00    -0.006 C 
ATOM     18  C   UNL     1      -0.013 -12.098  31.927  1.00  0.00     0.008 C 
ATOM     19  C   UNL     1      -1.482 -10.367  30.888  1.00  0.00     0.008 C 
ENDBRANCH  12  17
ENDBRANCH  11  12
ENDBRANCH   1  11
TORSDOF 1
ENDMDL
