MODEL 1
REMARK VINA RESULT:    -4.063      0.000      0.000
REMARK INTER + INTRA:          -5.073
REMARK INTER:                  -5.013
REMARK INTRA:                  -0.060
REMARK UNBOUND:                -0.060
REMARK SMILES CCCCCC(=O)[O-]
REMARK SMILES IDX 4 1 5 2 6 3 7 4 8 5 3 6 2 7 1 8
REMARK H PARENT
REMARK Flexibility Score: inf
ROOT
ATOM      1  C   UNL     1      -4.622 -15.073  11.618  1.00  0.00     0.006 C 
ENDROOT
BRANCH   1   2
ATOM      2  C   UNL     1      -6.147 -15.023  11.455  1.00  0.00     0.053 C 
BRANCH   2   3
ATOM      3  C   UNL     1      -6.546 -14.686  10.051  1.00  0.00     0.041 C 
ATOM      4  O   UNL     1      -7.550 -13.958   9.835  1.00  0.00    -0.550 OA
ATOM      5  O   UNL     1      -5.788 -15.150   8.982  1.00  0.00    -0.550 OA
ENDBRANCH   2   3
ENDBRANCH   1   2
BRANCH   1   6
ATOM      6  C   UNL     1      -4.202 -15.544  13.018  1.00  0.00     0.000 C 
BRANCH   6   7
ATOM      7  C   UNL     1      -4.133 -14.365  13.996  1.00  0.00    -0.003 C 
ATOM      8  C   UNL     1      -2.690 -14.042  14.370  1.00  0.00     0.004 C 
ENDBRANCH   6   7
ENDBRANCH   1   6
TORSDOF 4
ENDMDL
MODEL 2
REMARK VINA RESULT:    -4.018     16.682     17.680
REMARK INTER + INTRA:          -5.017
REMARK INTER:                  -4.954
REMARK INTRA:                  -0.063
REMARK UNBOUND:                -0.060
REMARK SMILES CCCCCC(=O)[O-]
REMARK SMILES IDX 4 1 5 2 6 3 7 4 8 5 3 6 2 7 1 8
REMARK H PARENT
REMARK Flexibility Score: inf
ROOT
ATOM      1  C   UNL     1     -18.758  -9.503  21.626  1.00  0.00     0.006 C 
ENDROOT
BRANCH   1   2
ATOM      2  C   UNL     1     -17.238  -9.650  21.782  1.00  0.00     0.053 C 
BRANCH   2   3
ATOM      3  C   UNL     1     -16.684  -8.681  22.780  1.00  0.00     0.041 C 
ATOM      4  O   UNL     1     -15.487  -8.302  22.698  1.00  0.00    -0.550 OA
ATOM      5  O   UNL     1     -17.502  -8.169  23.781  1.00  0.00    -0.550 OA
ENDBRANCH   2   3
ENDBRANCH   1   2
BRANCH   1   6
ATOM      6  C   UNL     1     -19.364 -10.615  20.757  1.00  0.00     0.000 C 
BRANCH   6   7
ATOM      7  C   UNL     1     -19.258 -10.267  19.268  1.00  0.00    -0.003 C 
ATOM      8  C   UNL     1     -20.623  -9.910  18.687  1.00  0.00     0.004 C 
ENDBRANCH   6   7
ENDBRANCH   1   6
TORSDOF 4
ENDMDL
MODEL 3
REMARK VINA RESULT:    -3.998     10.118     11.425
REMARK INTER + INTRA:          -4.993
REMARK INTER:                  -4.898
REMARK INTRA:                  -0.095
REMARK UNBOUND:                -0.060
REMARK SMILES CCCCCC(=O)[O-]
REMARK SMILES IDX 4 1 5 2 6 3 7 4 8 5 3 6 2 7 1 8
REMARK H PARENT
REMARK Flexibility Score: inf
ROOT
ATOM      1  C   UNL     1     -10.254  -5.606  11.171  1.00  0.00     0.006 C 
ENDROOT
BRANCH   1   2
ATOM      2  C   UNL     1      -8.837  -6.018  11.595  1.00  0.00     0.053 C 
BRANCH   2   3
ATOM      3  C   UNL     1      -8.174  -4.959  12.421  1.00  0.00     0.041 C 
ATOM      4  O   UNL     1      -8.854  -4.020  12.911  1.00  0.00    -0.550 OA
ATOM      5  O   UNL     1      -6.809  -5.029  12.676  1.00  0.00    -0.550 OA
ENDBRANCH   2   3
ENDBRANCH   1   2
BRANCH   1   6
ATOM      6  C   UNL     1     -10.430  -5.616   9.644  1.00  0.00     0.000 C 
BRANCH   6   7
ATOM      7  C   UNL     1     -11.908  -5.757   9.263  1.00  0.00    -0.003 C 
ATOM      8  C   UNL     1     -12.811  -5.105  10.306  1.00  0.00     0.004 C 
ENDBRANCH   6   7
ENDBRANCH   1   6
TORSDOF 4
ENDMDL
MODEL 4
REMARK VINA RESULT:    -3.976     13.440     14.024
REMARK INTER + INTRA:          -4.966
REMARK INTER:                  -4.868
REMARK INTRA:                  -0.097
REMARK UNBOUND:                -0.060
REMARK SMILES CCCCCC(=O)[O-]
REMARK SMILES IDX 4 1 5 2 6 3 7 4 8 5 3 6 2 7 1 8
REMARK H PARENT
REMARK Flexibility Score: inf
ROOT
ATOM      1  C   UNL     1     -11.025  -3.358  16.548  1.00  0.00     0.006 C 
ENDROOT
BRANCH   1   2
ATOM      2  C   UNL     1     -12.518  -3.680  16.396  1.00  0.00     0.053 C 
BRANCH   2   3
ATOM      3  C   UNL     1     -13.056  -3.216  15.078  1.00  0.00     0.041 C 
ATOM      4  O   UNL     1     -14.299  -3.158  14.886  1.00  0.00    -0.550 OA
ATOM      5  O   UNL     1     -12.184  -2.814  14.073  1.00  0.00    -0.550 OA
ENDBRANCH   2   3
ENDBRANCH   1   2
BRANCH   1   6
ATOM      6  C   UNL     1     -10.734  -2.527  17.808  1.00  0.00     0.000 C 
BRANCH   6   7
ATOM      7  C   UNL     1      -9.284  -2.716  18.267  1.00  0.00    -0.003 C 
ATOM      8  C   UNL     1      -8.428  -3.317  17.157  1.00  0.00     0.004 C 
ENDBRANCH   6   7
ENDBRANCH   1   6
TORSDOF 4
ENDMDL
MODEL 5
REMARK VINA RESULT:    -3.866     13.656     14.555
REMARK INTER + INTRA:          -4.830
REMARK INTER:                  -4.757
REMARK INTRA:                  -0.073
REMARK UNBOUND:                -0.060
REMARK SMILES CCCCCC(=O)[O-]
REMARK SMILES IDX 4 1 5 2 6 3 7 4 8 5 3 6 2 7 1 8
REMARK H PARENT
REMARK Flexibility Score: inf
ROOT
ATOM      1  C   UNL     1     -11.387  -3.026  17.138  1.00  0.00     0.006 C 
ENDROOT
BRANCH   1   2
ATOM      2  C   UNL     1     -10.043  -3.328  16.460  1.00  0.00     0.053 C 
BRANCH   2   3
ATOM      3  C   UNL     1      -8.885  -2.991  17.347  1.00  0.00     0.041 C 
ATOM      4  O   UNL     1      -7.725  -2.896  16.866  1.00  0.00    -0.550 OA
ATOM      5  O   UNL     1      -9.091  -2.750  18.700  1.00  0.00    -0.550 OA
ENDBRANCH   2   3
ENDBRANCH   1   2
BRANCH   1   6
ATOM      6  C   UNL     1     -12.558  -3.754  16.459  1.00  0.00     0.000 C 
BRANCH   6   7
ATOM      7  C   UNL     1     -12.690  -3.331  14.991  1.00  0.00    -0.003 C 
ATOM      8  C   UNL     1     -14.134  -2.983  14.645  1.00  0.00     0.004 C 
ENDBRANCH   6   7
ENDBRANCH   1   6
TORSDOF 4
ENDMDL
MODEL 6
REMARK VINA RESULT:    -3.835     10.164     10.846
REMARK INTER + INTRA:          -4.792
REMARK INTER:                  -4.720
REMARK INTRA:                  -0.072
REMARK UNBOUND:                -0.060
REMARK SMILES CCCCCC(=O)[O-]
REMARK SMILES IDX 4 1 5 2 6 3 7 4 8 5 3 6 2 7 1 8
REMARK H PARENT
REMARK Flexibility Score: inf
ROOT
ATOM      1  C   UNL     1      -9.875  -5.694  10.556  1.00  0.00     0.006 C 
ENDROOT
BRANCH   1   2
ATOM      2  C   UNL     1     -11.219  -5.363  11.220  1.00  0.00     0.053 C 
BRANCH   2   3
ATOM      3  C   UNL     1     -12.325  -5.260  10.217  1.00  0.00     0.041 C 
ATOM      4  O   UNL     1     -13.360  -4.592  10.481  1.00  0.00    -0.550 OA
ATOM      5  O   UNL     1     -12.199  -5.873   8.976  1.00  0.00    -0.550 OA
ENDBRANCH   2   3
ENDBRANCH   1   2
BRANCH   1   6
ATOM      6  C   UNL     1      -8.795  -6.067  11.582  1.00  0.00     0.000 C 
BRANCH   6   7
ATOM      7  C   UNL     1      -8.530  -4.906  12.547  1.00  0.00    -0.003 C 
ATOM      8  C   UNL     1      -7.035  -4.638  12.690  1.00  0.00     0.004 C 
ENDBRANCH   6   7
ENDBRANCH   1   6
TORSDOF 4
ENDMDL
MODEL 7
REMARK VINA RESULT:    -3.826     12.607     13.174
REMARK INTER + INTRA:          -4.781
REMARK INTER:                  -4.630
REMARK INTRA:                  -0.151
REMARK UNBOUND:                -0.060
REMARK SMILES CCCCCC(=O)[O-]
REMARK SMILES IDX 4 1 5 2 6 3 7 4 8 5 3 6 2 7 1 8
REMARK H PARENT
REMARK Flexibility Score: inf
ROOT
ATOM      1  C   UNL     1     -11.999  -3.414  16.675  1.00  0.00     0.006 C 
ENDROOT
BRANCH   1   2
ATOM      2  C   UNL     1     -11.360  -4.567  15.888  1.00  0.00     0.053 C 
BRANCH   2   3
ATOM      3  C   UNL     1     -11.530  -4.392  14.410  1.00  0.00     0.041 C 
ATOM      4  O   UNL     1     -11.871  -3.276  13.939  1.00  0.00    -0.550 OA
ATOM      5  O   UNL     1     -11.279  -5.455  13.550  1.00  0.00    -0.550 OA
ENDBRANCH   2   3
ENDBRANCH   1   2
BRANCH   1   6
ATOM      6  C   UNL     1     -10.978  -2.671  17.550  1.00  0.00     0.000 C 
BRANCH   6   7
ATOM      7  C   UNL     1      -9.551  -3.149  17.255  1.00  0.00    -0.003 C 
ATOM      8  C   UNL     1      -8.662  -3.026  18.488  1.00  0.00     0.004 C 
ENDBRANCH   6   7
ENDBRANCH   1   6
TORSDOF 4
ENDMDL
MODEL 8
REMARK VINA RESULT:    -3.802     12.816     13.688
REMARK INTER + INTRA:          -4.751
REMARK INTER:                  -4.565
REMARK INTRA:                  -0.186
REMARK UNBOUND:                -0.060
REMARK SMILES CCCCCC(=O)[O-]
REMARK SMILES IDX 4 1 5 2 6 3 7 4 8 5 3 6 2 7 1 8
REMARK H PARENT
REMARK Flexibility Score: inf
ROOT
ATOM      1  C   UNL     1      -9.194  -4.816  16.264  1.00  0.00     0.006 C 
ENDROOT
BRANCH   1   2
ATOM      2  C   UNL     1      -8.394  -3.541  16.562  1.00  0.00     0.053 C 
BRANCH   2   3
ATOM      3  C   UNL     1      -8.704  -2.995  17.922  1.00  0.00     0.041 C 
ATOM      4  O   UNL     1      -7.843  -3.052  18.839  1.00  0.00    -0.550 OA
ATOM      5  O   UNL     1      -9.932  -2.392  18.167  1.00  0.00    -0.550 OA
ENDBRANCH   2   3
ENDBRANCH   1   2
BRANCH   1   6
ATOM      6  C   UNL     1     -10.345  -4.564  15.279  1.00  0.00     0.000 C 
BRANCH   6   7
ATOM      7  C   UNL     1     -11.696  -4.924  15.908  1.00  0.00    -0.003 C 
ATOM      8  C   UNL     1     -12.481  -3.671  16.282  1.00  0.00     0.004 C 
ENDBRANCH   6   7
ENDBRANCH   1   6
TORSDOF 4
ENDMDL
MODEL 9
REMARK VINA RESULT:    -3.744      3.392      4.910
REMARK INTER + INTRA:          -4.679
REMARK INTER:                  -4.633
REMARK INTRA:                  -0.047
REMARK UNBOUND:                -0.060
REMARK SMILES CCCCCC(=O)[O-]
REMARK SMILES IDX 4 1 5 2 6 3 7 4 8 5 3 6 2 7 1 8
REMARK H PARENT
REMARK Flexibility Score: inf
ROOT
ATOM      1  C   UNL     1      -5.011 -15.011  12.352  1.00  0.00     0.006 C 
ENDROOT
BRANCH   1   2
ATOM      2  C   UNL     1      -3.538 -15.390  12.562  1.00  0.00     0.053 C 
BRANCH   2   3
ATOM      3  C   UNL     1      -3.106 -15.175  13.980  1.00  0.00     0.041 C 
ATOM      4  O   UNL     1      -3.149 -16.124  14.806  1.00  0.00    -0.550 OA
ATOM      5  O   UNL     1      -2.624 -13.935  14.381  1.00  0.00    -0.550 OA
ENDBRANCH   2   3
ENDBRANCH   1   2
BRANCH   1   6
ATOM      6  C   UNL     1      -5.402 -15.001  10.866  1.00  0.00     0.000 C 
BRANCH   6   7
ATOM      7  C   UNL     1      -6.907 -15.237  10.693  1.00  0.00    -0.003 C 
ATOM      8  C   UNL     1      -7.616 -13.963  10.242  1.00  0.00     0.004 C 
ENDBRANCH   6   7
ENDBRANCH   1   6
TORSDOF 4
ENDMDL
