MODEL 1
REMARK VINA RESULT:    -8.466      0.000      0.000
REMARK INTER + INTRA:         -10.714
REMARK INTER:                 -10.446
REMARK INTRA:                  -0.267
REMARK UNBOUND:                -0.267
REMARK SMILES Oc1cc(O)c2cc(O)c(-c3cc(O)c(O)c(O)c3)[o+]c2c1
REMARK SMILES IDX 10 1 20 2 21 3 22 4 2 5 3 6 4 7 6 8 7 9 8 10 11 11 12 12
REMARK SMILES IDX 13 13 19 14 15 15 17 16 14 17 16 19 18 21 9 23 1 25 5 27
REMARK H PARENT 14 18 16 20 18 22 9 24 1 26 5 28
REMARK Flexibility Score: inf
ROOT
ATOM      1  C   UNL     1     -22.487 -24.995 -19.977  1.00  0.00     0.402 A 
ATOM      2  O   UNL     1     -23.516 -24.954 -20.820  1.00  0.00    -0.202 OA
ATOM      3  C   UNL     1     -23.659 -24.019 -21.753  1.00  0.00     0.368 A 
ATOM      4  C   UNL     1     -24.773 -24.063 -22.594  1.00  0.00     0.162 A 
ATOM      5  C   UNL     1     -24.949 -23.097 -23.585  1.00  0.00     0.128 A 
ATOM      6  C   UNL     1     -24.001 -22.078 -23.739  1.00  0.00     0.093 A 
ATOM      7  C   UNL     1     -22.875 -22.012 -22.909  1.00  0.00     0.136 A 
ATOM      8  C   UNL     1     -22.696 -22.992 -21.898  1.00  0.00     0.125 A 
ATOM      9  C   UNL     1     -21.606 -22.997 -21.013  1.00  0.00     0.078 A 
ATOM     10  C   UNL     1     -21.499 -23.995 -20.038  1.00  0.00     0.223 A 
ENDROOT
BRANCH   1  11
ATOM     11  C   UNL     1     -22.435 -26.094 -18.986  1.00  0.00     0.091 A 
ATOM     12  C   UNL     1     -21.427 -27.071 -19.029  1.00  0.00     0.068 A 
ATOM     13  C   UNL     1     -21.409 -28.118 -18.096  1.00  0.00     0.162 A 
ATOM     14  C   UNL     1     -23.445 -26.196 -18.017  1.00  0.00     0.068 A 
ATOM     15  C   UNL     1     -22.411 -28.199 -17.115  1.00  0.00     0.200 A 
ATOM     16  C   UNL     1     -23.433 -27.236 -17.081  1.00  0.00     0.162 A 
BRANCH  13  17
ATOM     17  O   UNL     1     -20.399 -29.078 -18.145  1.00  0.00    -0.504 OA
ATOM     18  H   UNL     1     -20.230 -29.711 -17.373  1.00  0.00     0.293 HD
ENDBRANCH  13  17
BRANCH  15  19
ATOM     19  O   UNL     1     -22.404 -29.232 -16.175  1.00  0.00    -0.502 OA
ATOM     20  H   UNL     1     -21.609 -29.847 -16.056  1.00  0.00     0.293 HD
ENDBRANCH  15  19
BRANCH  16  21
ATOM     21  O   UNL     1     -24.447 -27.294 -16.125  1.00  0.00    -0.504 OA
ATOM     22  H   UNL     1     -25.384 -27.605 -16.351  1.00  0.00     0.293 HD
ENDBRANCH  16  21
ENDBRANCH   1  11
BRANCH  10  23
ATOM     23  O   UNL     1     -20.443 -23.972 -19.127  1.00  0.00    -0.500 OA
ATOM     24  H   UNL     1     -20.602 -23.992 -18.126  1.00  0.00     0.294 HD
ENDBRANCH  10  23
BRANCH   5  25
ATOM     25  O   UNL     1     -26.067 -23.157 -24.413  1.00  0.00    -0.507 OA
ATOM     26  H   UNL     1     -27.007 -23.093 -24.040  1.00  0.00     0.293 HD
ENDBRANCH   5  25
BRANCH   7  27
ATOM     27  O   UNL     1     -21.974 -20.966 -23.129  1.00  0.00    -0.507 OA
ATOM     28  H   UNL     1     -20.975 -21.082 -23.208  1.00  0.00     0.293 HD
ENDBRANCH   7  27
TORSDOF 7
ENDMDL
MODEL 2
REMARK VINA RESULT:    -8.030      1.560      2.025
REMARK INTER + INTRA:         -10.175
REMARK INTER:                  -9.928
REMARK INTRA:                  -0.247
REMARK UNBOUND:                -0.267
REMARK SMILES Oc1cc(O)c2cc(O)c(-c3cc(O)c(O)c(O)c3)[o+]c2c1
REMARK SMILES IDX 10 1 20 2 21 3 22 4 2 5 3 6 4 7 6 8 7 9 8 10 11 11 12 12
REMARK SMILES IDX 13 13 19 14 15 15 17 16 14 17 16 19 18 21 9 23 1 25 5 27
REMARK H PARENT 14 18 16 20 18 22 9 24 1 26 5 28
REMARK Flexibility Score: inf
ROOT
ATOM      1  C   UNL     1     -23.762 -25.370 -20.830  1.00  0.00     0.402 A 
ATOM      2  O   UNL     1     -24.211 -25.940 -21.946  1.00  0.00    -0.202 OA
ATOM      3  C   UNL     1     -24.544 -25.253 -23.033  1.00  0.00     0.368 A 
ATOM      4  C   UNL     1     -25.002 -25.942 -24.158  1.00  0.00     0.162 A 
ATOM      5  C   UNL     1     -25.356 -25.249 -25.316  1.00  0.00     0.128 A 
ATOM      6  C   UNL     1     -25.250 -23.853 -25.351  1.00  0.00     0.093 A 
ATOM      7  C   UNL     1     -24.793 -23.139 -24.236  1.00  0.00     0.136 A 
ATOM      8  C   UNL     1     -24.435 -23.842 -23.056  1.00  0.00     0.125 A 
ATOM      9  C   UNL     1     -23.981 -23.209 -21.888  1.00  0.00     0.078 A 
ATOM     10  C   UNL     1     -23.651 -23.970 -20.761  1.00  0.00     0.223 A 
ENDROOT
BRANCH   1  11
ATOM     11  C   UNL     1     -23.415 -26.245 -19.686  1.00  0.00     0.091 A 
ATOM     12  C   UNL     1     -22.332 -27.136 -19.750  1.00  0.00     0.068 A 
ATOM     13  C   UNL     1     -22.033 -27.974 -18.665  1.00  0.00     0.162 A 
ATOM     14  C   UNL     1     -24.219 -26.226 -18.535  1.00  0.00     0.068 A 
ATOM     15  C   UNL     1     -22.829 -27.932 -17.508  1.00  0.00     0.200 A 
ATOM     16  C   UNL     1     -23.927 -27.057 -17.448  1.00  0.00     0.162 A 
BRANCH  13  17
ATOM     17  O   UNL     1     -20.951 -28.850 -18.737  1.00  0.00    -0.504 OA
ATOM     18  H   UNL     1     -20.010 -28.518 -18.910  1.00  0.00     0.293 HD
ENDBRANCH  13  17
BRANCH  15  19
ATOM     19  O   UNL     1     -22.542 -28.755 -16.417  1.00  0.00    -0.502 OA
ATOM     20  H   UNL     1     -23.249 -29.329 -15.975  1.00  0.00     0.293 HD
ENDBRANCH  15  19
BRANCH  16  21
ATOM     21  O   UNL     1     -24.740 -26.998 -16.318  1.00  0.00    -0.504 OA
ATOM     22  H   UNL     1     -25.124 -26.125 -15.974  1.00  0.00     0.293 HD
ENDBRANCH  16  21
ENDBRANCH   1  11
BRANCH  10  23
ATOM     23  O   UNL     1     -23.246 -23.338 -19.585  1.00  0.00    -0.500 OA
ATOM     24  H   UNL     1     -22.441 -22.723 -19.561  1.00  0.00     0.294 HD
ENDBRANCH  10  23
BRANCH   5  25
ATOM     25  O   UNL     1     -25.811 -25.954 -26.428  1.00  0.00    -0.507 OA
ATOM     26  H   UNL     1     -26.787 -26.203 -26.534  1.00  0.00     0.293 HD
ENDBRANCH   5  25
BRANCH   7  27
ATOM     27  O   UNL     1     -24.713 -21.748 -24.351  1.00  0.00    -0.507 OA
ATOM     28  H   UNL     1     -24.357 -21.263 -25.161  1.00  0.00     0.293 HD
ENDBRANCH   7  27
TORSDOF 7
ENDMDL
MODEL 3
REMARK VINA RESULT:    -7.977      1.563      2.693
REMARK INTER + INTRA:         -10.110
REMARK INTER:                  -9.856
REMARK INTRA:                  -0.254
REMARK UNBOUND:                -0.267
REMARK SMILES Oc1cc(O)c2cc(O)c(-c3cc(O)c(O)c(O)c3)[o+]c2c1
REMARK SMILES IDX 10 1 20 2 21 3 22 4 2 5 3 6 4 7 6 8 7 9 8 10 11 11 12 12
REMARK SMILES IDX 13 13 19 14 15 15 17 16 14 17 16 19 18 21 9 23 1 25 5 27
REMARK H PARENT 14 18 16 20 18 22 9 24 1 26 5 28
REMARK Flexibility Score: inf
ROOT
ATOM      1  C   UNL     1     -23.831 -25.388 -20.802  1.00  0.00     0.402 A 
ATOM      2  O   UNL     1     -24.287 -25.944 -21.921  1.00  0.00    -0.202 OA
ATOM      3  C   UNL     1     -24.586 -25.248 -23.013  1.00  0.00     0.368 A 
ATOM      4  C   UNL     1     -25.055 -25.923 -24.142  1.00  0.00     0.162 A 
ATOM      5  C   UNL     1     -25.373 -25.219 -25.304  1.00  0.00     0.128 A 
ATOM      6  C   UNL     1     -25.221 -23.828 -25.339  1.00  0.00     0.093 A 
ATOM      7  C   UNL     1     -24.751 -23.128 -24.221  1.00  0.00     0.136 A 
ATOM      8  C   UNL     1     -24.429 -23.841 -23.037  1.00  0.00     0.125 A 
ATOM      9  C   UNL     1     -23.966 -23.222 -21.865  1.00  0.00     0.078 A 
ATOM     10  C   UNL     1     -23.673 -23.991 -20.734  1.00  0.00     0.223 A 
ENDROOT
BRANCH   1  11
ATOM     11  C   UNL     1     -23.526 -26.271 -19.653  1.00  0.00     0.091 A 
ATOM     12  C   UNL     1     -24.291 -26.232 -18.476  1.00  0.00     0.068 A 
ATOM     13  C   UNL     1     -23.971 -27.060 -17.390  1.00  0.00     0.162 A 
ATOM     14  C   UNL     1     -22.413 -27.126 -19.717  1.00  0.00     0.068 A 
ATOM     15  C   UNL     1     -22.871 -27.929 -17.472  1.00  0.00     0.200 A 
ATOM     16  C   UNL     1     -22.088 -27.956 -18.639  1.00  0.00     0.162 A 
BRANCH  13  17
ATOM     17  O   UNL     1     -24.743 -27.018 -16.230  1.00  0.00    -0.504 OA
ATOM     18  H   UNL     1     -24.743 -27.780 -15.564  1.00  0.00     0.293 HD
ENDBRANCH  13  17
BRANCH  15  19
ATOM     19  O   UNL     1     -22.542 -28.764 -16.402  1.00  0.00    -0.502 OA
ATOM     20  H   UNL     1     -23.091 -28.793 -15.553  1.00  0.00     0.293 HD
ENDBRANCH  15  19
BRANCH  16  21
ATOM     21  O   UNL     1     -20.985 -28.801 -18.748  1.00  0.00    -0.504 OA
ATOM     22  H   UNL     1     -21.082 -29.806 -18.833  1.00  0.00     0.293 HD
ENDBRANCH  16  21
ENDBRANCH   1  11
BRANCH  10  23
ATOM     23  O   UNL     1     -23.260 -23.372 -19.554  1.00  0.00    -0.500 OA
ATOM     24  H   UNL     1     -23.436 -23.785 -18.646  1.00  0.00     0.294 HD
ENDBRANCH  10  23
BRANCH   5  25
ATOM     25  O   UNL     1     -25.841 -25.911 -26.420  1.00  0.00    -0.507 OA
ATOM     26  H   UNL     1     -26.096 -25.428 -27.273  1.00  0.00     0.293 HD
ENDBRANCH   5  25
BRANCH   7  27
ATOM     27  O   UNL     1     -24.623 -21.741 -24.337  1.00  0.00    -0.507 OA
ATOM     28  H   UNL     1     -24.149 -21.154 -23.667  1.00  0.00     0.293 HD
ENDBRANCH   7  27
TORSDOF 7
ENDMDL
MODEL 4
REMARK VINA RESULT:    -7.849      1.208      2.476
REMARK INTER + INTRA:          -9.952
REMARK INTER:                  -9.609
REMARK INTRA:                  -0.344
REMARK UNBOUND:                -0.267
REMARK SMILES Oc1cc(O)c2cc(O)c(-c3cc(O)c(O)c(O)c3)[o+]c2c1
REMARK SMILES IDX 10 1 20 2 21 3 22 4 2 5 3 6 4 7 6 8 7 9 8 10 11 11 12 12
REMARK SMILES IDX 13 13 19 14 15 15 17 16 14 17 16 19 18 21 9 23 1 25 5 27
REMARK H PARENT 14 18 16 20 18 22 9 24 1 26 5 28
REMARK Flexibility Score: inf
ROOT
ATOM      1  C   UNL     1     -22.722 -25.625 -20.412  1.00  0.00     0.402 A 
ATOM      2  O   UNL     1     -22.328 -24.360 -20.277  1.00  0.00    -0.202 OA
ATOM      3  C   UNL     1     -22.451 -23.451 -21.238  1.00  0.00     0.368 A 
ATOM      4  C   UNL     1     -22.012 -22.147 -21.000  1.00  0.00     0.162 A 
ATOM      5  C   UNL     1     -22.131 -21.170 -21.989  1.00  0.00     0.128 A 
ATOM      6  C   UNL     1     -22.695 -21.498 -23.227  1.00  0.00     0.093 A 
ATOM      7  C   UNL     1     -23.144 -22.799 -23.490  1.00  0.00     0.136 A 
ATOM      8  C   UNL     1     -23.022 -23.795 -22.487  1.00  0.00     0.125 A 
ATOM      9  C   UNL     1     -23.431 -25.126 -22.667  1.00  0.00     0.078 A 
ATOM     10  C   UNL     1     -23.274 -26.054 -21.632  1.00  0.00     0.223 A 
ENDROOT
BRANCH   1  11
ATOM     11  C   UNL     1     -22.539 -26.542 -19.264  1.00  0.00     0.091 A 
ATOM     12  C   UNL     1     -21.470 -27.452 -19.217  1.00  0.00     0.068 A 
ATOM     13  C   UNL     1     -21.328 -28.329 -18.133  1.00  0.00     0.162 A 
ATOM     14  C   UNL     1     -23.485 -26.545 -18.227  1.00  0.00     0.068 A 
ATOM     15  C   UNL     1     -22.266 -28.309 -17.088  1.00  0.00     0.200 A 
ATOM     16  C   UNL     1     -23.350 -27.416 -17.140  1.00  0.00     0.162 A 
BRANCH  13  17
ATOM     17  O   UNL     1     -20.258 -29.223 -18.094  1.00  0.00    -0.504 OA
ATOM     18  H   UNL     1     -20.336 -30.161 -18.469  1.00  0.00     0.293 HD
ENDBRANCH  13  17
BRANCH  15  19
ATOM     19  O   UNL     1     -22.136 -29.173 -15.998  1.00  0.00    -0.502 OA
ATOM     20  H   UNL     1     -22.727 -29.986 -15.881  1.00  0.00     0.293 HD
ENDBRANCH  15  19
BRANCH  16  21
ATOM     21  O   UNL     1     -24.302 -27.378 -16.123  1.00  0.00    -0.504 OA
ATOM     22  H   UNL     1     -25.160 -27.915 -16.167  1.00  0.00     0.293 HD
ENDBRANCH  16  21
ENDBRANCH   1  11
BRANCH  10  23
ATOM     23  O   UNL     1     -23.636 -27.387 -21.827  1.00  0.00    -0.500 OA
ATOM     24  H   UNL     1     -24.151 -27.907 -21.126  1.00  0.00     0.294 HD
ENDBRANCH  10  23
BRANCH   5  25
ATOM     25  O   UNL     1     -21.686 -19.875 -21.733  1.00  0.00    -0.507 OA
ATOM     26  H   UNL     1     -22.307 -19.078 -21.805  1.00  0.00     0.293 HD
ENDBRANCH   5  25
BRANCH   7  27
ATOM     27  O   UNL     1     -23.699 -23.045 -24.750  1.00  0.00    -0.507 OA
ATOM     28  H   UNL     1     -24.208 -22.363 -25.292  1.00  0.00     0.293 HD
ENDBRANCH   7  27
TORSDOF 7
ENDMDL
MODEL 5
REMARK VINA RESULT:    -7.600      1.813      7.408
REMARK INTER + INTRA:          -9.644
REMARK INTER:                  -9.417
REMARK INTRA:                  -0.227
REMARK UNBOUND:                -0.267
REMARK SMILES Oc1cc(O)c2cc(O)c(-c3cc(O)c(O)c(O)c3)[o+]c2c1
REMARK SMILES IDX 10 1 20 2 21 3 22 4 2 5 3 6 4 7 6 8 7 9 8 10 11 11 12 12
REMARK SMILES IDX 13 13 19 14 15 15 17 16 14 17 16 19 18 21 9 23 1 25 5 27
REMARK H PARENT 14 18 16 20 18 22 9 24 1 26 5 28
REMARK Flexibility Score: inf
ROOT
ATOM      1  C   UNL     1     -24.232 -25.309 -21.112  1.00  0.00     0.402 A 
ATOM      2  O   UNL     1     -23.187 -26.102 -20.889  1.00  0.00    -0.202 OA
ATOM      3  C   UNL     1     -22.964 -26.706 -19.726  1.00  0.00     0.368 A 
ATOM      4  C   UNL     1     -21.840 -27.523 -19.590  1.00  0.00     0.162 A 
ATOM      5  C   UNL     1     -21.582 -28.173 -18.383  1.00  0.00     0.128 A 
ATOM      6  C   UNL     1     -22.455 -28.006 -17.302  1.00  0.00     0.093 A 
ATOM      7  C   UNL     1     -23.590 -27.193 -17.414  1.00  0.00     0.136 A 
ATOM      8  C   UNL     1     -23.853 -26.529 -18.640  1.00  0.00     0.125 A 
ATOM      9  C   UNL     1     -24.957 -25.684 -18.838  1.00  0.00     0.078 A 
ATOM     10  C   UNL     1     -25.149 -25.059 -20.075  1.00  0.00     0.223 A 
ENDROOT
BRANCH   1  11
ATOM     11  C   UNL     1     -24.376 -24.699 -22.454  1.00  0.00     0.091 A 
ATOM     12  C   UNL     1     -24.282 -23.310 -22.641  1.00  0.00     0.068 A 
ATOM     13  C   UNL     1     -24.445 -22.749 -23.915  1.00  0.00     0.162 A 
ATOM     14  C   UNL     1     -24.671 -25.518 -23.556  1.00  0.00     0.068 A 
ATOM     15  C   UNL     1     -24.716 -23.579 -25.016  1.00  0.00     0.200 A 
ATOM     16  C   UNL     1     -24.833 -24.967 -24.831  1.00  0.00     0.162 A 
BRANCH  13  17
ATOM     17  O   UNL     1     -24.342 -21.370 -24.089  1.00  0.00    -0.504 OA
ATOM     18  H   UNL     1     -23.450 -20.921 -24.256  1.00  0.00     0.293 HD
ENDBRANCH  13  17
BRANCH  15  19
ATOM     19  O   UNL     1     -24.876 -23.038 -26.293  1.00  0.00    -0.502 OA
ATOM     20  H   UNL     1     -24.643 -22.075 -26.504  1.00  0.00     0.293 HD
ENDBRANCH  15  19
BRANCH  16  21
ATOM     21  O   UNL     1     -25.110 -25.816 -25.902  1.00  0.00    -0.504 OA
ATOM     22  H   UNL     1     -26.049 -25.946 -26.259  1.00  0.00     0.293 HD
ENDBRANCH  16  21
ENDBRANCH   1  11
BRANCH  10  23
ATOM     23  O   UNL     1     -26.218 -24.181 -20.257  1.00  0.00    -0.500 OA
ATOM     24  H   UNL     1     -27.178 -24.476 -20.119  1.00  0.00     0.294 HD
ENDBRANCH  10  23
BRANCH   5  25
ATOM     25  O   UNL     1     -20.454 -28.983 -18.266  1.00  0.00    -0.507 OA
ATOM     26  H   UNL     1     -19.549 -28.600 -18.023  1.00  0.00     0.293 HD
ENDBRANCH   5  25
BRANCH   7  27
ATOM     27  O   UNL     1     -24.414 -27.081 -16.290  1.00  0.00    -0.507 OA
ATOM     28  H   UNL     1     -25.389 -26.820 -16.322  1.00  0.00     0.293 HD
ENDBRANCH   7  27
TORSDOF 7
ENDMDL
MODEL 6
REMARK VINA RESULT:    -7.312      2.326      7.278
REMARK INTER + INTRA:          -9.290
REMARK INTER:                  -8.927
REMARK INTRA:                  -0.363
REMARK UNBOUND:                -0.267
REMARK SMILES Oc1cc(O)c2cc(O)c(-c3cc(O)c(O)c(O)c3)[o+]c2c1
REMARK SMILES IDX 10 1 20 2 21 3 22 4 2 5 3 6 4 7 6 8 7 9 8 10 11 11 12 12
REMARK SMILES IDX 13 13 19 14 15 15 17 16 14 17 16 19 18 21 9 23 1 25 5 27
REMARK H PARENT 14 18 16 20 18 22 9 24 1 26 5 28
REMARK Flexibility Score: inf
ROOT
ATOM      1  C   UNL     1     -23.771 -25.282 -22.227  1.00  0.00     0.402 A 
ATOM      2  O   UNL     1     -23.104 -26.358 -21.817  1.00  0.00    -0.202 OA
ATOM      3  C   UNL     1     -22.634 -26.498 -20.582  1.00  0.00     0.368 A 
ATOM      4  C   UNL     1     -21.949 -27.668 -20.245  1.00  0.00     0.162 A 
ATOM      5  C   UNL     1     -21.447 -27.845 -18.955  1.00  0.00     0.128 A 
ATOM      6  C   UNL     1     -21.631 -26.846 -17.993  1.00  0.00     0.093 A 
ATOM      7  C   UNL     1     -22.315 -25.664 -18.306  1.00  0.00     0.136 A 
ATOM      8  C   UNL     1     -22.825 -25.480 -19.617  1.00  0.00     0.125 A 
ATOM      9  C   UNL     1     -23.510 -24.324 -20.024  1.00  0.00     0.078 A 
ATOM     10  C   UNL     1     -23.979 -24.212 -21.337  1.00  0.00     0.223 A 
ENDROOT
BRANCH   1  11
ATOM     11  C   UNL     1     -24.252 -25.247 -23.627  1.00  0.00     0.091 A 
ATOM     12  C   UNL     1     -25.446 -25.883 -24.006  1.00  0.00     0.068 A 
ATOM     13  C   UNL     1     -25.874 -25.859 -25.341  1.00  0.00     0.162 A 
ATOM     14  C   UNL     1     -23.473 -24.615 -24.609  1.00  0.00     0.068 A 
ATOM     15  C   UNL     1     -25.099 -25.204 -26.313  1.00  0.00     0.200 A 
ATOM     16  C   UNL     1     -23.893 -24.585 -25.943  1.00  0.00     0.162 A 
BRANCH  13  17
ATOM     17  O   UNL     1     -27.064 -26.488 -25.704  1.00  0.00    -0.504 OA
ATOM     18  H   UNL     1     -27.098 -27.477 -25.917  1.00  0.00     0.293 HD
ENDBRANCH  13  17
BRANCH  15  19
ATOM     19  O   UNL     1     -25.513 -25.166 -27.646  1.00  0.00    -0.502 OA
ATOM     20  H   UNL     1     -25.487 -24.316 -28.195  1.00  0.00     0.293 HD
ENDBRANCH  15  19
BRANCH  16  21
ATOM     21  O   UNL     1     -23.098 -23.934 -26.885  1.00  0.00    -0.504 OA
ATOM     22  H   UNL     1     -22.193 -23.544 -26.650  1.00  0.00     0.293 HD
ENDBRANCH  16  21
ENDBRANCH   1  11
BRANCH  10  23
ATOM     23  O   UNL     1     -24.617 -23.044 -21.755  1.00  0.00    -0.500 OA
ATOM     24  H   UNL     1     -24.403 -22.144 -21.342  1.00  0.00     0.294 HD
ENDBRANCH  10  23
BRANCH   5  25
ATOM     25  O   UNL     1     -20.766 -29.019 -18.638  1.00  0.00    -0.507 OA
ATOM     26  H   UNL     1     -19.803 -29.165 -18.918  1.00  0.00     0.293 HD
ENDBRANCH   5  25
BRANCH   7  27
ATOM     27  O   UNL     1     -22.461 -24.717 -17.288  1.00  0.00    -0.507 OA
ATOM     28  H   UNL     1     -23.299 -24.595 -16.738  1.00  0.00     0.293 HD
ENDBRANCH   7  27
TORSDOF 7
ENDMDL
MODEL 7
REMARK VINA RESULT:    -7.305      3.681      6.951
REMARK INTER + INTRA:          -9.281
REMARK INTER:                  -9.020
REMARK INTRA:                  -0.261
REMARK UNBOUND:                -0.267
REMARK SMILES Oc1cc(O)c2cc(O)c(-c3cc(O)c(O)c(O)c3)[o+]c2c1
REMARK SMILES IDX 10 1 20 2 21 3 22 4 2 5 3 6 4 7 6 8 7 9 8 10 11 11 12 12
REMARK SMILES IDX 13 13 19 14 15 15 17 16 14 17 16 19 18 21 9 23 1 25 5 27
REMARK H PARENT 14 18 16 20 18 22 9 24 1 26 5 28
REMARK Flexibility Score: inf
ROOT
ATOM      1  C   UNL     1     -24.598 -26.813 -22.375  1.00  0.00     0.402 A 
ATOM      2  O   UNL     1     -25.063 -26.988 -21.141  1.00  0.00    -0.202 OA
ATOM      3  C   UNL     1     -24.456 -26.514 -20.058  1.00  0.00     0.368 A 
ATOM      4  C   UNL     1     -25.025 -26.746 -18.804  1.00  0.00     0.162 A 
ATOM      5  C   UNL     1     -24.411 -26.258 -17.649  1.00  0.00     0.128 A 
ATOM      6  C   UNL     1     -23.220 -25.530 -17.748  1.00  0.00     0.093 A 
ATOM      7  C   UNL     1     -22.630 -25.283 -18.995  1.00  0.00     0.136 A 
ATOM      8  C   UNL     1     -23.250 -25.781 -20.170  1.00  0.00     0.125 A 
ATOM      9  C   UNL     1     -22.723 -25.594 -21.458  1.00  0.00     0.078 A 
ATOM     10  C   UNL     1     -23.389 -26.119 -22.571  1.00  0.00     0.223 A 
ENDROOT
BRANCH   1  11
ATOM     11  C   UNL     1     -25.370 -27.382 -23.503  1.00  0.00     0.091 A 
ATOM     12  C   UNL     1     -25.974 -26.557 -24.467  1.00  0.00     0.068 A 
ATOM     13  C   UNL     1     -26.721 -27.114 -25.514  1.00  0.00     0.162 A 
ATOM     14  C   UNL     1     -25.554 -28.771 -23.581  1.00  0.00     0.068 A 
ATOM     15  C   UNL     1     -26.880 -28.507 -25.598  1.00  0.00     0.200 A 
ATOM     16  C   UNL     1     -26.297 -29.335 -24.624  1.00  0.00     0.162 A 
BRANCH  13  17
ATOM     17  O   UNL     1     -27.309 -26.285 -26.469  1.00  0.00    -0.504 OA
ATOM     18  H   UNL     1     -28.314 -26.176 -26.531  1.00  0.00     0.293 HD
ENDBRANCH  13  17
BRANCH  15  19
ATOM     19  O   UNL     1     -27.617 -29.078 -26.637  1.00  0.00    -0.502 OA
ATOM     20  H   UNL     1     -28.221 -28.528 -27.236  1.00  0.00     0.293 HD
ENDBRANCH  15  19
BRANCH  16  21
ATOM     21  O   UNL     1     -26.444 -30.721 -24.675  1.00  0.00    -0.504 OA
ATOM     22  H   UNL     1     -27.034 -31.225 -24.023  1.00  0.00     0.293 HD
ENDBRANCH  16  21
ENDBRANCH   1  11
BRANCH  10  23
ATOM     23  O   UNL     1     -22.842 -25.975 -23.846  1.00  0.00    -0.500 OA
ATOM     24  H   UNL     1     -22.004 -25.429 -24.007  1.00  0.00     0.294 HD
ENDBRANCH  10  23
BRANCH   5  25
ATOM     25  O   UNL     1     -24.994 -26.500 -16.407  1.00  0.00    -0.507 OA
ATOM     26  H   UNL     1     -24.576 -26.158 -15.550  1.00  0.00     0.293 HD
ENDBRANCH   5  25
BRANCH   7  27
ATOM     27  O   UNL     1     -21.442 -24.546 -19.009  1.00  0.00    -0.507 OA
ATOM     28  H   UNL     1     -20.556 -24.886 -18.666  1.00  0.00     0.293 HD
ENDBRANCH   7  27
TORSDOF 7
ENDMDL
MODEL 8
REMARK VINA RESULT:    -7.248      2.134      7.245
REMARK INTER + INTRA:          -9.210
REMARK INTER:                  -8.830
REMARK INTRA:                  -0.380
REMARK UNBOUND:                -0.267
REMARK SMILES Oc1cc(O)c2cc(O)c(-c3cc(O)c(O)c(O)c3)[o+]c2c1
REMARK SMILES IDX 10 1 20 2 21 3 22 4 2 5 3 6 4 7 6 8 7 9 8 10 11 11 12 12
REMARK SMILES IDX 13 13 19 14 15 15 17 16 14 17 16 19 18 21 9 23 1 25 5 27
REMARK H PARENT 14 18 16 20 18 22 9 24 1 26 5 28
REMARK Flexibility Score: inf
ROOT
ATOM      1  C   UNL     1     -24.113 -24.840 -22.122  1.00  0.00     0.402 A 
ATOM      2  O   UNL     1     -25.002 -25.173 -21.189  1.00  0.00    -0.202 OA
ATOM      3  C   UNL     1     -24.666 -25.508 -19.947  1.00  0.00     0.368 A 
ATOM      4  C   UNL     1     -25.673 -25.838 -19.037  1.00  0.00     0.162 A 
ATOM      5  C   UNL     1     -25.352 -26.191 -17.726  1.00  0.00     0.128 A 
ATOM      6  C   UNL     1     -24.013 -26.212 -17.319  1.00  0.00     0.093 A 
ATOM      7  C   UNL     1     -22.985 -25.883 -18.213  1.00  0.00     0.136 A 
ATOM      8  C   UNL     1     -23.309 -25.527 -19.548  1.00  0.00     0.125 A 
ATOM      9  C   UNL     1     -22.345 -25.198 -20.514  1.00  0.00     0.078 A 
ATOM     10  C   UNL     1     -22.740 -24.861 -21.813  1.00  0.00     0.223 A 
ENDROOT
BRANCH   1  11
ATOM     11  C   UNL     1     -24.611 -24.477 -23.468  1.00  0.00     0.091 A 
ATOM     12  C   UNL     1     -24.796 -23.136 -23.843  1.00  0.00     0.068 A 
ATOM     13  C   UNL     1     -25.292 -22.813 -25.114  1.00  0.00     0.162 A 
ATOM     14  C   UNL     1     -24.963 -25.494 -24.370  1.00  0.00     0.068 A 
ATOM     15  C   UNL     1     -25.619 -23.837 -26.019  1.00  0.00     0.200 A 
ATOM     16  C   UNL     1     -25.457 -25.180 -25.641  1.00  0.00     0.162 A 
BRANCH  13  17
ATOM     17  O   UNL     1     -25.464 -21.478 -25.477  1.00  0.00    -0.504 OA
ATOM     18  H   UNL     1     -26.192 -21.192 -26.120  1.00  0.00     0.293 HD
ENDBRANCH  13  17
BRANCH  15  19
ATOM     19  O   UNL     1     -26.109 -23.533 -27.291  1.00  0.00    -0.502 OA
ATOM     20  H   UNL     1     -26.281 -24.247 -27.987  1.00  0.00     0.293 HD
ENDBRANCH  15  19
BRANCH  16  21
ATOM     21  O   UNL     1     -25.780 -26.219 -26.513  1.00  0.00    -0.504 OA
ATOM     22  H   UNL     1     -25.120 -26.951 -26.747  1.00  0.00     0.293 HD
ENDBRANCH  16  21
ENDBRANCH   1  11
BRANCH  10  23
ATOM     23  O   UNL     1     -21.781 -24.581 -22.786  1.00  0.00    -0.500 OA
ATOM     24  H   UNL     1     -21.122 -23.818 -22.679  1.00  0.00     0.294 HD
ENDBRANCH  10  23
BRANCH   5  25
ATOM     25  O   UNL     1     -26.370 -26.518 -16.834  1.00  0.00    -0.507 OA
ATOM     26  H   UNL     1     -26.640 -27.481 -16.667  1.00  0.00     0.293 HD
ENDBRANCH   5  25
BRANCH   7  27
ATOM     27  O   UNL     1     -21.674 -25.925 -17.728  1.00  0.00    -0.507 OA
ATOM     28  H   UNL     1     -21.359 -25.450 -16.895  1.00  0.00     0.293 HD
ENDBRANCH   7  27
TORSDOF 7
ENDMDL
MODEL 9
REMARK VINA RESULT:    -7.177      3.751      6.868
REMARK INTER + INTRA:          -9.123
REMARK INTER:                  -8.882
REMARK INTRA:                  -0.241
REMARK UNBOUND:                -0.267
REMARK SMILES Oc1cc(O)c2cc(O)c(-c3cc(O)c(O)c(O)c3)[o+]c2c1
REMARK SMILES IDX 10 1 20 2 21 3 22 4 2 5 3 6 4 7 6 8 7 9 8 10 11 11 12 12
REMARK SMILES IDX 13 13 19 14 15 15 17 16 14 17 16 19 18 21 9 23 1 25 5 27
REMARK H PARENT 14 18 16 20 18 22 9 24 1 26 5 28
REMARK Flexibility Score: inf
ROOT
ATOM      1  C   UNL     1     -24.582 -26.887 -22.445  1.00  0.00     0.402 A 
ATOM      2  O   UNL     1     -25.016 -26.968 -21.189  1.00  0.00    -0.202 OA
ATOM      3  C   UNL     1     -24.355 -26.459 -20.155  1.00  0.00     0.368 A 
ATOM      4  C   UNL     1     -24.894 -26.591 -18.873  1.00  0.00     0.162 A 
ATOM      5  C   UNL     1     -24.225 -26.064 -17.768  1.00  0.00     0.128 A 
ATOM      6  C   UNL     1     -23.006 -25.398 -17.945  1.00  0.00     0.093 A 
ATOM      7  C   UNL     1     -22.446 -25.251 -19.220  1.00  0.00     0.136 A 
ATOM      8  C   UNL     1     -23.123 -25.789 -20.345  1.00  0.00     0.125 A 
ATOM      9  C   UNL     1     -22.630 -25.702 -21.657  1.00  0.00     0.078 A 
ATOM     10  C   UNL     1     -23.352 -26.261 -22.716  1.00  0.00     0.223 A 
ENDROOT
BRANCH   1  11
ATOM     11  C   UNL     1     -25.413 -27.487 -23.514  1.00  0.00     0.091 A 
ATOM     12  C   UNL     1     -25.598 -28.876 -23.604  1.00  0.00     0.068 A 
ATOM     13  C   UNL     1     -26.369 -29.427 -24.638  1.00  0.00     0.162 A 
ATOM     14  C   UNL     1     -25.982 -26.657 -24.493  1.00  0.00     0.068 A 
ATOM     15  C   UNL     1     -26.954 -28.587 -25.599  1.00  0.00     0.200 A 
ATOM     16  C   UNL     1     -26.753 -27.198 -25.527  1.00  0.00     0.162 A 
BRANCH  13  17
ATOM     17  O   UNL     1     -26.552 -30.807 -24.712  1.00  0.00    -0.504 OA
ATOM     18  H   UNL     1     -27.112 -31.307 -24.032  1.00  0.00     0.293 HD
ENDBRANCH  13  17
BRANCH  15  19
ATOM     19  O   UNL     1     -27.729 -29.118 -26.632  1.00  0.00    -0.502 OA
ATOM     20  H   UNL     1     -28.555 -28.649 -26.983  1.00  0.00     0.293 HD
ENDBRANCH  15  19
BRANCH  16  21
ATOM     21  O   UNL     1     -27.313 -26.338 -26.471  1.00  0.00    -0.504 OA
ATOM     22  H   UNL     1     -27.313 -25.332 -26.351  1.00  0.00     0.293 HD
ENDBRANCH  16  21
ENDBRANCH   1  11
BRANCH  10  23
ATOM     23  O   UNL     1     -22.839 -26.217 -24.013  1.00  0.00    -0.500 OA
ATOM     24  H   UNL     1     -22.058 -25.619 -24.257  1.00  0.00     0.294 HD
ENDBRANCH  10  23
BRANCH   5  25
ATOM     25  O   UNL     1     -24.778 -26.207 -16.498  1.00  0.00    -0.507 OA
ATOM     26  H   UNL     1     -24.659 -25.496 -15.785  1.00  0.00     0.293 HD
ENDBRANCH   5  25
BRANCH   7  27
ATOM     27  O   UNL     1     -21.229 -24.570 -19.313  1.00  0.00    -0.507 OA
ATOM     28  H   UNL     1     -20.539 -24.730 -20.032  1.00  0.00     0.293 HD
ENDBRANCH   7  27
TORSDOF 7
ENDMDL
