MODEL 1
REMARK VINA RESULT:    -4.195      0.000      0.000
REMARK INTER + INTRA:          -4.607
REMARK INTER:                  -4.563
REMARK INTRA:                  -0.045
REMARK UNBOUND:                -0.045
REMARK SMILES COc1ccccc1O
REMARK SMILES IDX 3 1 4 2 5 3 6 4 7 5 8 6 2 7 1 8 9 9
REMARK H PARENT 9 10
REMARK Flexibility Score: inf
ROOT
ATOM      1  C   UNL     1      -6.080   1.443  -7.202  1.00  0.00     0.160 A 
ATOM      2  C   UNL     1      -7.381   1.244  -6.695  1.00  0.00     0.050 A 
ATOM      3  C   UNL     1      -7.859   2.037  -5.648  1.00  0.00     0.004 A 
ATOM      4  C   UNL     1      -7.051   3.032  -5.096  1.00  0.00     0.004 A 
ATOM      5  C   UNL     1      -5.761   3.238  -5.591  1.00  0.00     0.050 A 
ATOM      6  C   UNL     1      -5.271   2.450  -6.638  1.00  0.00     0.157 A 
ENDROOT
BRANCH   1   7
ATOM      7  O   UNL     1      -5.564   0.667  -8.252  1.00  0.00    -0.493 OA
ATOM      8  C   UNL     1      -5.972   0.777  -9.612  1.00  0.00     0.278 C 
ENDBRANCH   1   7
BRANCH   6   9
ATOM      9  O   UNL     1      -3.979   2.683  -7.108  1.00  0.00    -0.504 OA
ATOM     10  H   UNL     1      -3.627   3.618  -7.281  1.00  0.00     0.293 HD
ENDBRANCH   6   9
TORSDOF 2
ENDMDL
MODEL 2
REMARK VINA RESULT:    -4.089      9.035      9.762
REMARK INTER + INTRA:          -4.492
REMARK INTER:                  -4.467
REMARK INTRA:                  -0.025
REMARK UNBOUND:                -0.045
REMARK SMILES COc1ccccc1O
REMARK SMILES IDX 3 1 4 2 5 3 6 4 7 5 8 6 2 7 1 8 9 9
REMARK H PARENT 9 10
REMARK Flexibility Score: inf
ROOT
ATOM      1  C   UNL     1       0.176   0.148  -0.129  1.00  0.00     0.160 A 
ATOM      2  C   UNL     1      -1.113  -0.386   0.073  1.00  0.00     0.050 A 
ATOM      3  C   UNL     1      -1.680  -0.398   1.350  1.00  0.00     0.004 A 
ATOM      4  C   UNL     1      -0.973   0.118   2.437  1.00  0.00     0.004 A 
ATOM      5  C   UNL     1       0.305   0.650   2.249  1.00  0.00     0.050 A 
ATOM      6  C   UNL     1       0.883   0.668   0.974  1.00  0.00     0.157 A 
ENDROOT
BRANCH   1   7
ATOM      7  O   UNL     1       0.779   0.179  -1.396  1.00  0.00    -0.493 OA
ATOM      8  C   UNL     1       0.228  -0.419  -2.566  1.00  0.00     0.278 C 
ENDBRANCH   1   7
BRANCH   6   9
ATOM      9  O   UNL     1       2.160   1.206   0.822  1.00  0.00    -0.504 OA
ATOM     10  H   UNL     1       2.801   1.308   1.602  1.00  0.00     0.293 HD
ENDBRANCH   6   9
TORSDOF 2
ENDMDL
MODEL 3
REMARK VINA RESULT:    -4.083      9.682     10.364
REMARK INTER + INTRA:          -4.485
REMARK INTER:                  -4.454
REMARK INTRA:                  -0.031
REMARK UNBOUND:                -0.045
REMARK SMILES COc1ccccc1O
REMARK SMILES IDX 3 1 4 2 5 3 6 4 7 5 8 6 2 7 1 8 9 9
REMARK H PARENT 9 10
REMARK Flexibility Score: inf
ROOT
ATOM      1  C   UNL     1      -0.690  -0.574   1.255  1.00  0.00     0.160 A 
ATOM      2  C   UNL     1      -1.792  -1.375   0.888  1.00  0.00     0.050 A 
ATOM      3  C   UNL     1      -2.822  -1.619   1.801  1.00  0.00     0.004 A 
ATOM      4  C   UNL     1      -2.768  -1.071   3.083  1.00  0.00     0.004 A 
ATOM      5  C   UNL     1      -1.682  -0.276   3.457  1.00  0.00     0.050 A 
ATOM      6  C   UNL     1      -0.644  -0.025   2.552  1.00  0.00     0.157 A 
ENDROOT
BRANCH   1   7
ATOM      7  O   UNL     1       0.363  -0.307   0.367  1.00  0.00    -0.493 OA
ATOM      8  C   UNL     1       0.194   0.055  -1.001  1.00  0.00     0.278 C 
ENDBRANCH   1   7
BRANCH   6   9
ATOM      9  O   UNL     1       0.424   0.774   2.958  1.00  0.00    -0.504 OA
ATOM     10  H   UNL     1       0.331   1.775   3.089  1.00  0.00     0.293 HD
ENDBRANCH   6   9
TORSDOF 2
ENDMDL
MODEL 4
REMARK VINA RESULT:    -3.969      8.514      9.226
REMARK INTER + INTRA:          -4.362
REMARK INTER:                  -4.317
REMARK INTRA:                  -0.044
REMARK UNBOUND:                -0.045
REMARK SMILES COc1ccccc1O
REMARK SMILES IDX 3 1 4 2 5 3 6 4 7 5 8 6 2 7 1 8 9 9
REMARK H PARENT 9 10
REMARK Flexibility Score: inf
ROOT
ATOM      1  C   UNL     1      -0.494  -1.425  -0.617  1.00  0.00     0.160 A 
ATOM      2  C   UNL     1      -0.832  -2.549  -1.398  1.00  0.00     0.050 A 
ATOM      3  C   UNL     1      -0.532  -2.577  -2.763  1.00  0.00     0.004 A 
ATOM      4  C   UNL     1       0.106  -1.490  -3.363  1.00  0.00     0.004 A 
ATOM      5  C   UNL     1       0.446  -0.371  -2.599  1.00  0.00     0.050 A 
ATOM      6  C   UNL     1       0.150  -0.332  -1.231  1.00  0.00     0.157 A 
ENDROOT
BRANCH   1   7
ATOM      7  O   UNL     1      -0.778  -1.360   0.756  1.00  0.00    -0.493 OA
ATOM      8  C   UNL     1      -2.024  -0.937   1.303  1.00  0.00     0.278 C 
ENDBRANCH   1   7
BRANCH   6   9
ATOM      9  O   UNL     1       0.503   0.800  -0.499  1.00  0.00    -0.504 OA
ATOM     10  H   UNL     1      -0.162   1.298   0.082  1.00  0.00     0.293 HD
ENDBRANCH   6   9
TORSDOF 2
ENDMDL
MODEL 5
REMARK VINA RESULT:    -3.952      9.704     10.593
REMARK INTER + INTRA:          -4.343
REMARK INTER:                  -4.298
REMARK INTRA:                  -0.045
REMARK UNBOUND:                -0.045
REMARK SMILES COc1ccccc1O
REMARK SMILES IDX 3 1 4 2 5 3 6 4 7 5 8 6 2 7 1 8 9 9
REMARK H PARENT 9 10
REMARK Flexibility Score: inf
ROOT
ATOM      1  C   UNL     1      -0.992  -1.032   1.578  1.00  0.00     0.160 A 
ATOM      2  C   UNL     1      -1.209  -1.412   0.238  1.00  0.00     0.050 A 
ATOM      3  C   UNL     1      -0.465  -0.828  -0.791  1.00  0.00     0.004 A 
ATOM      4  C   UNL     1       0.500   0.137  -0.498  1.00  0.00     0.004 A 
ATOM      5  C   UNL     1       0.724   0.520   0.826  1.00  0.00     0.050 A 
ATOM      6  C   UNL     1      -0.016  -0.057   1.865  1.00  0.00     0.157 A 
ENDROOT
BRANCH   1   7
ATOM      7  O   UNL     1      -1.720  -1.596   2.638  1.00  0.00    -0.493 OA
ATOM      8  C   UNL     1      -3.074  -1.277   2.947  1.00  0.00     0.278 C 
ENDBRANCH   1   7
BRANCH   6   9
ATOM      9  O   UNL     1       0.233   0.349   3.175  1.00  0.00    -0.504 OA
ATOM     10  H   UNL     1       0.031   1.288   3.498  1.00  0.00     0.293 HD
ENDBRANCH   6   9
TORSDOF 2
ENDMDL
MODEL 6
REMARK VINA RESULT:    -3.938      8.486      9.289
REMARK INTER + INTRA:          -4.328
REMARK INTER:                  -4.298
REMARK INTRA:                  -0.029
REMARK UNBOUND:                -0.045
REMARK SMILES COc1ccccc1O
REMARK SMILES IDX 3 1 4 2 5 3 6 4 7 5 8 6 2 7 1 8 9 9
REMARK H PARENT 9 10
REMARK Flexibility Score: inf
ROOT
ATOM      1  C   UNL     1      -0.809  -1.593  -0.784  1.00  0.00     0.160 A 
ATOM      2  C   UNL     1      -0.018  -0.492  -1.172  1.00  0.00     0.050 A 
ATOM      3  C   UNL     1       0.481  -0.405  -2.474  1.00  0.00     0.004 A 
ATOM      4  C   UNL     1       0.201  -1.409  -3.401  1.00  0.00     0.004 A 
ATOM      5  C   UNL     1      -0.581  -2.505  -3.029  1.00  0.00     0.050 A 
ATOM      6  C   UNL     1      -1.087  -2.603  -1.727  1.00  0.00     0.157 A 
ENDROOT
BRANCH   1   7
ATOM      7  O   UNL     1      -1.328  -1.716   0.514  1.00  0.00    -0.493 OA
ATOM      8  C   UNL     1      -1.838  -0.632   1.285  1.00  0.00     0.278 C 
ENDBRANCH   1   7
BRANCH   6   9
ATOM      9  O   UNL     1      -1.864  -3.710  -1.390  1.00  0.00    -0.504 OA
ATOM     10  H   UNL     1      -1.505  -4.470  -0.822  1.00  0.00     0.293 HD
ENDBRANCH   6   9
TORSDOF 2
ENDMDL
MODEL 7
REMARK VINA RESULT:    -3.917      8.385      9.016
REMARK INTER + INTRA:          -4.305
REMARK INTER:                  -4.259
REMARK INTRA:                  -0.046
REMARK UNBOUND:                -0.045
REMARK SMILES COc1ccccc1O
REMARK SMILES IDX 3 1 4 2 5 3 6 4 7 5 8 6 2 7 1 8 9 9
REMARK H PARENT 9 10
REMARK Flexibility Score: inf
ROOT
ATOM      1  C   UNL     1      -1.140  -2.248  -1.049  1.00  0.00     0.160 A 
ATOM      2  C   UNL     1      -0.700  -1.390  -0.020  1.00  0.00     0.050 A 
ATOM      3  C   UNL     1       0.055  -0.253  -0.324  1.00  0.00     0.004 A 
ATOM      4  C   UNL     1       0.379   0.040  -1.649  1.00  0.00     0.004 A 
ATOM      5  C   UNL     1      -0.052  -0.802  -2.676  1.00  0.00     0.050 A 
ATOM      6  C   UNL     1      -0.808  -1.944  -2.384  1.00  0.00     0.157 A 
ENDROOT
BRANCH   1   7
ATOM      7  O   UNL     1      -1.900  -3.398  -0.784  1.00  0.00    -0.493 OA
ATOM      8  C   UNL     1      -1.355  -4.647  -0.369  1.00  0.00     0.278 C 
ENDBRANCH   1   7
BRANCH   6   9
ATOM      9  O   UNL     1      -1.223  -2.762  -3.434  1.00  0.00    -0.504 OA
ATOM     10  H   UNL     1      -0.913  -2.616  -4.388  1.00  0.00     0.293 HD
ENDBRANCH   6   9
TORSDOF 2
ENDMDL
MODEL 8
REMARK VINA RESULT:    -3.900      1.299      3.156
REMARK INTER + INTRA:          -4.287
REMARK INTER:                  -4.244
REMARK INTRA:                  -0.042
REMARK UNBOUND:                -0.045
REMARK SMILES COc1ccccc1O
REMARK SMILES IDX 3 1 4 2 5 3 6 4 7 5 8 6 2 7 1 8 9 9
REMARK H PARENT 9 10
REMARK Flexibility Score: inf
ROOT
ATOM      1  C   UNL     1      -5.745   3.360  -5.594  1.00  0.00     0.160 A 
ATOM      2  C   UNL     1      -7.049   3.110  -5.120  1.00  0.00     0.050 A 
ATOM      3  C   UNL     1      -7.795   2.045  -5.634  1.00  0.00     0.004 A 
ATOM      4  C   UNL     1      -7.253   1.220  -6.620  1.00  0.00     0.004 A 
ATOM      5  C   UNL     1      -5.962   1.458  -7.097  1.00  0.00     0.050 A 
ATOM      6  C   UNL     1      -5.206   2.522  -6.591  1.00  0.00     0.157 A 
ENDROOT
BRANCH   1   7
ATOM      7  O   UNL     1      -4.966   4.419  -5.104  1.00  0.00    -0.493 OA
ATOM      8  C   UNL     1      -5.009   5.752  -5.605  1.00  0.00     0.278 C 
ENDBRANCH   1   7
BRANCH   6   9
ATOM      9  O   UNL     1      -3.920   2.731  -7.089  1.00  0.00    -0.504 OA
ATOM     10  H   UNL     1      -3.169   3.091  -6.512  1.00  0.00     0.293 HD
ENDBRANCH   6   9
TORSDOF 2
ENDMDL
MODEL 9
REMARK VINA RESULT:    -3.798      9.591     10.116
REMARK INTER + INTRA:          -4.175
REMARK INTER:                  -4.149
REMARK INTRA:                  -0.026
REMARK UNBOUND:                -0.045
REMARK SMILES COc1ccccc1O
REMARK SMILES IDX 3 1 4 2 5 3 6 4 7 5 8 6 2 7 1 8 9 9
REMARK H PARENT 9 10
REMARK Flexibility Score: inf
ROOT
ATOM      1  C   UNL     1      -1.332  -1.441   0.972  1.00  0.00     0.160 A 
ATOM      2  C   UNL     1      -2.495  -1.637   1.745  1.00  0.00     0.050 A 
ATOM      3  C   UNL     1      -2.696  -0.901   2.916  1.00  0.00     0.004 A 
ATOM      4  C   UNL     1      -1.746   0.034   3.329  1.00  0.00     0.004 A 
ATOM      5  C   UNL     1      -0.590   0.236   2.571  1.00  0.00     0.050 A 
ATOM      6  C   UNL     1      -0.377  -0.496   1.397  1.00  0.00     0.157 A 
ENDROOT
BRANCH   1   7
ATOM      7  O   UNL     1      -1.094  -2.161  -0.210  1.00  0.00    -0.493 OA
ATOM      8  C   UNL     1      -1.667  -3.430  -0.511  1.00  0.00     0.278 C 
ENDBRANCH   1   7
BRANCH   6   9
ATOM      9  O   UNL     1       0.787  -0.268   0.665  1.00  0.00    -0.504 OA
ATOM     10  H   UNL     1       1.460   0.443   0.927  1.00  0.00     0.293 HD
ENDBRANCH   6   9
TORSDOF 2
ENDMDL
