MODEL 1
REMARK VINA RESULT:    -5.358      0.000      0.000
REMARK INTER + INTRA:         -14.915
REMARK INTER:                 -12.249
REMARK INTRA:                  -2.665
REMARK UNBOUND:                -2.665
REMARK SMILES CCCCCCCCCCCCCCCCCCCCCCCC(=O)[O-]
REMARK SMILES IDX 13 1 14 2 15 3 16 4 17 5 18 6 19 7 20 8 21 9 22 10 23 11
REMARK SMILES IDX 24 12 25 13 26 14 12 15 11 16 10 17 9 18 8 19 7 20 6 21 5 22
REMARK SMILES IDX 4 23 3 24 2 25 1 26
REMARK H PARENT
REMARK Flexibility Score: inf
ROOT
ATOM      1  C   UNL     1      16.193  -4.989  34.110  1.00  0.00     0.000 C 
ENDROOT
BRANCH   1   2
ATOM      2  C   UNL     1      16.962  -5.299  35.408  1.00  0.00     0.000 C 
BRANCH   2   3
ATOM      3  C   UNL     1      17.606  -6.696  35.475  1.00  0.00     0.000 C 
BRANCH   3   4
ATOM      4  C   UNL     1      19.074  -6.705  35.018  1.00  0.00     0.000 C 
BRANCH   4   5
ATOM      5  C   UNL     1      19.239  -7.197  33.571  1.00  0.00     0.000 C 
BRANCH   5   6
ATOM      6  C   UNL     1      20.003  -6.191  32.692  1.00  0.00     0.000 C 
BRANCH   6   7
ATOM      7  C   UNL     1      19.581  -4.736  32.957  1.00  0.00     0.000 C 
BRANCH   7   8
ATOM      8  C   UNL     1      20.758  -3.843  33.378  1.00  0.00     0.000 C 
BRANCH   8   9
ATOM      9  C   UNL     1      20.442  -3.096  34.681  1.00  0.00     0.000 C 
BRANCH   9  10
ATOM     10  C   UNL     1      19.075  -2.386  34.655  1.00  0.00     0.006 C 
BRANCH  10  11
ATOM     11  C   UNL     1      18.747  -1.613  35.944  1.00  0.00     0.053 C 
BRANCH  11  12
ATOM     12  C   UNL     1      19.439  -0.287  36.018  1.00  0.00     0.041 C 
ATOM     13  O   UNL     1      19.210   0.600  35.153  1.00  0.00    -0.550 OA
ATOM     14  O   UNL     1      20.363  -0.038  37.026  1.00  0.00    -0.550 OA
ENDBRANCH  11  12
ENDBRANCH  10  11
ENDBRANCH   9  10
ENDBRANCH   8   9
ENDBRANCH   7   8
ENDBRANCH   6   7
ENDBRANCH   5   6
ENDBRANCH   4   5
ENDBRANCH   3   4
ENDBRANCH   2   3
ENDBRANCH   1   2
BRANCH   1  15
ATOM     15  C   UNL     1      15.730  -6.255  33.369  1.00  0.00     0.000 C 
BRANCH  15  16
ATOM     16  C   UNL     1      16.197  -6.300  31.902  1.00  0.00     0.000 C 
BRANCH  16  17
ATOM     17  C   UNL     1      16.261  -4.937  31.188  1.00  0.00     0.000 C 
BRANCH  17  18
ATOM     18  C   UNL     1      15.648  -4.967  29.778  1.00  0.00    -0.000 C 
BRANCH  18  19
ATOM     19  C   UNL     1      15.519  -3.565  29.160  1.00  0.00    -0.000 C 
BRANCH  19  20
ATOM     20  C   UNL     1      16.070  -3.498  27.724  1.00  0.00    -0.000 C 
BRANCH  20  21
ATOM     21  C   UNL     1      16.022  -2.076  27.141  1.00  0.00    -0.000 C 
BRANCH  21  22
ATOM     22  C   UNL     1      14.748  -1.817  26.318  1.00  0.00    -0.000 C 
BRANCH  22  23
ATOM     23  C   UNL     1      13.826  -0.774  26.970  1.00  0.00    -0.000 C 
BRANCH  23  24
ATOM     24  C   UNL     1      13.675   0.500  26.120  1.00  0.00    -0.000 C 
BRANCH  24  25
ATOM     25  C   UNL     1      14.778   1.531  26.405  1.00  0.00    -0.003 C 
ATOM     26  C   UNL     1      15.842   1.573  25.309  1.00  0.00     0.004 C 
ENDBRANCH  24  25
ENDBRANCH  23  24
ENDBRANCH  22  23
ENDBRANCH  21  22
ENDBRANCH  20  21
ENDBRANCH  19  20
ENDBRANCH  18  19
ENDBRANCH  17  18
ENDBRANCH  16  17
ENDBRANCH  15  16
ENDBRANCH   1  15
TORSDOF 22
ENDMDL
MODEL 2
REMARK VINA RESULT:    -5.281      1.218      2.185
REMARK INTER + INTRA:         -14.740
REMARK INTER:                 -11.919
REMARK INTRA:                  -2.820
REMARK UNBOUND:                -2.665
REMARK SMILES CCCCCCCCCCCCCCCCCCCCCCCC(=O)[O-]
REMARK SMILES IDX 13 1 14 2 15 3 16 4 17 5 18 6 19 7 20 8 21 9 22 10 23 11
REMARK SMILES IDX 24 12 25 13 26 14 12 15 11 16 10 17 9 18 8 19 7 20 6 21 5 22
REMARK SMILES IDX 4 23 3 24 2 25 1 26
REMARK H PARENT
REMARK Flexibility Score: inf
ROOT
ATOM      1  C   UNL     1      15.934  -6.773  32.501  1.00  0.00     0.000 C 
ENDROOT
BRANCH   1   2
ATOM      2  C   UNL     1      16.011  -6.747  34.038  1.00  0.00     0.000 C 
BRANCH   2   3
ATOM      3  C   UNL     1      15.926  -5.349  34.678  1.00  0.00     0.000 C 
BRANCH   3   4
ATOM      4  C   UNL     1      16.813  -5.204  35.926  1.00  0.00     0.000 C 
BRANCH   4   5
ATOM      5  C   UNL     1      17.870  -6.316  36.032  1.00  0.00     0.000 C 
BRANCH   5   6
ATOM      6  C   UNL     1      19.264  -5.846  35.578  1.00  0.00     0.000 C 
BRANCH   6   7
ATOM      7  C   UNL     1      19.588  -6.263  34.134  1.00  0.00     0.000 C 
BRANCH   7   8
ATOM      8  C   UNL     1      19.546  -5.083  33.152  1.00  0.00     0.000 C 
BRANCH   8   9
ATOM      9  C   UNL     1      19.963  -3.777  33.844  1.00  0.00     0.000 C 
BRANCH   9  10
ATOM     10  C   UNL     1      18.818  -2.751  33.937  1.00  0.00     0.006 C 
BRANCH  10  11
ATOM     11  C   UNL     1      18.600  -2.185  35.352  1.00  0.00     0.053 C 
BRANCH  11  12
ATOM     12  C   UNL     1      19.227  -0.838  35.541  1.00  0.00     0.041 C 
ATOM     13  O   UNL     1      18.552   0.210  35.358  1.00  0.00    -0.550 OA
ATOM     14  O   UNL     1      20.568  -0.736  35.890  1.00  0.00    -0.550 OA
ENDBRANCH  11  12
ENDBRANCH  10  11
ENDBRANCH   9  10
ENDBRANCH   8   9
ENDBRANCH   7   8
ENDBRANCH   6   7
ENDBRANCH   5   6
ENDBRANCH   4   5
ENDBRANCH   3   4
ENDBRANCH   2   3
ENDBRANCH   1   2
BRANCH   1  15
ATOM     15  C   UNL     1      16.364  -5.446  31.854  1.00  0.00     0.000 C 
BRANCH  15  16
ATOM     16  C   UNL     1      15.876  -5.297  30.401  1.00  0.00     0.000 C 
BRANCH  16  17
ATOM     17  C   UNL     1      15.840  -3.856  29.860  1.00  0.00     0.000 C 
BRANCH  17  18
ATOM     18  C   UNL     1      15.416  -3.777  28.385  1.00  0.00    -0.000 C 
BRANCH  18  19
ATOM     19  C   UNL     1      16.224  -2.736  27.592  1.00  0.00    -0.000 C 
BRANCH  19  20
ATOM     20  C   UNL     1      15.578  -2.390  26.238  1.00  0.00    -0.000 C 
BRANCH  20  21
ATOM     21  C   UNL     1      14.967  -0.979  26.221  1.00  0.00    -0.000 C 
BRANCH  21  22
ATOM     22  C   UNL     1      13.449  -0.990  26.476  1.00  0.00    -0.000 C 
BRANCH  22  23
ATOM     23  C   UNL     1      12.923   0.370  26.962  1.00  0.00    -0.000 C 
BRANCH  23  24
ATOM     24  C   UNL     1      13.821   1.004  28.039  1.00  0.00    -0.000 C 
BRANCH  24  25
ATOM     25  C   UNL     1      13.642   0.344  29.415  1.00  0.00    -0.003 C 
ATOM     26  C   UNL     1      14.927  -0.305  29.929  1.00  0.00     0.004 C 
ENDBRANCH  24  25
ENDBRANCH  23  24
ENDBRANCH  22  23
ENDBRANCH  21  22
ENDBRANCH  20  21
ENDBRANCH  19  20
ENDBRANCH  18  19
ENDBRANCH  17  18
ENDBRANCH  16  17
ENDBRANCH  15  16
ENDBRANCH   1  15
TORSDOF 22
ENDMDL
MODEL 3
REMARK VINA RESULT:    -5.201      9.298     15.847
REMARK INTER + INTRA:         -14.556
REMARK INTER:                 -12.115
REMARK INTRA:                  -2.441
REMARK UNBOUND:                -2.665
REMARK SMILES CCCCCCCCCCCCCCCCCCCCCCCC(=O)[O-]
REMARK SMILES IDX 13 1 14 2 15 3 16 4 17 5 18 6 19 7 20 8 21 9 22 10 23 11
REMARK SMILES IDX 24 12 25 13 26 14 12 15 11 16 10 17 9 18 8 19 7 20 6 21 5 22
REMARK SMILES IDX 4 23 3 24 2 25 1 26
REMARK H PARENT
REMARK Flexibility Score: inf
ROOT
ATOM      1  C   UNL     1      12.737   4.494  22.654  1.00  0.00     0.000 C 
ENDROOT
BRANCH   1   2
ATOM      2  C   UNL     1      12.215   5.829  22.093  1.00  0.00     0.000 C 
BRANCH   2   3
ATOM      3  C   UNL     1      11.456   5.729  20.756  1.00  0.00     0.000 C 
BRANCH   3   4
ATOM      4  C   UNL     1      12.191   4.876  19.709  1.00  0.00     0.000 C 
BRANCH   4   5
ATOM      5  C   UNL     1      12.506   5.662  18.425  1.00  0.00     0.000 C 
BRANCH   5   6
ATOM      6  C   UNL     1      12.050   7.129  18.507  1.00  0.00     0.000 C 
BRANCH   6   7
ATOM      7  C   UNL     1      10.891   7.442  17.546  1.00  0.00     0.000 C 
BRANCH   7   8
ATOM      8  C   UNL     1       9.554   7.647  18.274  1.00  0.00     0.000 C 
BRANCH   8   9
ATOM      9  C   UNL     1       8.526   6.592  17.842  1.00  0.00     0.000 C 
BRANCH   9  10
ATOM     10  C   UNL     1       9.154   5.211  17.574  1.00  0.00     0.006 C 
BRANCH  10  11
ATOM     11  C   UNL     1       8.805   4.149  18.632  1.00  0.00     0.053 C 
BRANCH  11  12
ATOM     12  C   UNL     1       9.421   2.815  18.341  1.00  0.00     0.041 C 
ATOM     13  O   UNL     1       9.136   1.814  19.051  1.00  0.00    -0.550 OA
ATOM     14  O   UNL     1      10.334   2.681  17.303  1.00  0.00    -0.550 OA
ENDBRANCH  11  12
ENDBRANCH  10  11
ENDBRANCH   9  10
ENDBRANCH   8   9
ENDBRANCH   7   8
ENDBRANCH   6   7
ENDBRANCH   5   6
ENDBRANCH   4   5
ENDBRANCH   3   4
ENDBRANCH   2   3
ENDBRANCH   1   2
BRANCH   1  15
ATOM     15  C   UNL     1      13.629   4.671  23.895  1.00  0.00     0.000 C 
BRANCH  15  16
ATOM     16  C   UNL     1      13.882   3.352  24.649  1.00  0.00     0.000 C 
BRANCH  16  17
ATOM     17  C   UNL     1      15.257   2.704  24.402  1.00  0.00     0.000 C 
BRANCH  17  18
ATOM     18  C   UNL     1      15.514   1.480  25.297  1.00  0.00    -0.000 C 
BRANCH  18  19
ATOM     19  C   UNL     1      15.011   1.683  26.736  1.00  0.00    -0.000 C 
BRANCH  19  20
ATOM     20  C   UNL     1      14.597   0.363  27.410  1.00  0.00    -0.000 C 
BRANCH  20  21
ATOM     21  C   UNL     1      14.591  -0.822  26.431  1.00  0.00    -0.000 C 
BRANCH  21  22
ATOM     22  C   UNL     1      13.179  -1.155  25.915  1.00  0.00    -0.000 C 
BRANCH  22  23
ATOM     23  C   UNL     1      12.080  -0.390  26.670  1.00  0.00    -0.000 C 
BRANCH  23  24
ATOM     24  C   UNL     1      11.363   0.647  25.788  1.00  0.00    -0.000 C 
BRANCH  24  25
ATOM     25  C   UNL     1      12.048   0.830  24.424  1.00  0.00    -0.003 C 
ATOM     26  C   UNL     1      11.125   0.500  23.252  1.00  0.00     0.004 C 
ENDBRANCH  24  25
ENDBRANCH  23  24
ENDBRANCH  22  23
ENDBRANCH  21  22
ENDBRANCH  20  21
ENDBRANCH  19  20
ENDBRANCH  18  19
ENDBRANCH  17  18
ENDBRANCH  16  17
ENDBRANCH  15  16
ENDBRANCH   1  15
TORSDOF 22
ENDMDL
MODEL 4
REMARK VINA RESULT:    -5.169      3.423      5.177
REMARK INTER + INTRA:         -14.481
REMARK INTER:                 -11.553
REMARK INTRA:                  -2.928
REMARK UNBOUND:                -2.665
REMARK SMILES CCCCCCCCCCCCCCCCCCCCCCCC(=O)[O-]
REMARK SMILES IDX 13 1 14 2 15 3 16 4 17 5 18 6 19 7 20 8 21 9 22 10 23 11
REMARK SMILES IDX 24 12 25 13 26 14 12 15 11 16 10 17 9 18 8 19 7 20 6 21 5 22
REMARK SMILES IDX 4 23 3 24 2 25 1 26
REMARK H PARENT
REMARK Flexibility Score: inf
ROOT
ATOM      1  C   UNL     1      16.567  -4.940  31.681  1.00  0.00     0.000 C 
ENDROOT
BRANCH   1   2
ATOM      2  C   UNL     1      16.732  -4.374  33.103  1.00  0.00     0.000 C 
BRANCH   2   3
ATOM      3  C   UNL     1      18.111  -3.763  33.413  1.00  0.00     0.000 C 
BRANCH   3   4
ATOM      4  C   UNL     1      18.435  -3.742  34.917  1.00  0.00     0.000 C 
BRANCH   4   5
ATOM      5  C   UNL     1      17.312  -4.354  35.771  1.00  0.00     0.000 C 
BRANCH   5   6
ATOM      6  C   UNL     1      17.737  -5.673  36.440  1.00  0.00     0.000 C 
BRANCH   6   7
ATOM      7  C   UNL     1      19.099  -6.179  35.938  1.00  0.00     0.000 C 
BRANCH   7   8
ATOM      8  C   UNL     1      18.984  -7.463  35.102  1.00  0.00     0.000 C 
BRANCH   8   9
ATOM      9  C   UNL     1      19.321  -7.192  33.629  1.00  0.00     0.000 C 
BRANCH   9  10
ATOM     10  C   UNL     1      18.408  -7.953  32.649  1.00  0.00     0.006 C 
BRANCH  10  11
ATOM     11  C   UNL     1      16.929  -7.991  33.075  1.00  0.00     0.053 C 
BRANCH  11  12
ATOM     12  C   UNL     1      16.068  -8.750  32.113  1.00  0.00     0.041 C 
ATOM     13  O   UNL     1      15.114  -9.457  32.533  1.00  0.00    -0.550 OA
ATOM     14  O   UNL     1      16.336  -8.701  30.750  1.00  0.00    -0.550 OA
ENDBRANCH  11  12
ENDBRANCH  10  11
ENDBRANCH   9  10
ENDBRANCH   8   9
ENDBRANCH   7   8
ENDBRANCH   6   7
ENDBRANCH   5   6
ENDBRANCH   4   5
ENDBRANCH   3   4
ENDBRANCH   2   3
ENDBRANCH   1   2
BRANCH   1  15
ATOM     15  C   UNL     1      16.245  -3.858  30.636  1.00  0.00     0.000 C 
BRANCH  15  16
ATOM     16  C   UNL     1      15.606  -4.427  29.356  1.00  0.00     0.000 C 
BRANCH  16  17
ATOM     17  C   UNL     1      15.123  -3.379  28.337  1.00  0.00     0.000 C 
BRANCH  17  18
ATOM     18  C   UNL     1      16.235  -2.908  27.385  1.00  0.00    -0.000 C 
BRANCH  18  19
ATOM     19  C   UNL     1      15.735  -1.887  26.349  1.00  0.00    -0.000 C 
BRANCH  19  20
ATOM     20  C   UNL     1      14.199  -1.801  26.298  1.00  0.00    -0.000 C 
BRANCH  20  21
ATOM     21  C   UNL     1      13.693  -0.351  26.220  1.00  0.00    -0.000 C 
BRANCH  21  22
ATOM     22  C   UNL     1      14.813   0.679  26.451  1.00  0.00    -0.000 C 
BRANCH  22  23
ATOM     23  C   UNL     1      14.814   1.239  27.882  1.00  0.00    -0.000 C 
BRANCH  23  24
ATOM     24  C   UNL     1      13.521   0.910  28.649  1.00  0.00    -0.000 C 
BRANCH  24  25
ATOM     25  C   UNL     1      13.789   0.119  29.939  1.00  0.00    -0.003 C 
ATOM     26  C   UNL     1      15.255  -0.283  30.090  1.00  0.00     0.004 C 
ENDBRANCH  24  25
ENDBRANCH  23  24
ENDBRANCH  22  23
ENDBRANCH  21  22
ENDBRANCH  20  21
ENDBRANCH  19  20
ENDBRANCH  18  19
ENDBRANCH  17  18
ENDBRANCH  16  17
ENDBRANCH  15  16
ENDBRANCH   1  15
TORSDOF 22
ENDMDL
MODEL 5
REMARK VINA RESULT:    -5.139      9.506     16.560
REMARK INTER + INTRA:         -14.413
REMARK INTER:                 -11.874
REMARK INTRA:                  -2.539
REMARK UNBOUND:                -2.665
REMARK SMILES CCCCCCCCCCCCCCCCCCCCCCCC(=O)[O-]
REMARK SMILES IDX 13 1 14 2 15 3 16 4 17 5 18 6 19 7 20 8 21 9 22 10 23 11
REMARK SMILES IDX 24 12 25 13 26 14 12 15 11 16 10 17 9 18 8 19 7 20 6 21 5 22
REMARK SMILES IDX 4 23 3 24 2 25 1 26
REMARK H PARENT
REMARK Flexibility Score: inf
ROOT
ATOM      1  C   UNL     1      11.349   5.537  21.337  1.00  0.00     0.000 C 
ENDROOT
BRANCH   1   2
ATOM      2  C   UNL     1      10.413   6.759  21.339  1.00  0.00     0.000 C 
BRANCH   2   3
ATOM      3  C   UNL     1      10.631   7.758  20.188  1.00  0.00     0.000 C 
BRANCH   3   4
ATOM      4  C   UNL     1      11.797   7.367  19.265  1.00  0.00     0.000 C 
BRANCH   4   5
ATOM      5  C   UNL     1      11.406   7.394  17.777  1.00  0.00     0.000 C 
BRANCH   5   6
ATOM      6  C   UNL     1       9.881   7.437  17.572  1.00  0.00     0.000 C 
BRANCH   6   7
ATOM      7  C   UNL     1       9.323   6.117  17.013  1.00  0.00     0.000 C 
BRANCH   7   8
ATOM      8  C   UNL     1       8.177   5.549  17.864  1.00  0.00     0.000 C 
BRANCH   8   9
ATOM      9  C   UNL     1       8.720   4.670  18.999  1.00  0.00     0.000 C 
BRANCH   9  10
ATOM     10  C   UNL     1       9.769   3.646  18.522  1.00  0.00     0.006 C 
BRANCH  10  11
ATOM     11  C   UNL     1       9.528   2.218  19.042  1.00  0.00     0.053 C 
BRANCH  11  12
ATOM     12  C   UNL     1       8.450   1.501  18.290  1.00  0.00     0.041 C 
ATOM     13  O   UNL     1       8.744   0.709  17.355  1.00  0.00    -0.550 OA
ATOM     14  O   UNL     1       7.115   1.729  18.600  1.00  0.00    -0.550 OA
ENDBRANCH  11  12
ENDBRANCH  10  11
ENDBRANCH   9  10
ENDBRANCH   8   9
ENDBRANCH   7   8
ENDBRANCH   6   7
ENDBRANCH   5   6
ENDBRANCH   4   5
ENDBRANCH   3   4
ENDBRANCH   2   3
ENDBRANCH   1   2
BRANCH   1  15
ATOM     15  C   UNL     1      12.543   5.692  22.294  1.00  0.00     0.000 C 
BRANCH  15  16
ATOM     16  C   UNL     1      13.058   4.347  22.839  1.00  0.00     0.000 C 
BRANCH  16  17
ATOM     17  C   UNL     1      13.749   4.412  24.214  1.00  0.00     0.000 C 
BRANCH  17  18
ATOM     18  C   UNL     1      13.893   3.034  24.880  1.00  0.00    -0.000 C 
BRANCH  18  19
ATOM     19  C   UNL     1      15.140   2.272  24.399  1.00  0.00    -0.000 C 
BRANCH  19  20
ATOM     20  C   UNL     1      15.714   1.334  25.476  1.00  0.00    -0.000 C 
BRANCH  20  21
ATOM     21  C   UNL     1      14.988   1.474  26.825  1.00  0.00    -0.000 C 
BRANCH  21  22
ATOM     22  C   UNL     1      14.655   0.112  27.459  1.00  0.00    -0.000 C 
BRANCH  22  23
ATOM     23  C   UNL     1      13.141  -0.132  27.570  1.00  0.00    -0.000 C 
BRANCH  23  24
ATOM     24  C   UNL     1      12.495  -0.479  26.217  1.00  0.00    -0.000 C 
BRANCH  24  25
ATOM     25  C   UNL     1      11.564   0.632  25.709  1.00  0.00    -0.003 C 
ATOM     26  C   UNL     1      11.368   0.591  24.193  1.00  0.00     0.004 C 
ENDBRANCH  24  25
ENDBRANCH  23  24
ENDBRANCH  22  23
ENDBRANCH  21  22
ENDBRANCH  20  21
ENDBRANCH  19  20
ENDBRANCH  18  19
ENDBRANCH  17  18
ENDBRANCH  16  17
ENDBRANCH  15  16
ENDBRANCH   1  15
TORSDOF 22
ENDMDL
MODEL 6
REMARK VINA RESULT:    -5.116      1.791      3.200
REMARK INTER + INTRA:         -14.360
REMARK INTER:                 -11.719
REMARK INTRA:                  -2.641
REMARK UNBOUND:                -2.665
REMARK SMILES CCCCCCCCCCCCCCCCCCCCCCCC(=O)[O-]
REMARK SMILES IDX 13 1 14 2 15 3 16 4 17 5 18 6 19 7 20 8 21 9 22 10 23 11
REMARK SMILES IDX 24 12 25 13 26 14 12 15 11 16 10 17 9 18 8 19 7 20 6 21 5 22
REMARK SMILES IDX 4 23 3 24 2 25 1 26
REMARK H PARENT
REMARK Flexibility Score: inf
ROOT
ATOM      1  C   UNL     1      16.656  -5.294  31.885  1.00  0.00     0.000 C 
ENDROOT
BRANCH   1   2
ATOM      2  C   UNL     1      16.149  -6.414  32.812  1.00  0.00     0.000 C 
BRANCH   2   3
ATOM      3  C   UNL     1      17.193  -7.481  33.187  1.00  0.00     0.000 C 
BRANCH   3   4
ATOM      4  C   UNL     1      18.641  -6.986  33.036  1.00  0.00     0.000 C 
BRANCH   4   5
ATOM      5  C   UNL     1      19.404  -6.976  34.372  1.00  0.00     0.000 C 
BRANCH   5   6
ATOM      6  C   UNL     1      18.758  -7.895  35.423  1.00  0.00     0.000 C 
BRANCH   6   7
ATOM      7  C   UNL     1      18.389  -7.147  36.715  1.00  0.00     0.000 C 
BRANCH   7   8
ATOM      8  C   UNL     1      18.713  -5.647  36.646  1.00  0.00     0.000 C 
BRANCH   8   9
ATOM      9  C   UNL     1      17.492  -4.842  36.179  1.00  0.00     0.000 C 
BRANCH   9  10
ATOM     10  C   UNL     1      17.861  -3.456  35.616  1.00  0.00     0.006 C 
BRANCH  10  11
ATOM     11  C   UNL     1      18.651  -3.508  34.296  1.00  0.00     0.053 C 
BRANCH  11  12
ATOM     12  C   UNL     1      20.045  -2.977  34.432  1.00  0.00     0.041 C 
ATOM     13  O   UNL     1      20.314  -2.113  35.308  1.00  0.00    -0.550 OA
ATOM     14  O   UNL     1      21.044  -3.413  33.570  1.00  0.00    -0.550 OA
ENDBRANCH  11  12
ENDBRANCH  10  11
ENDBRANCH   9  10
ENDBRANCH   8   9
ENDBRANCH   7   8
ENDBRANCH   6   7
ENDBRANCH   5   6
ENDBRANCH   4   5
ENDBRANCH   3   4
ENDBRANCH   2   3
ENDBRANCH   1   2
BRANCH   1  15
ATOM     15  C   UNL     1      15.873  -5.205  30.564  1.00  0.00     0.000 C 
BRANCH  15  16
ATOM     16  C   UNL     1      15.970  -3.820  29.898  1.00  0.00     0.000 C 
BRANCH  16  17
ATOM     17  C   UNL     1      15.274  -3.695  28.530  1.00  0.00     0.000 C 
BRANCH  17  18
ATOM     18  C   UNL     1      16.219  -3.216  27.415  1.00  0.00    -0.000 C 
BRANCH  18  19
ATOM     19  C   UNL     1      15.808  -1.850  26.839  1.00  0.00    -0.000 C 
BRANCH  19  20
ATOM     20  C   UNL     1      14.403  -1.872  26.210  1.00  0.00    -0.000 C 
BRANCH  20  21
ATOM     21  C   UNL     1      13.731  -0.489  26.224  1.00  0.00    -0.000 C 
BRANCH  21  22
ATOM     22  C   UNL     1      14.737   0.655  26.439  1.00  0.00    -0.000 C 
BRANCH  22  23
ATOM     23  C   UNL     1      14.727   1.187  27.881  1.00  0.00    -0.000 C 
BRANCH  23  24
ATOM     24  C   UNL     1      13.472   0.759  28.663  1.00  0.00    -0.000 C 
BRANCH  24  25
ATOM     25  C   UNL     1      13.812   0.136  30.025  1.00  0.00    -0.003 C 
ATOM     26  C   UNL     1      15.290  -0.234  30.151  1.00  0.00     0.004 C 
ENDBRANCH  24  25
ENDBRANCH  23  24
ENDBRANCH  22  23
ENDBRANCH  21  22
ENDBRANCH  20  21
ENDBRANCH  19  20
ENDBRANCH  18  19
ENDBRANCH  17  18
ENDBRANCH  16  17
ENDBRANCH  15  16
ENDBRANCH   1  15
TORSDOF 22
ENDMDL
MODEL 7
REMARK VINA RESULT:    -5.051      3.739      8.463
REMARK INTER + INTRA:         -14.212
REMARK INTER:                 -11.881
REMARK INTRA:                  -2.330
REMARK UNBOUND:                -2.665
REMARK SMILES CCCCCCCCCCCCCCCCCCCCCCCC(=O)[O-]
REMARK SMILES IDX 13 1 14 2 15 3 16 4 17 5 18 6 19 7 20 8 21 9 22 10 23 11
REMARK SMILES IDX 24 12 25 13 26 14 12 15 11 16 10 17 9 18 8 19 7 20 6 21 5 22
REMARK SMILES IDX 4 23 3 24 2 25 1 26
REMARK H PARENT
REMARK Flexibility Score: inf
ROOT
ATOM      1  C   UNL     1      15.872  -6.755  34.533  1.00  0.00     0.000 C 
ENDROOT
BRANCH   1   2
ATOM      2  C   UNL     1      15.774  -6.761  32.997  1.00  0.00     0.000 C 
BRANCH   2   3
ATOM      3  C   UNL     1      16.186  -5.448  32.305  1.00  0.00     0.000 C 
BRANCH   3   4
ATOM      4  C   UNL     1      15.864  -5.434  30.801  1.00  0.00     0.000 C 
BRANCH   4   5
ATOM      5  C   UNL     1      16.106  -4.057  30.159  1.00  0.00     0.000 C 
BRANCH   5   6
ATOM      6  C   UNL     1      15.359  -3.893  28.824  1.00  0.00     0.000 C 
BRANCH   6   7
ATOM      7  C   UNL     1      15.375  -2.443  28.312  1.00  0.00     0.000 C 
BRANCH   7   8
ATOM      8  C   UNL     1      15.929  -2.324  26.884  1.00  0.00     0.000 C 
BRANCH   8   9
ATOM      9  C   UNL     1      15.068  -1.373  26.040  1.00  0.00     0.000 C 
BRANCH   9  10
ATOM     10  C   UNL     1      14.990   0.051  26.624  1.00  0.00     0.006 C 
BRANCH  10  11
ATOM     11  C   UNL     1      15.250   1.164  25.593  1.00  0.00     0.053 C 
BRANCH  11  12
ATOM     12  C   UNL     1      13.987   1.780  25.073  1.00  0.00     0.041 C 
ATOM     13  O   UNL     1      12.932   1.097  24.992  1.00  0.00    -0.550 OA
ATOM     14  O   UNL     1      13.982   3.103  24.649  1.00  0.00    -0.550 OA
ENDBRANCH  11  12
ENDBRANCH  10  11
ENDBRANCH   9  10
ENDBRANCH   8   9
ENDBRANCH   7   8
ENDBRANCH   6   7
ENDBRANCH   5   6
ENDBRANCH   4   5
ENDBRANCH   3   4
ENDBRANCH   2   3
ENDBRANCH   1   2
BRANCH   1  15
ATOM     15  C   UNL     1      16.203  -5.368  35.109  1.00  0.00     0.000 C 
BRANCH  15  16
ATOM     16  C   UNL     1      17.372  -5.394  36.111  1.00  0.00     0.000 C 
BRANCH  16  17
ATOM     17  C   UNL     1      18.053  -6.763  36.297  1.00  0.00     0.000 C 
BRANCH  17  18
ATOM     18  C   UNL     1      19.374  -6.888  35.521  1.00  0.00    -0.000 C 
BRANCH  18  19
ATOM     19  C   UNL     1      19.225  -7.706  34.227  1.00  0.00    -0.000 C 
BRANCH  19  20
ATOM     20  C   UNL     1      19.305  -6.832  32.962  1.00  0.00    -0.000 C 
BRANCH  20  21
ATOM     21  C   UNL     1      20.162  -5.572  33.169  1.00  0.00    -0.000 C 
BRANCH  21  22
ATOM     22  C   UNL     1      19.318  -4.286  33.222  1.00  0.00    -0.000 C 
BRANCH  22  23
ATOM     23  C   UNL     1      19.779  -3.324  34.329  1.00  0.00    -0.000 C 
BRANCH  23  24
ATOM     24  C   UNL     1      18.880  -2.079  34.445  1.00  0.00    -0.000 C 
BRANCH  24  25
ATOM     25  C   UNL     1      18.931  -1.448  35.845  1.00  0.00    -0.003 C 
ATOM     26  C   UNL     1      19.876  -0.249  35.917  1.00  0.00     0.004 C 
ENDBRANCH  24  25
ENDBRANCH  23  24
ENDBRANCH  22  23
ENDBRANCH  21  22
ENDBRANCH  20  21
ENDBRANCH  19  20
ENDBRANCH  18  19
ENDBRANCH  17  18
ENDBRANCH  16  17
ENDBRANCH  15  16
ENDBRANCH   1  15
TORSDOF 22
ENDMDL
MODEL 8
REMARK VINA RESULT:    -5.045      3.889      9.283
REMARK INTER + INTRA:         -14.198
REMARK INTER:                 -11.113
REMARK INTRA:                  -3.085
REMARK UNBOUND:                -2.665
REMARK SMILES CCCCCCCCCCCCCCCCCCCCCCCC(=O)[O-]
REMARK SMILES IDX 13 1 14 2 15 3 16 4 17 5 18 6 19 7 20 8 21 9 22 10 23 11
REMARK SMILES IDX 24 12 25 13 26 14 12 15 11 16 10 17 9 18 8 19 7 20 6 21 5 22
REMARK SMILES IDX 4 23 3 24 2 25 1 26
REMARK H PARENT
REMARK Flexibility Score: inf
ROOT
ATOM      1  C   UNL     1      16.127  -6.451  31.666  1.00  0.00     0.000 C 
ENDROOT
BRANCH   1   2
ATOM      2  C   UNL     1      16.174  -5.056  31.016  1.00  0.00     0.000 C 
BRANCH   2   3
ATOM      3  C   UNL     1      15.434  -4.930  29.672  1.00  0.00     0.000 C 
BRANCH   3   4
ATOM      4  C   UNL     1      15.955  -3.771  28.805  1.00  0.00     0.000 C 
BRANCH   4   5
ATOM      5  C   UNL     1      14.913  -2.654  28.625  1.00  0.00     0.000 C 
BRANCH   5   6
ATOM      6  C   UNL     1      15.445  -1.279  29.065  1.00  0.00     0.000 C 
BRANCH   6   7
ATOM      7  C   UNL     1      14.343  -0.379  29.649  1.00  0.00     0.000 C 
BRANCH   7   8
ATOM      8  C   UNL     1      13.694   0.527  28.591  1.00  0.00     0.000 C 
BRANCH   8   9
ATOM      9  C   UNL     1      14.756   1.139  27.666  1.00  0.00     0.000 C 
BRANCH   9  10
ATOM     10  C   UNL     1      14.333   1.152  26.185  1.00  0.00     0.006 C 
BRANCH  10  11
ATOM     11  C   UNL     1      13.360   0.022  25.803  1.00  0.00     0.053 C 
BRANCH  11  12
ATOM     12  C   UNL     1      12.041   0.533  25.311  1.00  0.00     0.041 C 
ATOM     13  O   UNL     1      11.075   0.672  26.107  1.00  0.00    -0.550 OA
ATOM     14  O   UNL     1      11.867   0.829  23.964  1.00  0.00    -0.550 OA
ENDBRANCH  11  12
ENDBRANCH  10  11
ENDBRANCH   9  10
ENDBRANCH   8   9
ENDBRANCH   7   8
ENDBRANCH   6   7
ENDBRANCH   5   6
ENDBRANCH   4   5
ENDBRANCH   3   4
ENDBRANCH   2   3
ENDBRANCH   1   2
BRANCH   1  15
ATOM     15  C   UNL     1      15.995  -6.397  33.197  1.00  0.00     0.000 C 
BRANCH  15  16
ATOM     16  C   UNL     1      16.011  -4.961  33.754  1.00  0.00     0.000 C 
BRANCH  16  17
ATOM     17  C   UNL     1      16.285  -4.841  35.264  1.00  0.00     0.000 C 
BRANCH  17  18
ATOM     18  C   UNL     1      17.540  -4.013  35.583  1.00  0.00    -0.000 C 
BRANCH  18  19
ATOM     19  C   UNL     1      18.083  -3.264  34.354  1.00  0.00    -0.000 C 
BRANCH  19  20
ATOM     20  C   UNL     1      19.595  -2.990  34.448  1.00  0.00    -0.000 C 
BRANCH  20  21
ATOM     21  C   UNL     1      20.426  -3.979  33.614  1.00  0.00    -0.000 C 
BRANCH  21  22
ATOM     22  C   UNL     1      19.556  -4.841  32.681  1.00  0.00    -0.000 C 
BRANCH  22  23
ATOM     23  C   UNL     1      19.612  -6.336  33.037  1.00  0.00    -0.000 C 
BRANCH  23  24
ATOM     24  C   UNL     1      19.707  -6.583  34.553  1.00  0.00    -0.000 C 
BRANCH  24  25
ATOM     25  C   UNL     1      18.842  -7.767  35.010  1.00  0.00    -0.003 C 
ATOM     26  C   UNL     1      18.360  -7.623  36.453  1.00  0.00     0.004 C 
ENDBRANCH  24  25
ENDBRANCH  23  24
ENDBRANCH  22  23
ENDBRANCH  21  22
ENDBRANCH  20  21
ENDBRANCH  19  20
ENDBRANCH  18  19
ENDBRANCH  17  18
ENDBRANCH  16  17
ENDBRANCH  15  16
ENDBRANCH   1  15
TORSDOF 22
ENDMDL
MODEL 9
REMARK VINA RESULT:    -4.996      7.437     13.858
REMARK INTER + INTRA:         -14.086
REMARK INTER:                 -11.779
REMARK INTRA:                  -2.307
REMARK UNBOUND:                -2.665
REMARK SMILES CCCCCCCCCCCCCCCCCCCCCCCC(=O)[O-]
REMARK SMILES IDX 13 1 14 2 15 3 16 4 17 5 18 6 19 7 20 8 21 9 22 10 23 11
REMARK SMILES IDX 24 12 25 13 26 14 12 15 11 16 10 17 9 18 8 19 7 20 6 21 5 22
REMARK SMILES IDX 4 23 3 24 2 25 1 26
REMARK H PARENT
REMARK Flexibility Score: inf
ROOT
ATOM      1  C   UNL     1      10.259   4.145  21.000  1.00  0.00     0.000 C 
ENDROOT
BRANCH   1   2
ATOM      2  C   UNL     1      11.586   4.835  21.366  1.00  0.00     0.000 C 
BRANCH   2   3
ATOM      3  C   UNL     1      12.506   4.036  22.307  1.00  0.00     0.000 C 
BRANCH   3   4
ATOM      4  C   UNL     1      13.334   4.932  23.243  1.00  0.00     0.000 C 
BRANCH   4   5
ATOM      5  C   UNL     1      13.681   4.239  24.571  1.00  0.00     0.000 C 
BRANCH   5   6
ATOM      6  C   UNL     1      13.791   2.711  24.423  1.00  0.00     0.000 C 
BRANCH   6   7
ATOM      7  C   UNL     1      15.246   2.216  24.462  1.00  0.00     0.000 C 
BRANCH   7   8
ATOM      8  C   UNL     1      15.496   1.191  25.579  1.00  0.00     0.000 C 
BRANCH   8   9
ATOM      9  C   UNL     1      14.284   1.096  26.517  1.00  0.00     0.000 C 
BRANCH   9  10
ATOM     10  C   UNL     1      13.669  -0.316  26.569  1.00  0.00     0.006 C 
BRANCH  10  11
ATOM     11  C   UNL     1      14.665  -1.443  26.243  1.00  0.00     0.053 C 
BRANCH  11  12
ATOM     12  C   UNL     1      15.365  -1.969  27.458  1.00  0.00     0.041 C 
ATOM     13  O   UNL     1      16.190  -2.916  27.357  1.00  0.00    -0.550 OA
ATOM     14  O   UNL     1      15.084  -1.435  28.709  1.00  0.00    -0.550 OA
ENDBRANCH  11  12
ENDBRANCH  10  11
ENDBRANCH   9  10
ENDBRANCH   8   9
ENDBRANCH   7   8
ENDBRANCH   6   7
ENDBRANCH   5   6
ENDBRANCH   4   5
ENDBRANCH   3   4
ENDBRANCH   2   3
ENDBRANCH   1   2
BRANCH   1  15
ATOM     15  C   UNL     1      10.336   3.355  19.683  1.00  0.00     0.000 C 
BRANCH  15  16
ATOM     16  C   UNL     1       9.105   3.565  18.781  1.00  0.00     0.000 C 
BRANCH  16  17
ATOM     17  C   UNL     1       8.209   4.760  19.155  1.00  0.00     0.000 C 
BRANCH  17  18
ATOM     18  C   UNL     1       8.282   5.909  18.135  1.00  0.00    -0.000 C 
BRANCH  18  19
ATOM     19  C   UNL     1       9.488   5.783  17.189  1.00  0.00    -0.000 C 
BRANCH  19  20
ATOM     20  C   UNL     1      10.473   6.958  17.325  1.00  0.00    -0.000 C 
BRANCH  20  21
ATOM     21  C   UNL     1      11.783   6.552  18.019  1.00  0.00    -0.000 C 
BRANCH  21  22
ATOM     22  C   UNL     1      12.102   7.432  19.241  1.00  0.00    -0.000 C 
BRANCH  22  23
ATOM     23  C   UNL     1      10.858   7.733  20.092  1.00  0.00    -0.000 C 
BRANCH  23  24
ATOM     24  C   UNL     1      11.194   8.501  21.383  1.00  0.00    -0.000 C 
BRANCH  24  25
ATOM     25  C   UNL     1      12.685   8.854  21.486  1.00  0.00    -0.003 C 
ATOM     26  C   UNL     1      12.959   9.974  22.488  1.00  0.00     0.004 C 
ENDBRANCH  24  25
ENDBRANCH  23  24
ENDBRANCH  22  23
ENDBRANCH  21  22
ENDBRANCH  20  21
ENDBRANCH  19  20
ENDBRANCH  18  19
ENDBRANCH  17  18
ENDBRANCH  16  17
ENDBRANCH  15  16
ENDBRANCH   1  15
TORSDOF 22
ENDMDL
