MODEL 1
REMARK VINA RESULT:    -4.909      0.000      0.000
REMARK INTER + INTRA:          -5.910
REMARK INTER:                  -5.770
REMARK INTRA:                  -0.140
REMARK UNBOUND:                -0.140
REMARK SMILES O=c1c(O)c(-c2ccc(O)c(O)c2)oc2cc(O)ccc12
REMARK SMILES IDX 5 1 3 2 2 3 1 4 21 5 15 6 14 7 16 8 17 9 19 10 20 11 6 12
REMARK SMILES IDX 7 13 8 14 9 15 13 16 11 17 10 18 12 20 4 22 18 24
REMARK H PARENT 10 19 12 21 4 23 18 25
REMARK Flexibility Score: inf
ROOT
ATOM      1  C   UNL     1     -26.219  51.137  41.914  1.00  0.00     0.180 A 
ATOM      2  C   UNL     1     -25.343  51.883  41.098  1.00  0.00     0.208 A 
ATOM      3  C   UNL     1     -24.953  53.164  41.519  1.00  0.00     0.235 A 
ATOM      4  O   UNL     1     -24.162  53.846  40.811  1.00  0.00    -0.285 OA
ATOM      5  C   UNL     1     -25.458  53.679  42.723  1.00  0.00     0.069 A 
ATOM      6  C   UNL     1     -26.349  52.879  43.470  1.00  0.00     0.142 A 
ATOM      7  O   UNL     1     -26.686  51.668  43.043  1.00  0.00    -0.452 OA
ATOM      8  C   UNL     1     -26.880  53.360  44.672  1.00  0.00     0.094 A 
ATOM      9  C   UNL     1     -26.532  54.632  45.139  1.00  0.00     0.119 A 
ATOM     10  C   UNL     1     -25.645  55.428  44.400  1.00  0.00     0.047 A 
ATOM     11  C   UNL     1     -25.109  54.957  43.198  1.00  0.00     0.020 A 
ENDROOT
BRANCH   1  12
ATOM     12  C   UNL     1     -26.662  49.772  41.550  1.00  0.00     0.025 A 
ATOM     13  C   UNL     1     -26.358  48.663  42.358  1.00  0.00     0.016 A 
ATOM     14  C   UNL     1     -26.807  47.388  42.007  1.00  0.00     0.051 A 
ATOM     15  C   UNL     1     -27.577  47.201  40.855  1.00  0.00     0.157 A 
ATOM     16  C   UNL     1     -27.453  49.585  40.405  1.00  0.00     0.062 A 
ATOM     17  C   UNL     1     -27.905  48.305  40.050  1.00  0.00     0.158 A 
BRANCH  15  18
ATOM     18  O   UNL     1     -28.010  45.916  40.530  1.00  0.00    -0.504 OA
ATOM     19  H   UNL     1     -28.950  45.599  40.730  1.00  0.00     0.293 HD
ENDBRANCH  15  18
BRANCH  17  20
ATOM     20  O   UNL     1     -28.678  48.128  38.904  1.00  0.00    -0.504 OA
ATOM     21  H   UNL     1     -29.010  47.212  38.624  1.00  0.00     0.293 HD
ENDBRANCH  17  20
ENDBRANCH   1  12
BRANCH   2  22
ATOM     22  O   UNL     1     -24.897  51.365  39.880  1.00  0.00    -0.502 OA
ATOM     23  H   UNL     1     -25.265  50.505  39.491  1.00  0.00     0.293 HD
ENDBRANCH   2  22
BRANCH   9  24
ATOM     24  O   UNL     1     -27.070  55.095  46.338  1.00  0.00    -0.508 OA
ATOM     25  H   UNL     1     -26.544  55.702  46.955  1.00  0.00     0.293 HD
ENDBRANCH   9  24
TORSDOF 5
ENDMDL
MODEL 2
REMARK VINA RESULT:    -4.809      0.602      1.486
REMARK INTER + INTRA:          -5.793
REMARK INTER:                  -5.665
REMARK INTRA:                  -0.127
REMARK UNBOUND:                -0.140
REMARK SMILES O=c1c(O)c(-c2ccc(O)c(O)c2)oc2cc(O)ccc12
REMARK SMILES IDX 5 1 3 2 2 3 1 4 21 5 15 6 14 7 16 8 17 9 19 10 20 11 6 12
REMARK SMILES IDX 7 13 8 14 9 15 13 16 11 17 10 18 12 20 4 22 18 24
REMARK H PARENT 10 19 12 21 4 23 18 25
REMARK Flexibility Score: inf
ROOT
ATOM      1  C   UNL     1     -26.262  51.190  41.904  1.00  0.00     0.180 A 
ATOM      2  C   UNL     1     -25.363  51.938  41.115  1.00  0.00     0.208 A 
ATOM      3  C   UNL     1     -24.958  53.203  41.566  1.00  0.00     0.235 A 
ATOM      4  O   UNL     1     -24.146  53.886  40.883  1.00  0.00    -0.285 OA
ATOM      5  C   UNL     1     -25.469  53.701  42.775  1.00  0.00     0.069 A 
ATOM      6  C   UNL     1     -26.383  52.901  43.495  1.00  0.00     0.142 A 
ATOM      7  O   UNL     1     -26.734  51.705  43.038  1.00  0.00    -0.452 OA
ATOM      8  C   UNL     1     -26.921  53.366  44.699  1.00  0.00     0.094 A 
ATOM      9  C   UNL     1     -26.557  54.622  45.197  1.00  0.00     0.119 A 
ATOM     10  C   UNL     1     -25.649  55.417  44.486  1.00  0.00     0.047 A 
ATOM     11  C   UNL     1     -25.106  54.963  43.281  1.00  0.00     0.020 A 
ENDROOT
BRANCH   1  12
ATOM     12  C   UNL     1     -26.723  49.840  41.506  1.00  0.00     0.025 A 
ATOM     13  C   UNL     1     -27.446  49.634  40.318  1.00  0.00     0.016 A 
ATOM     14  C   UNL     1     -27.851  48.349  39.951  1.00  0.00     0.051 A 
ATOM     15  C   UNL     1     -27.529  47.249  40.753  1.00  0.00     0.157 A 
ATOM     16  C   UNL     1     -26.384  48.732  42.299  1.00  0.00     0.062 A 
ATOM     17  C   UNL     1     -26.789  47.440  41.932  1.00  0.00     0.158 A 
BRANCH  15  18
ATOM     18  O   UNL     1     -27.948  45.979  40.361  1.00  0.00    -0.504 OA
ATOM     19  H   UNL     1     -28.544  45.834  39.554  1.00  0.00     0.293 HD
ENDBRANCH  15  18
BRANCH  17  20
ATOM     20  O   UNL     1     -26.459  46.348  42.732  1.00  0.00    -0.504 OA
ATOM     21  H   UNL     1     -25.495  46.084  42.898  1.00  0.00     0.293 HD
ENDBRANCH  17  20
ENDBRANCH   1  12
BRANCH   2  22
ATOM     22  O   UNL     1     -24.910  51.437  39.892  1.00  0.00    -0.502 OA
ATOM     23  H   UNL     1     -25.537  51.249  39.119  1.00  0.00     0.293 HD
ENDBRANCH   2  22
BRANCH   9  24
ATOM     24  O   UNL     1     -27.104  55.069  46.399  1.00  0.00    -0.508 OA
ATOM     25  H   UNL     1     -27.135  54.475  47.219  1.00  0.00     0.293 HD
ENDBRANCH   9  24
TORSDOF 5
ENDMDL
MODEL 3
REMARK VINA RESULT:    -4.532      1.699      7.169
REMARK INTER + INTRA:          -5.467
REMARK INTER:                  -5.290
REMARK INTRA:                  -0.176
REMARK UNBOUND:                -0.140
REMARK SMILES O=c1c(O)c(-c2ccc(O)c(O)c2)oc2cc(O)ccc12
REMARK SMILES IDX 5 1 3 2 2 3 1 4 21 5 15 6 14 7 16 8 17 9 19 10 20 11 6 12
REMARK SMILES IDX 7 13 8 14 9 15 13 16 11 17 10 18 12 20 4 22 18 24
REMARK H PARENT 10 19 12 21 4 23 18 25
REMARK Flexibility Score: inf
ROOT
ATOM      1  C   UNL     1     -25.853  51.870  43.878  1.00  0.00     0.180 A 
ATOM      2  C   UNL     1     -25.592  50.769  44.719  1.00  0.00     0.208 A 
ATOM      3  C   UNL     1     -25.721  49.472  44.197  1.00  0.00     0.235 A 
ATOM      4  O   UNL     1     -25.482  48.472  44.928  1.00  0.00    -0.285 OA
ATOM      5  C   UNL     1     -26.124  49.303  42.863  1.00  0.00     0.069 A 
ATOM      6  C   UNL     1     -26.389  50.456  42.093  1.00  0.00     0.142 A 
ATOM      7  O   UNL     1     -26.247  51.665  42.622  1.00  0.00    -0.452 OA
ATOM      8  C   UNL     1     -26.802  50.328  40.762  1.00  0.00     0.094 A 
ATOM      9  C   UNL     1     -26.952  49.060  40.188  1.00  0.00     0.119 A 
ATOM     10  C   UNL     1     -26.687  47.914  40.950  1.00  0.00     0.047 A 
ATOM     11  C   UNL     1     -26.275  48.031  42.280  1.00  0.00     0.020 A 
ENDROOT
BRANCH   1  12
ATOM     12  C   UNL     1     -25.722  53.268  44.348  1.00  0.00     0.025 A 
ATOM     13  C   UNL     1     -24.750  54.132  43.816  1.00  0.00     0.016 A 
ATOM     14  C   UNL     1     -24.660  55.454  44.258  1.00  0.00     0.051 A 
ATOM     15  C   UNL     1     -25.546  55.938  45.225  1.00  0.00     0.157 A 
ATOM     16  C   UNL     1     -26.624  53.763  45.304  1.00  0.00     0.062 A 
ATOM     17  C   UNL     1     -26.536  55.090  45.750  1.00  0.00     0.158 A 
BRANCH  15  18
ATOM     18  O   UNL     1     -25.431  57.262  45.648  1.00  0.00    -0.504 OA
ATOM     19  H   UNL     1     -25.898  58.022  45.168  1.00  0.00     0.293 HD
ENDBRANCH  15  18
BRANCH  17  20
ATOM     20  O   UNL     1     -27.427  55.568  46.709  1.00  0.00    -0.504 OA
ATOM     21  H   UNL     1     -28.369  55.849  46.464  1.00  0.00     0.293 HD
ENDBRANCH  17  20
ENDBRANCH   1  12
BRANCH   2  22
ATOM     22  O   UNL     1     -25.241  50.968  46.057  1.00  0.00    -0.502 OA
ATOM     23  H   UNL     1     -25.904  51.301  46.746  1.00  0.00     0.293 HD
ENDBRANCH   2  22
BRANCH   9  24
ATOM     24  O   UNL     1     -27.364  48.952  38.862  1.00  0.00    -0.508 OA
ATOM     25  H   UNL     1     -28.328  48.754  38.622  1.00  0.00     0.293 HD
ENDBRANCH   9  24
TORSDOF 5
ENDMDL
MODEL 4
REMARK VINA RESULT:    -4.512      1.889      6.827
REMARK INTER + INTRA:          -5.443
REMARK INTER:                  -5.345
REMARK INTRA:                  -0.098
REMARK UNBOUND:                -0.140
REMARK SMILES O=c1c(O)c(-c2ccc(O)c(O)c2)oc2cc(O)ccc12
REMARK SMILES IDX 5 1 3 2 2 3 1 4 21 5 15 6 14 7 16 8 17 9 19 10 20 11 6 12
REMARK SMILES IDX 7 13 8 14 9 15 13 16 11 17 10 18 12 20 4 22 18 24
REMARK H PARENT 10 19 12 21 4 23 18 25
REMARK Flexibility Score: inf
ROOT
ATOM      1  C   UNL     1     -25.857  52.093  43.491  1.00  0.00     0.180 A 
ATOM      2  C   UNL     1     -26.122  51.893  42.120  1.00  0.00     0.208 A 
ATOM      3  C   UNL     1     -26.256  50.581  41.640  1.00  0.00     0.235 A 
ATOM      4  O   UNL     1     -26.504  50.378  40.420  1.00  0.00    -0.285 OA
ATOM      5  C   UNL     1     -26.104  49.503  42.527  1.00  0.00     0.069 A 
ATOM      6  C   UNL     1     -25.816  49.786  43.880  1.00  0.00     0.142 A 
ATOM      7  O   UNL     1     -25.706  51.042  44.295  1.00  0.00    -0.452 OA
ATOM      8  C   UNL     1     -25.648  48.739  44.792  1.00  0.00     0.094 A 
ATOM      9  C   UNL     1     -25.766  47.409  44.371  1.00  0.00     0.119 A 
ATOM     10  C   UNL     1     -26.053  47.126  43.029  1.00  0.00     0.047 A 
ATOM     11  C   UNL     1     -26.222  48.165  42.109  1.00  0.00     0.020 A 
ENDROOT
BRANCH   1  12
ATOM     12  C   UNL     1     -25.720  53.445  44.077  1.00  0.00     0.025 A 
ATOM     13  C   UNL     1     -24.741  54.345  43.621  1.00  0.00     0.016 A 
ATOM     14  C   UNL     1     -24.645  55.625  44.173  1.00  0.00     0.051 A 
ATOM     15  C   UNL     1     -25.531  56.031  45.175  1.00  0.00     0.157 A 
ATOM     16  C   UNL     1     -26.621  53.863  45.069  1.00  0.00     0.062 A 
ATOM     17  C   UNL     1     -26.527  55.148  45.625  1.00  0.00     0.158 A 
BRANCH  15  18
ATOM     18  O   UNL     1     -25.410  57.314  45.707  1.00  0.00    -0.504 OA
ATOM     19  H   UNL     1     -25.226  57.473  46.691  1.00  0.00     0.293 HD
ENDBRANCH  15  18
BRANCH  17  20
ATOM     20  O   UNL     1     -27.418  55.549  46.619  1.00  0.00    -0.504 OA
ATOM     21  H   UNL     1     -28.285  55.052  46.785  1.00  0.00     0.293 HD
ENDBRANCH  17  20
ENDBRANCH   1  12
BRANCH   2  22
ATOM     22  O   UNL     1     -26.219  52.984  41.252  1.00  0.00    -0.502 OA
ATOM     23  H   UNL     1     -25.577  53.767  41.293  1.00  0.00     0.293 HD
ENDBRANCH   2  22
BRANCH   9  24
ATOM     24  O   UNL     1     -25.595  46.379  45.294  1.00  0.00    -0.508 OA
ATOM     25  H   UNL     1     -26.275  46.207  46.025  1.00  0.00     0.293 HD
ENDBRANCH   9  24
TORSDOF 5
ENDMDL
MODEL 5
REMARK VINA RESULT:    -4.403      1.829      1.936
REMARK INTER + INTRA:          -5.315
REMARK INTER:                  -5.038
REMARK INTRA:                  -0.278
REMARK UNBOUND:                -0.140
REMARK SMILES O=c1c(O)c(-c2ccc(O)c(O)c2)oc2cc(O)ccc12
REMARK SMILES IDX 5 1 3 2 2 3 1 4 21 5 15 6 14 7 16 8 17 9 19 10 20 11 6 12
REMARK SMILES IDX 7 13 8 14 9 15 13 16 11 17 10 18 12 20 4 22 18 24
REMARK H PARENT 10 19 12 21 4 23 18 25
REMARK Flexibility Score: inf
ROOT
ATOM      1  C   UNL     1     -25.980  50.245  42.745  1.00  0.00     0.180 A 
ATOM      2  C   UNL     1     -24.601  50.156  43.027  1.00  0.00     0.208 A 
ATOM      3  C   UNL     1     -24.019  51.118  43.868  1.00  0.00     0.235 A 
ATOM      4  O   UNL     1     -22.789  51.053  44.142  1.00  0.00    -0.285 OA
ATOM      5  C   UNL     1     -24.813  52.152  44.388  1.00  0.00     0.069 A 
ATOM      6  C   UNL     1     -26.181  52.184  44.039  1.00  0.00     0.142 A 
ATOM      7  O   UNL     1     -26.695  51.250  43.249  1.00  0.00    -0.452 OA
ATOM      8  C   UNL     1     -27.003  53.204  44.531  1.00  0.00     0.094 A 
ATOM      9  C   UNL     1     -26.478  54.193  45.369  1.00  0.00     0.119 A 
ATOM     10  C   UNL     1     -25.121  54.162  45.719  1.00  0.00     0.047 A 
ATOM     11  C   UNL     1     -24.290  53.148  45.233  1.00  0.00     0.020 A 
ENDROOT
BRANCH   1  12
ATOM     12  C   UNL     1     -26.672  49.260  41.883  1.00  0.00     0.025 A 
ATOM     13  C   UNL     1     -27.001  47.978  42.355  1.00  0.00     0.016 A 
ATOM     14  C   UNL     1     -27.675  47.073  41.531  1.00  0.00     0.051 A 
ATOM     15  C   UNL     1     -28.044  47.437  40.233  1.00  0.00     0.157 A 
ATOM     16  C   UNL     1     -27.062  49.631  40.586  1.00  0.00     0.062 A 
ATOM     17  C   UNL     1     -27.739  48.723  39.757  1.00  0.00     0.158 A 
BRANCH  15  18
ATOM     18  O   UNL     1     -28.714  46.512  39.434  1.00  0.00    -0.504 OA
ATOM     19  H   UNL     1     -29.585  46.084  39.723  1.00  0.00     0.293 HD
ENDBRANCH  15  18
BRANCH  17  20
ATOM     20  O   UNL     1     -28.110  49.096  38.466  1.00  0.00    -0.504 OA
ATOM     21  H   UNL     1     -28.290  50.063  38.225  1.00  0.00     0.293 HD
ENDBRANCH  17  20
ENDBRANCH   1  12
BRANCH   2  22
ATOM     22  O   UNL     1     -23.826  49.145  42.454  1.00  0.00    -0.502 OA
ATOM     23  H   UNL     1     -24.229  48.411  41.885  1.00  0.00     0.293 HD
ENDBRANCH   2  22
BRANCH   9  24
ATOM     24  O   UNL     1     -27.312  55.200  45.850  1.00  0.00    -0.508 OA
ATOM     25  H   UNL     1     -28.271  55.288  45.535  1.00  0.00     0.293 HD
ENDBRANCH   9  24
TORSDOF 5
ENDMDL
MODEL 6
REMARK VINA RESULT:    -4.123      1.776      6.770
REMARK INTER + INTRA:          -4.987
REMARK INTER:                  -4.720
REMARK INTRA:                  -0.267
REMARK UNBOUND:                -0.140
REMARK SMILES O=c1c(O)c(-c2ccc(O)c(O)c2)oc2cc(O)ccc12
REMARK SMILES IDX 5 1 3 2 2 3 1 4 21 5 15 6 14 7 16 8 17 9 19 10 20 11 6 12
REMARK SMILES IDX 7 13 8 14 9 15 13 16 11 17 10 18 12 20 4 22 18 24
REMARK H PARENT 10 19 12 21 4 23 18 25
REMARK Flexibility Score: inf
ROOT
ATOM      1  C   UNL     1     -26.218  50.312  42.638  1.00  0.00     0.180 A 
ATOM      2  C   UNL     1     -26.514  50.220  41.262  1.00  0.00     0.208 A 
ATOM      3  C   UNL     1     -26.946  48.989  40.743  1.00  0.00     0.235 A 
ATOM      4  O   UNL     1     -27.227  48.886  39.518  1.00  0.00    -0.285 OA
ATOM      5  C   UNL     1     -27.052  47.880  41.597  1.00  0.00     0.069 A 
ATOM      6  C   UNL     1     -26.714  48.049  42.957  1.00  0.00     0.142 A 
ATOM      7  O   UNL     1     -26.318  49.232  43.410  1.00  0.00    -0.452 OA
ATOM      8  C   UNL     1     -26.798  46.964  43.838  1.00  0.00     0.094 A 
ATOM      9  C   UNL     1     -27.218  45.712  43.377  1.00  0.00     0.119 A 
ATOM     10  C   UNL     1     -27.556  45.542  42.028  1.00  0.00     0.047 A 
ATOM     11  C   UNL     1     -27.475  46.619  41.140  1.00  0.00     0.020 A 
ENDROOT
BRANCH   1  12
ATOM     12  C   UNL     1     -25.774  51.579  43.264  1.00  0.00     0.025 A 
ATOM     13  C   UNL     1     -24.461  52.055  43.103  1.00  0.00     0.016 A 
ATOM     14  C   UNL     1     -24.072  53.264  43.683  1.00  0.00     0.051 A 
ATOM     15  C   UNL     1     -24.987  54.023  44.419  1.00  0.00     0.157 A 
ATOM     16  C   UNL     1     -26.696  52.353  43.986  1.00  0.00     0.062 A 
ATOM     17  C   UNL     1     -26.307  53.568  44.571  1.00  0.00     0.158 A 
BRANCH  15  18
ATOM     18  O   UNL     1     -24.568  55.225  44.988  1.00  0.00    -0.504 OA
ATOM     19  H   UNL     1     -25.225  55.932  45.295  1.00  0.00     0.293 HD
ENDBRANCH  15  18
BRANCH  17  20
ATOM     20  O   UNL     1     -27.226  54.322  45.297  1.00  0.00    -0.504 OA
ATOM     21  H   UNL     1     -27.875  53.889  45.944  1.00  0.00     0.293 HD
ENDBRANCH  17  20
ENDBRANCH   1  12
BRANCH   2  22
ATOM     22  O   UNL     1     -26.350  51.329  40.427  1.00  0.00    -0.502 OA
ATOM     23  H   UNL     1     -25.490  51.505  39.923  1.00  0.00     0.293 HD
ENDBRANCH   2  22
BRANCH   9  24
ATOM     24  O   UNL     1     -27.296  44.643  44.268  1.00  0.00    -0.508 OA
ATOM     25  H   UNL     1     -27.381  44.792  45.267  1.00  0.00     0.293 HD
ENDBRANCH   9  24
TORSDOF 5
ENDMDL
MODEL 7
REMARK VINA RESULT:    -3.995      1.690      2.794
REMARK INTER + INTRA:          -4.835
REMARK INTER:                  -4.533
REMARK INTRA:                  -0.302
REMARK UNBOUND:                -0.140
REMARK SMILES O=c1c(O)c(-c2ccc(O)c(O)c2)oc2cc(O)ccc12
REMARK SMILES IDX 5 1 3 2 2 3 1 4 21 5 15 6 14 7 16 8 17 9 19 10 20 11 6 12
REMARK SMILES IDX 7 13 8 14 9 15 13 16 11 17 10 18 12 20 4 22 18 24
REMARK H PARENT 10 19 12 21 4 23 18 25
REMARK Flexibility Score: inf
ROOT
ATOM      1  C   UNL     1     -25.904  51.024  41.719  1.00  0.00     0.180 A 
ATOM      2  C   UNL     1     -26.025  50.902  43.120  1.00  0.00     0.208 A 
ATOM      3  C   UNL     1     -25.778  52.028  43.920  1.00  0.00     0.235 A 
ATOM      4  O   UNL     1     -25.891  51.946  45.174  1.00  0.00    -0.285 OA
ATOM      5  C   UNL     1     -25.399  53.236  43.314  1.00  0.00     0.069 A 
ATOM      6  C   UNL     1     -25.277  53.270  41.909  1.00  0.00     0.142 A 
ATOM      7  O   UNL     1     -25.528  52.185  41.186  1.00  0.00    -0.452 OA
ATOM      8  C   UNL     1     -24.892  54.453  41.268  1.00  0.00     0.094 A 
ATOM      9  C   UNL     1     -24.629  55.607  42.015  1.00  0.00     0.119 A 
ATOM     10  C   UNL     1     -24.752  55.577  43.411  1.00  0.00     0.047 A 
ATOM     11  C   UNL     1     -25.134  54.400  44.060  1.00  0.00     0.020 A 
ENDROOT
BRANCH   1  12
ATOM     12  C   UNL     1     -26.164  49.888  40.806  1.00  0.00     0.025 A 
ATOM     13  C   UNL     1     -25.121  49.068  40.341  1.00  0.00     0.016 A 
ATOM     14  C   UNL     1     -25.393  47.988  39.498  1.00  0.00     0.051 A 
ATOM     15  C   UNL     1     -26.708  47.700  39.119  1.00  0.00     0.157 A 
ATOM     16  C   UNL     1     -27.485  49.584  40.440  1.00  0.00     0.062 A 
ATOM     17  C   UNL     1     -27.761  48.500  39.593  1.00  0.00     0.158 A 
BRANCH  15  18
ATOM     18  O   UNL     1     -26.948  46.616  38.275  1.00  0.00    -0.504 OA
ATOM     19  H   UNL     1     -27.552  46.689  37.465  1.00  0.00     0.293 HD
ENDBRANCH  15  18
BRANCH  17  20
ATOM     20  O   UNL     1     -29.075  48.215  39.225  1.00  0.00    -0.504 OA
ATOM     21  H   UNL     1     -29.462  48.541  38.347  1.00  0.00     0.293 HD
ENDBRANCH  17  20
ENDBRANCH   1  12
BRANCH   2  22
ATOM     22  O   UNL     1     -26.355  49.673  43.697  1.00  0.00    -0.502 OA
ATOM     23  H   UNL     1     -27.298  49.449  43.990  1.00  0.00     0.293 HD
ENDBRANCH   2  22
BRANCH   9  24
ATOM     24  O   UNL     1     -24.247  56.776  41.361  1.00  0.00    -0.508 OA
ATOM     25  H   UNL     1     -24.646  57.674  41.607  1.00  0.00     0.293 HD
ENDBRANCH   9  24
TORSDOF 5
ENDMDL
MODEL 8
REMARK VINA RESULT:    -3.984      8.487      9.832
REMARK INTER + INTRA:          -4.822
REMARK INTER:                  -4.501
REMARK INTRA:                  -0.321
REMARK UNBOUND:                -0.140
REMARK SMILES O=c1c(O)c(-c2ccc(O)c(O)c2)oc2cc(O)ccc12
REMARK SMILES IDX 5 1 3 2 2 3 1 4 21 5 15 6 14 7 16 8 17 9 19 10 20 11 6 12
REMARK SMILES IDX 7 13 8 14 9 15 13 16 11 17 10 18 12 20 4 22 18 24
REMARK H PARENT 10 19 12 21 4 23 18 25
REMARK Flexibility Score: inf
ROOT
ATOM      1  C   UNL     1     -27.679  52.948  33.198  1.00  0.00     0.180 A 
ATOM      2  C   UNL     1     -26.628  53.066  34.131  1.00  0.00     0.208 A 
ATOM      3  C   UNL     1     -26.094  54.338  34.392  1.00  0.00     0.235 A 
ATOM      4  O   UNL     1     -25.161  54.469  35.230  1.00  0.00    -0.285 OA
ATOM      5  C   UNL     1     -26.603  55.454  33.709  1.00  0.00     0.069 A 
ATOM      6  C   UNL     1     -27.640  55.249  32.773  1.00  0.00     0.142 A 
ATOM      7  O   UNL     1     -28.123  54.031  32.561  1.00  0.00    -0.452 OA
ATOM      8  C   UNL     1     -28.168  56.335  32.066  1.00  0.00     0.094 A 
ATOM      9  C   UNL     1     -27.673  57.626  32.281  1.00  0.00     0.119 A 
ATOM     10  C   UNL     1     -26.645  57.832  33.211  1.00  0.00     0.047 A 
ATOM     11  C   UNL     1     -26.110  56.754  33.922  1.00  0.00     0.020 A 
ENDROOT
BRANCH   1  12
ATOM     12  C   UNL     1     -28.307  51.646  32.881  1.00  0.00     0.025 A 
ATOM     13  C   UNL     1     -29.371  51.140  33.646  1.00  0.00     0.016 A 
ATOM     14  C   UNL     1     -29.964  49.919  33.314  1.00  0.00     0.051 A 
ATOM     15  C   UNL     1     -29.515  49.193  32.207  1.00  0.00     0.157 A 
ATOM     16  C   UNL     1     -27.872  50.924  31.757  1.00  0.00     0.062 A 
ATOM     17  C   UNL     1     -28.465  49.698  31.422  1.00  0.00     0.158 A 
BRANCH  15  18
ATOM     18  O   UNL     1     -30.125  47.977  31.901  1.00  0.00    -0.504 OA
ATOM     19  H   UNL     1     -29.704  47.309  31.266  1.00  0.00     0.293 HD
ENDBRANCH  15  18
BRANCH  17  20
ATOM     20  O   UNL     1     -28.017  48.983  30.313  1.00  0.00    -0.504 OA
ATOM     21  H   UNL     1     -27.143  48.469  30.330  1.00  0.00     0.293 HD
ENDBRANCH  17  20
ENDBRANCH   1  12
BRANCH   2  22
ATOM     22  O   UNL     1     -26.108  51.931  34.758  1.00  0.00    -0.502 OA
ATOM     23  H   UNL     1     -26.112  51.820  35.764  1.00  0.00     0.293 HD
ENDBRANCH   2  22
BRANCH   9  24
ATOM     24  O   UNL     1     -28.210  58.695  31.567  1.00  0.00    -0.508 OA
ATOM     25  H   UNL     1     -27.792  59.617  31.602  1.00  0.00     0.293 HD
ENDBRANCH   9  24
TORSDOF 5
ENDMDL
MODEL 9
REMARK VINA RESULT:    -3.946      3.307      5.988
REMARK INTER + INTRA:          -4.778
REMARK INTER:                  -4.476
REMARK INTRA:                  -0.302
REMARK UNBOUND:                -0.140
REMARK SMILES O=c1c(O)c(-c2ccc(O)c(O)c2)oc2cc(O)ccc12
REMARK SMILES IDX 5 1 3 2 2 3 1 4 21 5 15 6 14 7 16 8 17 9 19 10 20 11 6 12
REMARK SMILES IDX 7 13 8 14 9 15 13 16 11 17 10 18 12 20 4 22 18 24
REMARK H PARENT 10 19 12 21 4 23 18 25
REMARK Flexibility Score: inf
ROOT
ATOM      1  C   UNL     1     -25.365  54.112  45.729  1.00  0.00     0.180 A 
ATOM      2  C   UNL     1     -26.305  54.997  46.297  1.00  0.00     0.208 A 
ATOM      3  C   UNL     1     -26.029  55.563  47.552  1.00  0.00     0.235 A 
ATOM      4  O   UNL     1     -26.850  56.365  48.075  1.00  0.00    -0.285 OA
ATOM      5  C   UNL     1     -24.842  55.219  48.218  1.00  0.00     0.069 A 
ATOM      6  C   UNL     1     -23.965  54.307  47.593  1.00  0.00     0.142 A 
ATOM      7  O   UNL     1     -24.258  53.802  46.400  1.00  0.00    -0.452 OA
ATOM      8  C   UNL     1     -22.775  53.934  48.228  1.00  0.00     0.094 A 
ATOM      9  C   UNL     1     -22.449  54.461  49.483  1.00  0.00     0.119 A 
ATOM     10  C   UNL     1     -23.318  55.368  50.105  1.00  0.00     0.047 A 
ATOM     11  C   UNL     1     -24.508  55.747  49.479  1.00  0.00     0.020 A 
ENDROOT
BRANCH   1  12
ATOM     12  C   UNL     1     -25.574  53.489  44.402  1.00  0.00     0.025 A 
ATOM     13  C   UNL     1     -26.137  52.207  44.276  1.00  0.00     0.016 A 
ATOM     14  C   UNL     1     -26.347  51.649  43.012  1.00  0.00     0.051 A 
ATOM     15  C   UNL     1     -26.012  52.364  41.858  1.00  0.00     0.157 A 
ATOM     16  C   UNL     1     -25.258  54.213  43.241  1.00  0.00     0.062 A 
ATOM     17  C   UNL     1     -25.468  53.654  41.971  1.00  0.00     0.158 A 
BRANCH  15  18
ATOM     18  O   UNL     1     -26.232  51.779  40.611  1.00  0.00    -0.504 OA
ATOM     19  H   UNL     1     -26.520  50.814  40.514  1.00  0.00     0.293 HD
ENDBRANCH  15  18
BRANCH  17  20
ATOM     20  O   UNL     1     -25.139  54.375  40.825  1.00  0.00    -0.504 OA
ATOM     21  H   UNL     1     -25.793  55.020  40.398  1.00  0.00     0.293 HD
ENDBRANCH  17  20
ENDBRANCH   1  12
BRANCH   2  22
ATOM     22  O   UNL     1     -27.501  55.281  45.634  1.00  0.00    -0.502 OA
ATOM     23  H   UNL     1     -27.876  54.677  44.912  1.00  0.00     0.293 HD
ENDBRANCH   2  22
BRANCH   9  24
ATOM     24  O   UNL     1     -21.261  54.078  50.101  1.00  0.00    -0.508 OA
ATOM     25  H   UNL     1     -20.359  54.356  49.732  1.00  0.00     0.293 HD
ENDBRANCH   9  24
TORSDOF 5
ENDMDL
