MODEL 1
REMARK VINA RESULT:    -5.734      0.000      0.000
REMARK INTER + INTRA:          -6.950
REMARK INTER:                  -7.075
REMARK INTRA:                   0.125
REMARK UNBOUND:                 0.125
REMARK SMILES Oc1cc(O)c2cc(O)c(-c3cc(O)c(O)c(O)c3)[o+]c2c1
REMARK SMILES IDX 10 1 20 2 21 3 22 4 2 5 3 6 4 7 6 8 7 9 8 10 11 11 12 12
REMARK SMILES IDX 13 13 19 14 15 15 17 16 14 17 16 19 18 21 9 23 1 25 5 27
REMARK H PARENT 14 18 16 20 18 22 9 24 1 26 5 28
REMARK Flexibility Score: inf
ROOT
ATOM      1  C   UNL     1      44.978  16.490  -3.375  1.00  0.00     0.402 A 
ATOM      2  O   UNL     1      45.499  15.443  -2.740  1.00  0.00    -0.202 OA
ATOM      3  C   UNL     1      46.624  14.845  -3.119  1.00  0.00     0.368 A 
ATOM      4  C   UNL     1      47.095  13.753  -2.385  1.00  0.00     0.162 A 
ATOM      5  C   UNL     1      48.277  13.108  -2.760  1.00  0.00     0.128 A 
ATOM      6  C   UNL     1      48.993  13.558  -3.872  1.00  0.00     0.093 A 
ATOM      7  C   UNL     1      48.543  14.651  -4.624  1.00  0.00     0.136 A 
ATOM      8  C   UNL     1      47.342  15.308  -4.250  1.00  0.00     0.125 A 
ATOM      9  C   UNL     1      46.809  16.402  -4.950  1.00  0.00     0.078 A 
ATOM     10  C   UNL     1      45.616  16.995  -4.523  1.00  0.00     0.223 A 
ENDROOT
BRANCH   1  11
ATOM     11  C   UNL     1      43.724  17.075  -2.849  1.00  0.00     0.091 A 
ATOM     12  C   UNL     1      42.801  16.249  -2.192  1.00  0.00     0.068 A 
ATOM     13  C   UNL     1      41.614  16.770  -1.665  1.00  0.00     0.162 A 
ATOM     14  C   UNL     1      43.463  18.449  -2.943  1.00  0.00     0.068 A 
ATOM     15  C   UNL     1      41.345  18.155  -1.783  1.00  0.00     0.200 A 
ATOM     16  C   UNL     1      42.283  18.988  -2.421  1.00  0.00     0.162 A 
BRANCH  13  17
ATOM     17  O   UNL     1      40.738  15.882  -1.036  1.00  0.00    -0.504 OA
ATOM     18  H   UNL     1      40.532  15.895  -0.048  1.00  0.00     0.293 HD
ENDBRANCH  13  17
BRANCH  15  19
ATOM     19  O   UNL     1      40.175  18.733  -1.283  1.00  0.00    -0.502 OA
ATOM     20  H   UNL     1      39.419  19.073  -1.859  1.00  0.00     0.293 HD
ENDBRANCH  15  19
BRANCH  16  21
ATOM     21  O   UNL     1      42.063  20.360  -2.543  1.00  0.00    -0.504 OA
ATOM     22  H   UNL     1      42.823  21.028  -2.595  1.00  0.00     0.293 HD
ENDBRANCH  16  21
ENDBRANCH   1  11
BRANCH  10  23
ATOM     23  O   UNL     1      45.061  18.049  -5.248  1.00  0.00    -0.500 OA
ATOM     24  H   UNL     1      44.953  18.005  -6.255  1.00  0.00     0.294 HD
ENDBRANCH  10  23
BRANCH   5  25
ATOM     25  O   UNL     1      48.752  12.018  -2.035  1.00  0.00    -0.507 OA
ATOM     26  H   UNL     1      48.213  11.610  -1.278  1.00  0.00     0.293 HD
ENDBRANCH   5  25
BRANCH   7  27
ATOM     27  O   UNL     1      49.317  15.041  -5.720  1.00  0.00    -0.507 OA
ATOM     28  H   UNL     1      49.499  16.000  -5.978  1.00  0.00     0.293 HD
ENDBRANCH   7  27
TORSDOF 7
ENDMDL
MODEL 2
REMARK VINA RESULT:    -5.668      4.734      5.995
REMARK INTER + INTRA:          -6.869
REMARK INTER:                  -6.512
REMARK INTRA:                  -0.357
REMARK UNBOUND:                 0.125
REMARK SMILES Oc1cc(O)c2cc(O)c(-c3cc(O)c(O)c(O)c3)[o+]c2c1
REMARK SMILES IDX 10 1 20 2 21 3 22 4 2 5 3 6 4 7 6 8 7 9 8 10 11 11 12 12
REMARK SMILES IDX 13 13 19 14 15 15 17 16 14 17 16 19 18 21 9 23 1 25 5 27
REMARK H PARENT 14 18 16 20 18 22 9 24 1 26 5 28
REMARK Flexibility Score: inf
ROOT
ATOM      1  C   UNL     1      48.767  13.754  -3.910  1.00  0.00     0.402 A 
ATOM      2  O   UNL     1      49.821  13.035  -4.287  1.00  0.00    -0.202 OA
ATOM      3  C   UNL     1      50.911  13.568  -4.830  1.00  0.00     0.368 A 
ATOM      4  C   UNL     1      51.970  12.730  -5.191  1.00  0.00     0.162 A 
ATOM      5  C   UNL     1      53.129  13.265  -5.761  1.00  0.00     0.128 A 
ATOM      6  C   UNL     1      53.231  14.642  -5.970  1.00  0.00     0.093 A 
ATOM      7  C   UNL     1      52.184  15.503  -5.616  1.00  0.00     0.136 A 
ATOM      8  C   UNL     1      51.004  14.966  -5.039  1.00  0.00     0.125 A 
ATOM      9  C   UNL     1      49.900  15.750  -4.666  1.00  0.00     0.078 A 
ATOM     10  C   UNL     1      48.768  15.147  -4.107  1.00  0.00     0.223 A 
ENDROOT
BRANCH   1  11
ATOM     11  C   UNL     1      47.615  13.045  -3.307  1.00  0.00     0.091 A 
ATOM     12  C   UNL     1      46.525  12.690  -4.113  1.00  0.00     0.068 A 
ATOM     13  C   UNL     1      45.428  12.003  -3.582  1.00  0.00     0.162 A 
ATOM     14  C   UNL     1      47.614  12.668  -1.956  1.00  0.00     0.068 A 
ATOM     15  C   UNL     1      45.422  11.646  -2.212  1.00  0.00     0.200 A 
ATOM     16  C   UNL     1      46.528  11.980  -1.408  1.00  0.00     0.162 A 
BRANCH  13  17
ATOM     17  O   UNL     1      44.374  11.695  -4.446  1.00  0.00    -0.504 OA
ATOM     18  H   UNL     1      44.451  11.069  -5.233  1.00  0.00     0.293 HD
ENDBRANCH  13  17
BRANCH  15  19
ATOM     19  O   UNL     1      44.354  10.965  -1.623  1.00  0.00    -0.502 OA
ATOM     20  H   UNL     1      43.432  11.356  -1.498  1.00  0.00     0.293 HD
ENDBRANCH  15  19
BRANCH  16  21
ATOM     21  O   UNL     1      46.568  11.632  -0.058  1.00  0.00    -0.504 OA
ATOM     22  H   UNL     1      45.966  12.066   0.632  1.00  0.00     0.293 HD
ENDBRANCH  16  21
ENDBRANCH   1  11
BRANCH  10  23
ATOM     23  O   UNL     1      47.653  15.919  -3.783  1.00  0.00    -0.500 OA
ATOM     24  H   UNL     1      47.280  15.947  -2.840  1.00  0.00     0.294 HD
ENDBRANCH  10  23
BRANCH   5  25
ATOM     25  O   UNL     1      54.188  12.436  -6.125  1.00  0.00    -0.507 OA
ATOM     26  H   UNL     1      54.857  12.100  -5.441  1.00  0.00     0.293 HD
ENDBRANCH   5  25
BRANCH   7  27
ATOM     27  O   UNL     1      52.365  16.868  -5.854  1.00  0.00    -0.507 OA
ATOM     28  H   UNL     1      52.648  17.260  -6.740  1.00  0.00     0.293 HD
ENDBRANCH   7  27
TORSDOF 7
ENDMDL
MODEL 3
REMARK VINA RESULT:    -5.639      1.433      6.907
REMARK INTER + INTRA:          -6.833
REMARK INTER:                  -7.157
REMARK INTRA:                   0.324
REMARK UNBOUND:                 0.125
REMARK SMILES Oc1cc(O)c2cc(O)c(-c3cc(O)c(O)c(O)c3)[o+]c2c1
REMARK SMILES IDX 10 1 20 2 21 3 22 4 2 5 3 6 4 7 6 8 7 9 8 10 11 11 12 12
REMARK SMILES IDX 13 13 19 14 15 15 17 16 14 17 16 19 18 21 9 23 1 25 5 27
REMARK H PARENT 14 18 16 20 18 22 9 24 1 26 5 28
REMARK Flexibility Score: inf
ROOT
ATOM      1  C   UNL     1      46.194  16.492  -4.208  1.00  0.00     0.402 A 
ATOM      2  O   UNL     1      45.322  16.144  -3.265  1.00  0.00    -0.202 OA
ATOM      3  C   UNL     1      44.099  16.658  -3.176  1.00  0.00     0.368 A 
ATOM      4  C   UNL     1      43.253  16.226  -2.152  1.00  0.00     0.162 A 
ATOM      5  C   UNL     1      41.961  16.748  -2.037  1.00  0.00     0.128 A 
ATOM      6  C   UNL     1      41.513  17.704  -2.951  1.00  0.00     0.093 A 
ATOM      7  C   UNL     1      42.342  18.153  -3.988  1.00  0.00     0.136 A 
ATOM      8  C   UNL     1      43.655  17.629  -4.107  1.00  0.00     0.125 A 
ATOM      9  C   UNL     1      44.559  18.029  -5.105  1.00  0.00     0.078 A 
ATOM     10  C   UNL     1      45.840  17.470  -5.156  1.00  0.00     0.223 A 
ENDROOT
BRANCH   1  11
ATOM     11  C   UNL     1      47.523  15.839  -4.208  1.00  0.00     0.091 A 
ATOM     12  C   UNL     1      47.690  14.615  -3.544  1.00  0.00     0.068 A 
ATOM     13  C   UNL     1      48.926  13.961  -3.539  1.00  0.00     0.162 A 
ATOM     14  C   UNL     1      48.608  16.390  -4.905  1.00  0.00     0.068 A 
ATOM     15  C   UNL     1      50.025  14.533  -4.226  1.00  0.00     0.200 A 
ATOM     16  C   UNL     1      49.851  15.750  -4.912  1.00  0.00     0.162 A 
BRANCH  13  17
ATOM     17  O   UNL     1      49.018  12.751  -2.847  1.00  0.00    -0.504 OA
ATOM     18  H   UNL     1      49.488  12.639  -1.961  1.00  0.00     0.293 HD
ENDBRANCH  13  17
BRANCH  15  19
ATOM     19  O   UNL     1      51.284  13.930  -4.252  1.00  0.00    -0.502 OA
ATOM     20  H   UNL     1      51.971  14.017  -3.516  1.00  0.00     0.293 HD
ENDBRANCH  15  19
BRANCH  16  21
ATOM     21  O   UNL     1      50.903  16.337  -5.614  1.00  0.00    -0.504 OA
ATOM     22  H   UNL     1      51.543  15.797  -6.184  1.00  0.00     0.293 HD
ENDBRANCH  16  21
ENDBRANCH   1  11
BRANCH  10  23
ATOM     23  O   UNL     1      46.754  17.903  -6.116  1.00  0.00    -0.500 OA
ATOM     24  H   UNL     1      47.739  18.015  -5.902  1.00  0.00     0.294 HD
ENDBRANCH  10  23
BRANCH   5  25
ATOM     25  O   UNL     1      41.112  16.324  -1.017  1.00  0.00    -0.507 OA
ATOM     26  H   UNL     1      40.906  16.914  -0.220  1.00  0.00     0.293 HD
ENDBRANCH   5  25
BRANCH   7  27
ATOM     27  O   UNL     1      41.819  19.109  -4.862  1.00  0.00    -0.507 OA
ATOM     28  H   UNL     1      40.890  19.497  -4.794  1.00  0.00     0.293 HD
ENDBRANCH   7  27
TORSDOF 7
ENDMDL
MODEL 4
REMARK VINA RESULT:    -5.581      1.245      1.948
REMARK INTER + INTRA:          -6.761
REMARK INTER:                  -6.403
REMARK INTRA:                  -0.358
REMARK UNBOUND:                 0.125
REMARK SMILES Oc1cc(O)c2cc(O)c(-c3cc(O)c(O)c(O)c3)[o+]c2c1
REMARK SMILES IDX 10 1 20 2 21 3 22 4 2 5 3 6 4 7 6 8 7 9 8 10 11 11 12 12
REMARK SMILES IDX 13 13 19 14 15 15 17 16 14 17 16 19 18 21 9 23 1 25 5 27
REMARK H PARENT 14 18 16 20 18 22 9 24 1 26 5 28
REMARK Flexibility Score: inf
ROOT
ATOM      1  C   UNL     1      44.851  15.922  -3.448  1.00  0.00     0.402 A 
ATOM      2  O   UNL     1      45.511  14.840  -3.043  1.00  0.00    -0.202 OA
ATOM      3  C   UNL     1      46.789  14.615  -3.332  1.00  0.00     0.368 A 
ATOM      4  C   UNL     1      47.398  13.449  -2.858  1.00  0.00     0.162 A 
ATOM      5  C   UNL     1      48.741  13.189  -3.145  1.00  0.00     0.128 A 
ATOM      6  C   UNL     1      49.479  14.099  -3.906  1.00  0.00     0.093 A 
ATOM      7  C   UNL     1      48.893  15.275  -4.391  1.00  0.00     0.136 A 
ATOM      8  C   UNL     1      47.529  15.542  -4.106  1.00  0.00     0.125 A 
ATOM      9  C   UNL     1      46.854  16.687  -4.561  1.00  0.00     0.078 A 
ATOM     10  C   UNL     1      45.506  16.880  -4.243  1.00  0.00     0.223 A 
ENDROOT
BRANCH   1  11
ATOM     11  C   UNL     1      43.431  16.064  -3.052  1.00  0.00     0.091 A 
ATOM     12  C   UNL     1      43.094  16.906  -1.983  1.00  0.00     0.068 A 
ATOM     13  C   UNL     1      41.762  17.080  -1.593  1.00  0.00     0.162 A 
ATOM     14  C   UNL     1      42.406  15.419  -3.760  1.00  0.00     0.068 A 
ATOM     15  C   UNL     1      40.733  16.408  -2.298  1.00  0.00     0.200 A 
ATOM     16  C   UNL     1      41.069  15.582  -3.387  1.00  0.00     0.162 A 
BRANCH  13  17
ATOM     17  O   UNL     1      41.507  17.925  -0.511  1.00  0.00    -0.504 OA
ATOM     18  H   UNL     1      40.585  18.219  -0.226  1.00  0.00     0.293 HD
ENDBRANCH  13  17
BRANCH  15  19
ATOM     19  O   UNL     1      39.386  16.537  -1.952  1.00  0.00    -0.502 OA
ATOM     20  H   UNL     1      38.730  17.130  -2.438  1.00  0.00     0.293 HD
ENDBRANCH  15  19
BRANCH  16  21
ATOM     21  O   UNL     1      40.084  14.916  -4.116  1.00  0.00    -0.504 OA
ATOM     22  H   UNL     1      39.521  14.176  -3.715  1.00  0.00     0.293 HD
ENDBRANCH  16  21
ENDBRANCH   1  11
BRANCH  10  23
ATOM     23  O   UNL     1      44.823  17.991  -4.737  1.00  0.00    -0.500 OA
ATOM     24  H   UNL     1      44.428  18.003  -5.671  1.00  0.00     0.294 HD
ENDBRANCH  10  23
BRANCH   5  25
ATOM     25  O   UNL     1      49.355  12.029  -2.678  1.00  0.00    -0.507 OA
ATOM     26  H   UNL     1      50.278  12.049  -2.260  1.00  0.00     0.293 HD
ENDBRANCH   5  25
BRANCH   7  27
ATOM     27  O   UNL     1      49.699  16.134  -5.142  1.00  0.00    -0.507 OA
ATOM     28  H   UNL     1      50.684  15.991  -5.310  1.00  0.00     0.293 HD
ENDBRANCH   7  27
TORSDOF 7
ENDMDL
MODEL 5
REMARK VINA RESULT:    -5.339      1.525      3.177
REMARK INTER + INTRA:          -6.463
REMARK INTER:                  -6.443
REMARK INTRA:                  -0.020
REMARK UNBOUND:                 0.125
REMARK SMILES Oc1cc(O)c2cc(O)c(-c3cc(O)c(O)c(O)c3)[o+]c2c1
REMARK SMILES IDX 10 1 20 2 21 3 22 4 2 5 3 6 4 7 6 8 7 9 8 10 11 11 12 12
REMARK SMILES IDX 13 13 19 14 15 15 17 16 14 17 16 19 18 21 9 23 1 25 5 27
REMARK H PARENT 14 18 16 20 18 22 9 24 1 26 5 28
REMARK Flexibility Score: inf
ROOT
ATOM      1  C   UNL     1      45.863  15.603  -3.507  1.00  0.00     0.402 A 
ATOM      2  O   UNL     1      47.048  16.113  -3.833  1.00  0.00    -0.202 OA
ATOM      3  C   UNL     1      48.148  15.379  -3.961  1.00  0.00     0.368 A 
ATOM      4  C   UNL     1      49.347  16.005  -4.310  1.00  0.00     0.162 A 
ATOM      5  C   UNL     1      50.519  15.255  -4.455  1.00  0.00     0.128 A 
ATOM      6  C   UNL     1      50.490  13.874  -4.251  1.00  0.00     0.093 A 
ATOM      7  C   UNL     1      49.301  13.222  -3.902  1.00  0.00     0.136 A 
ATOM      8  C   UNL     1      48.110  13.978  -3.751  1.00  0.00     0.125 A 
ATOM      9  C   UNL     1      46.876  13.412  -3.390  1.00  0.00     0.078 A 
ATOM     10  C   UNL     1      45.745  14.224  -3.255  1.00  0.00     0.223 A 
ENDROOT
BRANCH   1  11
ATOM     11  C   UNL     1      44.708  16.525  -3.405  1.00  0.00     0.091 A 
ATOM     12  C   UNL     1      44.434  17.405  -4.461  1.00  0.00     0.068 A 
ATOM     13  C   UNL     1      43.340  18.277  -4.408  1.00  0.00     0.162 A 
ATOM     14  C   UNL     1      43.847  16.498  -2.299  1.00  0.00     0.068 A 
ATOM     15  C   UNL     1      42.487  18.261  -3.278  1.00  0.00     0.200 A 
ATOM     16  C   UNL     1      42.749  17.360  -2.228  1.00  0.00     0.162 A 
BRANCH  13  17
ATOM     17  O   UNL     1      43.139  19.133  -5.493  1.00  0.00    -0.504 OA
ATOM     18  H   UNL     1      42.330  19.725  -5.605  1.00  0.00     0.293 HD
ENDBRANCH  13  17
BRANCH  15  19
ATOM     19  O   UNL     1      41.384  19.111  -3.164  1.00  0.00    -0.502 OA
ATOM     20  H   UNL     1      40.435  18.841  -3.378  1.00  0.00     0.293 HD
ENDBRANCH  15  19
BRANCH  16  21
ATOM     21  O   UNL     1      41.923  17.302  -1.106  1.00  0.00    -0.504 OA
ATOM     22  H   UNL     1      41.513  18.131  -0.692  1.00  0.00     0.293 HD
ENDBRANCH  16  21
ENDBRANCH   1  11
BRANCH  10  23
ATOM     23  O   UNL     1      44.531  13.670  -2.849  1.00  0.00    -0.500 OA
ATOM     24  H   UNL     1      43.790  14.240  -2.457  1.00  0.00     0.294 HD
ENDBRANCH  10  23
BRANCH   5  25
ATOM     25  O   UNL     1      51.718  15.873  -4.801  1.00  0.00    -0.507 OA
ATOM     26  H   UNL     1      51.901  16.181  -5.750  1.00  0.00     0.293 HD
ENDBRANCH   5  25
BRANCH   7  27
ATOM     27  O   UNL     1      49.355  11.838  -3.718  1.00  0.00    -0.507 OA
ATOM     28  H   UNL     1      48.670  11.302  -3.206  1.00  0.00     0.293 HD
ENDBRANCH   7  27
TORSDOF 7
ENDMDL
MODEL 6
REMARK VINA RESULT:    -5.305      1.593      3.006
REMARK INTER + INTRA:          -6.421
REMARK INTER:                  -6.426
REMARK INTRA:                   0.005
REMARK UNBOUND:                 0.125
REMARK SMILES Oc1cc(O)c2cc(O)c(-c3cc(O)c(O)c(O)c3)[o+]c2c1
REMARK SMILES IDX 10 1 20 2 21 3 22 4 2 5 3 6 4 7 6 8 7 9 8 10 11 11 12 12
REMARK SMILES IDX 13 13 19 14 15 15 17 16 14 17 16 19 18 21 9 23 1 25 5 27
REMARK H PARENT 14 18 16 20 18 22 9 24 1 26 5 28
REMARK Flexibility Score: inf
ROOT
ATOM      1  C   UNL     1      46.004  16.032  -3.814  1.00  0.00     0.402 A 
ATOM      2  O   UNL     1      47.221  16.416  -4.193  1.00  0.00    -0.202 OA
ATOM      3  C   UNL     1      48.272  15.602  -4.203  1.00  0.00     0.368 A 
ATOM      4  C   UNL     1      49.511  16.096  -4.621  1.00  0.00     0.162 A 
ATOM      5  C   UNL     1      50.632  15.261  -4.644  1.00  0.00     0.128 A 
ATOM      6  C   UNL     1      50.513  13.926  -4.250  1.00  0.00     0.093 A 
ATOM      7  C   UNL     1      49.283  13.406  -3.827  1.00  0.00     0.136 A 
ATOM      8  C   UNL     1      48.143  14.250  -3.799  1.00  0.00     0.125 A 
ATOM      9  C   UNL     1      46.873  13.820  -3.378  1.00  0.00     0.078 A 
ATOM     10  C   UNL     1      45.796  14.712  -3.374  1.00  0.00     0.223 A 
ENDROOT
BRANCH   1  11
ATOM     11  C   UNL     1      44.911  17.030  -3.857  1.00  0.00     0.091 A 
ATOM     12  C   UNL     1      44.085  17.196  -2.736  1.00  0.00     0.068 A 
ATOM     13  C   UNL     1      43.055  18.143  -2.733  1.00  0.00     0.162 A 
ATOM     14  C   UNL     1      44.717  17.855  -4.974  1.00  0.00     0.068 A 
ATOM     15  C   UNL     1      42.849  18.957  -3.874  1.00  0.00     0.200 A 
ATOM     16  C   UNL     1      43.694  18.807  -4.989  1.00  0.00     0.162 A 
BRANCH  13  17
ATOM     17  O   UNL     1      42.266  18.241  -1.584  1.00  0.00    -0.504 OA
ATOM     18  H   UNL     1      42.447  18.882  -0.827  1.00  0.00     0.293 HD
ENDBRANCH  13  17
BRANCH  15  19
ATOM     19  O   UNL     1      41.834  19.914  -3.933  1.00  0.00    -0.502 OA
ATOM     20  H   UNL     1      41.942  20.832  -4.339  1.00  0.00     0.293 HD
ENDBRANCH  15  19
BRANCH  16  21
ATOM     21  O   UNL     1      43.535  19.601  -6.125  1.00  0.00    -0.504 OA
ATOM     22  H   UNL     1      43.152  20.539  -6.081  1.00  0.00     0.293 HD
ENDBRANCH  16  21
ENDBRANCH   1  11
BRANCH  10  23
ATOM     23  O   UNL     1      44.548  14.299  -2.909  1.00  0.00    -0.500 OA
ATOM     24  H   UNL     1      44.271  14.425  -1.942  1.00  0.00     0.294 HD
ENDBRANCH  10  23
BRANCH   5  25
ATOM     25  O   UNL     1      51.870  15.747  -5.058  1.00  0.00    -0.507 OA
ATOM     26  H   UNL     1      52.637  15.864  -4.406  1.00  0.00     0.293 HD
ENDBRANCH   5  25
BRANCH   7  27
ATOM     27  O   UNL     1      49.247  12.061  -3.452  1.00  0.00    -0.507 OA
ATOM     28  H   UNL     1      49.959  11.603  -2.901  1.00  0.00     0.293 HD
ENDBRANCH   7  27
TORSDOF 7
ENDMDL
MODEL 7
REMARK VINA RESULT:    -5.252      1.394      7.349
REMARK INTER + INTRA:          -6.355
REMARK INTER:                  -6.467
REMARK INTRA:                   0.112
REMARK UNBOUND:                 0.125
REMARK SMILES Oc1cc(O)c2cc(O)c(-c3cc(O)c(O)c(O)c3)[o+]c2c1
REMARK SMILES IDX 10 1 20 2 21 3 22 4 2 5 3 6 4 7 6 8 7 9 8 10 11 11 12 12
REMARK SMILES IDX 13 13 19 14 15 15 17 16 14 17 16 19 18 21 9 23 1 25 5 27
REMARK H PARENT 14 18 16 20 18 22 9 24 1 26 5 28
REMARK Flexibility Score: inf
ROOT
ATOM      1  C   UNL     1      45.500  15.847  -3.484  1.00  0.00     0.402 A 
ATOM      2  O   UNL     1      44.965  17.052  -3.310  1.00  0.00    -0.202 OA
ATOM      3  C   UNL     1      43.720  17.244  -2.886  1.00  0.00     0.368 A 
ATOM      4  C   UNL     1      43.247  18.550  -2.732  1.00  0.00     0.162 A 
ATOM      5  C   UNL     1      41.943  18.779  -2.284  1.00  0.00     0.128 A 
ATOM      6  C   UNL     1      41.109  17.699  -1.989  1.00  0.00     0.093 A 
ATOM      7  C   UNL     1      41.558  16.380  -2.134  1.00  0.00     0.136 A 
ATOM      8  C   UNL     1      42.880  16.142  -2.591  1.00  0.00     0.125 A 
ATOM      9  C   UNL     1      43.412  14.855  -2.779  1.00  0.00     0.078 A 
ATOM     10  C   UNL     1      44.724  14.699  -3.237  1.00  0.00     0.223 A 
ENDROOT
BRANCH   1  11
ATOM     11  C   UNL     1      46.903  15.764  -3.951  1.00  0.00     0.091 A 
ATOM     12  C   UNL     1      47.408  16.763  -4.795  1.00  0.00     0.068 A 
ATOM     13  C   UNL     1      48.734  16.728  -5.241  1.00  0.00     0.162 A 
ATOM     14  C   UNL     1      47.757  14.737  -3.523  1.00  0.00     0.068 A 
ATOM     15  C   UNL     1      49.585  15.676  -4.824  1.00  0.00     0.200 A 
ATOM     16  C   UNL     1      49.085  14.686  -3.957  1.00  0.00     0.162 A 
BRANCH  13  17
ATOM     17  O   UNL     1      49.161  17.752  -6.089  1.00  0.00    -0.504 OA
ATOM     18  H   UNL     1      49.829  17.629  -6.835  1.00  0.00     0.293 HD
ENDBRANCH  13  17
BRANCH  15  19
ATOM     19  O   UNL     1      50.915  15.583  -5.240  1.00  0.00    -0.502 OA
ATOM     20  H   UNL     1      51.506  14.781  -5.080  1.00  0.00     0.293 HD
ENDBRANCH  15  19
BRANCH  16  21
ATOM     21  O   UNL     1      49.896  13.643  -3.510  1.00  0.00    -0.504 OA
ATOM     22  H   UNL     1      50.030  13.445  -2.526  1.00  0.00     0.293 HD
ENDBRANCH  16  21
ENDBRANCH   1  11
BRANCH  10  23
ATOM     23  O   UNL     1      45.236  13.423  -3.472  1.00  0.00    -0.500 OA
ATOM     24  H   UNL     1      44.651  12.670  -3.816  1.00  0.00     0.294 HD
ENDBRANCH  10  23
BRANCH   5  25
ATOM     25  O   UNL     1      41.464  20.079  -2.129  1.00  0.00    -0.507 OA
ATOM     26  H   UNL     1      41.622  20.603  -1.276  1.00  0.00     0.293 HD
ENDBRANCH   5  25
BRANCH   7  27
ATOM     27  O   UNL     1      40.663  15.356  -1.815  1.00  0.00    -0.507 OA
ATOM     28  H   UNL     1      39.760  15.500  -1.388  1.00  0.00     0.293 HD
ENDBRANCH   7  27
TORSDOF 7
ENDMDL
MODEL 8
REMARK VINA RESULT:    -5.208      1.880      7.406
REMARK INTER + INTRA:          -6.301
REMARK INTER:                  -5.955
REMARK INTRA:                  -0.345
REMARK UNBOUND:                 0.125
REMARK SMILES Oc1cc(O)c2cc(O)c(-c3cc(O)c(O)c(O)c3)[o+]c2c1
REMARK SMILES IDX 10 1 20 2 21 3 22 4 2 5 3 6 4 7 6 8 7 9 8 10 11 11 12 12
REMARK SMILES IDX 13 13 19 14 15 15 17 16 14 17 16 19 18 21 9 23 1 25 5 27
REMARK H PARENT 14 18 16 20 18 22 9 24 1 26 5 28
REMARK Flexibility Score: inf
ROOT
ATOM      1  C   UNL     1      43.762  16.837  -3.408  1.00  0.00     0.402 A 
ATOM      2  O   UNL     1      43.595  17.861  -2.575  1.00  0.00    -0.202 OA
ATOM      3  C   UNL     1      42.433  18.485  -2.408  1.00  0.00     0.368 A 
ATOM      4  C   UNL     1      42.356  19.549  -1.506  1.00  0.00     0.162 A 
ATOM      5  C   UNL     1      41.145  20.220  -1.309  1.00  0.00     0.128 A 
ATOM      6  C   UNL     1      40.007  19.824  -2.015  1.00  0.00     0.093 A 
ATOM      7  C   UNL     1      40.058  18.759  -2.924  1.00  0.00     0.136 A 
ATOM      8  C   UNL     1      41.284  18.077  -3.130  1.00  0.00     0.125 A 
ATOM      9  C   UNL     1      41.432  17.008  -4.030  1.00  0.00     0.078 A 
ATOM     10  C   UNL     1      42.676  16.387  -4.182  1.00  0.00     0.223 A 
ENDROOT
BRANCH   1  11
ATOM     11  C   UNL     1      45.104  16.219  -3.499  1.00  0.00     0.091 A 
ATOM     12  C   UNL     1      46.136  16.905  -4.155  1.00  0.00     0.068 A 
ATOM     13  C   UNL     1      47.422  16.361  -4.244  1.00  0.00     0.162 A 
ATOM     14  C   UNL     1      45.384  14.987  -2.892  1.00  0.00     0.068 A 
ATOM     15  C   UNL     1      47.692  15.105  -3.649  1.00  0.00     0.200 A 
ATOM     16  C   UNL     1      46.663  14.428  -2.968  1.00  0.00     0.162 A 
BRANCH  13  17
ATOM     17  O   UNL     1      48.393  17.098  -4.925  1.00  0.00    -0.504 OA
ATOM     18  H   UNL     1      48.731  16.874  -5.848  1.00  0.00     0.293 HD
ENDBRANCH  13  17
BRANCH  15  19
ATOM     19  O   UNL     1      48.954  14.507  -3.709  1.00  0.00    -0.502 OA
ATOM     20  H   UNL     1      49.166  13.591  -3.343  1.00  0.00     0.293 HD
ENDBRANCH  15  19
BRANCH  16  21
ATOM     21  O   UNL     1      46.893  13.196  -2.355  1.00  0.00    -0.504 OA
ATOM     22  H   UNL     1      46.191  12.466  -2.325  1.00  0.00     0.293 HD
ENDBRANCH  16  21
ENDBRANCH   1  11
BRANCH  10  23
ATOM     23  O   UNL     1      42.835  15.359  -5.112  1.00  0.00    -0.500 OA
ATOM     24  H   UNL     1      42.652  14.391  -4.872  1.00  0.00     0.294 HD
ENDBRANCH  10  23
BRANCH   5  25
ATOM     25  O   UNL     1      41.061  21.283  -0.413  1.00  0.00    -0.507 OA
ATOM     26  H   UNL     1      40.272  21.920  -0.420  1.00  0.00     0.293 HD
ENDBRANCH   5  25
BRANCH   7  27
ATOM     27  O   UNL     1      38.875  18.423  -3.588  1.00  0.00    -0.507 OA
ATOM     28  H   UNL     1      38.787  18.338  -4.590  1.00  0.00     0.293 HD
ENDBRANCH   7  27
TORSDOF 7
ENDMDL
MODEL 9
REMARK VINA RESULT:    -5.132      2.105      8.014
REMARK INTER + INTRA:          -6.207
REMARK INTER:                  -6.080
REMARK INTRA:                  -0.126
REMARK UNBOUND:                 0.125
REMARK SMILES Oc1cc(O)c2cc(O)c(-c3cc(O)c(O)c(O)c3)[o+]c2c1
REMARK SMILES IDX 10 1 20 2 21 3 22 4 2 5 3 6 4 7 6 8 7 9 8 10 11 11 12 12
REMARK SMILES IDX 13 13 19 14 15 15 17 16 14 17 16 19 18 21 9 23 1 25 5 27
REMARK H PARENT 14 18 16 20 18 22 9 24 1 26 5 28
REMARK Flexibility Score: inf
ROOT
ATOM      1  C   UNL     1      47.647  15.326  -4.121  1.00  0.00     0.402 A 
ATOM      2  O   UNL     1      47.117  16.311  -4.841  1.00  0.00    -0.202 OA
ATOM      3  C   UNL     1      45.948  16.876  -4.558  1.00  0.00     0.368 A 
ATOM      4  C   UNL     1      45.475  17.907  -5.373  1.00  0.00     0.162 A 
ATOM      5  C   UNL     1      44.249  18.520  -5.095  1.00  0.00     0.128 A 
ATOM      6  C   UNL     1      43.495  18.101  -3.997  1.00  0.00     0.093 A 
ATOM      7  C   UNL     1      43.947  17.069  -3.164  1.00  0.00     0.136 A 
ATOM      8  C   UNL     1      45.188  16.442  -3.443  1.00  0.00     0.125 A 
ATOM      9  C   UNL     1      45.714  15.392  -2.672  1.00  0.00     0.078 A 
ATOM     10  C   UNL     1      46.944  14.820  -3.012  1.00  0.00     0.223 A 
ENDROOT
BRANCH   1  11
ATOM     11  C   UNL     1      48.963  14.787  -4.532  1.00  0.00     0.091 A 
ATOM     12  C   UNL     1      50.072  15.643  -4.589  1.00  0.00     0.068 A 
ATOM     13  C   UNL     1      51.335  15.165  -4.955  1.00  0.00     0.162 A 
ATOM     14  C   UNL     1      49.140  13.425  -4.814  1.00  0.00     0.068 A 
ATOM     15  C   UNL     1      51.502  13.792  -5.260  1.00  0.00     0.200 A 
ATOM     16  C   UNL     1      50.394  12.928  -5.180  1.00  0.00     0.162 A 
BRANCH  13  17
ATOM     17  O   UNL     1      52.388  16.081  -5.000  1.00  0.00    -0.504 OA
ATOM     18  H   UNL     1      53.209  15.973  -5.576  1.00  0.00     0.293 HD
ENDBRANCH  13  17
BRANCH  15  19
ATOM     19  O   UNL     1      52.736  13.257  -5.638  1.00  0.00    -0.502 OA
ATOM     20  H   UNL     1      52.853  12.360  -6.085  1.00  0.00     0.293 HD
ENDBRANCH  15  19
BRANCH  16  21
ATOM     21  O   UNL     1      50.521  11.567  -5.457  1.00  0.00    -0.504 OA
ATOM     22  H   UNL     1      50.502  10.862  -4.729  1.00  0.00     0.293 HD
ENDBRANCH  16  21
ENDBRANCH   1  11
BRANCH  10  23
ATOM     23  O   UNL     1      47.442  13.745  -2.276  1.00  0.00    -0.500 OA
ATOM     24  H   UNL     1      47.893  13.877  -1.377  1.00  0.00     0.294 HD
ENDBRANCH  10  23
BRANCH   5  25
ATOM     25  O   UNL     1      43.771  19.549  -5.904  1.00  0.00    -0.507 OA
ATOM     26  H   UNL     1      44.390  20.255  -6.284  1.00  0.00     0.293 HD
ENDBRANCH   5  25
BRANCH   7  27
ATOM     27  O   UNL     1      43.135  16.710  -2.086  1.00  0.00    -0.507 OA
ATOM     28  H   UNL     1      43.438  16.149  -1.304  1.00  0.00     0.293 HD
ENDBRANCH   7  27
TORSDOF 7
ENDMDL
