MODEL 1
REMARK VINA RESULT:    -4.065      0.000      0.000
REMARK INTER + INTRA:          -8.708
REMARK INTER:                  -6.204
REMARK INTRA:                  -2.504
REMARK UNBOUND:                -2.504
REMARK SMILES CC(=O)CCC=C(C)CCC=C(C)CCC=C(C)C
REMARK SMILES IDX 10 1 11 2 12 3 13 4 14 5 15 6 16 7 18 8 17 9 19 10 9 11 7 12
REMARK SMILES IDX 6 13 8 14 5 15 4 16 2 17 3 18 1 19
REMARK H PARENT
REMARK Flexibility Score: inf
ROOT
ATOM      1  C   UNL     1      11.603  58.726  23.512  1.00  0.00     0.032 C 
ENDROOT
BRANCH   1   2
ATOM      2  C   UNL     1      11.526  59.750  22.402  1.00  0.00    -0.028 C 
ATOM      3  C   UNL     1      12.169  59.650  21.216  1.00  0.00    -0.077 C 
ATOM      4  C   UNL     1      13.112  58.511  20.910  1.00  0.00     0.039 C 
BRANCH   3   5
ATOM      5  C   UNL     1      11.972  60.725  20.168  1.00  0.00     0.034 C 
BRANCH   5   6
ATOM      6  C   UNL     1      13.305  61.348  19.730  1.00  0.00     0.032 C 
BRANCH   6   7
ATOM      7  C   UNL     1      14.100  61.881  20.900  1.00  0.00    -0.028 C 
ATOM      8  C   UNL     1      16.184  60.752  20.114  1.00  0.00     0.039 C 
ATOM      9  C   UNL     1      15.411  61.616  21.083  1.00  0.00    -0.080 C 
ATOM     10  C   UNL     1      16.108  62.200  22.283  1.00  0.00     0.039 C 
ENDBRANCH   6   7
ENDBRANCH   5   6
ENDBRANCH   3   5
ENDBRANCH   1   2
BRANCH   1  11
ATOM     11  C   UNL     1      12.160  59.341  24.802  1.00  0.00     0.034 C 
BRANCH  11  12
ATOM     12  C   UNL     1      13.457  60.096  24.566  1.00  0.00    -0.077 C 
ATOM     13  C   UNL     1      13.543  61.443  24.636  1.00  0.00    -0.028 C 
ATOM     14  C   UNL     1      14.701  59.317  24.223  1.00  0.00     0.039 C 
BRANCH  13  15
ATOM     15  C   UNL     1      12.383  62.341  24.993  1.00  0.00     0.035 C 
BRANCH  15  16
ATOM     16  C   UNL     1      11.858  63.082  23.759  1.00  0.00     0.079 C 
BRANCH  16  17
ATOM     17  C   UNL     1      11.581  64.525  24.080  1.00  0.00     0.130 C 
ATOM     18  O   UNL     1      11.170  65.273  23.204  1.00  0.00    -0.300 OA
ATOM     19  C   UNL     1      11.786  65.048  25.468  1.00  0.00     0.087 C 
ENDBRANCH  16  17
ENDBRANCH  15  16
ENDBRANCH  13  15
ENDBRANCH  11  12
ENDBRANCH   1  11
TORSDOF 9
ENDMDL
MODEL 2
REMARK VINA RESULT:    -3.996     13.035     15.183
REMARK INTER + INTRA:          -8.602
REMARK INTER:                  -6.870
REMARK INTRA:                  -1.732
REMARK UNBOUND:                -2.504
REMARK SMILES CC(=O)CCC=C(C)CCC=C(C)CCC=C(C)C
REMARK SMILES IDX 10 1 11 2 12 3 13 4 14 5 15 6 16 7 18 8 17 9 19 10 9 11 7 12
REMARK SMILES IDX 6 13 8 14 5 15 4 16 2 17 3 18 1 19
REMARK H PARENT
REMARK Flexibility Score: inf
ROOT
ATOM      1  C   UNL     1      17.916  52.063  34.908  1.00  0.00     0.032 C 
ENDROOT
BRANCH   1   2
ATOM      2  C   UNL     1      16.588  52.085  34.186  1.00  0.00    -0.028 C 
ATOM      3  C   UNL     1      15.382  51.977  34.789  1.00  0.00    -0.077 C 
ATOM      4  C   UNL     1      15.247  51.743  36.275  1.00  0.00     0.039 C 
BRANCH   3   5
ATOM      5  C   UNL     1      14.121  52.060  33.954  1.00  0.00     0.034 C 
BRANCH   5   6
ATOM      6  C   UNL     1      13.378  50.717  33.906  1.00  0.00     0.032 C 
BRANCH   6   7
ATOM      7  C   UNL     1      13.713  49.921  32.666  1.00  0.00    -0.028 C 
ATOM      8  C   UNL     1      12.841  47.810  33.676  1.00  0.00     0.039 C 
ATOM      9  C   UNL     1      13.470  48.598  32.552  1.00  0.00    -0.080 C 
ATOM     10  C   UNL     1      13.842  47.901  31.269  1.00  0.00     0.039 C 
ENDBRANCH   6   7
ENDBRANCH   5   6
ENDBRANCH   3   5
ENDBRANCH   1   2
BRANCH   1  11
ATOM     11  C   UNL     1      18.352  53.474  35.322  1.00  0.00     0.034 C 
BRANCH  11  12
ATOM     12  C   UNL     1      19.055  54.212  34.195  1.00  0.00    -0.077 C 
ATOM     13  C   UNL     1      18.861  55.527  33.949  1.00  0.00    -0.028 C 
ATOM     14  C   UNL     1      19.996  53.447  33.299  1.00  0.00     0.039 C 
BRANCH  13  15
ATOM     15  C   UNL     1      17.967  56.414  34.780  1.00  0.00     0.035 C 
BRANCH  15  16
ATOM     16  C   UNL     1      16.722  56.836  33.994  1.00  0.00     0.079 C 
BRANCH  16  17
ATOM     17  C   UNL     1      15.602  55.854  34.201  1.00  0.00     0.130 C 
ATOM     18  O   UNL     1      15.072  55.326  33.234  1.00  0.00    -0.300 OA
ATOM     19  C   UNL     1      15.144  55.502  35.583  1.00  0.00     0.087 C 
ENDBRANCH  16  17
ENDBRANCH  15  16
ENDBRANCH  13  15
ENDBRANCH  11  12
ENDBRANCH   1  11
TORSDOF 9
ENDMDL
MODEL 3
REMARK VINA RESULT:    -3.994      1.494      3.647
REMARK INTER + INTRA:          -8.599
REMARK INTER:                  -6.229
REMARK INTRA:                  -2.371
REMARK UNBOUND:                -2.504
REMARK SMILES CC(=O)CCC=C(C)CCC=C(C)CCC=C(C)C
REMARK SMILES IDX 10 1 11 2 12 3 13 4 14 5 15 6 16 7 18 8 17 9 19 10 9 11 7 12
REMARK SMILES IDX 6 13 8 14 5 15 4 16 2 17 3 18 1 19
REMARK H PARENT
REMARK Flexibility Score: inf
ROOT
ATOM      1  C   UNL     1      17.281  62.388  24.118  1.00  0.00     0.032 C 
ENDROOT
BRANCH   1   2
ATOM      2  C   UNL     1      16.994  62.037  22.677  1.00  0.00    -0.028 C 
ATOM      3  C   UNL     1      16.962  60.779  22.182  1.00  0.00    -0.077 C 
ATOM      4  C   UNL     1      17.294  59.576  23.033  1.00  0.00     0.039 C 
BRANCH   3   5
ATOM      5  C   UNL     1      16.617  60.559  20.723  1.00  0.00     0.034 C 
BRANCH   5   6
ATOM      6  C   UNL     1      15.268  61.191  20.353  1.00  0.00     0.032 C 
BRANCH   6   7
ATOM      7  C   UNL     1      14.098  60.354  20.817  1.00  0.00    -0.028 C 
ATOM      8  C   UNL     1      12.468  61.795  19.592  1.00  0.00     0.039 C 
ATOM      9  C   UNL     1      12.820  60.620  20.474  1.00  0.00    -0.080 C 
ATOM     10  C   UNL     1      11.728  59.720  20.990  1.00  0.00     0.039 C 
ENDBRANCH   6   7
ENDBRANCH   5   6
ENDBRANCH   3   5
ENDBRANCH   1   2
BRANCH   1  11
ATOM     11  C   UNL     1      16.020  62.894  24.833  1.00  0.00     0.034 C 
BRANCH  11  12
ATOM     12  C   UNL     1      15.048  61.771  25.148  1.00  0.00    -0.077 C 
ATOM     13  C   UNL     1      13.841  61.658  24.549  1.00  0.00    -0.028 C 
ATOM     14  C   UNL     1      15.431  60.745  26.184  1.00  0.00     0.039 C 
BRANCH  13  15
ATOM     15  C   UNL     1      13.343  62.600  23.480  1.00  0.00     0.035 C 
BRANCH  15  16
ATOM     16  C   UNL     1      11.858  62.920  23.674  1.00  0.00     0.079 C 
BRANCH  16  17
ATOM     17  C   UNL     1      11.657  64.386  23.946  1.00  0.00     0.130 C 
ATOM     18  O   UNL     1      10.733  64.981  23.413  1.00  0.00    -0.300 OA
ATOM     19  C   UNL     1      12.570  65.117  24.883  1.00  0.00     0.087 C 
ENDBRANCH  16  17
ENDBRANCH  15  16
ENDBRANCH  13  15
ENDBRANCH  11  12
ENDBRANCH   1  11
TORSDOF 9
ENDMDL
MODEL 4
REMARK VINA RESULT:    -3.977     14.075     15.792
REMARK INTER + INTRA:          -8.573
REMARK INTER:                  -6.669
REMARK INTRA:                  -1.904
REMARK UNBOUND:                -2.504
REMARK SMILES CC(=O)CCC=C(C)CCC=C(C)CCC=C(C)C
REMARK SMILES IDX 10 1 11 2 12 3 13 4 14 5 15 6 16 7 18 8 17 9 19 10 9 11 7 12
REMARK SMILES IDX 6 13 8 14 5 15 4 16 2 17 3 18 1 19
REMARK H PARENT
REMARK Flexibility Score: inf
ROOT
ATOM      1  C   UNL     1      13.731  53.462  34.558  1.00  0.00     0.032 C 
ENDROOT
BRANCH   1   2
ATOM      2  C   UNL     1      14.010  52.738  33.260  1.00  0.00    -0.028 C 
ATOM      3  C   UNL     1      13.820  51.414  33.060  1.00  0.00    -0.077 C 
ATOM      4  C   UNL     1      13.368  50.494  34.169  1.00  0.00     0.039 C 
BRANCH   3   5
ATOM      5  C   UNL     1      14.097  50.819  31.695  1.00  0.00     0.034 C 
BRANCH   5   6
ATOM      6  C   UNL     1      13.461  49.430  31.537  1.00  0.00     0.032 C 
BRANCH   6   7
ATOM      7  C   UNL     1      14.470  48.382  31.129  1.00  0.00    -0.028 C 
ATOM      8  C   UNL     1      13.477  46.695  32.680  1.00  0.00     0.039 C 
ATOM      9  C   UNL     1      14.484  47.134  31.642  1.00  0.00    -0.080 C 
ATOM     10  C   UNL     1      15.533  46.165  31.163  1.00  0.00     0.039 C 
ENDBRANCH   6   7
ENDBRANCH   5   6
ENDBRANCH   3   5
ENDBRANCH   1   2
BRANCH   1  11
ATOM     11  C   UNL     1      15.031  53.904  35.243  1.00  0.00     0.034 C 
BRANCH  11  12
ATOM     12  C   UNL     1      15.748  52.747  35.917  1.00  0.00    -0.077 C 
ATOM     13  C   UNL     1      16.922  52.252  35.466  1.00  0.00    -0.028 C 
ATOM     14  C   UNL     1      15.121  52.109  37.130  1.00  0.00     0.039 C 
BRANCH  13  15
ATOM     15  C   UNL     1      17.669  52.811  34.279  1.00  0.00     0.035 C 
BRANCH  15  16
ATOM     16  C   UNL     1      17.618  51.847  33.090  1.00  0.00     0.079 C 
BRANCH  16  17
ATOM     17  C   UNL     1      18.986  51.662  32.493  1.00  0.00     0.130 C 
ATOM     18  O   UNL     1      19.295  50.584  32.005  1.00  0.00    -0.300 OA
ATOM     19  C   UNL     1      19.967  52.794  32.475  1.00  0.00     0.087 C 
ENDBRANCH  16  17
ENDBRANCH  15  16
ENDBRANCH  13  15
ENDBRANCH  11  12
ENDBRANCH   1  11
TORSDOF 9
ENDMDL
MODEL 5
REMARK VINA RESULT:    -3.957      2.461      5.076
REMARK INTER + INTRA:          -8.543
REMARK INTER:                  -5.607
REMARK INTRA:                  -2.937
REMARK UNBOUND:                -2.504
REMARK SMILES CC(=O)CCC=C(C)CCC=C(C)CCC=C(C)C
REMARK SMILES IDX 10 1 11 2 12 3 13 4 14 5 15 6 16 7 18 8 17 9 19 10 9 11 7 12
REMARK SMILES IDX 6 13 8 14 5 15 4 16 2 17 3 18 1 19
REMARK H PARENT
REMARK Flexibility Score: inf
ROOT
ATOM      1  C   UNL     1      16.014  60.926  20.096  1.00  0.00     0.032 C 
ENDROOT
BRANCH   1   2
ATOM      2  C   UNL     1      15.898  59.627  20.860  1.00  0.00    -0.028 C 
ATOM      3  C   UNL     1      16.844  59.135  21.692  1.00  0.00    -0.077 C 
ATOM      4  C   UNL     1      18.176  59.821  21.883  1.00  0.00     0.039 C 
BRANCH   3   5
ATOM      5  C   UNL     1      16.585  57.841  22.434  1.00  0.00     0.034 C 
BRANCH   5   6
ATOM      6  C   UNL     1      15.254  57.199  22.018  1.00  0.00     0.032 C 
BRANCH   6   7
ATOM      7  C   UNL     1      14.151  57.470  23.016  1.00  0.00    -0.028 C 
ATOM      8  C   UNL     1      12.604  58.267  21.225  1.00  0.00     0.039 C 
ATOM      9  C   UNL     1      12.942  57.954  22.664  1.00  0.00    -0.080 C 
ATOM     10  C   UNL     1      11.913  58.186  23.739  1.00  0.00     0.039 C 
ENDBRANCH   6   7
ENDBRANCH   5   6
ENDBRANCH   3   5
ENDBRANCH   1   2
BRANCH   1  11
ATOM     11  C   UNL     1      15.342  62.081  20.850  1.00  0.00     0.034 C 
BRANCH  11  12
ATOM     12  C   UNL     1      13.844  61.875  21.000  1.00  0.00    -0.077 C 
ATOM     13  C   UNL     1      13.215  61.931  22.195  1.00  0.00    -0.028 C 
ATOM     14  C   UNL     1      13.023  61.580  19.771  1.00  0.00     0.039 C 
BRANCH  13  15
ATOM     15  C   UNL     1      13.911  62.241  23.498  1.00  0.00     0.035 C 
BRANCH  15  16
ATOM     16  C   UNL     1      14.434  60.964  24.163  1.00  0.00     0.079 C 
BRANCH  16  17
ATOM     17  C   UNL     1      15.871  61.125  24.574  1.00  0.00     0.130 C 
ATOM     18  O   UNL     1      16.447  60.208  25.140  1.00  0.00    -0.300 OA
ATOM     19  C   UNL     1      16.609  62.395  24.277  1.00  0.00     0.087 C 
ENDBRANCH  16  17
ENDBRANCH  15  16
ENDBRANCH  13  15
ENDBRANCH  11  12
ENDBRANCH   1  11
TORSDOF 9
ENDMDL
MODEL 6
REMARK VINA RESULT:    -3.947      2.738      5.371
REMARK INTER + INTRA:          -8.528
REMARK INTER:                  -5.919
REMARK INTRA:                  -2.609
REMARK UNBOUND:                -2.504
REMARK SMILES CC(=O)CCC=C(C)CCC=C(C)CCC=C(C)C
REMARK SMILES IDX 10 1 11 2 12 3 13 4 14 5 15 6 16 7 18 8 17 9 19 10 9 11 7 12
REMARK SMILES IDX 6 13 8 14 5 15 4 16 2 17 3 18 1 19
REMARK H PARENT
REMARK Flexibility Score: inf
ROOT
ATOM      1  C   UNL     1      12.025  60.437  22.312  1.00  0.00     0.032 C 
ENDROOT
BRANCH   1   2
ATOM      2  C   UNL     1      12.852  60.955  23.466  1.00  0.00    -0.028 C 
ATOM      3  C   UNL     1      12.803  62.219  23.944  1.00  0.00    -0.077 C 
ATOM      4  C   UNL     1      11.946  63.284  23.301  1.00  0.00     0.039 C 
BRANCH   3   5
ATOM      5  C   UNL     1      13.653  62.600  25.138  1.00  0.00     0.034 C 
BRANCH   5   6
ATOM      6  C   UNL     1      15.083  62.976  24.726  1.00  0.00     0.032 C 
BRANCH   6   7
ATOM      7  C   UNL     1      16.075  61.877  25.032  1.00  0.00    -0.028 C 
ATOM      8  C   UNL     1      17.877  63.020  23.736  1.00  0.00     0.039 C 
ATOM      9  C   UNL     1      17.349  61.889  24.588  1.00  0.00    -0.080 C 
ATOM     10  C   UNL     1      18.255  60.743  24.953  1.00  0.00     0.039 C 
ENDBRANCH   6   7
ENDBRANCH   5   6
ENDBRANCH   3   5
ENDBRANCH   1   2
BRANCH   1  11
ATOM     11  C   UNL     1      12.901  60.128  21.090  1.00  0.00     0.034 C 
BRANCH  11  12
ATOM     12  C   UNL     1      13.219  61.373  20.281  1.00  0.00    -0.077 C 
ATOM     13  C   UNL     1      14.383  62.049  20.405  1.00  0.00    -0.028 C 
ATOM     14  C   UNL     1      12.191  61.891  19.308  1.00  0.00     0.039 C 
BRANCH  13  15
ATOM     15  C   UNL     1      15.506  61.626  21.322  1.00  0.00     0.035 C 
BRANCH  15  16
ATOM     16  C   UNL     1      16.439  60.628  20.630  1.00  0.00     0.079 C 
BRANCH  16  17
ATOM     17  C   UNL     1      16.940  59.599  21.605  1.00  0.00     0.130 C 
ATOM     18  O   UNL     1      18.137  59.364  21.678  1.00  0.00    -0.300 OA
ATOM     19  C   UNL     1      15.984  58.875  22.504  1.00  0.00     0.087 C 
ENDBRANCH  16  17
ENDBRANCH  15  16
ENDBRANCH  13  15
ENDBRANCH  11  12
ENDBRANCH   1  11
TORSDOF 9
ENDMDL
MODEL 7
REMARK VINA RESULT:    -3.925     13.063     15.394
REMARK INTER + INTRA:          -8.494
REMARK INTER:                  -6.360
REMARK INTRA:                  -2.134
REMARK UNBOUND:                -2.504
REMARK SMILES CC(=O)CCC=C(C)CCC=C(C)CCC=C(C)C
REMARK SMILES IDX 10 1 11 2 12 3 13 4 14 5 15 6 16 7 18 8 17 9 19 10 9 11 7 12
REMARK SMILES IDX 6 13 8 14 5 15 4 16 2 17 3 18 1 19
REMARK H PARENT
REMARK Flexibility Score: inf
ROOT
ATOM      1  C   UNL     1      17.310  51.857  31.902  1.00  0.00     0.032 C 
ENDROOT
BRANCH   1   2
ATOM      2  C   UNL     1      15.967  51.472  32.477  1.00  0.00    -0.028 C 
ATOM      3  C   UNL     1      14.955  52.337  32.717  1.00  0.00    -0.077 C 
ATOM      4  C   UNL     1      15.104  53.824  32.497  1.00  0.00     0.039 C 
BRANCH   3   5
ATOM      5  C   UNL     1      13.639  51.816  33.255  1.00  0.00     0.034 C 
BRANCH   5   6
ATOM      6  C   UNL     1      13.028  50.749  32.336  1.00  0.00     0.032 C 
BRANCH   6   7
ATOM      7  C   UNL     1      13.202  49.352  32.885  1.00  0.00    -0.028 C 
ATOM      8  C   UNL     1      13.925  48.472  30.663  1.00  0.00     0.039 C 
ATOM      9  C   UNL     1      13.612  48.310  32.132  1.00  0.00    -0.080 C 
ATOM     10  C   UNL     1      13.755  46.958  32.781  1.00  0.00     0.039 C 
ENDBRANCH   6   7
ENDBRANCH   5   6
ENDBRANCH   3   5
ENDBRANCH   1   2
BRANCH   1  11
ATOM     11  C   UNL     1      18.439  51.634  32.917  1.00  0.00     0.034 C 
BRANCH  11  12
ATOM     12  C   UNL     1      18.983  52.941  33.468  1.00  0.00    -0.077 C 
ATOM     13  C   UNL     1      18.548  53.484  34.627  1.00  0.00    -0.028 C 
ATOM     14  C   UNL     1      20.042  53.676  32.686  1.00  0.00     0.039 C 
BRANCH  13  15
ATOM     15  C   UNL     1      17.512  52.843  35.518  1.00  0.00     0.035 C 
BRANCH  15  16
ATOM     16  C   UNL     1      16.411  53.839  35.892  1.00  0.00     0.079 C 
BRANCH  16  17
ATOM     17  C   UNL     1      15.215  53.126  36.461  1.00  0.00     0.130 C 
ATOM     18  O   UNL     1      14.223  53.765  36.781  1.00  0.00    -0.300 OA
ATOM     19  C   UNL     1      15.223  51.637  36.620  1.00  0.00     0.087 C 
ENDBRANCH  16  17
ENDBRANCH  15  16
ENDBRANCH  13  15
ENDBRANCH  11  12
ENDBRANCH   1  11
TORSDOF 9
ENDMDL
MODEL 8
REMARK VINA RESULT:    -3.911      3.305      5.199
REMARK INTER + INTRA:          -8.473
REMARK INTER:                  -5.666
REMARK INTRA:                  -2.807
REMARK UNBOUND:                -2.504
REMARK SMILES CC(=O)CCC=C(C)CCC=C(C)CCC=C(C)C
REMARK SMILES IDX 10 1 11 2 12 3 13 4 14 5 15 6 16 7 18 8 17 9 19 10 9 11 7 12
REMARK SMILES IDX 6 13 8 14 5 15 4 16 2 17 3 18 1 19
REMARK H PARENT
REMARK Flexibility Score: inf
ROOT
ATOM      1  C   UNL     1      15.841  60.859  20.040  1.00  0.00     0.032 C 
ENDROOT
BRANCH   1   2
ATOM      2  C   UNL     1      16.468  59.765  20.873  1.00  0.00    -0.028 C 
ATOM      3  C   UNL     1      15.835  58.635  21.264  1.00  0.00    -0.077 C 
ATOM      4  C   UNL     1      14.376  58.389  20.960  1.00  0.00     0.039 C 
BRANCH   3   5
ATOM      5  C   UNL     1      16.592  57.593  22.060  1.00  0.00     0.034 C 
BRANCH   5   6
ATOM      6  C   UNL     1      18.102  57.653  21.790  1.00  0.00     0.032 C 
BRANCH   6   7
ATOM      7  C   UNL     1      18.887  58.064  23.015  1.00  0.00    -0.028 C 
ATOM      8  C   UNL     1      19.841  60.054  21.847  1.00  0.00     0.039 C 
ATOM      9  C   UNL     1      19.679  59.155  23.051  1.00  0.00    -0.080 C 
ATOM     10  C   UNL     1      20.416  59.475  24.325  1.00  0.00     0.039 C 
ENDBRANCH   6   7
ENDBRANCH   5   6
ENDBRANCH   3   5
ENDBRANCH   1   2
BRANCH   1  11
ATOM     11  C   UNL     1      15.371  62.029  20.915  1.00  0.00     0.034 C 
BRANCH  11  12
ATOM     12  C   UNL     1      13.883  61.962  21.214  1.00  0.00    -0.077 C 
ATOM     13  C   UNL     1      13.391  61.909  22.472  1.00  0.00    -0.028 C 
ATOM     14  C   UNL     1      12.909  61.935  20.063  1.00  0.00     0.039 C 
BRANCH  13  15
ATOM     15  C   UNL     1      14.250  61.952  23.712  1.00  0.00     0.035 C 
BRANCH  15  16
ATOM     16  C   UNL     1      14.579  60.540  24.206  1.00  0.00     0.079 C 
BRANCH  16  17
ATOM     17  C   UNL     1      16.040  60.417  24.541  1.00  0.00     0.130 C 
ATOM     18  O   UNL     1      16.449  59.421  25.118  1.00  0.00    -0.300 OA
ATOM     19  C   UNL     1      17.002  61.498  24.153  1.00  0.00     0.087 C 
ENDBRANCH  16  17
ENDBRANCH  15  16
ENDBRANCH  13  15
ENDBRANCH  11  12
ENDBRANCH   1  11
TORSDOF 9
ENDMDL
MODEL 9
REMARK VINA RESULT:    -3.900      2.055      4.720
REMARK INTER + INTRA:          -8.456
REMARK INTER:                  -5.533
REMARK INTRA:                  -2.923
REMARK UNBOUND:                -2.504
REMARK SMILES CC(=O)CCC=C(C)CCC=C(C)CCC=C(C)C
REMARK SMILES IDX 10 1 11 2 12 3 13 4 14 5 15 6 16 7 18 8 17 9 19 10 9 11 7 12
REMARK SMILES IDX 6 13 8 14 5 15 4 16 2 17 3 18 1 19
REMARK H PARENT
REMARK Flexibility Score: inf
ROOT
ATOM      1  C   UNL     1      15.808  61.214  20.201  1.00  0.00     0.032 C 
ENDROOT
BRANCH   1   2
ATOM      2  C   UNL     1      14.841  61.802  21.203  1.00  0.00    -0.028 C 
ATOM      3  C   UNL     1      13.505  61.905  21.015  1.00  0.00    -0.077 C 
ATOM      4  C   UNL     1      12.846  61.499  19.718  1.00  0.00     0.039 C 
BRANCH   3   5
ATOM      5  C   UNL     1      12.638  62.474  22.119  1.00  0.00     0.034 C 
BRANCH   5   6
ATOM      6  C   UNL     1      12.549  61.525  23.323  1.00  0.00     0.032 C 
BRANCH   6   7
ATOM      7  C   UNL     1      12.192  60.114  22.915  1.00  0.00    -0.028 C 
ATOM      8  C   UNL     1      12.840  59.209  25.150  1.00  0.00     0.039 C 
ATOM      9  C   UNL     1      12.319  59.054  23.740  1.00  0.00    -0.080 C 
ATOM     10  C   UNL     1      11.932  57.690  23.232  1.00  0.00     0.039 C 
ENDBRANCH   6   7
ENDBRANCH   5   6
ENDBRANCH   3   5
ENDBRANCH   1   2
BRANCH   1  11
ATOM     11  C   UNL     1      16.698  60.142  20.845  1.00  0.00     0.034 C 
BRANCH  11  12
ATOM     12  C   UNL     1      15.896  59.149  21.669  1.00  0.00    -0.077 C 
ATOM     13  C   UNL     1      15.996  59.065  23.014  1.00  0.00    -0.028 C 
ATOM     14  C   UNL     1      14.960  58.202  20.960  1.00  0.00     0.039 C 
BRANCH  13  15
ATOM     15  C   UNL     1      16.874  59.966  23.848  1.00  0.00     0.035 C 
BRANCH  15  16
ATOM     16  C   UNL     1      16.034  60.919  24.704  1.00  0.00     0.079 C 
BRANCH  16  17
ATOM     17  C   UNL     1      16.278  62.349  24.308  1.00  0.00     0.130 C 
ATOM     18  O   UNL     1      15.481  63.215  24.638  1.00  0.00    -0.300 OA
ATOM     19  C   UNL     1      17.502  62.724  23.530  1.00  0.00     0.087 C 
ENDBRANCH  16  17
ENDBRANCH  15  16
ENDBRANCH  13  15
ENDBRANCH  11  12
ENDBRANCH   1  11
TORSDOF 9
ENDMDL
