MODEL 1
REMARK VINA RESULT:    -7.169      0.000      0.000
REMARK INTER + INTRA:         -10.758
REMARK INTER:                  -9.893
REMARK INTRA:                  -0.865
REMARK UNBOUND:                -0.865
REMARK SMILES O=C([O-])[C@@H]1O[C@@H](Oc2cc3oc(-c4ccccc4)cc(=O)c3c(O)c2O)[C@H](O)[C@@H](O)[C@H]1O
REMARK SMILES IDX 7 1 6 2 4 3 31 4 5 5 29 6 27 7 2 8 1 9 3 10 32 11 30 13
REMARK SMILES IDX 28 15 8 17 25 18 9 19 23 20 10 21 22 22 11 23 20 24 12 25
REMARK SMILES IDX 19 26 21 27 26 28 24 30 13 32 14 33 18 34 15 35 17 36 16 37
REMARK H PARENT 32 12 30 14 28 16 26 29 24 31
REMARK Flexibility Score: inf
ROOT
ATOM      1  O   UNL     1      19.927   4.580   4.792  1.00  0.00    -0.458 OA
ENDROOT
BRANCH   1   2
ATOM      2  C   UNL     1      20.472   5.714   4.110  1.00  0.00     0.339 C 
ATOM      3  C   UNL     1      18.512   6.983   4.374  1.00  0.00     0.199 C 
ATOM      4  C   UNL     1      18.195   6.982   2.859  1.00  0.00     0.180 C 
ATOM      5  O   UNL     1      19.912   6.927   4.593  1.00  0.00    -0.328 OA
ATOM      6  C   UNL     1      18.796   5.735   2.182  1.00  0.00     0.181 C 
ATOM      7  C   UNL     1      20.278   5.564   2.583  1.00  0.00     0.214 C 
BRANCH   3   8
ATOM      8  C   UNL     1      17.976   8.231   5.009  1.00  0.00     0.073 C 
ATOM      9  O   UNL     1      17.912   9.305   4.353  1.00  0.00    -0.547 OA
ATOM     10  O   UNL     1      17.512   8.201   6.319  1.00  0.00    -0.547 OA
ENDBRANCH   3   8
BRANCH   4  11
ATOM     11  O   UNL     1      16.811   7.066   2.612  1.00  0.00    -0.387 OA
ATOM     12  H   UNL     1      16.394   7.563   3.364  1.00  0.00     0.211 HD
ENDBRANCH   4  11
BRANCH   6  13
ATOM     13  O   UNL     1      18.067   4.592   2.554  1.00  0.00    -0.387 OA
ATOM     14  H   UNL     1      18.726   3.866   2.709  1.00  0.00     0.211 HD
ENDBRANCH   6  13
BRANCH   7  15
ATOM     15  O   UNL     1      21.097   6.464   1.876  1.00  0.00    -0.384 OA
ATOM     16  H   UNL     1      21.861   5.956   1.496  1.00  0.00     0.211 HD
ENDBRANCH   7  15
ENDBRANCH   1   2
BRANCH   1  17
ATOM     17  C   UNL     1      19.927   4.394   6.186  1.00  0.00     0.172 A 
ATOM     18  C   UNL     1      20.893   3.545   6.752  1.00  0.00     0.201 A 
ATOM     19  C   UNL     1      18.994   5.031   7.020  1.00  0.00     0.098 A 
ATOM     20  C   UNL     1      20.925   3.328   8.142  1.00  0.00     0.176 A 
ATOM     21  C   UNL     1      19.016   4.824   8.399  1.00  0.00     0.146 A 
ATOM     22  C   UNL     1      19.980   3.969   8.977  1.00  0.00     0.111 A 
ATOM     23  O   UNL     1      18.117   5.442   9.160  1.00  0.00    -0.456 OA
ATOM     24  C   UNL     1      19.942   3.795  10.377  1.00  0.00     0.197 A 
ATOM     25  C   UNL     1      18.060   5.307  10.482  1.00  0.00     0.138 A 
ATOM     26  C   UNL     1      18.976   4.462  11.128  1.00  0.00     0.100 A 
ATOM     27  O   UNL     1      20.763   3.044  10.968  1.00  0.00    -0.289 OA
BRANCH  18  28
ATOM     28  O   UNL     1      21.831   2.905   5.939  1.00  0.00    -0.502 OA
ATOM     29  H   UNL     1      22.581   3.404   5.475  1.00  0.00     0.293 HD
ENDBRANCH  18  28
BRANCH  20  30
ATOM     30  O   UNL     1      21.889   2.477   8.691  1.00  0.00    -0.504 OA
ATOM     31  H   UNL     1      21.948   1.495   8.451  1.00  0.00     0.293 HD
ENDBRANCH  20  30
BRANCH  25  32
ATOM     32  C   UNL     1      17.011   6.050  11.229  1.00  0.00     0.017 A 
ATOM     33  C   UNL     1      17.357   7.223  11.927  1.00  0.00     0.012 A 
ATOM     34  C   UNL     1      15.678   5.594  11.291  1.00  0.00     0.012 A 
ATOM     35  C   UNL     1      16.395   7.932  12.649  1.00  0.00     0.001 A 
ATOM     36  C   UNL     1      14.718   6.310  12.015  1.00  0.00     0.001 A 
ATOM     37  C   UNL     1      15.075   7.477  12.691  1.00  0.00     0.000 A 
ENDBRANCH  25  32
ENDBRANCH   1  17
TORSDOF 9
ENDMDL
MODEL 2
REMARK VINA RESULT:    -6.549      1.780      2.323
REMARK INTER + INTRA:          -9.903
REMARK INTER:                  -9.040
REMARK INTRA:                  -0.863
REMARK UNBOUND:                -0.865
REMARK SMILES O=C([O-])[C@@H]1O[C@@H](Oc2cc3oc(-c4ccccc4)cc(=O)c3c(O)c2O)[C@H](O)[C@@H](O)[C@H]1O
REMARK SMILES IDX 7 1 6 2 4 3 31 4 5 5 29 6 27 7 2 8 1 9 3 10 32 11 30 13
REMARK SMILES IDX 28 15 8 17 25 18 9 19 23 20 10 21 22 22 11 23 20 24 12 25
REMARK SMILES IDX 19 26 21 27 26 28 24 30 13 32 14 33 18 34 15 35 17 36 16 37
REMARK H PARENT 32 12 30 14 28 16 26 29 24 31
REMARK Flexibility Score: inf
ROOT
ATOM      1  O   UNL     1      21.466   4.699   6.048  1.00  0.00    -0.458 OA
ENDROOT
BRANCH   1   2
ATOM      2  C   UNL     1      21.614   5.998   5.464  1.00  0.00     0.339 C 
ATOM      3  C   UNL     1      19.640   5.805   4.206  1.00  0.00     0.199 C 
ATOM      4  C   UNL     1      20.393   5.774   2.854  1.00  0.00     0.180 C 
ATOM      5  O   UNL     1      20.353   6.575   5.160  1.00  0.00    -0.328 OA
ATOM      6  C   UNL     1      21.816   5.214   3.042  1.00  0.00     0.181 C 
ATOM      7  C   UNL     1      22.525   5.923   4.217  1.00  0.00     0.214 C 
BRANCH   3   8
ATOM      8  C   UNL     1      18.279   6.409   4.022  1.00  0.00     0.073 C 
ATOM      9  O   UNL     1      17.292   5.683   3.730  1.00  0.00    -0.547 OA
ATOM     10  O   UNL     1      18.094   7.774   4.207  1.00  0.00    -0.547 OA
ENDBRANCH   3   8
BRANCH   4  11
ATOM     11  O   UNL     1      19.691   5.039   1.879  1.00  0.00    -0.387 OA
ATOM     12  H   UNL     1      20.330   4.411   1.448  1.00  0.00     0.211 HD
ENDBRANCH   4  11
BRANCH   6  13
ATOM     13  O   UNL     1      21.756   3.831   3.286  1.00  0.00    -0.387 OA
ATOM     14  H   UNL     1      21.642   3.715   4.265  1.00  0.00     0.211 HD
ENDBRANCH   6  13
BRANCH   7  15
ATOM     15  O   UNL     1      22.972   7.202   3.836  1.00  0.00    -0.384 OA
ATOM     16  H   UNL     1      23.278   7.680   4.650  1.00  0.00     0.211 HD
ENDBRANCH   7  15
ENDBRANCH   1   2
BRANCH   1  17
ATOM     17  C   UNL     1      20.368   4.277   6.816  1.00  0.00     0.172 A 
ATOM     18  C   UNL     1      19.855   2.985   6.605  1.00  0.00     0.201 A 
ATOM     19  C   UNL     1      19.774   5.105   7.782  1.00  0.00     0.098 A 
ATOM     20  C   UNL     1      18.753   2.524   7.349  1.00  0.00     0.176 A 
ATOM     21  C   UNL     1      18.681   4.659   8.526  1.00  0.00     0.146 A 
ATOM     22  C   UNL     1      18.156   3.365   8.318  1.00  0.00     0.111 A 
ATOM     23  O   UNL     1      18.142   5.470   9.431  1.00  0.00    -0.456 OA
ATOM     24  C   UNL     1      17.044   2.979   9.096  1.00  0.00     0.197 A 
ATOM     25  C   UNL     1      17.100   5.134  10.188  1.00  0.00     0.138 A 
ATOM     26  C   UNL     1      16.514   3.869  10.029  1.00  0.00     0.100 A 
ATOM     27  O   UNL     1      16.514   1.844   8.966  1.00  0.00    -0.289 OA
BRANCH  18  28
ATOM     28  O   UNL     1      20.434   2.145   5.651  1.00  0.00    -0.502 OA
ATOM     29  H   UNL     1      20.072   2.059   4.709  1.00  0.00     0.293 HD
ENDBRANCH  18  28
BRANCH  20  30
ATOM     30  O   UNL     1      18.251   1.239   7.126  1.00  0.00    -0.504 OA
ATOM     31  H   UNL     1      17.317   1.074   6.770  1.00  0.00     0.293 HD
ENDBRANCH  20  30
BRANCH  25  32
ATOM     32  C   UNL     1      16.584   6.124  11.170  1.00  0.00     0.017 A 
ATOM     33  C   UNL     1      17.464   7.075  11.722  1.00  0.00     0.012 A 
ATOM     34  C   UNL     1      15.240   6.118  11.595  1.00  0.00     0.012 A 
ATOM     35  C   UNL     1      17.008   8.007  12.657  1.00  0.00     0.001 A 
ATOM     36  C   UNL     1      14.789   7.055  12.531  1.00  0.00     0.001 A 
ATOM     37  C   UNL     1      15.671   7.998  13.060  1.00  0.00     0.000 A 
ENDBRANCH  25  32
ENDBRANCH   1  17
TORSDOF 9
ENDMDL
MODEL 3
REMARK VINA RESULT:    -6.480      2.627      3.720
REMARK INTER + INTRA:          -9.808
REMARK INTER:                  -8.561
REMARK INTRA:                  -1.247
REMARK UNBOUND:                -0.865
REMARK SMILES O=C([O-])[C@@H]1O[C@@H](Oc2cc3oc(-c4ccccc4)cc(=O)c3c(O)c2O)[C@H](O)[C@@H](O)[C@H]1O
REMARK SMILES IDX 7 1 6 2 4 3 31 4 5 5 29 6 27 7 2 8 1 9 3 10 32 11 30 13
REMARK SMILES IDX 28 15 8 17 25 18 9 19 23 20 10 21 22 22 11 23 20 24 12 25
REMARK SMILES IDX 19 26 21 27 26 28 24 30 13 32 14 33 18 34 15 35 17 36 16 37
REMARK H PARENT 32 12 30 14 28 16 26 29 24 31
REMARK Flexibility Score: inf
ROOT
ATOM      1  O   UNL     1      19.861   4.582   6.553  1.00  0.00    -0.458 OA
ENDROOT
BRANCH   1   2
ATOM      2  C   UNL     1      19.863   6.007   6.409  1.00  0.00     0.339 C 
ATOM      3  C   UNL     1      19.702   5.904   4.067  1.00  0.00     0.199 C 
ATOM      4  C   UNL     1      21.121   6.484   3.850  1.00  0.00     0.180 C 
ATOM      5  O   UNL     1      19.131   6.412   5.262  1.00  0.00    -0.328 OA
ATOM      6  C   UNL     1      22.025   6.165   5.057  1.00  0.00     0.181 C 
ATOM      7  C   UNL     1      21.315   6.539   6.377  1.00  0.00     0.214 C 
BRANCH   3   8
ATOM      8  C   UNL     1      18.816   6.274   2.915  1.00  0.00     0.073 C 
ATOM      9  O   UNL     1      18.790   5.562   1.875  1.00  0.00    -0.547 OA
ATOM     10  O   UNL     1      17.988   7.387   3.005  1.00  0.00    -0.547 OA
ENDBRANCH   3   8
BRANCH   4  11
ATOM     11  O   UNL     1      21.701   6.018   2.655  1.00  0.00    -0.387 OA
ATOM     12  H   UNL     1      22.658   6.287   2.651  1.00  0.00     0.211 HD
ENDBRANCH   4  11
BRANCH   6  13
ATOM     13  O   UNL     1      22.350   4.798   5.062  1.00  0.00    -0.387 OA
ATOM     14  H   UNL     1      21.755   4.361   5.726  1.00  0.00     0.211 HD
ENDBRANCH   6  13
BRANCH   7  15
ATOM     15  O   UNL     1      21.351   7.930   6.591  1.00  0.00    -0.384 OA
ATOM     16  H   UNL     1      22.194   8.149   7.067  1.00  0.00     0.211 HD
ENDBRANCH   7  15
ENDBRANCH   1   2
BRANCH   1  17
ATOM     17  C   UNL     1      19.638   3.890   7.756  1.00  0.00     0.172 A 
ATOM     18  C   UNL     1      20.749   3.451   8.496  1.00  0.00     0.201 A 
ATOM     19  C   UNL     1      18.343   3.627   8.232  1.00  0.00     0.098 A 
ATOM     20  C   UNL     1      20.569   2.750   9.703  1.00  0.00     0.176 A 
ATOM     21  C   UNL     1      18.153   2.932   9.427  1.00  0.00     0.146 A 
ATOM     22  C   UNL     1      19.263   2.484  10.176  1.00  0.00     0.111 A 
ATOM     23  O   UNL     1      16.913   2.699   9.848  1.00  0.00    -0.456 OA
ATOM     24  C   UNL     1      19.002   1.779  11.371  1.00  0.00     0.197 A 
ATOM     25  C   UNL     1      16.632   2.047  10.973  1.00  0.00     0.138 A 
ATOM     26  C   UNL     1      17.683   1.557  11.766  1.00  0.00     0.100 A 
ATOM     27  O   UNL     1      19.936   1.341  12.092  1.00  0.00    -0.289 OA
BRANCH  18  28
ATOM     28  O   UNL     1      22.044   3.706   8.040  1.00  0.00    -0.502 OA
ATOM     29  H   UNL     1      22.416   4.644   7.953  1.00  0.00     0.293 HD
ENDBRANCH  18  28
BRANCH  20  30
ATOM     30  O   UNL     1      21.683   2.316  10.428  1.00  0.00    -0.504 OA
ATOM     31  H   UNL     1      22.561   2.077   9.984  1.00  0.00     0.293 HD
ENDBRANCH  20  30
BRANCH  25  32
ATOM     32  C   UNL     1      15.207   1.847  11.344  1.00  0.00     0.017 A 
ATOM     33  C   UNL     1      14.825   1.936  12.697  1.00  0.00     0.012 A 
ATOM     34  C   UNL     1      14.225   1.534  10.383  1.00  0.00     0.012 A 
ATOM     35  C   UNL     1      13.495   1.738  13.075  1.00  0.00     0.001 A 
ATOM     36  C   UNL     1      12.894   1.338  10.768  1.00  0.00     0.001 A 
ATOM     37  C   UNL     1      12.530   1.442  12.110  1.00  0.00     0.000 A 
ENDBRANCH  25  32
ENDBRANCH   1  17
TORSDOF 9
ENDMDL
MODEL 4
REMARK VINA RESULT:    -6.409      3.166      8.344
REMARK INTER + INTRA:          -9.710
REMARK INTER:                  -8.306
REMARK INTRA:                  -1.404
REMARK UNBOUND:                -0.865
REMARK SMILES O=C([O-])[C@@H]1O[C@@H](Oc2cc3oc(-c4ccccc4)cc(=O)c3c(O)c2O)[C@H](O)[C@@H](O)[C@H]1O
REMARK SMILES IDX 7 1 6 2 4 3 31 4 5 5 29 6 27 7 2 8 1 9 3 10 32 11 30 13
REMARK SMILES IDX 28 15 8 17 25 18 9 19 23 20 10 21 22 22 11 23 20 24 12 25
REMARK SMILES IDX 19 26 21 27 26 28 24 30 13 32 14 33 18 34 15 35 17 36 16 37
REMARK H PARENT 32 12 30 14 28 16 26 29 24 31
REMARK Flexibility Score: inf
ROOT
ATOM      1  O   UNL     1      20.127   3.402   8.225  1.00  0.00    -0.458 OA
ENDROOT
BRANCH   1   2
ATOM      2  C   UNL     1      19.475   4.253   9.174  1.00  0.00     0.339 C 
ATOM      3  C   UNL     1      19.535   2.631  10.872  1.00  0.00     0.199 C 
ATOM      4  C   UNL     1      17.998   2.451  10.884  1.00  0.00     0.180 C 
ATOM      5  O   UNL     1      19.882   3.955  10.501  1.00  0.00    -0.328 OA
ATOM      6  C   UNL     1      17.403   2.798   9.506  1.00  0.00     0.181 C 
ATOM      7  C   UNL     1      17.940   4.159   9.011  1.00  0.00     0.214 C 
BRANCH   3   8
ATOM      8  C   UNL     1      20.095   2.352  12.235  1.00  0.00     0.073 C 
ATOM      9  O   UNL     1      20.550   3.290  12.943  1.00  0.00    -0.547 OA
ATOM     10  O   UNL     1      20.083   1.057  12.740  1.00  0.00    -0.547 OA
ENDBRANCH   3   8
BRANCH   4  11
ATOM     11  O   UNL     1      17.624   1.152  11.278  1.00  0.00    -0.387 OA
ATOM     12  H   UNL     1      18.453   0.638  11.469  1.00  0.00     0.211 HD
ENDBRANCH   4  11
BRANCH   6  13
ATOM     13  O   UNL     1      17.729   1.792   8.579  1.00  0.00    -0.387 OA
ATOM     14  H   UNL     1      17.287   0.959   8.889  1.00  0.00     0.211 HD
ENDBRANCH   6  13
BRANCH   7  15
ATOM     15  O   UNL     1      17.293   5.223   9.668  1.00  0.00    -0.384 OA
ATOM     16  H   UNL     1      16.773   4.849  10.426  1.00  0.00     0.211 HD
ENDBRANCH   7  15
ENDBRANCH   1   2
BRANCH   1  17
ATOM     17  C   UNL     1      20.405   3.740   6.889  1.00  0.00     0.172 A 
ATOM     18  C   UNL     1      19.824   2.973   5.865  1.00  0.00     0.201 A 
ATOM     19  C   UNL     1      21.242   4.817   6.554  1.00  0.00     0.098 A 
ATOM     20  C   UNL     1      20.081   3.274   4.514  1.00  0.00     0.176 A 
ATOM     21  C   UNL     1      21.504   5.125   5.219  1.00  0.00     0.146 A 
ATOM     22  C   UNL     1      20.928   4.357   4.183  1.00  0.00     0.111 A 
ATOM     23  O   UNL     1      22.303   6.151   4.937  1.00  0.00    -0.456 OA
ATOM     24  C   UNL     1      21.241   4.716   2.855  1.00  0.00     0.197 A 
ATOM     25  C   UNL     1      22.610   6.521   3.697  1.00  0.00     0.138 A 
ATOM     26  C   UNL     1      22.087   5.797   2.614  1.00  0.00     0.100 A 
ATOM     27  O   UNL     1      20.773   4.077   1.875  1.00  0.00    -0.289 OA
BRANCH  18  28
ATOM     28  O   UNL     1      18.986   1.900   6.178  1.00  0.00    -0.502 OA
ATOM     29  H   UNL     1      18.554   1.321   5.468  1.00  0.00     0.293 HD
ENDBRANCH  18  28
BRANCH  20  30
ATOM     30  O   UNL     1      19.500   2.500   3.506  1.00  0.00    -0.504 OA
ATOM     31  H   UNL     1      18.850   2.886   2.831  1.00  0.00     0.293 HD
ENDBRANCH  20  30
BRANCH  25  32
ATOM     32  C   UNL     1      23.512   7.686   3.504  1.00  0.00     0.017 A 
ATOM     33  C   UNL     1      23.532   8.714   4.468  1.00  0.00     0.012 A 
ATOM     34  C   UNL     1      24.328   7.814   2.362  1.00  0.00     0.012 A 
ATOM     35  C   UNL     1      24.359   9.827   4.304  1.00  0.00     0.001 A 
ATOM     36  C   UNL     1      25.157   8.931   2.205  1.00  0.00     0.001 A 
ATOM     37  C   UNL     1      25.173   9.934   3.174  1.00  0.00     0.000 A 
ENDBRANCH  25  32
ENDBRANCH   1  17
TORSDOF 9
ENDMDL
MODEL 5
REMARK VINA RESULT:    -6.398      2.698      3.574
REMARK INTER + INTRA:          -9.694
REMARK INTER:                  -8.598
REMARK INTRA:                  -1.096
REMARK UNBOUND:                -0.865
REMARK SMILES O=C([O-])[C@@H]1O[C@@H](Oc2cc3oc(-c4ccccc4)cc(=O)c3c(O)c2O)[C@H](O)[C@@H](O)[C@H]1O
REMARK SMILES IDX 7 1 6 2 4 3 31 4 5 5 29 6 27 7 2 8 1 9 3 10 32 11 30 13
REMARK SMILES IDX 28 15 8 17 25 18 9 19 23 20 10 21 22 22 11 23 20 24 12 25
REMARK SMILES IDX 19 26 21 27 26 28 24 30 13 32 14 33 18 34 15 35 17 36 16 37
REMARK H PARENT 32 12 30 14 28 16 26 29 24 31
REMARK Flexibility Score: inf
ROOT
ATOM      1  O   UNL     1      19.535   4.760   6.897  1.00  0.00    -0.458 OA
ENDROOT
BRANCH   1   2
ATOM      2  C   UNL     1      19.654   6.186   6.869  1.00  0.00     0.339 C 
ATOM      3  C   UNL     1      18.367   6.391   4.915  1.00  0.00     0.199 C 
ATOM      4  C   UNL     1      19.565   6.878   4.064  1.00  0.00     0.180 C 
ATOM      5  O   UNL     1      18.518   6.789   6.268  1.00  0.00    -0.328 OA
ATOM      6  C   UNL     1      20.890   6.339   4.639  1.00  0.00     0.181 C 
ATOM      7  C   UNL     1      20.964   6.600   6.160  1.00  0.00     0.214 C 
BRANCH   3   8
ATOM      8  C   UNL     1      17.091   6.972   4.383  1.00  0.00     0.073 C 
ATOM      9  O   UNL     1      16.629   8.044   4.860  1.00  0.00    -0.547 OA
ATOM     10  O   UNL     1      16.427   6.348   3.333  1.00  0.00    -0.547 OA
ENDBRANCH   3   8
BRANCH   4  11
ATOM     11  O   UNL     1      19.426   6.521   2.709  1.00  0.00    -0.387 OA
ATOM     12  H   UNL     1      19.788   7.262   2.157  1.00  0.00     0.211 HD
ENDBRANCH   4  11
BRANCH   6  13
ATOM     13  O   UNL     1      20.993   4.960   4.387  1.00  0.00    -0.387 OA
ATOM     14  H   UNL     1      20.776   4.824   3.428  1.00  0.00     0.211 HD
ENDBRANCH   6  13
BRANCH   7  15
ATOM     15  O   UNL     1      21.283   7.945   6.424  1.00  0.00    -0.384 OA
ATOM     16  H   UNL     1      22.133   7.969   6.935  1.00  0.00     0.211 HD
ENDBRANCH   7  15
ENDBRANCH   1   2
BRANCH   1  17
ATOM     17  C   UNL     1      19.364   3.982   8.055  1.00  0.00     0.172 A 
ATOM     18  C   UNL     1      20.504   3.462   8.691  1.00  0.00     0.201 A 
ATOM     19  C   UNL     1      18.093   3.714   8.589  1.00  0.00     0.098 A 
ATOM     20  C   UNL     1      20.376   2.674   9.851  1.00  0.00     0.176 A 
ATOM     21  C   UNL     1      17.954   2.935   9.737  1.00  0.00     0.146 A 
ATOM     22  C   UNL     1      19.093   2.404  10.381  1.00  0.00     0.111 A 
ATOM     23  O   UNL     1      16.736   2.699  10.215  1.00  0.00    -0.456 OA
ATOM     24  C   UNL     1      18.884   1.616  11.533  1.00  0.00     0.197 A 
ATOM     25  C   UNL     1      16.504   1.969  11.303  1.00  0.00     0.138 A 
ATOM     26  C   UNL     1      17.585   1.395  11.990  1.00  0.00     0.100 A 
ATOM     27  O   UNL     1      19.846   1.101  12.161  1.00  0.00    -0.289 OA
BRANCH  18  28
ATOM     28  O   UNL     1      21.777   3.720   8.177  1.00  0.00    -0.502 OA
ATOM     29  H   UNL     1      22.584   3.870   8.771  1.00  0.00     0.293 HD
ENDBRANCH  18  28
BRANCH  20  30
ATOM     30  O   UNL     1      21.518   2.160  10.471  1.00  0.00    -0.504 OA
ATOM     31  H   UNL     1      21.490   1.719  11.383  1.00  0.00     0.293 HD
ENDBRANCH  20  30
BRANCH  25  32
ATOM     32  C   UNL     1      15.097   1.775  11.744  1.00  0.00     0.017 A 
ATOM     33  C   UNL     1      14.110   1.462  10.791  1.00  0.00     0.012 A 
ATOM     34  C   UNL     1      14.712   1.932  13.091  1.00  0.00     0.012 A 
ATOM     35  C   UNL     1      12.778   1.289  11.176  1.00  0.00     0.001 A 
ATOM     36  C   UNL     1      13.377   1.756  13.471  1.00  0.00     0.001 A 
ATOM     37  C   UNL     1      12.413   1.434  12.516  1.00  0.00     0.000 A 
ENDBRANCH  25  32
ENDBRANCH   1  17
TORSDOF 9
ENDMDL
MODEL 6
REMARK VINA RESULT:    -6.379      3.167      8.045
REMARK INTER + INTRA:          -9.669
REMARK INTER:                  -8.632
REMARK INTRA:                  -1.037
REMARK UNBOUND:                -0.865
REMARK SMILES O=C([O-])[C@@H]1O[C@@H](Oc2cc3oc(-c4ccccc4)cc(=O)c3c(O)c2O)[C@H](O)[C@@H](O)[C@H]1O
REMARK SMILES IDX 7 1 6 2 4 3 31 4 5 5 29 6 27 7 2 8 1 9 3 10 32 11 30 13
REMARK SMILES IDX 28 15 8 17 25 18 9 19 23 20 10 21 22 22 11 23 20 24 12 25
REMARK SMILES IDX 19 26 21 27 26 28 24 30 13 32 14 33 18 34 15 35 17 36 16 37
REMARK H PARENT 32 12 30 14 28 16 26 29 24 31
REMARK Flexibility Score: inf
ROOT
ATOM      1  O   UNL     1      18.689   4.297   7.688  1.00  0.00    -0.458 OA
ENDROOT
BRANCH   1   2
ATOM      2  C   UNL     1      18.862   3.570   8.909  1.00  0.00     0.339 C 
ATOM      3  C   UNL     1      16.550   3.392   9.288  1.00  0.00     0.199 C 
ATOM      4  C   UNL     1      16.589   4.310  10.534  1.00  0.00     0.180 C 
ATOM      5  O   UNL     1      17.774   2.689   9.145  1.00  0.00    -0.328 OA
ATOM      6  C   UNL     1      17.769   5.296  10.441  1.00  0.00     0.181 C 
ATOM      7  C   UNL     1      19.073   4.547  10.088  1.00  0.00     0.214 C 
BRANCH   3   8
ATOM      8  C   UNL     1      15.436   2.396   9.418  1.00  0.00     0.073 C 
ATOM      9  O   UNL     1      15.114   1.943  10.549  1.00  0.00    -0.547 OA
ATOM     10  O   UNL     1      14.728   1.993   8.292  1.00  0.00    -0.547 OA
ENDBRANCH   3   8
BRANCH   4  11
ATOM     11  O   UNL     1      15.374   4.999  10.715  1.00  0.00    -0.387 OA
ATOM     12  H   UNL     1      15.479   5.606  11.495  1.00  0.00     0.211 HD
ENDBRANCH   4  11
BRANCH   6  13
ATOM     13  O   UNL     1      17.501   6.271   9.465  1.00  0.00    -0.387 OA
ATOM     14  H   UNL     1      17.086   5.802   8.694  1.00  0.00     0.211 HD
ENDBRANCH   6  13
BRANCH   7  15
ATOM     15  O   UNL     1      19.590   3.880  11.215  1.00  0.00    -0.384 OA
ATOM     16  H   UNL     1      19.115   4.216  12.020  1.00  0.00     0.211 HD
ENDBRANCH   7  15
ENDBRANCH   1   2
BRANCH   1  17
ATOM     17  C   UNL     1      19.564   4.255   6.589  1.00  0.00     0.172 A 
ATOM     18  C   UNL     1      19.666   3.062   5.854  1.00  0.00     0.201 A 
ATOM     19  C   UNL     1      20.334   5.368   6.210  1.00  0.00     0.098 A 
ATOM     20  C   UNL     1      20.534   2.977   4.749  1.00  0.00     0.176 A 
ATOM     21  C   UNL     1      21.198   5.295   5.117  1.00  0.00     0.146 A 
ATOM     22  C   UNL     1      21.310   4.098   4.374  1.00  0.00     0.111 A 
ATOM     23  O   UNL     1      21.913   6.366   4.786  1.00  0.00    -0.456 OA
ATOM     24  C   UNL     1      22.208   4.088   3.286  1.00  0.00     0.197 A 
ATOM     25  C   UNL     1      22.761   6.393   3.761  1.00  0.00     0.138 A 
ATOM     26  C   UNL     1      22.938   5.237   2.984  1.00  0.00     0.100 A 
ATOM     27  O   UNL     1      22.371   3.059   2.579  1.00  0.00    -0.289 OA
BRANCH  18  28
ATOM     28  O   UNL     1      18.906   1.946   6.214  1.00  0.00    -0.502 OA
ATOM     29  H   UNL     1      18.467   1.342   5.529  1.00  0.00     0.293 HD
ENDBRANCH  18  28
BRANCH  20  30
ATOM     30  O   UNL     1      20.628   1.782   4.029  1.00  0.00    -0.504 OA
ATOM     31  H   UNL     1      21.335   1.629   3.320  1.00  0.00     0.293 HD
ENDBRANCH  20  30
BRANCH  25  32
ATOM     32  C   UNL     1      23.506   7.649   3.485  1.00  0.00     0.017 A 
ATOM     33  C   UNL     1      24.257   7.762   2.300  1.00  0.00     0.012 A 
ATOM     34  C   UNL     1      23.512   8.725   4.396  1.00  0.00     0.012 A 
ATOM     35  C   UNL     1      24.978   8.926   2.023  1.00  0.00     0.001 A 
ATOM     36  C   UNL     1      24.235   9.889   4.112  1.00  0.00     0.001 A 
ATOM     37  C   UNL     1      24.965   9.990   2.927  1.00  0.00     0.000 A 
ENDBRANCH  25  32
ENDBRANCH   1  17
TORSDOF 9
ENDMDL
MODEL 7
REMARK VINA RESULT:    -6.323      2.565      3.348
REMARK INTER + INTRA:          -9.591
REMARK INTER:                  -8.486
REMARK INTRA:                  -1.105
REMARK UNBOUND:                -0.865
REMARK SMILES O=C([O-])[C@@H]1O[C@@H](Oc2cc3oc(-c4ccccc4)cc(=O)c3c(O)c2O)[C@H](O)[C@@H](O)[C@H]1O
REMARK SMILES IDX 7 1 6 2 4 3 31 4 5 5 29 6 27 7 2 8 1 9 3 10 32 11 30 13
REMARK SMILES IDX 28 15 8 17 25 18 9 19 23 20 10 21 22 22 11 23 20 24 12 25
REMARK SMILES IDX 19 26 21 27 26 28 24 30 13 32 14 33 18 34 15 35 17 36 16 37
REMARK H PARENT 32 12 30 14 28 16 26 29 24 31
REMARK Flexibility Score: inf
ROOT
ATOM      1  O   UNL     1      19.931   4.074   5.521  1.00  0.00    -0.458 OA
ENDROOT
BRANCH   1   2
ATOM      2  C   UNL     1      21.354   3.917   5.562  1.00  0.00     0.339 C 
ATOM      3  C   UNL     1      21.747   5.998   4.545  1.00  0.00     0.199 C 
ATOM      4  C   UNL     1      22.320   5.364   3.254  1.00  0.00     0.180 C 
ATOM      5  O   UNL     1      22.010   5.172   5.668  1.00  0.00    -0.328 OA
ATOM      6  C   UNL     1      21.732   3.957   3.036  1.00  0.00     0.181 C 
ATOM      7  C   UNL     1      21.840   3.120   4.330  1.00  0.00     0.214 C 
BRANCH   3   8
ATOM      8  C   UNL     1      22.374   7.340   4.780  1.00  0.00     0.073 C 
ATOM      9  O   UNL     1      21.874   8.141   5.615  1.00  0.00    -0.547 OA
ATOM     10  O   UNL     1      23.534   7.694   4.101  1.00  0.00    -0.547 OA
ENDBRANCH   3   8
BRANCH   4  11
ATOM     11  O   UNL     1      22.099   6.179   2.127  1.00  0.00    -0.387 OA
ATOM     12  H   UNL     1      21.590   5.648   1.459  1.00  0.00     0.211 HD
ENDBRANCH   4  11
BRANCH   6  13
ATOM     13  O   UNL     1      20.385   4.058   2.646  1.00  0.00    -0.387 OA
ATOM     14  H   UNL     1      20.349   3.855   1.676  1.00  0.00     0.211 HD
ENDBRANCH   6  13
BRANCH   7  15
ATOM     15  O   UNL     1      23.154   2.649   4.515  1.00  0.00    -0.384 OA
ATOM     16  H   UNL     1      23.520   3.066   5.338  1.00  0.00     0.211 HD
ENDBRANCH   7  15
ENDBRANCH   1   2
BRANCH   1  17
ATOM     17  C   UNL     1      19.052   3.780   6.577  1.00  0.00     0.172 A 
ATOM     18  C   UNL     1      18.495   2.492   6.652  1.00  0.00     0.201 A 
ATOM     19  C   UNL     1      18.718   4.734   7.553  1.00  0.00     0.098 A 
ATOM     20  C   UNL     1      17.606   2.159   7.691  1.00  0.00     0.176 A 
ATOM     21  C   UNL     1      17.838   4.415   8.587  1.00  0.00     0.146 A 
ATOM     22  C   UNL     1      17.270   3.125   8.668  1.00  0.00     0.111 A 
ATOM     23  O   UNL     1      17.542   5.343   9.493  1.00  0.00    -0.456 OA
ATOM     24  C   UNL     1      16.381   2.870   9.734  1.00  0.00     0.197 A 
ATOM     25  C   UNL     1      16.716   5.132  10.514  1.00  0.00     0.138 A 
ATOM     26  C   UNL     1      16.100   3.878  10.654  1.00  0.00     0.100 A 
ATOM     27  O   UNL     1      15.827   1.747   9.872  1.00  0.00    -0.289 OA
BRANCH  18  28
ATOM     28  O   UNL     1      18.817   1.529   5.693  1.00  0.00    -0.502 OA
ATOM     29  H   UNL     1      19.434   0.750   5.889  1.00  0.00     0.293 HD
ENDBRANCH  18  28
BRANCH  20  30
ATOM     30  O   UNL     1      17.057   0.875   7.751  1.00  0.00    -0.504 OA
ATOM     31  H   UNL     1      17.397   0.111   7.180  1.00  0.00     0.293 HD
ENDBRANCH  20  30
BRANCH  25  32
ATOM     32  C   UNL     1      16.462   6.245  11.466  1.00  0.00     0.017 A 
ATOM     33  C   UNL     1      15.141   6.530  11.861  1.00  0.00     0.012 A 
ATOM     34  C   UNL     1      17.506   7.053  11.961  1.00  0.00     0.012 A 
ATOM     35  C   UNL     1      14.873   7.580  12.743  1.00  0.00     0.001 A 
ATOM     36  C   UNL     1      17.231   8.102  12.846  1.00  0.00     0.001 A 
ATOM     37  C   UNL     1      15.918   8.364  13.237  1.00  0.00     0.000 A 
ENDBRANCH  25  32
ENDBRANCH   1  17
TORSDOF 9
ENDMDL
MODEL 8
REMARK VINA RESULT:    -5.964      2.135      2.882
REMARK INTER + INTRA:          -9.095
REMARK INTER:                  -8.074
REMARK INTRA:                  -1.022
REMARK UNBOUND:                -0.865
REMARK SMILES O=C([O-])[C@@H]1O[C@@H](Oc2cc3oc(-c4ccccc4)cc(=O)c3c(O)c2O)[C@H](O)[C@@H](O)[C@H]1O
REMARK SMILES IDX 7 1 6 2 4 3 31 4 5 5 29 6 27 7 2 8 1 9 3 10 32 11 30 13
REMARK SMILES IDX 28 15 8 17 25 18 9 19 23 20 10 21 22 22 11 23 20 24 12 25
REMARK SMILES IDX 19 26 21 27 26 28 24 30 13 32 14 33 18 34 15 35 17 36 16 37
REMARK H PARENT 32 12 30 14 28 16 26 29 24 31
REMARK Flexibility Score: inf
ROOT
ATOM      1  O   UNL     1      21.993   5.161   5.719  1.00  0.00    -0.458 OA
ENDROOT
BRANCH   1   2
ATOM      2  C   UNL     1      21.457   5.815   4.564  1.00  0.00     0.339 C 
ATOM      3  C   UNL     1      20.343   3.883   3.822  1.00  0.00     0.199 C 
ATOM      4  C   UNL     1      21.244   3.730   2.572  1.00  0.00     0.180 C 
ATOM      5  O   UNL     1      20.212   5.249   4.181  1.00  0.00    -0.328 OA
ATOM      6  C   UNL     1      22.629   4.356   2.825  1.00  0.00     0.181 C 
ATOM      7  C   UNL     1      22.481   5.780   3.406  1.00  0.00     0.214 C 
BRANCH   3   8
ATOM      8  C   UNL     1      18.979   3.327   3.542  1.00  0.00     0.073 C 
ATOM      9  O   UNL     1      18.599   3.134   2.356  1.00  0.00    -0.547 OA
ATOM     10  O   UNL     1      18.138   2.986   4.595  1.00  0.00    -0.547 OA
ENDBRANCH   3   8
BRANCH   4  11
ATOM     11  O   UNL     1      21.368   2.384   2.177  1.00  0.00    -0.387 OA
ATOM     12  H   UNL     1      21.745   2.367   1.258  1.00  0.00     0.211 HD
ENDBRANCH   4  11
BRANCH   6  13
ATOM     13  O   UNL     1      23.361   3.552   3.717  1.00  0.00    -0.387 OA
ATOM     14  H   UNL     1      24.109   4.107   4.060  1.00  0.00     0.211 HD
ENDBRANCH   6  13
BRANCH   7  15
ATOM     15  O   UNL     1      22.140   6.701   2.397  1.00  0.00    -0.384 OA
ATOM     16  H   UNL     1      21.240   7.067   2.602  1.00  0.00     0.211 HD
ENDBRANCH   7  15
ENDBRANCH   1   2
BRANCH   1  17
ATOM     17  C   UNL     1      21.234   4.523   6.715  1.00  0.00     0.172 A 
ATOM     18  C   UNL     1      21.416   3.144   6.921  1.00  0.00     0.201 A 
ATOM     19  C   UNL     1      20.305   5.222   7.503  1.00  0.00     0.098 A 
ATOM     20  C   UNL     1      20.672   2.466   7.904  1.00  0.00     0.176 A 
ATOM     21  C   UNL     1      19.562   4.559   8.481  1.00  0.00     0.146 A 
ATOM     22  C   UNL     1      19.735   3.174   8.692  1.00  0.00     0.111 A 
ATOM     23  O   UNL     1      18.690   5.251   9.208  1.00  0.00    -0.456 OA
ATOM     24  C   UNL     1      18.946   2.563   9.690  1.00  0.00     0.197 A 
ATOM     25  C   UNL     1      17.938   4.709  10.162  1.00  0.00     0.138 A 
ATOM     26  C   UNL     1      18.043   3.333  10.422  1.00  0.00     0.100 A 
ATOM     27  O   UNL     1      19.036   1.331   9.936  1.00  0.00    -0.289 OA
BRANCH  18  28
ATOM     28  O   UNL     1      22.338   2.433   6.149  1.00  0.00    -0.502 OA
ATOM     29  H   UNL     1      22.056   1.792   5.417  1.00  0.00     0.293 HD
ENDBRANCH  18  28
BRANCH  20  30
ATOM     30  O   UNL     1      20.861   1.094   8.096  1.00  0.00    -0.504 OA
ATOM     31  H   UNL     1      21.674   0.718   8.569  1.00  0.00     0.293 HD
ENDBRANCH  20  30
BRANCH  25  32
ATOM     32  C   UNL     1      16.998   5.583  10.912  1.00  0.00     0.017 A 
ATOM     33  C   UNL     1      17.472   6.781  11.481  1.00  0.00     0.012 A 
ATOM     34  C   UNL     1      15.647   5.230  11.104  1.00  0.00     0.012 A 
ATOM     35  C   UNL     1      16.613   7.613  12.203  1.00  0.00     0.001 A 
ATOM     36  C   UNL     1      14.792   6.069  11.827  1.00  0.00     0.001 A 
ATOM     37  C   UNL     1      15.274   7.258  12.374  1.00  0.00     0.000 A 
ENDBRANCH  25  32
ENDBRANCH   1  17
TORSDOF 9
ENDMDL
MODEL 9
REMARK VINA RESULT:    -5.887      2.773      4.283
REMARK INTER + INTRA:          -8.990
REMARK INTER:                  -7.836
REMARK INTRA:                  -1.154
REMARK UNBOUND:                -0.865
REMARK SMILES O=C([O-])[C@@H]1O[C@@H](Oc2cc3oc(-c4ccccc4)cc(=O)c3c(O)c2O)[C@H](O)[C@@H](O)[C@H]1O
REMARK SMILES IDX 7 1 6 2 4 3 31 4 5 5 29 6 27 7 2 8 1 9 3 10 32 11 30 13
REMARK SMILES IDX 28 15 8 17 25 18 9 19 23 20 10 21 22 22 11 23 20 24 12 25
REMARK SMILES IDX 19 26 21 27 26 28 24 30 13 32 14 33 18 34 15 35 17 36 16 37
REMARK H PARENT 32 12 30 14 28 16 26 29 24 31
REMARK Flexibility Score: inf
ROOT
ATOM      1  O   UNL     1      19.312   5.126   7.238  1.00  0.00    -0.458 OA
ENDROOT
BRANCH   1   2
ATOM      2  C   UNL     1      18.808   4.914   5.915  1.00  0.00     0.339 C 
ATOM      3  C   UNL     1      20.957   4.808   4.970  1.00  0.00     0.199 C 
ATOM      4  C   UNL     1      20.775   6.125   4.177  1.00  0.00     0.180 C 
ATOM      5  O   UNL     1      19.713   4.146   5.134  1.00  0.00    -0.328 OA
ATOM      6  C   UNL     1      19.764   7.047   4.886  1.00  0.00     0.181 C 
ATOM      7  C   UNL     1      18.479   6.267   5.244  1.00  0.00     0.214 C 
BRANCH   3   8
ATOM      8  C   UNL     1      21.894   3.894   4.238  1.00  0.00     0.073 C 
ATOM      9  O   UNL     1      22.328   4.205   3.096  1.00  0.00    -0.547 OA
ATOM     10  O   UNL     1      22.319   2.713   4.833  1.00  0.00    -0.547 OA
ENDBRANCH   3   8
BRANCH   4  11
ATOM     11  O   UNL     1      22.000   6.789   3.974  1.00  0.00    -0.387 OA
ATOM     12  H   UNL     1      22.133   7.426   4.725  1.00  0.00     0.211 HD
ENDBRANCH   4  11
BRANCH   6  13
ATOM     13  O   UNL     1      20.340   7.577   6.054  1.00  0.00    -0.387 OA
ATOM     14  H   UNL     1      19.880   8.438   6.238  1.00  0.00     0.211 HD
ENDBRANCH   6  13
BRANCH   7  15
ATOM     15  O   UNL     1      17.668   6.087   4.108  1.00  0.00    -0.384 OA
ATOM     16  H   UNL     1      16.800   5.708   4.403  1.00  0.00     0.211 HD
ENDBRANCH   7  15
ENDBRANCH   1   2
BRANCH   1  17
ATOM     17  C   UNL     1      19.182   4.226   8.310  1.00  0.00     0.172 A 
ATOM     18  C   UNL     1      20.339   3.608   8.814  1.00  0.00     0.201 A 
ATOM     19  C   UNL     1      17.935   3.930   8.884  1.00  0.00     0.098 A 
ATOM     20  C   UNL     1      20.253   2.696   9.882  1.00  0.00     0.176 A 
ATOM     21  C   UNL     1      17.837   3.028   9.944  1.00  0.00     0.146 A 
ATOM     22  C   UNL     1      18.994   2.399  10.455  1.00  0.00     0.111 A 
ATOM     23  O   UNL     1      16.641   2.769  10.464  1.00  0.00    -0.456 OA
ATOM     24  C   UNL     1      18.825   1.489  11.521  1.00  0.00     0.197 A 
ATOM     25  C   UNL     1      16.448   1.926  11.474  1.00  0.00     0.138 A 
ATOM     26  C   UNL     1      17.548   1.250  12.026  1.00  0.00     0.100 A 
ATOM     27  O   UNL     1      19.805   0.882  12.027  1.00  0.00    -0.289 OA
BRANCH  18  28
ATOM     28  O   UNL     1      21.588   3.892   8.257  1.00  0.00    -0.502 OA
ATOM     29  H   UNL     1      21.696   4.432   7.407  1.00  0.00     0.293 HD
ENDBRANCH  18  28
BRANCH  20  30
ATOM     30  O   UNL     1      21.411   2.086  10.371  1.00  0.00    -0.504 OA
ATOM     31  H   UNL     1      21.431   1.583  11.250  1.00  0.00     0.293 HD
ENDBRANCH  20  30
BRANCH  25  32
ATOM     32  C   UNL     1      15.063   1.718  11.974  1.00  0.00     0.017 A 
ATOM     33  C   UNL     1      14.085   1.195  11.106  1.00  0.00     0.012 A 
ATOM     34  C   UNL     1      14.687   2.063  13.288  1.00  0.00     0.012 A 
ATOM     35  C   UNL     1      12.773   1.004  11.545  1.00  0.00     0.001 A 
ATOM     36  C   UNL     1      13.372   1.867  13.723  1.00  0.00     0.001 A 
ATOM     37  C   UNL     1      12.418   1.337  12.854  1.00  0.00     0.000 A 
ENDBRANCH  25  32
ENDBRANCH   1  17
TORSDOF 9
ENDMDL
