MODEL 1
REMARK VINA RESULT:    -3.856      0.000      0.000
REMARK INTER + INTRA:          -7.270
REMARK INTER:                  -5.885
REMARK INTRA:                  -1.385
REMARK UNBOUND:                -1.385
REMARK SMILES CCCCCCCCCC=CC(=O)[O-]
REMARK SMILES IDX 7 1 8 2 9 3 10 4 11 5 12 6 13 7 14 8 6 9 5 10 4 11 3 12 2 13
REMARK SMILES IDX 1 14
REMARK H PARENT
REMARK Flexibility Score: inf
ROOT
ATOM      1  C   UNL     1      -2.959   3.615  16.792  1.00  0.00     0.000 C 
ENDROOT
BRANCH   1   2
ATOM      2  C   UNL     1      -2.542   4.518  15.626  1.00  0.00     0.004 C 
BRANCH   2   3
ATOM      3  C   UNL     1      -2.417   3.714  14.325  1.00  0.00     0.027 C 
BRANCH   3   4
ATOM      4  C   UNL     1      -2.273   2.243  14.603  1.00  0.00    -0.025 C 
ATOM      5  C   UNL     1      -2.123   1.277  13.682  1.00  0.00     0.020 C 
BRANCH   5   6
ATOM      6  C   UNL     1      -2.113   1.451  12.214  1.00  0.00     0.064 C 
ATOM      7  O   UNL     1      -3.204   1.404  11.588  1.00  0.00    -0.545 OA
ATOM      8  O   UNL     1      -0.944   1.691  11.503  1.00  0.00    -0.545 OA
ENDBRANCH   5   6
ENDBRANCH   3   4
ENDBRANCH   2   3
ENDBRANCH   1   2
BRANCH   1   9
ATOM      9  C   UNL     1      -1.893   3.621  17.899  1.00  0.00     0.000 C 
BRANCH   9  10
ATOM     10  C   UNL     1      -0.774   4.648  17.645  1.00  0.00     0.000 C 
BRANCH  10  11
ATOM     11  C   UNL     1       0.635   4.047  17.477  1.00  0.00    -0.000 C 
BRANCH  11  12
ATOM     12  C   UNL     1       0.739   2.893  16.460  1.00  0.00    -0.000 C 
BRANCH  12  13
ATOM     13  C   UNL     1       1.078   1.523  17.071  1.00  0.00    -0.003 C 
ATOM     14  C   UNL     1      -0.081   0.529  16.984  1.00  0.00     0.004 C 
ENDBRANCH  12  13
ENDBRANCH  11  12
ENDBRANCH  10  11
ENDBRANCH   9  10
ENDBRANCH   1   9
TORSDOF 9
ENDMDL
MODEL 2
REMARK VINA RESULT:    -3.716     13.564     15.128
REMARK INTER + INTRA:          -7.057
REMARK INTER:                  -6.296
REMARK INTRA:                  -0.761
REMARK UNBOUND:                -1.385
REMARK SMILES CCCCCCCCCC=CC(=O)[O-]
REMARK SMILES IDX 7 1 8 2 9 3 10 4 11 5 12 6 13 7 14 8 6 9 5 10 4 11 3 12 2 13
REMARK SMILES IDX 1 14
REMARK H PARENT
REMARK Flexibility Score: inf
ROOT
ATOM      1  C   UNL     1     -10.498  -8.188  17.102  1.00  0.00     0.000 C 
ENDROOT
BRANCH   1   2
ATOM      2  C   UNL     1     -11.569  -8.669  18.088  1.00  0.00     0.004 C 
BRANCH   2   3
ATOM      3  C   UNL     1     -11.610  -7.775  19.334  1.00  0.00     0.027 C 
BRANCH   3   4
ATOM      4  C   UNL     1     -11.003  -6.426  19.060  1.00  0.00    -0.025 C 
ATOM      5  C   UNL     1     -10.621  -5.530  19.985  1.00  0.00     0.020 C 
BRANCH   5   6
ATOM      6  C   UNL     1     -10.756  -5.664  21.451  1.00  0.00     0.064 C 
ATOM      7  O   UNL     1      -9.946  -6.401  22.072  1.00  0.00    -0.545 OA
ATOM      8  O   UNL     1     -11.730  -4.985  22.172  1.00  0.00    -0.545 OA
ENDBRANCH   5   6
ENDBRANCH   3   4
ENDBRANCH   2   3
ENDBRANCH   1   2
BRANCH   1   9
ATOM      9  C   UNL     1     -11.041  -8.176  15.665  1.00  0.00     0.000 C 
BRANCH   9  10
ATOM     10  C   UNL     1     -12.263  -7.253  15.496  1.00  0.00     0.000 C 
BRANCH  10  11
ATOM     11  C   UNL     1     -11.946  -5.845  14.957  1.00  0.00    -0.000 C 
BRANCH  11  12
ATOM     12  C   UNL     1     -13.070  -5.191  14.128  1.00  0.00    -0.000 C 
BRANCH  12  13
ATOM     13  C   UNL     1     -12.734  -4.972  12.644  1.00  0.00    -0.003 C 
ATOM     14  C   UNL     1     -11.459  -5.695  12.209  1.00  0.00     0.004 C 
ENDBRANCH  12  13
ENDBRANCH  11  12
ENDBRANCH  10  11
ENDBRANCH   9  10
ENDBRANCH   1   9
TORSDOF 9
ENDMDL
MODEL 3
REMARK VINA RESULT:    -3.639      1.027      2.083
REMARK INTER + INTRA:          -6.938
REMARK INTER:                  -5.982
REMARK INTRA:                  -0.957
REMARK UNBOUND:                -1.385
REMARK SMILES CCCCCCCCCC=CC(=O)[O-]
REMARK SMILES IDX 7 1 8 2 9 3 10 4 11 5 12 6 13 7 14 8 6 9 5 10 4 11 3 12 2 13
REMARK SMILES IDX 1 14
REMARK H PARENT
REMARK Flexibility Score: inf
ROOT
ATOM      1  C   UNL     1      -2.670   4.025  14.261  1.00  0.00     0.000 C 
ENDROOT
BRANCH   1   2
ATOM      2  C   UNL     1      -3.271   2.666  14.638  1.00  0.00     0.004 C 
BRANCH   2   3
ATOM      3  C   UNL     1      -2.605   1.532  13.848  1.00  0.00     0.027 C 
BRANCH   3   4
ATOM      4  C   UNL     1      -1.523   2.056  12.945  1.00  0.00    -0.025 C 
ATOM      5  C   UNL     1      -1.367   1.759  11.644  1.00  0.00     0.020 C 
BRANCH   5   6
ATOM      6  C   UNL     1      -2.195   0.829  10.847  1.00  0.00     0.064 C 
ATOM      7  O   UNL     1      -1.769  -0.337  10.636  1.00  0.00    -0.545 OA
ATOM      8  O   UNL     1      -3.439   1.188  10.343  1.00  0.00    -0.545 OA
ENDBRANCH   5   6
ENDBRANCH   3   4
ENDBRANCH   2   3
ENDBRANCH   1   2
BRANCH   1   9
ATOM      9  C   UNL     1      -2.332   4.843  15.517  1.00  0.00     0.000 C 
BRANCH   9  10
ATOM     10  C   UNL     1      -1.940   3.962  16.717  1.00  0.00     0.000 C 
BRANCH  10  11
ATOM     11  C   UNL     1      -0.904   4.586  17.672  1.00  0.00    -0.000 C 
BRANCH  11  12
ATOM     12  C   UNL     1       0.518   3.996  17.573  1.00  0.00    -0.000 C 
BRANCH  12  13
ATOM     13  C   UNL     1       0.704   2.940  16.471  1.00  0.00    -0.003 C 
ATOM     14  C   UNL     1       0.896   1.528  17.025  1.00  0.00     0.004 C 
ENDBRANCH  12  13
ENDBRANCH  11  12
ENDBRANCH  10  11
ENDBRANCH   9  10
ENDBRANCH   1   9
TORSDOF 9
ENDMDL
MODEL 4
REMARK VINA RESULT:    -3.598     12.444     14.259
REMARK INTER + INTRA:          -6.875
REMARK INTER:                  -6.103
REMARK INTRA:                  -0.772
REMARK UNBOUND:                -1.385
REMARK SMILES CCCCCCCCCC=CC(=O)[O-]
REMARK SMILES IDX 7 1 8 2 9 3 10 4 11 5 12 6 13 7 14 8 6 9 5 10 4 11 3 12 2 13
REMARK SMILES IDX 1 14
REMARK H PARENT
REMARK Flexibility Score: inf
ROOT
ATOM      1  C   UNL     1     -11.811  -8.598  17.744  1.00  0.00     0.000 C 
ENDROOT
BRANCH   1   2
ATOM      2  C   UNL     1     -11.557  -8.020  19.140  1.00  0.00     0.004 C 
BRANCH   2   3
ATOM      3  C   UNL     1     -10.748  -6.718  19.058  1.00  0.00     0.027 C 
BRANCH   3   4
ATOM      4  C   UNL     1     -11.532  -5.552  19.594  1.00  0.00    -0.025 C 
ATOM      5  C   UNL     1     -11.364  -4.264  19.250  1.00  0.00     0.020 C 
BRANCH   5   6
ATOM      6  C   UNL     1     -10.355  -3.726  18.314  1.00  0.00     0.064 C 
ATOM      7  O   UNL     1     -10.732  -3.306  17.188  1.00  0.00    -0.545 OA
ATOM      8  O   UNL     1      -9.008  -3.641  18.642  1.00  0.00    -0.545 OA
ENDBRANCH   5   6
ENDBRANCH   3   4
ENDBRANCH   2   3
ENDBRANCH   1   2
BRANCH   1   9
ATOM      9  C   UNL     1     -11.130  -7.744  16.664  1.00  0.00     0.000 C 
BRANCH   9  10
ATOM     10  C   UNL     1     -12.097  -7.317  15.543  1.00  0.00     0.000 C 
BRANCH  10  11
ATOM     11  C   UNL     1     -11.929  -5.864  15.057  1.00  0.00    -0.000 C 
BRANCH  11  12
ATOM     12  C   UNL     1     -13.113  -5.303  14.245  1.00  0.00    -0.000 C 
BRANCH  12  13
ATOM     13  C   UNL     1     -12.789  -4.962  12.781  1.00  0.00    -0.003 C 
ATOM     14  C   UNL     1     -11.522  -5.652  12.276  1.00  0.00     0.004 C 
ENDBRANCH  12  13
ENDBRANCH  11  12
ENDBRANCH  10  11
ENDBRANCH   9  10
ENDBRANCH   1   9
TORSDOF 9
ENDMDL
MODEL 5
REMARK VINA RESULT:    -3.589     15.824     16.994
REMARK INTER + INTRA:          -6.862
REMARK INTER:                  -5.335
REMARK INTRA:                  -1.527
REMARK UNBOUND:                -1.385
REMARK SMILES CCCCCCCCCC=CC(=O)[O-]
REMARK SMILES IDX 7 1 8 2 9 3 10 4 11 5 12 6 13 7 14 8 6 9 5 10 4 11 3 12 2 13
REMARK SMILES IDX 1 14
REMARK H PARENT
REMARK Flexibility Score: inf
ROOT
ATOM      1  C   UNL     1     -12.835  -8.177  25.391  1.00  0.00     0.000 C 
ENDROOT
BRANCH   1   2
ATOM      2  C   UNL     1     -11.514  -8.175  24.613  1.00  0.00     0.004 C 
BRANCH   2   3
ATOM      3  C   UNL     1     -11.324  -6.853  23.857  1.00  0.00     0.027 C 
BRANCH   3   4
ATOM      4  C   UNL     1     -12.255  -5.790  24.370  1.00  0.00    -0.025 C 
ATOM      5  C   UNL     1     -12.360  -4.538  23.896  1.00  0.00     0.020 C 
BRANCH   5   6
ATOM      6  C   UNL     1     -11.561  -3.937  22.808  1.00  0.00     0.064 C 
ATOM      7  O   UNL     1     -11.976  -4.033  21.623  1.00  0.00    -0.545 OA
ATOM      8  O   UNL     1     -10.380  -3.246  23.048  1.00  0.00    -0.545 OA
ENDBRANCH   5   6
ENDBRANCH   3   4
ENDBRANCH   2   3
ENDBRANCH   1   2
BRANCH   1   9
ATOM      9  C   UNL     1     -12.603  -8.534  26.867  1.00  0.00     0.000 C 
BRANCH   9  10
ATOM     10  C   UNL     1     -12.814  -7.336  27.811  1.00  0.00     0.000 C 
BRANCH  10  11
ATOM     11  C   UNL     1     -11.529  -6.583  28.205  1.00  0.00    -0.000 C 
BRANCH  11  12
ATOM     12  C   UNL     1     -11.522  -5.078  27.867  1.00  0.00    -0.000 C 
BRANCH  12  13
ATOM     13  C   UNL     1     -10.189  -4.546  27.314  1.00  0.00    -0.003 C 
ATOM     14  C   UNL     1      -9.318  -5.644  26.704  1.00  0.00     0.004 C 
ENDBRANCH  12  13
ENDBRANCH  11  12
ENDBRANCH  10  11
ENDBRANCH   9  10
ENDBRANCH   1   9
TORSDOF 9
ENDMDL
MODEL 6
REMARK VINA RESULT:    -3.544     12.523     14.181
REMARK INTER + INTRA:          -6.794
REMARK INTER:                  -6.312
REMARK INTRA:                  -0.482
REMARK UNBOUND:                -1.385
REMARK SMILES CCCCCCCCCC=CC(=O)[O-]
REMARK SMILES IDX 7 1 8 2 9 3 10 4 11 5 12 6 13 7 14 8 6 9 5 10 4 11 3 12 2 13
REMARK SMILES IDX 1 14
REMARK H PARENT
REMARK Flexibility Score: inf
ROOT
ATOM      1  C   UNL     1     -11.298  -4.816  16.416  1.00  0.00     0.000 C 
ENDROOT
BRANCH   1   2
ATOM      2  C   UNL     1     -10.648  -4.225  17.673  1.00  0.00     0.004 C 
BRANCH   2   3
ATOM      3  C   UNL     1     -11.349  -4.727  18.942  1.00  0.00     0.027 C 
BRANCH   3   4
ATOM      4  C   UNL     1     -11.982  -3.595  19.702  1.00  0.00    -0.025 C 
ATOM      5  C   UNL     1     -11.916  -3.401  21.029  1.00  0.00     0.020 C 
BRANCH   5   6
ATOM      6  C   UNL     1     -11.250  -4.276  22.016  1.00  0.00     0.064 C 
ATOM      7  O   UNL     1     -10.002  -4.434  21.946  1.00  0.00    -0.545 OA
ATOM      8  O   UNL     1     -11.948  -4.913  23.035  1.00  0.00    -0.545 OA
ENDBRANCH   5   6
ENDBRANCH   3   4
ENDBRANCH   2   3
ENDBRANCH   1   2
BRANCH   1   9
ATOM      9  C   UNL     1     -12.363  -3.865  15.850  1.00  0.00     0.000 C 
BRANCH   9  10
ATOM     10  C   UNL     1     -13.117  -4.461  14.647  1.00  0.00     0.000 C 
BRANCH  10  11
ATOM     11  C   UNL     1     -12.376  -5.594  13.911  1.00  0.00    -0.000 C 
BRANCH  11  12
ATOM     12  C   UNL     1     -12.063  -5.318  12.427  1.00  0.00    -0.000 C 
BRANCH  12  13
ATOM     13  C   UNL     1     -10.828  -6.055  11.879  1.00  0.00    -0.003 C 
ATOM     14  C   UNL     1     -10.054  -6.806  12.963  1.00  0.00     0.004 C 
ENDBRANCH  12  13
ENDBRANCH  11  12
ENDBRANCH  10  11
ENDBRANCH   9  10
ENDBRANCH   1   9
TORSDOF 9
ENDMDL
MODEL 7
REMARK VINA RESULT:    -3.520      9.941     11.921
REMARK INTER + INTRA:          -6.757
REMARK INTER:                  -5.710
REMARK INTRA:                  -1.048
REMARK UNBOUND:                -1.385
REMARK SMILES CCCCCCCCCC=CC(=O)[O-]
REMARK SMILES IDX 7 1 8 2 9 3 10 4 11 5 12 6 13 7 14 8 6 9 5 10 4 11 3 12 2 13
REMARK SMILES IDX 1 14
REMARK H PARENT
REMARK Flexibility Score: inf
ROOT
ATOM      1  C   UNL     1       7.113  -7.756  15.944  1.00  0.00     0.000 C 
ENDROOT
BRANCH   1   2
ATOM      2  C   UNL     1       6.566  -7.613  14.519  1.00  0.00     0.004 C 
BRANCH   2   3
ATOM      3  C   UNL     1       6.059  -6.186  14.266  1.00  0.00     0.027 C 
BRANCH   3   4
ATOM      4  C   UNL     1       6.495  -5.682  12.918  1.00  0.00    -0.025 C 
ATOM      5  C   UNL     1       6.514  -4.398  12.525  1.00  0.00     0.020 C 
BRANCH   5   6
ATOM      6  C   UNL     1       6.073  -3.228  13.312  1.00  0.00     0.064 C 
ATOM      7  O   UNL     1       4.855  -2.907  13.296  1.00  0.00    -0.545 OA
ATOM      8  O   UNL     1       6.950  -2.483  14.090  1.00  0.00    -0.545 OA
ENDBRANCH   5   6
ENDBRANCH   3   4
ENDBRANCH   2   3
ENDBRANCH   1   2
BRANCH   1   9
ATOM      9  C   UNL     1       6.293  -8.777  16.747  1.00  0.00     0.000 C 
BRANCH   9  10
ATOM     10  C   UNL     1       6.055  -8.339  18.203  1.00  0.00     0.000 C 
BRANCH  10  11
ATOM     11  C   UNL     1       6.868  -7.111  18.655  1.00  0.00    -0.000 C 
BRANCH  11  12
ATOM     12  C   UNL     1       6.032  -5.864  19.009  1.00  0.00    -0.000 C 
BRANCH  12  13
ATOM     13  C   UNL     1       5.516  -5.068  17.799  1.00  0.00    -0.003 C 
ATOM     14  C   UNL     1       6.571  -4.132  17.209  1.00  0.00     0.004 C 
ENDBRANCH  12  13
ENDBRANCH  11  12
ENDBRANCH  10  11
ENDBRANCH   9  10
ENDBRANCH   1   9
TORSDOF 9
ENDMDL
MODEL 8
REMARK VINA RESULT:    -3.460      3.076      4.937
REMARK INTER + INTRA:          -6.666
REMARK INTER:                  -5.680
REMARK INTRA:                  -0.986
REMARK UNBOUND:                -1.385
REMARK SMILES CCCCCCCCCC=CC(=O)[O-]
REMARK SMILES IDX 7 1 8 2 9 3 10 4 11 5 12 6 13 7 14 8 6 9 5 10 4 11 3 12 2 13
REMARK SMILES IDX 1 14
REMARK H PARENT
REMARK Flexibility Score: inf
ROOT
ATOM      1  C   UNL     1      -1.306   3.948  17.809  1.00  0.00     0.000 C 
ENDROOT
BRANCH   1   2
ATOM      2  C   UNL     1       0.024   4.399  17.194  1.00  0.00     0.004 C 
BRANCH   2   3
ATOM      3  C   UNL     1       1.157   3.434  17.567  1.00  0.00     0.027 C 
BRANCH   3   4
ATOM      4  C   UNL     1       1.097   2.175  16.747  1.00  0.00    -0.025 C 
ATOM      5  C   UNL     1       0.657   0.979  17.170  1.00  0.00     0.020 C 
BRANCH   5   6
ATOM      6  C   UNL     1       0.184   0.643  18.529  1.00  0.00     0.064 C 
ATOM      7  O   UNL     1      -1.055   0.580  18.745  1.00  0.00    -0.545 OA
ATOM      8  O   UNL     1       1.060   0.368  19.572  1.00  0.00    -0.545 OA
ENDBRANCH   5   6
ENDBRANCH   3   4
ENDBRANCH   2   3
ENDBRANCH   1   2
BRANCH   1   9
ATOM      9  C   UNL     1      -2.366   3.722  16.720  1.00  0.00     0.000 C 
BRANCH   9  10
ATOM     10  C   UNL     1      -2.279   4.753  15.579  1.00  0.00     0.000 C 
BRANCH  10  11
ATOM     11  C   UNL     1      -2.399   4.165  14.160  1.00  0.00    -0.000 C 
BRANCH  11  12
ATOM     12  C   UNL     1      -2.003   2.680  14.029  1.00  0.00    -0.000 C 
BRANCH  12  13
ATOM     13  C   UNL     1      -1.726   2.209  12.591  1.00  0.00    -0.003 C 
ATOM     14  C   UNL     1      -2.101   0.746  12.361  1.00  0.00     0.004 C 
ENDBRANCH  12  13
ENDBRANCH  11  12
ENDBRANCH  10  11
ENDBRANCH   9  10
ENDBRANCH   1   9
TORSDOF 9
ENDMDL
