MODEL 1
REMARK VINA RESULT:    -5.195      0.000      0.000
REMARK INTER + INTRA:          -6.058
REMARK INTER:                  -6.258
REMARK INTRA:                   0.200
REMARK UNBOUND:                 0.200
REMARK SMILES O=c1c(O)c(-c2ccc(O)c(O)c2)oc2cc(O)cc(O)c12
REMARK SMILES IDX 5 1 3 2 2 3 1 4 22 5 20 6 19 7 17 8 16 9 15 10 14 11 6 12
REMARK SMILES IDX 7 13 8 14 9 15 13 16 11 17 10 18 12 20 4 22 21 24 18 26
REMARK H PARENT 10 19 12 21 4 23 21 25 18 27
REMARK Flexibility Score: inf
ROOT
ATOM      1  C   UNL     1      97.855 103.735  90.152  1.00  0.00     0.180 A 
ATOM      2  C   UNL     1      97.578 105.038  89.693  1.00  0.00     0.208 A 
ATOM      3  C   UNL     1      98.609 105.780  89.095  1.00  0.00     0.238 A 
ATOM      4  O   UNL     1      98.376 106.951  88.691  1.00  0.00    -0.285 OA
ATOM      5  C   UNL     1      99.887 105.204  88.948  1.00  0.00     0.111 A 
ATOM      6  C   UNL     1     100.978 105.882  88.354  1.00  0.00     0.134 A 
ATOM      7  C   UNL     1     102.218 105.236  88.236  1.00  0.00     0.093 A 
ATOM      8  C   UNL     1     102.388 103.930  88.697  1.00  0.00     0.123 A 
ATOM      9  C   UNL     1     101.314 103.254  89.286  1.00  0.00     0.094 A 
ATOM     10  C   UNL     1     100.071 103.881  89.415  1.00  0.00     0.146 A 
ATOM     11  O   UNL     1      99.068 103.219  89.982  1.00  0.00    -0.452 OA
ENDROOT
BRANCH   1  12
ATOM     12  C   UNL     1      96.826 102.898  90.809  1.00  0.00     0.025 A 
ATOM     13  C   UNL     1      95.510 102.910  90.321  1.00  0.00     0.016 A 
ATOM     14  C   UNL     1      94.527 102.111  90.912  1.00  0.00     0.051 A 
ATOM     15  C   UNL     1      94.851 101.278  91.991  1.00  0.00     0.157 A 
ATOM     16  C   UNL     1      97.151 102.044  91.879  1.00  0.00     0.062 A 
ATOM     17  C   UNL     1      96.166 101.241  92.472  1.00  0.00     0.158 A 
BRANCH  15  18
ATOM     18  O   UNL     1      93.875 100.481  92.585  1.00  0.00    -0.504 OA
ATOM     19  H   UNL     1      94.120  99.715  93.202  1.00  0.00     0.293 HD
ENDBRANCH  15  18
BRANCH  17  20
ATOM     20  O   UNL     1      96.488 100.400  93.536  1.00  0.00    -0.504 OA
ATOM     21  H   UNL     1      97.264 100.602  94.155  1.00  0.00     0.293 HD
ENDBRANCH  17  20
ENDBRANCH   1  12
BRANCH   2  22
ATOM     22  O   UNL     1      96.290 105.568  89.807  1.00  0.00    -0.502 OA
ATOM     23  H   UNL     1      96.118 106.506  90.146  1.00  0.00     0.293 HD
ENDBRANCH   2  22
BRANCH   6  24
ATOM     24  O   UNL     1     100.842 107.189  87.882  1.00  0.00    -0.507 OA
ATOM     25  H   UNL     1     100.796 107.982  88.511  1.00  0.00     0.293 HD
ENDBRANCH   6  24
BRANCH   8  26
ATOM     26  O   UNL     1     103.629 103.310  88.566  1.00  0.00    -0.508 OA
ATOM     27  H   UNL     1     104.078 103.209  87.663  1.00  0.00     0.293 HD
ENDBRANCH   8  26
TORSDOF 6
ENDMDL
MODEL 2
REMARK VINA RESULT:    -4.850      1.273      6.517
REMARK INTER + INTRA:          -5.642
REMARK INTER:                  -5.720
REMARK INTRA:                   0.078
REMARK UNBOUND:                 0.200
REMARK SMILES O=c1c(O)c(-c2ccc(O)c(O)c2)oc2cc(O)cc(O)c12
REMARK SMILES IDX 5 1 3 2 2 3 1 4 22 5 20 6 19 7 17 8 16 9 15 10 14 11 6 12
REMARK SMILES IDX 7 13 8 14 9 15 13 16 11 17 10 18 12 20 4 22 21 24 18 26
REMARK H PARENT 10 19 12 21 4 23 21 25 18 27
REMARK Flexibility Score: inf
ROOT
ATOM      1  C   UNL     1      98.662 104.146  89.425  1.00  0.00     0.180 A 
ATOM      2  C   UNL     1      97.958 105.355  89.263  1.00  0.00     0.208 A 
ATOM      3  C   UNL     1      96.624 105.427  89.697  1.00  0.00     0.238 A 
ATOM      4  O   UNL     1      95.981 106.501  89.546  1.00  0.00    -0.285 OA
ATOM      5  C   UNL     1      96.026 104.304  90.302  1.00  0.00     0.111 A 
ATOM      6  C   UNL     1      94.691 104.295  90.770  1.00  0.00     0.134 A 
ATOM      7  C   UNL     1      94.171 103.138  91.371  1.00  0.00     0.093 A 
ATOM      8  C   UNL     1      94.958 101.994  91.512  1.00  0.00     0.123 A 
ATOM      9  C   UNL     1      96.279 101.996  91.051  1.00  0.00     0.094 A 
ATOM     10  C   UNL     1      96.815 103.138  90.449  1.00  0.00     0.146 A 
ATOM     11  O   UNL     1      98.070 103.112  90.015  1.00  0.00    -0.452 OA
ENDROOT
BRANCH   1  12
ATOM     12  C   UNL     1     100.063 103.985  88.977  1.00  0.00     0.025 A 
ATOM     13  C   UNL     1     101.013 104.963  89.313  1.00  0.00     0.016 A 
ATOM     14  C   UNL     1     102.346 104.822  88.918  1.00  0.00     0.051 A 
ATOM     15  C   UNL     1     102.751 103.693  88.194  1.00  0.00     0.157 A 
ATOM     16  C   UNL     1     100.479 102.844  88.267  1.00  0.00     0.062 A 
ATOM     17  C   UNL     1     101.816 102.700  87.872  1.00  0.00     0.158 A 
BRANCH  15  18
ATOM     18  O   UNL     1     104.078 103.548  87.796  1.00  0.00    -0.504 OA
ATOM     19  H   UNL     1     104.845 103.715  88.437  1.00  0.00     0.293 HD
ENDBRANCH  15  18
BRANCH  17  20
ATOM     20  O   UNL     1     102.226 101.572  87.163  1.00  0.00    -0.504 OA
ATOM     21  H   UNL     1     102.432 101.615  86.172  1.00  0.00     0.293 HD
ENDBRANCH  17  20
ENDBRANCH   1  12
BRANCH   2  22
ATOM     22  O   UNL     1      98.588 106.470  88.704  1.00  0.00    -0.502 OA
ATOM     23  H   UNL     1      99.548 106.446  88.381  1.00  0.00     0.293 HD
ENDBRANCH   2  22
BRANCH   6  24
ATOM     24  O   UNL     1      93.878 105.423  90.645  1.00  0.00    -0.507 OA
ATOM     25  H   UNL     1      94.032 106.257  91.199  1.00  0.00     0.293 HD
ENDBRANCH   6  24
BRANCH   8  26
ATOM     26  O   UNL     1      94.419 100.859  92.113  1.00  0.00    -0.508 OA
ATOM     27  H   UNL     1      93.424 100.775  92.290  1.00  0.00     0.293 HD
ENDBRANCH   8  26
TORSDOF 6
ENDMDL
MODEL 3
REMARK VINA RESULT:    -3.952      2.273      7.077
REMARK INTER + INTRA:          -4.560
REMARK INTER:                  -4.350
REMARK INTRA:                  -0.211
REMARK UNBOUND:                 0.200
REMARK SMILES O=c1c(O)c(-c2ccc(O)c(O)c2)oc2cc(O)cc(O)c12
REMARK SMILES IDX 5 1 3 2 2 3 1 4 22 5 20 6 19 7 17 8 16 9 15 10 14 11 6 12
REMARK SMILES IDX 7 13 8 14 9 15 13 16 11 17 10 18 12 20 4 22 21 24 18 26
REMARK H PARENT 10 19 12 21 4 23 21 25 18 27
REMARK Flexibility Score: inf
ROOT
ATOM      1  C   UNL     1      97.543 103.868  89.352  1.00  0.00     0.180 A 
ATOM      2  C   UNL     1      97.109 103.601  90.665  1.00  0.00     0.208 A 
ATOM      3  C   UNL     1      96.057 102.692  90.861  1.00  0.00     0.238 A 
ATOM      4  O   UNL     1      95.653 102.454  92.031  1.00  0.00    -0.285 OA
ATOM      5  C   UNL     1      95.474 102.052  89.749  1.00  0.00     0.111 A 
ATOM      6  C   UNL     1      94.414 101.120  89.859  1.00  0.00     0.134 A 
ATOM      7  C   UNL     1      93.893 100.518  88.704  1.00  0.00     0.093 A 
ATOM      8  C   UNL     1      94.409 100.827  87.445  1.00  0.00     0.123 A 
ATOM      9  C   UNL     1      95.457 101.747  87.328  1.00  0.00     0.094 A 
ATOM     10  C   UNL     1      95.988 102.359  88.467  1.00  0.00     0.146 A 
ATOM     11  O   UNL     1      96.980 103.233  88.329  1.00  0.00    -0.452 OA
ENDROOT
BRANCH   1  12
ATOM     12  C   UNL     1      98.633 104.827  89.064  1.00  0.00     0.025 A 
ATOM     13  C   UNL     1      99.955 104.492  89.396  1.00  0.00     0.016 A 
ATOM     14  C   UNL     1     101.002 105.373  89.113  1.00  0.00     0.051 A 
ATOM     15  C   UNL     1     100.743 106.596  88.481  1.00  0.00     0.157 A 
ATOM     16  C   UNL     1      98.380 106.047  88.410  1.00  0.00     0.062 A 
ATOM     17  C   UNL     1      99.431 106.931  88.125  1.00  0.00     0.158 A 
BRANCH  15  18
ATOM     18  O   UNL     1     101.783 107.479  88.199  1.00  0.00    -0.504 OA
ATOM     19  H   UNL     1     102.543 107.629  88.853  1.00  0.00     0.293 HD
ENDBRANCH  15  18
BRANCH  17  20
ATOM     20  O   UNL     1      99.179 108.143  87.483  1.00  0.00    -0.504 OA
ATOM     21  H   UNL     1      99.046 108.193  86.480  1.00  0.00     0.293 HD
ENDBRANCH  17  20
ENDBRANCH   1  12
BRANCH   2  22
ATOM     22  O   UNL     1      97.736 104.212  91.754  1.00  0.00    -0.502 OA
ATOM     23  H   UNL     1      98.685 104.562  91.708  1.00  0.00     0.293 HD
ENDBRANCH   2  22
BRANCH   6  24
ATOM     24  O   UNL     1      93.875 100.789  91.104  1.00  0.00    -0.507 OA
ATOM     25  H   UNL     1      94.112  99.924  91.575  1.00  0.00     0.293 HD
ENDBRANCH   6  24
BRANCH   8  26
ATOM     26  O   UNL     1      93.875 100.214  86.314  1.00  0.00    -0.508 OA
ATOM     27  H   UNL     1      93.854 100.685  85.416  1.00  0.00     0.293 HD
ENDBRANCH   8  26
TORSDOF 6
ENDMDL
MODEL 4
REMARK VINA RESULT:    -3.925      2.117      6.464
REMARK INTER + INTRA:          -4.527
REMARK INTER:                  -4.474
REMARK INTRA:                  -0.053
REMARK UNBOUND:                 0.200
REMARK SMILES O=c1c(O)c(-c2ccc(O)c(O)c2)oc2cc(O)cc(O)c12
REMARK SMILES IDX 5 1 3 2 2 3 1 4 22 5 20 6 19 7 17 8 16 9 15 10 14 11 6 12
REMARK SMILES IDX 7 13 8 14 9 15 13 16 11 17 10 18 12 20 4 22 21 24 18 26
REMARK H PARENT 10 19 12 21 4 23 21 25 18 27
REMARK Flexibility Score: inf
ROOT
ATOM      1  C   UNL     1      98.722 103.965  89.574  1.00  0.00     0.180 A 
ATOM      2  C   UNL     1      98.130 105.082  90.196  1.00  0.00     0.208 A 
ATOM      3  C   UNL     1      96.745 105.073  90.430  1.00  0.00     0.238 A 
ATOM      4  O   UNL     1      96.203 106.072  90.975  1.00  0.00    -0.285 OA
ATOM      5  C   UNL     1      95.983 103.946  90.060  1.00  0.00     0.111 A 
ATOM      6  C   UNL     1      94.586 103.856  90.264  1.00  0.00     0.134 A 
ATOM      7  C   UNL     1      93.899 102.696  89.877  1.00  0.00     0.093 A 
ATOM      8  C   UNL     1      94.580 101.627  89.292  1.00  0.00     0.123 A 
ATOM      9  C   UNL     1      95.961 101.710  89.087  1.00  0.00     0.094 A 
ATOM     10  C   UNL     1      96.663 102.858  89.464  1.00  0.00     0.146 A 
ATOM     11  O   UNL     1      97.974 102.913  89.254  1.00  0.00    -0.452 OA
ENDROOT
BRANCH   1  12
ATOM     12  C   UNL     1     100.171 103.907  89.277  1.00  0.00     0.025 A 
ATOM     13  C   UNL     1     100.762 104.929  88.519  1.00  0.00     0.016 A 
ATOM     14  C   UNL     1     102.133 104.906  88.244  1.00  0.00     0.051 A 
ATOM     15  C   UNL     1     102.933 103.867  88.736  1.00  0.00     0.157 A 
ATOM     16  C   UNL     1     100.983 102.876  89.787  1.00  0.00     0.062 A 
ATOM     17  C   UNL     1     102.357 102.853  89.512  1.00  0.00     0.158 A 
BRANCH  15  18
ATOM     18  O   UNL     1     104.299 103.837  88.463  1.00  0.00    -0.504 OA
ATOM     19  H   UNL     1     104.671 103.315  87.678  1.00  0.00     0.293 HD
ENDBRANCH  15  18
BRANCH  17  20
ATOM     20  O   UNL     1     103.159 101.828  90.012  1.00  0.00    -0.504 OA
ATOM     21  H   UNL     1     104.132 101.738  89.744  1.00  0.00     0.293 HD
ENDBRANCH  17  20
ENDBRANCH   1  12
BRANCH   2  22
ATOM     22  O   UNL     1      98.915 106.166  90.596  1.00  0.00    -0.502 OA
ATOM     23  H   UNL     1      98.513 107.023  90.956  1.00  0.00     0.293 HD
ENDBRANCH   2  22
BRANCH   6  24
ATOM     24  O   UNL     1      93.875 104.907  90.847  1.00  0.00    -0.507 OA
ATOM     25  H   UNL     1      92.880 104.842  91.029  1.00  0.00     0.293 HD
ENDBRANCH   6  24
BRANCH   8  26
ATOM     26  O   UNL     1      93.875 100.485  88.918  1.00  0.00    -0.508 OA
ATOM     27  H   UNL     1      94.232  99.849  88.213  1.00  0.00     0.293 HD
ENDBRANCH   8  26
TORSDOF 6
ENDMDL
MODEL 5
REMARK VINA RESULT:    -3.588      2.015      6.781
REMARK INTER + INTRA:          -4.122
REMARK INTER:                  -3.950
REMARK INTRA:                  -0.171
REMARK UNBOUND:                 0.200
REMARK SMILES O=c1c(O)c(-c2ccc(O)c(O)c2)oc2cc(O)cc(O)c12
REMARK SMILES IDX 5 1 3 2 2 3 1 4 22 5 20 6 19 7 17 8 16 9 15 10 14 11 6 12
REMARK SMILES IDX 7 13 8 14 9 15 13 16 11 17 10 18 12 20 4 22 21 24 18 26
REMARK H PARENT 10 19 12 21 4 23 21 25 18 27
REMARK Flexibility Score: inf
ROOT
ATOM      1  C   UNL     1      98.574 104.056  89.492  1.00  0.00     0.180 A 
ATOM      2  C   UNL     1      97.989 103.135  90.382  1.00  0.00     0.208 A 
ATOM      3  C   UNL     1      96.650 103.318  90.764  1.00  0.00     0.238 A 
ATOM      4  O   UNL     1      96.118 102.506  91.570  1.00  0.00    -0.285 OA
ATOM      5  C   UNL     1      95.916 104.400  90.237  1.00  0.00     0.111 A 
ATOM      6  C   UNL     1      94.563 104.652  90.567  1.00  0.00     0.134 A 
ATOM      7  C   UNL     1      93.899 105.746  89.991  1.00  0.00     0.093 A 
ATOM      8  C   UNL     1      94.558 106.589  89.095  1.00  0.00     0.123 A 
ATOM      9  C   UNL     1      95.896 106.345  88.765  1.00  0.00     0.094 A 
ATOM     10  C   UNL     1      96.576 105.262  89.329  1.00  0.00     0.146 A 
ATOM     11  O   UNL     1      97.847 105.055  89.002  1.00  0.00    -0.452 OA
ENDROOT
BRANCH   1  12
ATOM     12  C   UNL     1      99.984 103.942  89.057  1.00  0.00     0.025 A 
ATOM     13  C   UNL     1     100.915 104.908  89.472  1.00  0.00     0.016 A 
ATOM     14  C   UNL     1     102.256 104.809  89.091  1.00  0.00     0.051 A 
ATOM     15  C   UNL     1     102.688 103.734  88.303  1.00  0.00     0.157 A 
ATOM     16  C   UNL     1     100.427 102.853  88.283  1.00  0.00     0.062 A 
ATOM     17  C   UNL     1     101.772 102.752  87.902  1.00  0.00     0.158 A 
BRANCH  15  18
ATOM     18  O   UNL     1     104.023 103.632  87.919  1.00  0.00    -0.504 OA
ATOM     19  H   UNL     1     104.503 102.739  87.904  1.00  0.00     0.293 HD
ENDBRANCH  15  18
BRANCH  17  20
ATOM     20  O   UNL     1     102.209 101.677  87.130  1.00  0.00    -0.504 OA
ATOM     21  H   UNL     1     102.571 101.811  86.193  1.00  0.00     0.293 HD
ENDBRANCH  17  20
ENDBRANCH   1  12
BRANCH   2  22
ATOM     22  O   UNL     1      98.723 102.043  90.853  1.00  0.00    -0.502 OA
ATOM     23  H   UNL     1      99.597 101.755  90.433  1.00  0.00     0.293 HD
ENDBRANCH   2  22
BRANCH   6  24
ATOM     24  O   UNL     1      93.875 103.828  91.459  1.00  0.00    -0.507 OA
ATOM     25  H   UNL     1      93.539 104.170  92.351  1.00  0.00     0.293 HD
ENDBRANCH   6  24
BRANCH   8  26
ATOM     26  O   UNL     1      93.875 107.667  88.536  1.00  0.00    -0.508 OA
ATOM     27  H   UNL     1      93.269 108.258  89.095  1.00  0.00     0.293 HD
ENDBRANCH   8  26
TORSDOF 6
ENDMDL
MODEL 6
REMARK VINA RESULT:    -2.672      1.345      3.076
REMARK INTER + INTRA:          -3.018
REMARK INTER:                  -3.364
REMARK INTRA:                   0.345
REMARK UNBOUND:                 0.200
REMARK SMILES O=c1c(O)c(-c2ccc(O)c(O)c2)oc2cc(O)cc(O)c12
REMARK SMILES IDX 5 1 3 2 2 3 1 4 22 5 20 6 19 7 17 8 16 9 15 10 14 11 6 12
REMARK SMILES IDX 7 13 8 14 9 15 13 16 11 17 10 18 12 20 4 22 21 24 18 26
REMARK H PARENT 10 19 12 21 4 23 21 25 18 27
REMARK Flexibility Score: inf
ROOT
ATOM      1  C   UNL     1      97.750 103.989  90.064  1.00  0.00     0.180 A 
ATOM      2  C   UNL     1      99.134 103.747  90.167  1.00  0.00     0.208 A 
ATOM      3  C   UNL     1     100.025 104.633  89.539  1.00  0.00     0.238 A 
ATOM      4  O   UNL     1     101.266 104.419  89.614  1.00  0.00    -0.285 OA
ATOM      5  C   UNL     1      99.523 105.749  88.841  1.00  0.00     0.111 A 
ATOM      6  C   UNL     1     100.353 106.690  88.186  1.00  0.00     0.134 A 
ATOM      7  C   UNL     1      99.776 107.782  87.520  1.00  0.00     0.093 A 
ATOM      8  C   UNL     1      98.391 107.952  87.497  1.00  0.00     0.123 A 
ATOM      9  C   UNL     1      97.565 107.026  88.143  1.00  0.00     0.094 A 
ATOM     10  C   UNL     1      98.120 105.930  88.810  1.00  0.00     0.146 A 
ATOM     11  O   UNL     1      97.313 105.062  89.412  1.00  0.00    -0.452 OA
ENDROOT
BRANCH   1  12
ATOM     12  C   UNL     1      96.747 103.093  90.682  1.00  0.00     0.025 A 
ATOM     13  C   UNL     1      95.458 103.016  90.132  1.00  0.00     0.016 A 
ATOM     14  C   UNL     1      94.501 102.160  90.685  1.00  0.00     0.051 A 
ATOM     15  C   UNL     1      94.826 101.359  91.788  1.00  0.00     0.157 A 
ATOM     16  C   UNL     1      97.074 102.271  91.776  1.00  0.00     0.062 A 
ATOM     17  C   UNL     1      96.116 101.411  92.331  1.00  0.00     0.158 A 
BRANCH  15  18
ATOM     18  O   UNL     1      93.875 100.506  92.345  1.00  0.00    -0.504 OA
ATOM     19  H   UNL     1      92.916 100.496  92.017  1.00  0.00     0.293 HD
ENDBRANCH  15  18
BRANCH  17  20
ATOM     20  O   UNL     1      96.439 100.602  93.419  1.00  0.00    -0.504 OA
ATOM     21  H   UNL     1      96.221 100.880  94.369  1.00  0.00     0.293 HD
ENDBRANCH  17  20
ENDBRANCH   1  12
BRANCH   2  22
ATOM     22  O   UNL     1      99.608 102.660  90.905  1.00  0.00    -0.502 OA
ATOM     23  H   UNL     1     100.249 101.979  90.516  1.00  0.00     0.293 HD
ENDBRANCH   2  22
BRANCH   6  24
ATOM     24  O   UNL     1     101.742 106.550  88.190  1.00  0.00    -0.507 OA
ATOM     25  H   UNL     1     102.233 106.080  87.439  1.00  0.00     0.293 HD
ENDBRANCH   6  24
BRANCH   8  26
ATOM     26  O   UNL     1      97.843 109.046  86.830  1.00  0.00    -0.508 OA
ATOM     27  H   UNL     1      97.943 109.989  87.188  1.00  0.00     0.293 HD
ENDBRANCH   8  26
TORSDOF 6
ENDMDL
MODEL 7
REMARK VINA RESULT:    -2.548      3.298      7.865
REMARK INTER + INTRA:          -2.869
REMARK INTER:                  -2.836
REMARK INTRA:                  -0.033
REMARK UNBOUND:                 0.200
REMARK SMILES O=c1c(O)c(-c2ccc(O)c(O)c2)oc2cc(O)cc(O)c12
REMARK SMILES IDX 5 1 3 2 2 3 1 4 22 5 20 6 19 7 17 8 16 9 15 10 14 11 6 12
REMARK SMILES IDX 7 13 8 14 9 15 13 16 11 17 10 18 12 20 4 22 21 24 18 26
REMARK H PARENT 10 19 12 21 4 23 21 25 18 27
REMARK Flexibility Score: inf
ROOT
ATOM      1  C   UNL     1      98.639 107.425  87.881  1.00  0.00     0.180 A 
ATOM      2  C   UNL     1      99.767 106.627  88.151  1.00  0.00     0.208 A 
ATOM      3  C   UNL     1      99.598 105.437  88.878  1.00  0.00     0.238 A 
ATOM      4  O   UNL     1     100.603 104.720  89.136  1.00  0.00    -0.285 OA
ATOM      5  C   UNL     1      98.309 105.056  89.302  1.00  0.00     0.111 A 
ATOM      6  C   UNL     1      98.052 103.872  90.034  1.00  0.00     0.134 A 
ATOM      7  C   UNL     1      96.738 103.558  90.411  1.00  0.00     0.093 A 
ATOM      8  C   UNL     1      95.678 104.401  90.071  1.00  0.00     0.123 A 
ATOM      9  C   UNL     1      95.925 105.573  89.348  1.00  0.00     0.094 A 
ATOM     10  C   UNL     1      97.228 105.905  88.964  1.00  0.00     0.146 A 
ATOM     11  O   UNL     1      97.436 107.026  88.282  1.00  0.00    -0.452 OA
ENDROOT
BRANCH   1  12
ATOM     12  C   UNL     1      98.739 108.701  87.138  1.00  0.00     0.025 A 
ATOM     13  C   UNL     1      97.852 108.955  86.079  1.00  0.00     0.016 A 
ATOM     14  C   UNL     1      97.914 110.162  85.377  1.00  0.00     0.051 A 
ATOM     15  C   UNL     1      98.853 111.138  85.734  1.00  0.00     0.157 A 
ATOM     16  C   UNL     1      99.667 109.693  87.505  1.00  0.00     0.062 A 
ATOM     17  C   UNL     1      99.728 110.904  86.803  1.00  0.00     0.158 A 
BRANCH  15  18
ATOM     18  O   UNL     1      98.920 112.342  85.036  1.00  0.00    -0.504 OA
ATOM     19  H   UNL     1      99.808 112.776  84.814  1.00  0.00     0.293 HD
ENDBRANCH  15  18
BRANCH  17  20
ATOM     20  O   UNL     1     100.652 111.884  87.164  1.00  0.00    -0.504 OA
ATOM     21  H   UNL     1     100.372 112.715  87.671  1.00  0.00     0.293 HD
ENDBRANCH  17  20
ENDBRANCH   1  12
BRANCH   2  22
ATOM     22  O   UNL     1     101.028 107.001  87.679  1.00  0.00    -0.502 OA
ATOM     23  H   UNL     1     101.161 107.434  86.773  1.00  0.00     0.293 HD
ENDBRANCH   2  22
BRANCH   6  24
ATOM     24  O   UNL     1      99.089 103.008  90.388  1.00  0.00    -0.507 OA
ATOM     25  H   UNL     1      98.955 102.260  91.058  1.00  0.00     0.293 HD
ENDBRANCH   6  24
BRANCH   8  26
ATOM     26  O   UNL     1      94.382 104.066  90.456  1.00  0.00    -0.508 OA
ATOM     27  H   UNL     1      93.779 104.733  90.924  1.00  0.00     0.293 HD
ENDBRANCH   8  26
TORSDOF 6
ENDMDL
