MODEL 1
REMARK VINA RESULT:    -3.507      0.000      0.000
REMARK INTER + INTRA:          -9.798
REMARK INTER:                  -8.016
REMARK INTRA:                  -1.782
REMARK UNBOUND:                -1.782
REMARK SMILES CCCCCCCCCCCCCCCCCCCCCCCC(=O)[O-]
REMARK SMILES IDX 13 1 14 2 15 3 16 4 17 5 18 6 19 7 20 8 21 9 22 10 23 11
REMARK SMILES IDX 24 12 25 13 26 14 12 15 11 16 10 17 9 18 8 19 7 20 6 21 5 22
REMARK SMILES IDX 4 23 3 24 2 25 1 26
REMARK H PARENT
REMARK Flexibility Score: inf
ROOT
ATOM      1  C   UNL     1       6.384   7.737  33.421  1.00  0.00     0.000 C 
ENDROOT
BRANCH   1   2
ATOM      2  C   UNL     1       7.888   7.780  33.737  1.00  0.00     0.000 C 
BRANCH   2   3
ATOM      3  C   UNL     1       8.390   6.522  34.477  1.00  0.00     0.000 C 
BRANCH   3   4
ATOM      4  C   UNL     1       7.565   6.144  35.725  1.00  0.00     0.000 C 
BRANCH   4   5
ATOM      5  C   UNL     1       8.369   5.315  36.744  1.00  0.00     0.000 C 
BRANCH   5   6
ATOM      6  C   UNL     1       9.428   4.416  36.080  1.00  0.00     0.000 C 
BRANCH   6   7
ATOM      7  C   UNL     1       9.299   2.915  36.400  1.00  0.00     0.000 C 
BRANCH   7   8
ATOM      8  C   UNL     1       7.870   2.488  36.806  1.00  0.00     0.000 C 
BRANCH   8   9
ATOM      9  C   UNL     1       7.309   1.403  35.877  1.00  0.00     0.000 C 
BRANCH   9  10
ATOM     10  C   UNL     1       5.833   1.656  35.552  1.00  0.00     0.006 C 
BRANCH  10  11
ATOM     11  C   UNL     1       5.594   3.132  35.222  1.00  0.00     0.053 C 
BRANCH  11  12
ATOM     12  C   UNL     1       5.212   3.295  33.784  1.00  0.00     0.041 C 
ATOM     13  O   UNL     1       5.155   2.289  33.026  1.00  0.00    -0.550 OA
ATOM     14  O   UNL     1       4.962   4.561  33.268  1.00  0.00    -0.550 OA
ENDBRANCH  11  12
ENDBRANCH  10  11
ENDBRANCH   9  10
ENDBRANCH   8   9
ENDBRANCH   7   8
ENDBRANCH   6   7
ENDBRANCH   5   6
ENDBRANCH   4   5
ENDBRANCH   3   4
ENDBRANCH   2   3
ENDBRANCH   1   2
BRANCH   1  15
ATOM     15  C   UNL     1       5.656   9.051  33.765  1.00  0.00     0.000 C 
BRANCH  15  16
ATOM     16  C   UNL     1       6.426  10.009  34.693  1.00  0.00     0.000 C 
BRANCH  16  17
ATOM     17  C   UNL     1       5.910   9.992  36.140  1.00  0.00     0.000 C 
BRANCH  17  18
ATOM     18  C   UNL     1       5.685  11.421  36.662  1.00  0.00    -0.000 C 
BRANCH  18  19
ATOM     19  C   UNL     1       5.268  12.404  35.555  1.00  0.00    -0.000 C 
BRANCH  19  20
ATOM     20  C   UNL     1       5.655  13.877  35.806  1.00  0.00    -0.000 C 
BRANCH  20  21
ATOM     21  C   UNL     1       5.956  14.697  34.538  1.00  0.00    -0.000 C 
BRANCH  21  22
ATOM     22  C   UNL     1       5.352  16.107  34.585  1.00  0.00    -0.000 C 
BRANCH  22  23
ATOM     23  C   UNL     1       6.450  17.173  34.700  1.00  0.00    -0.000 C 
BRANCH  23  24
ATOM     24  C   UNL     1       6.021  18.535  34.128  1.00  0.00    -0.000 C 
BRANCH  24  25
ATOM     25  C   UNL     1       7.208  19.429  33.710  1.00  0.00    -0.003 C 
ATOM     26  C   UNL     1       6.860  20.344  32.537  1.00  0.00     0.004 C 
ENDBRANCH  24  25
ENDBRANCH  23  24
ENDBRANCH  22  23
ENDBRANCH  21  22
ENDBRANCH  20  21
ENDBRANCH  19  20
ENDBRANCH  18  19
ENDBRANCH  17  18
ENDBRANCH  16  17
ENDBRANCH  15  16
ENDBRANCH   1  15
TORSDOF 22
ENDMDL
MODEL 2
REMARK VINA RESULT:    -3.156      2.037      3.210
REMARK INTER + INTRA:          -8.997
REMARK INTER:                  -7.663
REMARK INTRA:                  -1.334
REMARK UNBOUND:                -1.782
REMARK SMILES CCCCCCCCCCCCCCCCCCCCCCCC(=O)[O-]
REMARK SMILES IDX 13 1 14 2 15 3 16 4 17 5 18 6 19 7 20 8 21 9 22 10 23 11
REMARK SMILES IDX 24 12 25 13 26 14 12 15 11 16 10 17 9 18 8 19 7 20 6 21 5 22
REMARK SMILES IDX 4 23 3 24 2 25 1 26
REMARK H PARENT
REMARK Flexibility Score: inf
ROOT
ATOM      1  C   UNL     1       5.536   9.620  35.219  1.00  0.00     0.000 C 
ENDROOT
BRANCH   1   2
ATOM      2  C   UNL     1       4.981   8.195  35.065  1.00  0.00     0.000 C 
BRANCH   2   3
ATOM      3  C   UNL     1       6.066   7.154  34.720  1.00  0.00     0.000 C 
BRANCH   3   4
ATOM      4  C   UNL     1       5.610   6.059  33.733  1.00  0.00     0.000 C 
BRANCH   4   5
ATOM      5  C   UNL     1       5.648   4.647  34.347  1.00  0.00     0.000 C 
BRANCH   5   6
ATOM      6  C   UNL     1       4.875   4.551  35.675  1.00  0.00     0.000 C 
BRANCH   6   7
ATOM      7  C   UNL     1       5.592   3.764  36.788  1.00  0.00     0.000 C 
BRANCH   7   8
ATOM      8  C   UNL     1       5.786   2.266  36.462  1.00  0.00     0.000 C 
BRANCH   8   9
ATOM      9  C   UNL     1       7.052   1.695  37.115  1.00  0.00     0.000 C 
BRANCH   9  10
ATOM     10  C   UNL     1       8.280   1.896  36.222  1.00  0.00     0.006 C 
BRANCH  10  11
ATOM     11  C   UNL     1       9.350   2.719  36.944  1.00  0.00     0.053 C 
BRANCH  11  12
ATOM     12  C   UNL     1       9.495   4.067  36.311  1.00  0.00     0.041 C 
ATOM     13  O   UNL     1       8.805   5.038  36.724  1.00  0.00    -0.550 OA
ATOM     14  O   UNL     1      10.357   4.244  35.236  1.00  0.00    -0.550 OA
ENDBRANCH  11  12
ENDBRANCH  10  11
ENDBRANCH   9  10
ENDBRANCH   8   9
ENDBRANCH   7   8
ENDBRANCH   6   7
ENDBRANCH   5   6
ENDBRANCH   4   5
ENDBRANCH   3   4
ENDBRANCH   2   3
ENDBRANCH   1   2
BRANCH   1  15
ATOM     15  C   UNL     1       5.848  10.297  33.871  1.00  0.00     0.000 C 
BRANCH  15  16
ATOM     16  C   UNL     1       5.017  11.554  33.555  1.00  0.00     0.000 C 
BRANCH  16  17
ATOM     17  C   UNL     1       5.131  12.641  34.635  1.00  0.00     0.000 C 
BRANCH  17  18
ATOM     18  C   UNL     1       5.206  14.040  34.003  1.00  0.00    -0.000 C 
BRANCH  18  19
ATOM     19  C   UNL     1       6.089  15.013  34.803  1.00  0.00    -0.000 C 
BRANCH  19  20
ATOM     20  C   UNL     1       5.494  15.485  36.146  1.00  0.00    -0.000 C 
BRANCH  20  21
ATOM     21  C   UNL     1       5.567  17.003  36.393  1.00  0.00    -0.000 C 
BRANCH  21  22
ATOM     22  C   UNL     1       6.360  17.745  35.308  1.00  0.00    -0.000 C 
BRANCH  22  23
ATOM     23  C   UNL     1       6.756  19.151  35.780  1.00  0.00    -0.000 C 
BRANCH  23  24
ATOM     24  C   UNL     1       6.661  20.203  34.661  1.00  0.00    -0.000 C 
BRANCH  24  25
ATOM     25  C   UNL     1       7.244  19.724  33.315  1.00  0.00    -0.003 C 
ATOM     26  C   UNL     1       6.953  20.700  32.176  1.00  0.00     0.004 C 
ENDBRANCH  24  25
ENDBRANCH  23  24
ENDBRANCH  22  23
ENDBRANCH  21  22
ENDBRANCH  20  21
ENDBRANCH  19  20
ENDBRANCH  18  19
ENDBRANCH  17  18
ENDBRANCH  16  17
ENDBRANCH  15  16
ENDBRANCH   1  15
TORSDOF 22
ENDMDL
MODEL 3
REMARK VINA RESULT:    -3.129      2.170      3.216
REMARK INTER + INTRA:          -8.934
REMARK INTER:                  -7.800
REMARK INTRA:                  -1.135
REMARK UNBOUND:                -1.782
REMARK SMILES CCCCCCCCCCCCCCCCCCCCCCCC(=O)[O-]
REMARK SMILES IDX 13 1 14 2 15 3 16 4 17 5 18 6 19 7 20 8 21 9 22 10 23 11
REMARK SMILES IDX 24 12 25 13 26 14 12 15 11 16 10 17 9 18 8 19 7 20 6 21 5 22
REMARK SMILES IDX 4 23 3 24 2 25 1 26
REMARK H PARENT
REMARK Flexibility Score: inf
ROOT
ATOM      1  C   UNL     1       5.995   9.703  35.248  1.00  0.00     0.000 C 
ENDROOT
BRANCH   1   2
ATOM      2  C   UNL     1       5.197   8.445  34.870  1.00  0.00     0.000 C 
BRANCH   2   3
ATOM      3  C   UNL     1       6.051   7.160  34.870  1.00  0.00     0.000 C 
BRANCH   3   4
ATOM      4  C   UNL     1       5.520   6.040  33.951  1.00  0.00     0.000 C 
BRANCH   4   5
ATOM      5  C   UNL     1       4.953   4.842  34.735  1.00  0.00     0.000 C 
BRANCH   5   6
ATOM      6  C   UNL     1       6.048   4.004  35.419  1.00  0.00     0.000 C 
BRANCH   6   7
ATOM      7  C   UNL     1       6.187   2.563  34.892  1.00  0.00     0.000 C 
BRANCH   7   8
ATOM      8  C   UNL     1       4.882   1.993  34.292  1.00  0.00     0.000 C 
BRANCH   8   9
ATOM      9  C   UNL     1       5.150   1.114  33.063  1.00  0.00     0.000 C 
BRANCH   9  10
ATOM     10  C   UNL     1       4.952   1.898  31.762  1.00  0.00     0.006 C 
BRANCH  10  11
ATOM     11  C   UNL     1       5.207   1.005  30.544  1.00  0.00     0.053 C 
BRANCH  11  12
ATOM     12  C   UNL     1       5.095   1.795  29.278  1.00  0.00     0.041 C 
ATOM     13  O   UNL     1       5.004   1.204  28.169  1.00  0.00    -0.550 OA
ATOM     14  O   UNL     1       5.136   3.184  29.318  1.00  0.00    -0.550 OA
ENDBRANCH  11  12
ENDBRANCH  10  11
ENDBRANCH   9  10
ENDBRANCH   8   9
ENDBRANCH   7   8
ENDBRANCH   6   7
ENDBRANCH   5   6
ENDBRANCH   4   5
ENDBRANCH   3   4
ENDBRANCH   2   3
ENDBRANCH   1   2
BRANCH   1  15
ATOM     15  C   UNL     1       6.239  10.646  34.054  1.00  0.00     0.000 C 
BRANCH  15  16
ATOM     16  C   UNL     1       5.104  11.643  33.756  1.00  0.00     0.000 C 
BRANCH  16  17
ATOM     17  C   UNL     1       4.976  12.748  34.816  1.00  0.00     0.000 C 
BRANCH  17  18
ATOM     18  C   UNL     1       5.144  14.139  34.184  1.00  0.00    -0.000 C 
BRANCH  18  19
ATOM     19  C   UNL     1       6.141  15.028  34.946  1.00  0.00    -0.000 C 
BRANCH  19  20
ATOM     20  C   UNL     1       5.536  15.846  36.106  1.00  0.00    -0.000 C 
BRANCH  20  21
ATOM     21  C   UNL     1       5.271  17.329  35.788  1.00  0.00    -0.000 C 
BRANCH  21  22
ATOM     22  C   UNL     1       5.675  17.712  34.358  1.00  0.00    -0.000 C 
BRANCH  22  23
ATOM     23  C   UNL     1       6.991  18.503  34.351  1.00  0.00    -0.000 C 
BRANCH  23  24
ATOM     24  C   UNL     1       6.811  19.962  34.807  1.00  0.00    -0.000 C 
BRANCH  24  25
ATOM     25  C   UNL     1       6.456  20.927  33.655  1.00  0.00    -0.003 C 
ATOM     26  C   UNL     1       7.208  20.595  32.367  1.00  0.00     0.004 C 
ENDBRANCH  24  25
ENDBRANCH  23  24
ENDBRANCH  22  23
ENDBRANCH  21  22
ENDBRANCH  20  21
ENDBRANCH  19  20
ENDBRANCH  18  19
ENDBRANCH  17  18
ENDBRANCH  16  17
ENDBRANCH  15  16
ENDBRANCH   1  15
TORSDOF 22
ENDMDL
MODEL 4
REMARK VINA RESULT:    -3.061      1.955      3.050
REMARK INTER + INTRA:          -8.779
REMARK INTER:                  -7.388
REMARK INTRA:                  -1.391
REMARK UNBOUND:                -1.782
REMARK SMILES CCCCCCCCCCCCCCCCCCCCCCCC(=O)[O-]
REMARK SMILES IDX 13 1 14 2 15 3 16 4 17 5 18 6 19 7 20 8 21 9 22 10 23 11
REMARK SMILES IDX 24 12 25 13 26 14 12 15 11 16 10 17 9 18 8 19 7 20 6 21 5 22
REMARK SMILES IDX 4 23 3 24 2 25 1 26
REMARK H PARENT
REMARK Flexibility Score: inf
ROOT
ATOM      1  C   UNL     1       6.358   7.757  33.663  1.00  0.00     0.000 C 
ENDROOT
BRANCH   1   2
ATOM      2  C   UNL     1       6.387   6.280  34.088  1.00  0.00     0.000 C 
BRANCH   2   3
ATOM      3  C   UNL     1       5.096   5.517  33.725  1.00  0.00     0.000 C 
BRANCH   3   4
ATOM      4  C   UNL     1       5.131   4.010  34.054  1.00  0.00     0.000 C 
BRANCH   4   5
ATOM      5  C   UNL     1       5.162   3.729  35.568  1.00  0.00     0.000 C 
BRANCH   5   6
ATOM      6  C   UNL     1       5.392   2.243  35.896  1.00  0.00     0.000 C 
BRANCH   6   7
ATOM      7  C   UNL     1       6.808   1.899  36.394  1.00  0.00     0.000 C 
BRANCH   7   8
ATOM      8  C   UNL     1       7.760   3.116  36.444  1.00  0.00     0.000 C 
BRANCH   8   9
ATOM      9  C   UNL     1       9.234   2.691  36.499  1.00  0.00     0.000 C 
BRANCH   9  10
ATOM     10  C   UNL     1      10.163   3.848  36.118  1.00  0.00     0.006 C 
BRANCH  10  11
ATOM     11  C   UNL     1       9.397   4.931  35.354  1.00  0.00     0.053 C 
BRANCH  11  12
ATOM     12  C   UNL     1      10.258   5.531  34.286  1.00  0.00     0.041 C 
ATOM     13  O   UNL     1      11.387   5.034  34.030  1.00  0.00    -0.550 OA
ATOM     14  O   UNL     1       9.833   6.663  33.602  1.00  0.00    -0.550 OA
ENDBRANCH  11  12
ENDBRANCH  10  11
ENDBRANCH   9  10
ENDBRANCH   8   9
ENDBRANCH   7   8
ENDBRANCH   6   7
ENDBRANCH   5   6
ENDBRANCH   4   5
ENDBRANCH   3   4
ENDBRANCH   2   3
ENDBRANCH   1   2
BRANCH   1  15
ATOM     15  C   UNL     1       6.782   8.719  34.789  1.00  0.00     0.000 C 
BRANCH  15  16
ATOM     16  C   UNL     1       5.972  10.025  34.883  1.00  0.00     0.000 C 
BRANCH  16  17
ATOM     17  C   UNL     1       6.165  10.762  36.217  1.00  0.00     0.000 C 
BRANCH  17  18
ATOM     18  C   UNL     1       4.876  11.486  36.638  1.00  0.00    -0.000 C 
BRANCH  18  19
ATOM     19  C   UNL     1       5.094  12.983  36.919  1.00  0.00    -0.000 C 
BRANCH  19  20
ATOM     20  C   UNL     1       5.662  13.796  35.737  1.00  0.00    -0.000 C 
BRANCH  20  21
ATOM     21  C   UNL     1       5.343  15.302  35.769  1.00  0.00    -0.000 C 
BRANCH  21  22
ATOM     22  C   UNL     1       6.012  16.075  34.623  1.00  0.00    -0.000 C 
BRANCH  22  23
ATOM     23  C   UNL     1       5.849  17.590  34.814  1.00  0.00    -0.000 C 
BRANCH  23  24
ATOM     24  C   UNL     1       5.090  18.258  33.655  1.00  0.00    -0.000 C 
BRANCH  24  25
ATOM     25  C   UNL     1       5.904  19.356  32.937  1.00  0.00    -0.003 C 
ATOM     26  C   UNL     1       7.258  19.601  33.600  1.00  0.00     0.004 C 
ENDBRANCH  24  25
ENDBRANCH  23  24
ENDBRANCH  22  23
ENDBRANCH  21  22
ENDBRANCH  20  21
ENDBRANCH  19  20
ENDBRANCH  18  19
ENDBRANCH  17  18
ENDBRANCH  16  17
ENDBRANCH  15  16
ENDBRANCH   1  15
TORSDOF 22
ENDMDL
MODEL 5
REMARK VINA RESULT:    -2.737      3.700     10.441
REMARK INTER + INTRA:          -8.039
REMARK INTER:                  -6.131
REMARK INTRA:                  -1.908
REMARK UNBOUND:                -1.782
REMARK SMILES CCCCCCCCCCCCCCCCCCCCCCCC(=O)[O-]
REMARK SMILES IDX 13 1 14 2 15 3 16 4 17 5 18 6 19 7 20 8 21 9 22 10 23 11
REMARK SMILES IDX 24 12 25 13 26 14 12 15 11 16 10 17 9 18 8 19 7 20 6 21 5 22
REMARK SMILES IDX 4 23 3 24 2 25 1 26
REMARK H PARENT
REMARK Flexibility Score: inf
ROOT
ATOM      1  C   UNL     1       6.989   5.407  36.827  1.00  0.00     0.000 C 
ENDROOT
BRANCH   1   2
ATOM      2  C   UNL     1       6.975   6.890  36.422  1.00  0.00     0.000 C 
BRANCH   2   3
ATOM      3  C   UNL     1       7.149   7.108  34.904  1.00  0.00     0.000 C 
BRANCH   3   4
ATOM      4  C   UNL     1       7.548   8.544  34.506  1.00  0.00     0.000 C 
BRANCH   4   5
ATOM      5  C   UNL     1       6.405   9.314  33.818  1.00  0.00     0.000 C 
BRANCH   5   6
ATOM      6  C   UNL     1       5.389   9.895  34.818  1.00  0.00     0.000 C 
BRANCH   6   7
ATOM      7  C   UNL     1       6.006  10.496  36.095  1.00  0.00     0.000 C 
BRANCH   7   8
ATOM      8  C   UNL     1       4.959  11.036  37.095  1.00  0.00     0.000 C 
BRANCH   8   9
ATOM      9  C   UNL     1       4.875  12.568  37.069  1.00  0.00     0.000 C 
BRANCH   9  10
ATOM     10  C   UNL     1       6.269  13.203  37.027  1.00  0.00     0.006 C 
BRANCH  10  11
ATOM     11  C   UNL     1       6.172  14.731  37.033  1.00  0.00     0.053 C 
BRANCH  11  12
ATOM     12  C   UNL     1       5.765  15.238  35.685  1.00  0.00     0.041 C 
ATOM     13  O   UNL     1       5.266  16.389  35.566  1.00  0.00    -0.550 OA
ATOM     14  O   UNL     1       5.894  14.425  34.566  1.00  0.00    -0.550 OA
ENDBRANCH  11  12
ENDBRANCH  10  11
ENDBRANCH   9  10
ENDBRANCH   8   9
ENDBRANCH   7   8
ENDBRANCH   6   7
ENDBRANCH   5   6
ENDBRANCH   4   5
ENDBRANCH   3   4
ENDBRANCH   2   3
ENDBRANCH   1   2
BRANCH   1  15
ATOM     15  C   UNL     1       5.624   4.717  36.642  1.00  0.00     0.000 C 
BRANCH  15  16
ATOM     16  C   UNL     1       5.192   4.487  35.182  1.00  0.00     0.000 C 
BRANCH  16  17
ATOM     17  C   UNL     1       5.229   3.008  34.767  1.00  0.00     0.000 C 
BRANCH  17  18
ATOM     18  C   UNL     1       5.115   2.089  35.994  1.00  0.00    -0.000 C 
BRANCH  18  19
ATOM     19  C   UNL     1       6.269   1.076  36.094  1.00  0.00    -0.000 C 
BRANCH  19  20
ATOM     20  C   UNL     1       7.366   1.433  37.118  1.00  0.00    -0.000 C 
BRANCH  20  21
ATOM     21  C   UNL     1       8.780   1.596  36.529  1.00  0.00    -0.000 C 
BRANCH  21  22
ATOM     22  C   UNL     1       9.395   2.969  36.830  1.00  0.00    -0.000 C 
BRANCH  22  23
ATOM     23  C   UNL     1      10.155   3.511  35.611  1.00  0.00    -0.000 C 
BRANCH  23  24
ATOM     24  C   UNL     1      10.053   5.040  35.478  1.00  0.00    -0.000 C 
BRANCH  24  25
ATOM     25  C   UNL     1      10.333   5.554  34.049  1.00  0.00    -0.003 C 
ATOM     26  C   UNL     1      11.817   5.495  33.692  1.00  0.00     0.004 C 
ENDBRANCH  24  25
ENDBRANCH  23  24
ENDBRANCH  22  23
ENDBRANCH  21  22
ENDBRANCH  20  21
ENDBRANCH  19  20
ENDBRANCH  18  19
ENDBRANCH  17  18
ENDBRANCH  16  17
ENDBRANCH  15  16
ENDBRANCH   1  15
TORSDOF 22
ENDMDL
MODEL 6
REMARK VINA RESULT:    -2.422      1.716      2.449
REMARK INTER + INTRA:          -7.319
REMARK INTER:                  -6.339
REMARK INTRA:                  -0.980
REMARK UNBOUND:                -1.782
REMARK SMILES CCCCCCCCCCCCCCCCCCCCCCCC(=O)[O-]
REMARK SMILES IDX 13 1 14 2 15 3 16 4 17 5 18 6 19 7 20 8 21 9 22 10 23 11
REMARK SMILES IDX 24 12 25 13 26 14 12 15 11 16 10 17 9 18 8 19 7 20 6 21 5 22
REMARK SMILES IDX 4 23 3 24 2 25 1 26
REMARK H PARENT
REMARK Flexibility Score: inf
ROOT
ATOM      1  C   UNL     1       7.362   9.331  33.997  1.00  0.00     0.000 C 
ENDROOT
BRANCH   1   2
ATOM      2  C   UNL     1       6.997   7.857  34.241  1.00  0.00     0.000 C 
BRANCH   2   3
ATOM      3  C   UNL     1       8.016   6.870  33.634  1.00  0.00     0.000 C 
BRANCH   3   4
ATOM      4  C   UNL     1       8.722   5.966  34.666  1.00  0.00     0.000 C 
BRANCH   4   5
ATOM      5  C   UNL     1      10.173   5.631  34.274  1.00  0.00     0.000 C 
BRANCH   5   6
ATOM      6  C   UNL     1      10.854   4.671  35.266  1.00  0.00     0.000 C 
BRANCH   6   7
ATOM      7  C   UNL     1      10.000   3.460  35.686  1.00  0.00     0.000 C 
BRANCH   7   8
ATOM      8  C   UNL     1      10.815   2.329  36.354  1.00  0.00     0.000 C 
BRANCH   8   9
ATOM      9  C   UNL     1       9.917   1.180  36.833  1.00  0.00     0.000 C 
BRANCH   9  10
ATOM     10  C   UNL     1       8.563   1.193  36.116  1.00  0.00     0.006 C 
BRANCH  10  11
ATOM     11  C   UNL     1       7.415   1.298  37.123  1.00  0.00     0.053 C 
BRANCH  11  12
ATOM     12  C   UNL     1       6.463   2.383  36.726  1.00  0.00     0.041 C 
ATOM     13  O   UNL     1       5.464   2.116  36.007  1.00  0.00    -0.550 OA
ATOM     14  O   UNL     1       6.702   3.696  37.112  1.00  0.00    -0.550 OA
ENDBRANCH  11  12
ENDBRANCH  10  11
ENDBRANCH   9  10
ENDBRANCH   8   9
ENDBRANCH   7   8
ENDBRANCH   6   7
ENDBRANCH   5   6
ENDBRANCH   4   5
ENDBRANCH   3   4
ENDBRANCH   2   3
ENDBRANCH   1   2
BRANCH   1  15
ATOM     15  C   UNL     1       6.172  10.175  33.501  1.00  0.00     0.000 C 
BRANCH  15  16
ATOM     16  C   UNL     1       5.533  11.098  34.554  1.00  0.00     0.000 C 
BRANCH  16  17
ATOM     17  C   UNL     1       4.941  12.382  33.953  1.00  0.00     0.000 C 
BRANCH  17  18
ATOM     18  C   UNL     1       5.075  13.561  34.931  1.00  0.00    -0.000 C 
BRANCH  18  19
ATOM     19  C   UNL     1       5.252  14.913  34.219  1.00  0.00    -0.000 C 
BRANCH  19  20
ATOM     20  C   UNL     1       6.177  15.916  34.938  1.00  0.00    -0.000 C 
BRANCH  20  21
ATOM     21  C   UNL     1       5.451  17.007  35.747  1.00  0.00    -0.000 C 
BRANCH  21  22
ATOM     22  C   UNL     1       6.267  18.303  35.864  1.00  0.00    -0.000 C 
BRANCH  22  23
ATOM     23  C   UNL     1       5.639  19.426  35.027  1.00  0.00    -0.000 C 
BRANCH  23  24
ATOM     24  C   UNL     1       5.387  19.010  33.567  1.00  0.00    -0.000 C 
BRANCH  24  25
ATOM     25  C   UNL     1       6.270  19.765  32.551  1.00  0.00    -0.003 C 
ATOM     26  C   UNL     1       7.286  20.681  33.233  1.00  0.00     0.004 C 
ENDBRANCH  24  25
ENDBRANCH  23  24
ENDBRANCH  22  23
ENDBRANCH  21  22
ENDBRANCH  20  21
ENDBRANCH  19  20
ENDBRANCH  18  19
ENDBRANCH  17  18
ENDBRANCH  16  17
ENDBRANCH  15  16
ENDBRANCH   1  15
TORSDOF 22
ENDMDL
MODEL 7
REMARK VINA RESULT:    -2.411      2.089      4.277
REMARK INTER + INTRA:          -7.293
REMARK INTER:                  -5.106
REMARK INTRA:                  -2.187
REMARK UNBOUND:                -1.782
REMARK SMILES CCCCCCCCCCCCCCCCCCCCCCCC(=O)[O-]
REMARK SMILES IDX 13 1 14 2 15 3 16 4 17 5 18 6 19 7 20 8 21 9 22 10 23 11
REMARK SMILES IDX 24 12 25 13 26 14 12 15 11 16 10 17 9 18 8 19 7 20 6 21 5 22
REMARK SMILES IDX 4 23 3 24 2 25 1 26
REMARK H PARENT
REMARK Flexibility Score: inf
ROOT
ATOM      1  C   UNL     1      10.708   5.755  34.092  1.00  0.00     0.000 C 
ENDROOT
BRANCH   1   2
ATOM      2  C   UNL     1      11.200   4.301  34.180  1.00  0.00     0.000 C 
BRANCH   2   3
ATOM      3  C   UNL     1      11.624   3.888  35.605  1.00  0.00     0.000 C 
BRANCH   3   4
ATOM      4  C   UNL     1      11.919   2.383  35.772  1.00  0.00     0.000 C 
BRANCH   4   5
ATOM      5  C   UNL     1      10.657   1.509  35.653  1.00  0.00     0.000 C 
BRANCH   5   6
ATOM      6  C   UNL     1       9.599   1.839  36.722  1.00  0.00     0.000 C 
BRANCH   6   7
ATOM      7  C   UNL     1       8.351   2.572  36.196  1.00  0.00     0.000 C 
BRANCH   7   8
ATOM      8  C   UNL     1       7.056   2.220  36.962  1.00  0.00     0.000 C 
BRANCH   8   9
ATOM      9  C   UNL     1       5.900   3.162  36.599  1.00  0.00     0.000 C 
BRANCH   9  10
ATOM     10  C   UNL     1       4.879   2.467  35.691  1.00  0.00     0.006 C 
BRANCH  10  11
ATOM     11  C   UNL     1       4.883   3.089  34.292  1.00  0.00     0.053 C 
BRANCH  11  12
ATOM     12  C   UNL     1       5.268   2.071  33.265  1.00  0.00     0.041 C 
ATOM     13  O   UNL     1       5.765   0.969  33.621  1.00  0.00    -0.550 OA
ATOM     14  O   UNL     1       5.120   2.355  31.913  1.00  0.00    -0.550 OA
ENDBRANCH  11  12
ENDBRANCH  10  11
ENDBRANCH   9  10
ENDBRANCH   8   9
ENDBRANCH   7   8
ENDBRANCH   6   7
ENDBRANCH   5   6
ENDBRANCH   4   5
ENDBRANCH   3   4
ENDBRANCH   2   3
ENDBRANCH   1   2
BRANCH   1  15
ATOM     15  C   UNL     1       9.508   6.044  35.015  1.00  0.00     0.000 C 
BRANCH  15  16
ATOM     16  C   UNL     1       8.238   6.551  34.308  1.00  0.00     0.000 C 
BRANCH  16  17
ATOM     17  C   UNL     1       6.941   6.106  35.002  1.00  0.00     0.000 C 
BRANCH  17  18
ATOM     18  C   UNL     1       5.710   6.721  34.316  1.00  0.00    -0.000 C 
BRANCH  18  19
ATOM     19  C   UNL     1       5.074   7.858  35.134  1.00  0.00    -0.000 C 
BRANCH  19  20
ATOM     20  C   UNL     1       5.978   9.089  35.359  1.00  0.00    -0.000 C 
BRANCH  20  21
ATOM     21  C   UNL     1       6.661   9.635  34.092  1.00  0.00    -0.000 C 
BRANCH  21  22
ATOM     22  C   UNL     1       5.726  10.508  33.242  1.00  0.00    -0.000 C 
BRANCH  22  23
ATOM     23  C   UNL     1       4.879  11.432  34.129  1.00  0.00    -0.000 C 
BRANCH  23  24
ATOM     24  C   UNL     1       5.151  12.923  33.866  1.00  0.00    -0.000 C 
BRANCH  24  25
ATOM     25  C   UNL     1       5.615  13.694  35.120  1.00  0.00    -0.003 C 
ATOM     26  C   UNL     1       5.975  15.146  34.808  1.00  0.00     0.004 C 
ENDBRANCH  24  25
ENDBRANCH  23  24
ENDBRANCH  22  23
ENDBRANCH  21  22
ENDBRANCH  20  21
ENDBRANCH  19  20
ENDBRANCH  18  19
ENDBRANCH  17  18
ENDBRANCH  16  17
ENDBRANCH  15  16
ENDBRANCH   1  15
TORSDOF 22
ENDMDL
