MODEL 1
REMARK VINA RESULT:    -3.199      0.000      0.000
REMARK INTER + INTRA:          -4.123
REMARK INTER:                  -3.854
REMARK INTRA:                  -0.269
REMARK UNBOUND:                -0.269
REMARK SMILES C=CCc1ccc(O)c(OC)c1
REMARK SMILES IDX 9 1 7 2 6 3 5 4 4 5 12 6 10 7 11 8 8 9 3 11 2 12 1 13
REMARK H PARENT 8 10
REMARK Flexibility Score: inf
ROOT
ATOM      1  C   UNL     1     -96.291  26.133 -39.891  1.00  0.00     0.160 A 
ATOM      2  C   UNL     1     -95.688  27.327 -39.452  1.00  0.00     0.157 A 
ATOM      3  C   UNL     1     -96.475  28.362 -38.938  1.00  0.00     0.050 A 
ATOM      4  C   UNL     1     -97.861  28.221 -38.854  1.00  0.00     0.008 A 
ATOM      5  C   UNL     1     -98.479  27.035 -39.275  1.00  0.00    -0.040 A 
ATOM      6  C   UNL     1     -97.692  25.997 -39.802  1.00  0.00     0.054 A 
ENDROOT
BRANCH   1   7
ATOM      7  O   UNL     1     -95.478  25.113 -40.408  1.00  0.00    -0.493 OA
ATOM      8  C   UNL     1     -95.752  24.387 -41.602  1.00  0.00     0.278 C 
ENDBRANCH   1   7
BRANCH   2   9
ATOM      9  O   UNL     1     -94.306  27.503 -39.521  1.00  0.00    -0.504 OA
ATOM     10  H   UNL     1     -93.839  28.292 -39.090  1.00  0.00     0.293 HD
ENDBRANCH   2   9
BRANCH   5  11
ATOM     11  C   UNL     1     -99.976  26.899 -39.211  1.00  0.00     0.062 C 
BRANCH  11  12
ATOM     12  C   UNL     1    -100.648  28.109 -39.798  1.00  0.00    -0.030 C 
ATOM     13  C   UNL     1    -100.984  28.167 -41.090  1.00  0.00     0.004 C 
ENDBRANCH  11  12
ENDBRANCH   5  11
TORSDOF 4
ENDMDL
MODEL 2
REMARK VINA RESULT:    -3.069      8.952      9.355
REMARK INTER + INTRA:          -3.966
REMARK INTER:                  -3.775
REMARK INTRA:                  -0.191
REMARK UNBOUND:                -0.269
REMARK SMILES C=CCc1ccc(O)c(OC)c1
REMARK SMILES IDX 9 1 7 2 6 3 5 4 4 5 12 6 10 7 11 8 8 9 3 11 2 12 1 13
REMARK H PARENT 8 10
REMARK Flexibility Score: inf
ROOT
ATOM      1  C   UNL     1     -97.915  34.748 -35.003  1.00  0.00     0.160 A 
ATOM      2  C   UNL     1     -98.430  33.724 -34.185  1.00  0.00     0.157 A 
ATOM      3  C   UNL     1     -99.792  33.416 -34.224  1.00  0.00     0.050 A 
ATOM      4  C   UNL     1    -100.653  34.116 -35.071  1.00  0.00     0.008 A 
ATOM      5  C   UNL     1    -100.156  35.130 -35.902  1.00  0.00    -0.040 A 
ATOM      6  C   UNL     1     -98.789  35.450 -35.858  1.00  0.00     0.054 A 
ENDROOT
BRANCH   1   7
ATOM      7  O   UNL     1     -96.544  35.041 -34.940  1.00  0.00    -0.493 OA
ATOM      8  C   UNL     1     -95.823  35.756 -35.939  1.00  0.00     0.278 C 
ENDBRANCH   1   7
BRANCH   2   9
ATOM      9  O   UNL     1     -97.600  33.004 -33.326  1.00  0.00    -0.504 OA
ATOM     10  H   UNL     1     -97.797  32.912 -32.336  1.00  0.00     0.293 HD
ENDBRANCH   2   9
BRANCH   5  11
ATOM     11  C   UNL     1    -101.092  35.904 -36.792  1.00  0.00     0.062 C 
BRANCH  11  12
ATOM     12  C   UNL     1    -101.858  34.977 -37.694  1.00  0.00    -0.030 C 
ATOM     13  C   UNL     1    -102.467  35.418 -38.799  1.00  0.00     0.004 C 
ENDBRANCH  11  12
ENDBRANCH   5  11
TORSDOF 4
ENDMDL
MODEL 3
REMARK VINA RESULT:    -2.936      3.070      4.741
REMARK INTER + INTRA:          -3.806
REMARK INTER:                  -3.587
REMARK INTRA:                  -0.220
REMARK UNBOUND:                -0.269
REMARK SMILES C=CCc1ccc(O)c(OC)c1
REMARK SMILES IDX 9 1 7 2 6 3 5 4 4 5 12 6 10 7 11 8 8 9 3 11 2 12 1 13
REMARK H PARENT 8 10
REMARK Flexibility Score: inf
ROOT
ATOM      1  C   UNL     1    -100.420  25.766 -42.144  1.00  0.00     0.160 A 
ATOM      2  C   UNL     1    -101.209  26.687 -42.859  1.00  0.00     0.157 A 
ATOM      3  C   UNL     1    -101.507  27.934 -42.303  1.00  0.00     0.050 A 
ATOM      4  C   UNL     1    -101.025  28.278 -41.038  1.00  0.00     0.008 A 
ATOM      5  C   UNL     1    -100.228  27.379 -40.316  1.00  0.00    -0.040 A 
ATOM      6  C   UNL     1     -99.936  26.120 -40.868  1.00  0.00     0.054 A 
ENDROOT
BRANCH   1   7
ATOM      7  O   UNL     1    -100.142  24.518 -42.723  1.00  0.00    -0.493 OA
ATOM      8  C   UNL     1     -98.861  23.895 -42.725  1.00  0.00     0.278 C 
ENDBRANCH   1   7
BRANCH   2   9
ATOM      9  O   UNL     1    -101.708  26.377 -44.124  1.00  0.00    -0.504 OA
ATOM     10  H   UNL     1    -101.522  25.490 -44.576  1.00  0.00     0.293 HD
ENDBRANCH   2   9
BRANCH   5  11
ATOM     11  C   UNL     1     -99.736  27.741 -38.941  1.00  0.00     0.062 C 
BRANCH  11  12
ATOM     12  C   UNL     1     -98.321  27.276 -38.740  1.00  0.00    -0.030 C 
ATOM     13  C   UNL     1     -97.291  28.127 -38.776  1.00  0.00     0.004 C 
ENDBRANCH  11  12
ENDBRANCH   5  11
TORSDOF 4
ENDMDL
MODEL 4
REMARK VINA RESULT:    -2.902      3.227      5.217
REMARK INTER + INTRA:          -3.765
REMARK INTER:                  -3.564
REMARK INTRA:                  -0.201
REMARK UNBOUND:                -0.269
REMARK SMILES C=CCc1ccc(O)c(OC)c1
REMARK SMILES IDX 9 1 7 2 6 3 5 4 4 5 12 6 10 7 11 8 8 9 3 11 2 12 1 13
REMARK H PARENT 8 10
REMARK Flexibility Score: inf
ROOT
ATOM      1  C   UNL     1     -96.479  27.790 -38.497  1.00  0.00     0.160 A 
ATOM      2  C   UNL     1     -95.339  27.720 -39.320  1.00  0.00     0.157 A 
ATOM      3  C   UNL     1     -94.204  27.029 -38.887  1.00  0.00     0.050 A 
ATOM      4  C   UNL     1     -94.190  26.403 -37.639  1.00  0.00     0.008 A 
ATOM      5  C   UNL     1     -95.320  26.452 -36.811  1.00  0.00    -0.040 A 
ATOM      6  C   UNL     1     -96.459  27.154 -37.239  1.00  0.00     0.054 A 
ENDROOT
BRANCH   1   7
ATOM      7  O   UNL     1     -97.603  28.496 -38.955  1.00  0.00    -0.493 OA
ATOM      8  C   UNL     1     -98.913  27.948 -39.062  1.00  0.00     0.278 C 
ENDBRANCH   1   7
BRANCH   2   9
ATOM      9  O   UNL     1     -95.317  28.334 -40.572  1.00  0.00    -0.504 OA
ATOM     10  H   UNL     1     -95.554  27.837 -41.423  1.00  0.00     0.293 HD
ENDBRANCH   2   9
BRANCH   5  11
ATOM     11  C   UNL     1     -95.291  25.802 -35.454  1.00  0.00     0.062 C 
BRANCH  11  12
ATOM     12  C   UNL     1     -94.211  26.403 -34.597  1.00  0.00    -0.030 C 
ATOM     13  C   UNL     1     -94.134  26.151 -33.287  1.00  0.00     0.004 C 
ENDBRANCH  11  12
ENDBRANCH   5  11
TORSDOF 4
ENDMDL
MODEL 5
REMARK VINA RESULT:    -2.888      8.762      9.136
REMARK INTER + INTRA:          -3.748
REMARK INTER:                  -3.494
REMARK INTRA:                  -0.254
REMARK UNBOUND:                -0.269
REMARK SMILES C=CCc1ccc(O)c(OC)c1
REMARK SMILES IDX 9 1 7 2 6 3 5 4 4 5 12 6 10 7 11 8 8 9 3 11 2 12 1 13
REMARK H PARENT 8 10
REMARK Flexibility Score: inf
ROOT
ATOM      1  C   UNL     1     -97.661  33.729 -34.375  1.00  0.00     0.160 A 
ATOM      2  C   UNL     1     -96.785  34.607 -35.042  1.00  0.00     0.157 A 
ATOM      3  C   UNL     1     -97.294  35.590 -35.895  1.00  0.00     0.050 A 
ATOM      4  C   UNL     1     -98.671  35.713 -36.091  1.00  0.00     0.008 A 
ATOM      5  C   UNL     1     -99.559  34.856 -35.427  1.00  0.00    -0.040 A 
ATOM      6  C   UNL     1     -99.051  33.859 -34.577  1.00  0.00     0.054 A 
ENDROOT
BRANCH   1   7
ATOM      7  O   UNL     1     -97.122  32.747 -33.530  1.00  0.00    -0.493 OA
ATOM      8  C   UNL     1     -97.017  32.867 -32.115  1.00  0.00     0.278 C 
ENDBRANCH   1   7
BRANCH   2   9
ATOM      9  O   UNL     1     -95.405  34.513 -34.870  1.00  0.00    -0.504 OA
ATOM     10  H   UNL     1     -94.886  33.676 -35.107  1.00  0.00     0.293 HD
ENDBRANCH   2   9
BRANCH   5  11
ATOM     11  C   UNL     1    -101.041  34.971 -35.665  1.00  0.00     0.062 C 
BRANCH  11  12
ATOM     12  C   UNL     1    -101.320  35.589 -37.006  1.00  0.00    -0.030 C 
ATOM     13  C   UNL     1    -101.983  34.927 -37.959  1.00  0.00     0.004 C 
ENDBRANCH  11  12
ENDBRANCH   5  11
TORSDOF 4
ENDMDL
MODEL 6
REMARK VINA RESULT:    -2.868     11.983     12.628
REMARK INTER + INTRA:          -3.724
REMARK INTER:                  -3.488
REMARK INTRA:                  -0.236
REMARK UNBOUND:                -0.269
REMARK SMILES C=CCc1ccc(O)c(OC)c1
REMARK SMILES IDX 9 1 7 2 6 3 5 4 4 5 12 6 10 7 11 8 8 9 3 11 2 12 1 13
REMARK H PARENT 8 10
REMARK Flexibility Score: inf
ROOT
ATOM      1  C   UNL     1     -97.151  24.563 -27.915  1.00  0.00     0.160 A 
ATOM      2  C   UNL     1     -97.034  23.219 -28.318  1.00  0.00     0.157 A 
ATOM      3  C   UNL     1     -98.168  22.509 -28.722  1.00  0.00     0.050 A 
ATOM      4  C   UNL     1     -99.422  23.122 -28.730  1.00  0.00     0.008 A 
ATOM      5  C   UNL     1     -99.555  24.463 -28.344  1.00  0.00    -0.040 A 
ATOM      6  C   UNL     1     -98.420  25.178 -27.928  1.00  0.00     0.054 A 
ENDROOT
BRANCH   1   7
ATOM      7  O   UNL     1     -95.997  25.251 -27.508  1.00  0.00    -0.493 OA
ATOM      8  C   UNL     1     -95.829  25.868 -26.235  1.00  0.00     0.278 C 
ENDBRANCH   1   7
BRANCH   2   9
ATOM      9  O   UNL     1     -95.798  22.574 -28.321  1.00  0.00    -0.504 OA
ATOM     10  H   UNL     1     -95.694  21.603 -28.050  1.00  0.00     0.293 HD
ENDBRANCH   2   9
BRANCH   5  11
ATOM     11  C   UNL     1    -100.913  25.113 -28.325  1.00  0.00     0.062 C 
BRANCH  11  12
ATOM     12  C   UNL     1    -101.118  25.885 -27.052  1.00  0.00    -0.030 C 
ATOM     13  C   UNL     1    -101.810  25.379 -26.028  1.00  0.00     0.004 C 
ENDBRANCH  11  12
ENDBRANCH   5  11
TORSDOF 4
ENDMDL
MODEL 7
REMARK VINA RESULT:    -2.855      2.740      4.328
REMARK INTER + INTRA:          -3.708
REMARK INTER:                  -3.458
REMARK INTRA:                  -0.250
REMARK UNBOUND:                -0.269
REMARK SMILES C=CCc1ccc(O)c(OC)c1
REMARK SMILES IDX 9 1 7 2 6 3 5 4 4 5 12 6 10 7 11 8 8 9 3 11 2 12 1 13
REMARK H PARENT 8 10
REMARK Flexibility Score: inf
ROOT
ATOM      1  C   UNL     1     -99.865  25.988 -40.768  1.00  0.00     0.160 A 
ATOM      2  C   UNL     1    -100.815  27.016 -40.917  1.00  0.00     0.157 A 
ATOM      3  C   UNL     1    -100.672  28.211 -40.206  1.00  0.00     0.050 A 
ATOM      4  C   UNL     1     -99.589  28.396 -39.344  1.00  0.00     0.008 A 
ATOM      5  C   UNL     1     -98.627  27.387 -39.191  1.00  0.00    -0.040 A 
ATOM      6  C   UNL     1     -98.773  26.182 -39.897  1.00  0.00     0.054 A 
ENDROOT
BRANCH   1   7
ATOM      7  O   UNL     1    -100.037  24.797 -41.490  1.00  0.00    -0.493 OA
ATOM      8  C   UNL     1     -99.250  24.411 -42.613  1.00  0.00     0.278 C 
ENDBRANCH   1   7
BRANCH   2   9
ATOM      9  O   UNL     1    -101.910  26.867 -41.769  1.00  0.00    -0.504 OA
ATOM     10  H   UNL     1    -101.866  26.307 -42.612  1.00  0.00     0.293 HD
ENDBRANCH   2   9
BRANCH   5  11
ATOM     11  C   UNL     1     -97.478  27.578 -38.238  1.00  0.00     0.062 C 
BRANCH  11  12
ATOM     12  C   UNL     1     -96.391  28.401 -38.871  1.00  0.00    -0.030 C 
ATOM     13  C   UNL     1     -95.406  27.838 -39.578  1.00  0.00     0.004 C 
ENDBRANCH  11  12
ENDBRANCH   5  11
TORSDOF 4
ENDMDL
MODEL 8
REMARK VINA RESULT:    -2.820     18.228     19.605
REMARK INTER + INTRA:          -3.666
REMARK INTER:                  -3.461
REMARK INTRA:                  -0.205
REMARK UNBOUND:                -0.269
REMARK SMILES C=CCc1ccc(O)c(OC)c1
REMARK SMILES IDX 9 1 7 2 6 3 5 4 4 5 12 6 10 7 11 8 8 9 3 11 2 12 1 13
REMARK H PARENT 8 10
REMARK Flexibility Score: inf
ROOT
ATOM      1  C   UNL     1    -107.898  18.181 -26.647  1.00  0.00     0.160 A 
ATOM      2  C   UNL     1    -107.742  17.307 -25.554  1.00  0.00     0.157 A 
ATOM      3  C   UNL     1    -108.170  17.694 -24.281  1.00  0.00     0.050 A 
ATOM      4  C   UNL     1    -108.754  18.946 -24.082  1.00  0.00     0.008 A 
ATOM      5  C   UNL     1    -108.928  19.825 -25.160  1.00  0.00    -0.040 A 
ATOM      6  C   UNL     1    -108.490  19.443 -26.438  1.00  0.00     0.054 A 
ENDROOT
BRANCH   1   7
ATOM      7  O   UNL     1    -107.454  17.768 -27.913  1.00  0.00    -0.493 OA
ATOM      8  C   UNL     1    -106.956  18.644 -28.920  1.00  0.00     0.278 C 
ENDBRANCH   1   7
BRANCH   2   9
ATOM      9  O   UNL     1    -107.163  16.049 -25.716  1.00  0.00    -0.504 OA
ATOM     10  H   UNL     1    -106.531  15.839 -26.479  1.00  0.00     0.293 HD
ENDBRANCH   2   9
BRANCH   5  11
ATOM     11  C   UNL     1    -109.531  21.186 -24.936  1.00  0.00     0.062 C 
BRANCH  11  12
ATOM     12  C   UNL     1    -108.737  21.961 -23.921  1.00  0.00    -0.030 C 
ATOM     13  C   UNL     1    -108.505  23.270 -24.063  1.00  0.00     0.004 C 
ENDBRANCH  11  12
ENDBRANCH   5  11
TORSDOF 4
ENDMDL
MODEL 9
REMARK VINA RESULT:    -2.799      8.839      9.256
REMARK INTER + INTRA:          -3.640
REMARK INTER:                  -3.465
REMARK INTRA:                  -0.176
REMARK UNBOUND:                -0.269
REMARK SMILES C=CCc1ccc(O)c(OC)c1
REMARK SMILES IDX 9 1 7 2 6 3 5 4 4 5 12 6 10 7 11 8 8 9 3 11 2 12 1 13
REMARK H PARENT 8 10
REMARK Flexibility Score: inf
ROOT
ATOM      1  C   UNL     1     -99.514  33.500 -34.085  1.00  0.00     0.160 A 
ATOM      2  C   UNL     1     -98.136  33.755 -34.212  1.00  0.00     0.157 A 
ATOM      3  C   UNL     1     -97.681  34.709 -35.127  1.00  0.00     0.050 A 
ATOM      4  C   UNL     1     -98.587  35.416 -35.920  1.00  0.00     0.008 A 
ATOM      5  C   UNL     1     -99.964  35.184 -35.799  1.00  0.00    -0.040 A 
ATOM      6  C   UNL     1    -100.424  34.219 -34.888  1.00  0.00     0.054 A 
ENDROOT
BRANCH   1   7
ATOM      7  O   UNL     1     -99.942  32.532 -33.163  1.00  0.00    -0.493 OA
ATOM      8  C   UNL     1    -101.110  31.731 -33.315  1.00  0.00     0.278 C 
ENDBRANCH   1   7
BRANCH   2   9
ATOM      9  O   UNL     1     -97.202  33.067 -33.437  1.00  0.00    -0.504 OA
ATOM     10  H   UNL     1     -96.407  32.590 -33.846  1.00  0.00     0.293 HD
ENDBRANCH   2   9
BRANCH   5  11
ATOM     11  C   UNL     1    -100.935  35.927 -36.677  1.00  0.00     0.062 C 
BRANCH  11  12
ATOM     12  C   UNL     1    -101.712  34.973 -37.541  1.00  0.00    -0.030 C 
ATOM     13  C   UNL     1    -102.432  35.397 -38.584  1.00  0.00     0.004 C 
ENDBRANCH  11  12
ENDBRANCH   5  11
TORSDOF 4
ENDMDL
