MODEL 1
REMARK VINA RESULT:    -5.209      0.000      0.000
REMARK INTER + INTRA:          -5.994
REMARK INTER:                  -5.818
REMARK INTRA:                  -0.176
REMARK UNBOUND:                -0.176
REMARK SMILES C=CCc1ccc2c(c1)OCO2
REMARK SMILES IDX 3 1 2 2 1 3 4 4 9 5 5 6 8 7 6 8 7 9 10 10 12 11 11 12
REMARK H PARENT
REMARK Flexibility Score: inf
ROOT
ATOM      1  C   UNL     1     254.423 -26.310  53.689  1.00  0.00     0.062 C 
ENDROOT
BRANCH   1   2
ATOM      2  C   UNL     1     253.291 -25.981  54.619  1.00  0.00    -0.030 C 
ATOM      3  C   UNL     1     253.277 -24.855  55.339  1.00  0.00     0.004 C 
ENDBRANCH   1   2
BRANCH   1   4
ATOM      4  C   UNL     1     254.097 -25.892  52.281  1.00  0.00    -0.040 A 
ATOM      5  C   UNL     1     254.394 -24.580  51.846  1.00  0.00     0.054 A 
ATOM      6  C   UNL     1     253.450 -26.794  51.396  1.00  0.00     0.008 A 
ATOM      7  C   UNL     1     254.048 -24.228  50.545  1.00  0.00     0.166 A 
ATOM      8  C   UNL     1     253.117 -26.397  50.089  1.00  0.00     0.051 A 
ATOM      9  C   UNL     1     253.436 -25.099  49.703  1.00  0.00     0.165 A 
ATOM     10  O   UNL     1     254.237 -23.021  49.902  1.00  0.00    -0.454 OA
ATOM     11  O   UNL     1     253.212 -24.483  48.487  1.00  0.00    -0.454 OA
ATOM     12  C   UNL     1     253.714 -23.141  48.571  1.00  0.00     0.468 C 
ENDBRANCH   1   4
TORSDOF 2
ENDMDL
MODEL 2
REMARK VINA RESULT:    -5.206      9.221     10.417
REMARK INTER + INTRA:          -5.990
REMARK INTER:                  -5.784
REMARK INTRA:                  -0.206
REMARK UNBOUND:                -0.176
REMARK SMILES C=CCc1ccc2c(c1)OCO2
REMARK SMILES IDX 3 1 2 2 1 3 4 4 9 5 5 6 8 7 6 8 7 9 10 10 12 11 11 12
REMARK H PARENT
REMARK Flexibility Score: inf
ROOT
ATOM      1  C   UNL     1     258.538 -28.627  59.010  1.00  0.00     0.062 C 
ENDROOT
BRANCH   1   2
ATOM      2  C   UNL     1     258.872 -28.385  60.454  1.00  0.00    -0.030 C 
ATOM      3  C   UNL     1     258.484 -27.275  61.089  1.00  0.00     0.004 C 
ENDBRANCH   1   2
BRANCH   1   4
ATOM      4  C   UNL     1     259.691 -28.244  58.124  1.00  0.00    -0.040 A 
ATOM      5  C   UNL     1     260.894 -28.985  58.169  1.00  0.00     0.054 A 
ATOM      6  C   UNL     1     259.596 -27.113  57.271  1.00  0.00     0.008 A 
ATOM      7  C   UNL     1     261.945 -28.576  57.353  1.00  0.00     0.166 A 
ATOM      8  C   UNL     1     260.683 -26.736  56.462  1.00  0.00     0.051 A 
ATOM      9  C   UNL     1     261.843 -27.499  56.535  1.00  0.00     0.165 A 
ATOM     10  O   UNL     1     263.201 -29.136  57.224  1.00  0.00    -0.454 OA
ATOM     11  O   UNL     1     263.030 -27.329  55.848  1.00  0.00    -0.454 OA
ATOM     12  C   UNL     1     263.934 -28.363  56.262  1.00  0.00     0.468 C 
ENDBRANCH   1   4
TORSDOF 2
ENDMDL
MODEL 3
REMARK VINA RESULT:    -5.087      7.951      9.237
REMARK INTER + INTRA:          -5.858
REMARK INTER:                  -5.677
REMARK INTRA:                  -0.181
REMARK UNBOUND:                -0.176
REMARK SMILES C=CCc1ccc2c(c1)OCO2
REMARK SMILES IDX 3 1 2 2 1 3 4 4 9 5 5 6 8 7 6 8 7 9 10 10 12 11 11 12
REMARK H PARENT
REMARK Flexibility Score: inf
ROOT
ATOM      1  C   UNL     1     261.315 -27.401  52.246  1.00  0.00     0.062 C 
ENDROOT
BRANCH   1   2
ATOM      2  C   UNL     1     261.026 -28.456  51.218  1.00  0.00    -0.030 C 
ATOM      3  C   UNL     1     260.789 -28.146  49.939  1.00  0.00     0.004 C 
ENDBRANCH   1   2
BRANCH   1   4
ATOM      4  C   UNL     1     260.693 -27.759  53.568  1.00  0.00    -0.040 A 
ATOM      5  C   UNL     1     261.229 -27.236  54.767  1.00  0.00     0.054 A 
ATOM      6  C   UNL     1     259.594 -28.656  53.625  1.00  0.00     0.008 A 
ATOM      7  C   UNL     1     260.639 -27.617  55.969  1.00  0.00     0.166 A 
ATOM      8  C   UNL     1     259.028 -29.015  54.861  1.00  0.00     0.051 A 
ATOM      9  C   UNL     1     259.585 -28.470  56.014  1.00  0.00     0.165 A 
ATOM     10  O   UNL     1     260.982 -27.240  57.252  1.00  0.00    -0.454 OA
ATOM     11  O   UNL     1     259.210 -28.669  57.328  1.00  0.00    -0.454 OA
ATOM     12  C   UNL     1     260.084 -27.895  58.161  1.00  0.00     0.468 C 
ENDBRANCH   1   4
TORSDOF 2
ENDMDL
MODEL 4
REMARK VINA RESULT:    -5.055      1.005      2.003
REMARK INTER + INTRA:          -5.822
REMARK INTER:                  -5.612
REMARK INTRA:                  -0.210
REMARK UNBOUND:                -0.176
REMARK SMILES C=CCc1ccc2c(c1)OCO2
REMARK SMILES IDX 3 1 2 2 1 3 4 4 9 5 5 6 8 7 6 8 7 9 10 10 12 11 11 12
REMARK H PARENT
REMARK Flexibility Score: inf
ROOT
ATOM      1  C   UNL     1     254.016 -26.505  52.886  1.00  0.00     0.062 C 
ENDROOT
BRANCH   1   2
ATOM      2  C   UNL     1     254.206 -25.629  54.091  1.00  0.00    -0.030 C 
ATOM      3  C   UNL     1     253.189 -25.320  54.902  1.00  0.00     0.004 C 
ENDBRANCH   1   2
BRANCH   1   4
ATOM      4  C   UNL     1     253.913 -25.676  51.634  1.00  0.00    -0.040 A 
ATOM      5  C   UNL     1     253.216 -26.176  50.511  1.00  0.00     0.054 A 
ATOM      6  C   UNL     1     254.551 -24.410  51.557  1.00  0.00     0.008 A 
ATOM      7  C   UNL     1     253.171 -25.388  49.365  1.00  0.00     0.166 A 
ATOM      8  C   UNL     1     254.480 -23.646  50.379  1.00  0.00     0.051 A 
ATOM      9  C   UNL     1     253.777 -24.175  49.302  1.00  0.00     0.165 A 
ATOM     10  O   UNL     1     252.556 -25.659  48.159  1.00  0.00    -0.454 OA
ATOM     11  O   UNL     1     253.570 -23.622  48.053  1.00  0.00    -0.454 OA
ATOM     12  C   UNL     1     252.787 -24.545  47.283  1.00  0.00     0.468 C 
ENDBRANCH   1   4
TORSDOF 2
ENDMDL
MODEL 5
REMARK VINA RESULT:    -4.977      1.700      2.344
REMARK INTER + INTRA:          -5.735
REMARK INTER:                  -5.589
REMARK INTRA:                  -0.145
REMARK UNBOUND:                -0.176
REMARK SMILES C=CCc1ccc2c(c1)OCO2
REMARK SMILES IDX 3 1 2 2 1 3 4 4 9 5 5 6 8 7 6 8 7 9 10 10 12 11 11 12
REMARK H PARENT
REMARK Flexibility Score: inf
ROOT
ATOM      1  C   UNL     1     254.230 -25.802  52.540  1.00  0.00     0.062 C 
ENDROOT
BRANCH   1   2
ATOM      2  C   UNL     1     254.207 -25.346  53.971  1.00  0.00    -0.030 C 
ATOM      3  C   UNL     1     253.315 -25.820  54.846  1.00  0.00     0.004 C 
ENDBRANCH   1   2
BRANCH   1   4
ATOM      4  C   UNL     1     254.048 -24.637  51.606  1.00  0.00    -0.040 A 
ATOM      5  C   UNL     1     253.237 -23.544  51.987  1.00  0.00     0.054 A 
ATOM      6  C   UNL     1     254.652 -24.647  50.321  1.00  0.00     0.008 A 
ATOM      7  C   UNL     1     253.074 -22.502  51.080  1.00  0.00     0.166 A 
ATOM      8  C   UNL     1     254.460 -23.572  49.434  1.00  0.00     0.051 A 
ATOM      9  C   UNL     1     253.660 -22.515  49.856  1.00  0.00     0.165 A 
ATOM     10  O   UNL     1     252.340 -21.341  51.226  1.00  0.00    -0.454 OA
ATOM     11  O   UNL     1     253.326 -21.362  49.173  1.00  0.00    -0.454 OA
ATOM     12  C   UNL     1     252.476 -20.576  50.019  1.00  0.00     0.468 C 
ENDBRANCH   1   4
TORSDOF 2
ENDMDL
MODEL 6
REMARK VINA RESULT:    -4.945      8.998      9.871
REMARK INTER + INTRA:          -5.700
REMARK INTER:                  -5.479
REMARK INTRA:                  -0.221
REMARK UNBOUND:                -0.176
REMARK SMILES C=CCc1ccc2c(c1)OCO2
REMARK SMILES IDX 3 1 2 2 1 3 4 4 9 5 5 6 8 7 6 8 7 9 10 10 12 11 11 12
REMARK H PARENT
REMARK Flexibility Score: inf
ROOT
ATOM      1  C   UNL     1     258.567 -28.303  58.932  1.00  0.00     0.062 C 
ENDROOT
BRANCH   1   2
ATOM      2  C   UNL     1     258.930 -28.979  60.223  1.00  0.00    -0.030 C 
ATOM      3  C   UNL     1     259.230 -28.281  61.322  1.00  0.00     0.004 C 
ENDBRANCH   1   2
BRANCH   1   4
ATOM      4  C   UNL     1     259.787 -28.099  58.075  1.00  0.00    -0.040 A 
ATOM      5  C   UNL     1     259.895 -26.946  57.263  1.00  0.00     0.054 A 
ATOM      6  C   UNL     1     260.812 -29.079  58.041  1.00  0.00     0.008 A 
ATOM      7  C   UNL     1     261.027 -26.814  56.464  1.00  0.00     0.166 A 
ATOM      8  C   UNL     1     261.940 -28.905  57.219  1.00  0.00     0.051 A 
ATOM      9  C   UNL     1     262.007 -27.752  56.443  1.00  0.00     0.165 A 
ATOM     10  O   UNL     1     261.354 -25.788  55.600  1.00  0.00    -0.454 OA
ATOM     11  O   UNL     1     263.000 -27.361  55.566  1.00  0.00    -0.454 OA
ATOM     12  C   UNL     1     262.620 -26.100  55.000  1.00  0.00     0.468 C 
ENDBRANCH   1   4
TORSDOF 2
ENDMDL
MODEL 7
REMARK VINA RESULT:    -4.781      8.070      9.535
REMARK INTER + INTRA:          -5.516
REMARK INTER:                  -5.350
REMARK INTRA:                  -0.166
REMARK UNBOUND:                -0.176
REMARK SMILES C=CCc1ccc2c(c1)OCO2
REMARK SMILES IDX 3 1 2 2 1 3 4 4 9 5 5 6 8 7 6 8 7 9 10 10 12 11 11 12
REMARK H PARENT
REMARK Flexibility Score: inf
ROOT
ATOM      1  C   UNL     1     261.869 -26.980  51.952  1.00  0.00     0.062 C 
ENDROOT
BRANCH   1   2
ATOM      2  C   UNL     1     261.402 -28.259  51.318  1.00  0.00    -0.030 C 
ATOM      3  C   UNL     1     260.734 -28.267  50.161  1.00  0.00     0.004 C 
ENDBRANCH   1   2
BRANCH   1   4
ATOM      4  C   UNL     1     261.565 -26.971  53.425  1.00  0.00    -0.040 A 
ATOM      5  C   UNL     1     260.626 -27.884  53.959  1.00  0.00     0.054 A 
ATOM      6  C   UNL     1     262.183 -26.021  54.280  1.00  0.00     0.008 A 
ATOM      7  C   UNL     1     260.355 -27.821  55.322  1.00  0.00     0.166 A 
ATOM      8  C   UNL     1     261.879 -25.992  55.652  1.00  0.00     0.051 A 
ATOM      9  C   UNL     1     260.955 -26.914  56.134  1.00  0.00     0.165 A 
ATOM     10  O   UNL     1     259.488 -28.600  56.063  1.00  0.00    -0.454 OA
ATOM     11  O   UNL     1     260.497 -27.080  57.426  1.00  0.00    -0.454 OA
ATOM     12  C   UNL     1     259.550 -28.157  57.427  1.00  0.00     0.468 C 
ENDBRANCH   1   4
TORSDOF 2
ENDMDL
MODEL 8
REMARK VINA RESULT:    -4.756      8.331      9.626
REMARK INTER + INTRA:          -5.488
REMARK INTER:                  -5.332
REMARK INTRA:                  -0.156
REMARK UNBOUND:                -0.176
REMARK SMILES C=CCc1ccc2c(c1)OCO2
REMARK SMILES IDX 3 1 2 2 1 3 4 4 9 5 5 6 8 7 6 8 7 9 10 10 12 11 11 12
REMARK H PARENT
REMARK Flexibility Score: inf
ROOT
ATOM      1  C   UNL     1     260.800 -27.922  52.355  1.00  0.00     0.062 C 
ENDROOT
BRANCH   1   2
ATOM      2  C   UNL     1     261.096 -27.483  50.950  1.00  0.00    -0.030 C 
ATOM      3  C   UNL     1     260.818 -28.260  49.898  1.00  0.00     0.004 C 
ENDBRANCH   1   2
BRANCH   1   4
ATOM      4  C   UNL     1     261.402 -26.967  53.350  1.00  0.00    -0.040 A 
ATOM      5  C   UNL     1     262.081 -25.812  52.900  1.00  0.00     0.054 A 
ATOM      6  C   UNL     1     261.331 -27.241  54.741  1.00  0.00     0.008 A 
ATOM      7  C   UNL     1     262.647 -24.972  53.855  1.00  0.00     0.166 A 
ATOM      8  C   UNL     1     261.918 -26.365  55.672  1.00  0.00     0.051 A 
ATOM      9  C   UNL     1     262.569 -25.237  55.183  1.00  0.00     0.165 A 
ATOM     10  O   UNL     1     263.349 -23.799  53.660  1.00  0.00    -0.454 OA
ATOM     11  O   UNL     1     263.215 -24.242  55.890  1.00  0.00    -0.454 OA
ATOM     12  C   UNL     1     263.733 -23.294  54.947  1.00  0.00     0.468 C 
ENDBRANCH   1   4
TORSDOF 2
ENDMDL
MODEL 9
REMARK VINA RESULT:    -4.663      9.124     10.663
REMARK INTER + INTRA:          -5.384
REMARK INTER:                  -5.233
REMARK INTRA:                  -0.151
REMARK UNBOUND:                -0.176
REMARK SMILES C=CCc1ccc2c(c1)OCO2
REMARK SMILES IDX 3 1 2 2 1 3 4 4 9 5 5 6 8 7 6 8 7 9 10 10 12 11 11 12
REMARK H PARENT
REMARK Flexibility Score: inf
ROOT
ATOM      1  C   UNL     1     261.513 -26.743  51.853  1.00  0.00     0.062 C 
ENDROOT
BRANCH   1   2
ATOM      2  C   UNL     1     260.879 -28.003  51.338  1.00  0.00    -0.030 C 
ATOM      3  C   UNL     1     260.778 -28.255  50.029  1.00  0.00     0.004 C 
ENDBRANCH   1   2
BRANCH   1   4
ATOM      4  C   UNL     1     262.263 -27.006  53.130  1.00  0.00    -0.040 A 
ATOM      5  C   UNL     1     261.574 -27.025  54.364  1.00  0.00     0.054 A 
ATOM      6  C   UNL     1     263.670 -27.193  53.110  1.00  0.00     0.008 A 
ATOM      7  C   UNL     1     262.313 -27.243  55.523  1.00  0.00     0.166 A 
ATOM      8  C   UNL     1     264.378 -27.410  54.305  1.00  0.00     0.051 A 
ATOM      9  C   UNL     1     263.657 -27.428  55.494  1.00  0.00     0.165 A 
ATOM     10  O   UNL     1     261.867 -27.307  56.828  1.00  0.00    -0.454 OA
ATOM     11  O   UNL     1     264.122 -27.619  56.781  1.00  0.00    -0.454 OA
ATOM     12  C   UNL     1     263.001 -27.549  57.673  1.00  0.00     0.468 C 
ENDBRANCH   1   4
TORSDOF 2
ENDMDL
