MODEL 1
REMARK VINA RESULT:    -3.611      0.000      0.000
REMARK INTER + INTRA:          -8.047
REMARK INTER:                  -6.355
REMARK INTRA:                  -1.692
REMARK UNBOUND:                -1.692
REMARK SMILES CCCCCCCCCCCCCCC(=O)[O-]
REMARK SMILES IDX 9 1 10 2 11 3 12 4 13 5 14 6 15 7 16 8 17 9 8 10 7 11 6 12
REMARK SMILES IDX 5 13 4 14 3 15 2 16 1 17
REMARK H PARENT
REMARK Flexibility Score: inf
ROOT
ATOM      1  C   UNL     1      -7.825 -64.088  -1.475  1.00  0.00     0.000 C 
ENDROOT
BRANCH   1   2
ATOM      2  C   UNL     1      -7.075 -63.127  -0.535  1.00  0.00     0.000 C 
BRANCH   2   3
ATOM      3  C   UNL     1      -5.588 -63.487  -0.370  1.00  0.00     0.000 C 
BRANCH   3   4
ATOM      4  C   UNL     1      -5.393 -64.872   0.283  1.00  0.00     0.000 C 
BRANCH   4   5
ATOM      5  C   UNL     1      -4.411 -65.778  -0.477  1.00  0.00     0.006 C 
BRANCH   5   6
ATOM      6  C   UNL     1      -5.082 -66.576  -1.601  1.00  0.00     0.053 C 
BRANCH   6   7
ATOM      7  C   UNL     1      -4.348 -66.380  -2.890  1.00  0.00     0.041 C 
ATOM      8  O   UNL     1      -4.403 -67.259  -3.791  1.00  0.00    -0.550 OA
ATOM      9  O   UNL     1      -3.564 -65.250  -3.079  1.00  0.00    -0.550 OA
ENDBRANCH   6   7
ENDBRANCH   5   6
ENDBRANCH   4   5
ENDBRANCH   3   4
ENDBRANCH   2   3
ENDBRANCH   1   2
BRANCH   1  10
ATOM     10  C   UNL     1      -8.958 -64.892  -0.809  1.00  0.00     0.000 C 
BRANCH  10  11
ATOM     11  C   UNL     1      -8.687 -66.403  -0.788  1.00  0.00    -0.000 C 
BRANCH  11  12
ATOM     12  C   UNL     1      -8.670 -66.937   0.653  1.00  0.00    -0.000 C 
BRANCH  12  13
ATOM     13  C   UNL     1      -8.719 -65.815   1.703  1.00  0.00    -0.000 C 
BRANCH  13  14
ATOM     14  C   UNL     1      -7.803 -66.091   2.906  1.00  0.00    -0.000 C 
BRANCH  14  15
ATOM     15  C   UNL     1      -8.510 -66.872   4.029  1.00  0.00    -0.000 C 
BRANCH  15  16
ATOM     16  C   UNL     1      -7.623 -67.886   4.775  1.00  0.00    -0.003 C 
ATOM     17  C   UNL     1      -8.056 -69.335   4.556  1.00  0.00     0.004 C 
ENDBRANCH  15  16
ENDBRANCH  14  15
ENDBRANCH  13  14
ENDBRANCH  12  13
ENDBRANCH  11  12
ENDBRANCH  10  11
ENDBRANCH   1  10
TORSDOF 13
ENDMDL
MODEL 2
REMARK VINA RESULT:    -3.573      1.754      2.623
REMARK INTER + INTRA:          -7.981
REMARK INTER:                  -6.166
REMARK INTRA:                  -1.815
REMARK UNBOUND:                -1.692
REMARK SMILES CCCCCCCCCCCCCCC(=O)[O-]
REMARK SMILES IDX 9 1 10 2 11 3 12 4 13 5 14 6 15 7 16 8 17 9 8 10 7 11 6 12
REMARK SMILES IDX 5 13 4 14 3 15 2 16 1 17
REMARK H PARENT
REMARK Flexibility Score: inf
ROOT
ATOM      1  C   UNL     1      -7.129 -63.149  -1.573  1.00  0.00     0.000 C 
ENDROOT
BRANCH   1   2
ATOM      2  C   UNL     1      -6.127 -64.018  -2.354  1.00  0.00     0.000 C 
BRANCH   2   3
ATOM      3  C   UNL     1      -4.853 -64.333  -1.553  1.00  0.00     0.000 C 
BRANCH   3   4
ATOM      4  C   UNL     1      -4.865 -65.764  -0.975  1.00  0.00     0.000 C 
BRANCH   4   5
ATOM      5  C   UNL     1      -5.139 -66.850  -2.028  1.00  0.00     0.006 C 
BRANCH   5   6
ATOM      6  C   UNL     1      -4.256 -66.710  -3.273  1.00  0.00     0.053 C 
BRANCH   6   7
ATOM      7  C   UNL     1      -4.496 -67.849  -4.214  1.00  0.00     0.041 C 
ATOM      8  O   UNL     1      -4.063 -67.798  -5.395  1.00  0.00    -0.550 OA
ATOM      9  O   UNL     1      -5.240 -68.947  -3.801  1.00  0.00    -0.550 OA
ENDBRANCH   6   7
ENDBRANCH   5   6
ENDBRANCH   4   5
ENDBRANCH   3   4
ENDBRANCH   2   3
ENDBRANCH   1   2
BRANCH   1  10
ATOM     10  C   UNL     1      -8.075 -63.930  -0.641  1.00  0.00     0.000 C 
BRANCH  10  11
ATOM     11  C   UNL     1      -8.569 -65.247  -1.257  1.00  0.00    -0.000 C 
BRANCH  11  12
ATOM     12  C   UNL     1      -8.426 -66.406  -0.258  1.00  0.00    -0.000 C 
BRANCH  12  13
ATOM     13  C   UNL     1      -9.163 -66.144   1.066  1.00  0.00    -0.000 C 
BRANCH  13  14
ATOM     14  C   UNL     1      -8.279 -66.405   2.296  1.00  0.00    -0.000 C 
BRANCH  14  15
ATOM     15  C   UNL     1      -7.616 -65.126   2.839  1.00  0.00    -0.000 C 
BRANCH  15  16
ATOM     16  C   UNL     1      -6.173 -64.887   2.358  1.00  0.00    -0.003 C 
ATOM     17  C   UNL     1      -5.835 -63.405   2.195  1.00  0.00     0.004 C 
ENDBRANCH  15  16
ENDBRANCH  14  15
ENDBRANCH  13  14
ENDBRANCH  12  13
ENDBRANCH  11  12
ENDBRANCH  10  11
ENDBRANCH   1  10
TORSDOF 13
ENDMDL
MODEL 3
REMARK VINA RESULT:    -3.551      2.227      3.911
REMARK INTER + INTRA:          -7.942
REMARK INTER:                  -6.368
REMARK INTRA:                  -1.574
REMARK UNBOUND:                -1.692
REMARK SMILES CCCCCCCCCCCCCCC(=O)[O-]
REMARK SMILES IDX 9 1 10 2 11 3 12 4 13 5 14 6 15 7 16 8 17 9 8 10 7 11 6 12
REMARK SMILES IDX 5 13 4 14 3 15 2 16 1 17
REMARK H PARENT
REMARK Flexibility Score: inf
ROOT
ATOM      1  C   UNL     1      -4.608 -64.835  -1.461  1.00  0.00     0.000 C 
ENDROOT
BRANCH   1   2
ATOM      2  C   UNL     1      -5.053 -66.258  -1.077  1.00  0.00     0.000 C 
BRANCH   2   3
ATOM      3  C   UNL     1      -5.071 -67.225  -2.274  1.00  0.00     0.000 C 
BRANCH   3   4
ATOM      4  C   UNL     1      -4.364 -66.633  -3.512  1.00  0.00     0.000 C 
BRANCH   4   5
ATOM      5  C   UNL     1      -4.259 -67.616  -4.690  1.00  0.00     0.006 C 
BRANCH   5   6
ATOM      6  C   UNL     1      -3.613 -66.993  -5.932  1.00  0.00     0.053 C 
BRANCH   6   7
ATOM      7  C   UNL     1      -4.363 -67.388  -7.165  1.00  0.00     0.041 C 
ATOM      8  O   UNL     1      -4.292 -68.567  -7.600  1.00  0.00    -0.550 OA
ATOM      9  O   UNL     1      -5.101 -66.440  -7.862  1.00  0.00    -0.550 OA
ENDBRANCH   6   7
ENDBRANCH   5   6
ENDBRANCH   4   5
ENDBRANCH   3   4
ENDBRANCH   2   3
ENDBRANCH   1   2
BRANCH   1  10
ATOM     10  C   UNL     1      -5.660 -63.739  -1.213  1.00  0.00     0.000 C 
BRANCH  10  11
ATOM     11  C   UNL     1      -6.971 -63.983  -1.977  1.00  0.00    -0.000 C 
BRANCH  11  12
ATOM     12  C   UNL     1      -8.141 -64.190  -1.003  1.00  0.00    -0.000 C 
BRANCH  12  13
ATOM     13  C   UNL     1      -8.737 -65.605  -1.081  1.00  0.00    -0.000 C 
BRANCH  13  14
ATOM     14  C   UNL     1      -8.393 -66.460   0.149  1.00  0.00    -0.000 C 
BRANCH  14  15
ATOM     15  C   UNL     1      -8.652 -65.728   1.478  1.00  0.00    -0.000 C 
BRANCH  15  16
ATOM     16  C   UNL     1      -7.525 -65.849   2.520  1.00  0.00    -0.003 C 
ATOM     17  C   UNL     1      -6.393 -64.848   2.296  1.00  0.00     0.004 C 
ENDBRANCH  15  16
ENDBRANCH  14  15
ENDBRANCH  13  14
ENDBRANCH  12  13
ENDBRANCH  11  12
ENDBRANCH  10  11
ENDBRANCH   1  10
TORSDOF 13
ENDMDL
MODEL 4
REMARK VINA RESULT:    -3.527      3.216      6.274
REMARK INTER + INTRA:          -7.900
REMARK INTER:                  -6.059
REMARK INTRA:                  -1.841
REMARK UNBOUND:                -1.692
REMARK SMILES CCCCCCCCCCCCCCC(=O)[O-]
REMARK SMILES IDX 9 1 10 2 11 3 12 4 13 5 14 6 15 7 16 8 17 9 8 10 7 11 6 12
REMARK SMILES IDX 5 13 4 14 3 15 2 16 1 17
REMARK H PARENT
REMARK Flexibility Score: inf
ROOT
ATOM      1  C   UNL     1      -6.979 -63.024  -0.648  1.00  0.00     0.000 C 
ENDROOT
BRANCH   1   2
ATOM      2  C   UNL     1      -7.711 -63.976  -1.609  1.00  0.00     0.000 C 
BRANCH   2   3
ATOM      3  C   UNL     1      -8.821 -64.789  -0.920  1.00  0.00     0.000 C 
BRANCH   3   4
ATOM      4  C   UNL     1      -8.386 -66.240  -0.628  1.00  0.00     0.000 C 
BRANCH   4   5
ATOM      5  C   UNL     1      -8.474 -66.622   0.859  1.00  0.00     0.006 C 
BRANCH   5   6
ATOM      6  C   UNL     1      -7.575 -65.759   1.751  1.00  0.00     0.053 C 
BRANCH   6   7
ATOM      7  C   UNL     1      -8.155 -65.648   3.126  1.00  0.00     0.041 C 
ATOM      8  O   UNL     1      -9.307 -66.096   3.366  1.00  0.00    -0.550 OA
ATOM      9  O   UNL     1      -7.444 -65.004   4.130  1.00  0.00    -0.550 OA
ENDBRANCH   6   7
ENDBRANCH   5   6
ENDBRANCH   4   5
ENDBRANCH   3   4
ENDBRANCH   2   3
ENDBRANCH   1   2
BRANCH   1  10
ATOM     10  C   UNL     1      -5.464 -62.894  -0.893  1.00  0.00     0.000 C 
BRANCH  10  11
ATOM     11  C   UNL     1      -4.623 -63.666   0.134  1.00  0.00    -0.000 C 
BRANCH  11  12
ATOM     12  C   UNL     1      -3.884 -64.837  -0.533  1.00  0.00    -0.000 C 
BRANCH  12  13
ATOM     13  C   UNL     1      -4.764 -66.089  -0.679  1.00  0.00    -0.000 C 
BRANCH  13  14
ATOM     14  C   UNL     1      -4.957 -66.508  -2.145  1.00  0.00    -0.000 C 
BRANCH  14  15
ATOM     15  C   UNL     1      -4.116 -65.667  -3.123  1.00  0.00    -0.000 C 
BRANCH  15  16
ATOM     16  C   UNL     1      -4.224 -66.086  -4.601  1.00  0.00    -0.003 C 
ATOM     17  C   UNL     1      -3.882 -67.558  -4.832  1.00  0.00     0.004 C 
ENDBRANCH  15  16
ENDBRANCH  14  15
ENDBRANCH  13  14
ENDBRANCH  12  13
ENDBRANCH  11  12
ENDBRANCH  10  11
ENDBRANCH   1  10
TORSDOF 13
ENDMDL
MODEL 5
REMARK VINA RESULT:    -3.510      4.227      7.869
REMARK INTER + INTRA:          -7.870
REMARK INTER:                  -6.810
REMARK INTRA:                  -1.060
REMARK UNBOUND:                -1.692
REMARK SMILES CCCCCCCCCCCCCCC(=O)[O-]
REMARK SMILES IDX 9 1 10 2 11 3 12 4 13 5 14 6 15 7 16 8 17 9 8 10 7 11 6 12
REMARK SMILES IDX 5 13 4 14 3 15 2 16 1 17
REMARK H PARENT
REMARK Flexibility Score: inf
ROOT
ATOM      1  C   UNL     1     -10.229 -66.430   5.812  1.00  0.00     0.000 C 
ENDROOT
BRANCH   1   2
ATOM      2  C   UNL     1      -9.863 -67.625   6.710  1.00  0.00     0.000 C 
BRANCH   2   3
ATOM      3  C   UNL     1     -11.009 -68.643   6.851  1.00  0.00     0.000 C 
BRANCH   3   4
ATOM      4  C   UNL     1     -10.539 -70.090   6.589  1.00  0.00     0.000 C 
BRANCH   4   5
ATOM      5  C   UNL     1      -9.215 -70.176   5.813  1.00  0.00     0.006 C 
BRANCH   5   6
ATOM      6  C   UNL     1      -8.741 -71.618   5.601  1.00  0.00     0.053 C 
BRANCH   6   7
ATOM      7  C   UNL     1      -9.403 -72.215   4.399  1.00  0.00     0.041 C 
ATOM      8  O   UNL     1      -9.016 -71.904   3.242  1.00  0.00    -0.550 OA
ATOM      9  O   UNL     1     -10.482 -73.076   4.556  1.00  0.00    -0.550 OA
ENDBRANCH   6   7
ENDBRANCH   5   6
ENDBRANCH   4   5
ENDBRANCH   3   4
ENDBRANCH   2   3
ENDBRANCH   1   2
BRANCH   1  10
ATOM     10  C   UNL     1      -9.045 -65.806   5.051  1.00  0.00     0.000 C 
BRANCH  10  11
ATOM     11  C   UNL     1      -8.149 -66.853   4.373  1.00  0.00    -0.000 C 
BRANCH  11  12
ATOM     12  C   UNL     1      -8.435 -66.924   2.864  1.00  0.00    -0.000 C 
BRANCH  12  13
ATOM     13  C   UNL     1      -7.764 -65.786   2.078  1.00  0.00    -0.000 C 
BRANCH  13  14
ATOM     14  C   UNL     1      -8.627 -65.288   0.907  1.00  0.00    -0.000 C 
BRANCH  14  15
ATOM     15  C   UNL     1      -7.963 -65.514  -0.463  1.00  0.00    -0.000 C 
BRANCH  15  16
ATOM     16  C   UNL     1      -7.917 -66.980  -0.931  1.00  0.00    -0.003 C 
ATOM     17  C   UNL     1      -9.232 -67.723  -0.700  1.00  0.00     0.004 C 
ENDBRANCH  15  16
ENDBRANCH  14  15
ENDBRANCH  13  14
ENDBRANCH  12  13
ENDBRANCH  11  12
ENDBRANCH  10  11
ENDBRANCH   1  10
TORSDOF 13
ENDMDL
MODEL 6
REMARK VINA RESULT:    -3.509      2.949      7.159
REMARK INTER + INTRA:          -7.867
REMARK INTER:                  -6.588
REMARK INTRA:                  -1.279
REMARK UNBOUND:                -1.692
REMARK SMILES CCCCCCCCCCCCCCC(=O)[O-]
REMARK SMILES IDX 9 1 10 2 11 3 12 4 13 5 14 6 15 7 16 8 17 9 8 10 7 11 6 12
REMARK SMILES IDX 5 13 4 14 3 15 2 16 1 17
REMARK H PARENT
REMARK Flexibility Score: inf
ROOT
ATOM      1  C   UNL     1      -4.850 -65.997  -0.879  1.00  0.00     0.000 C 
ENDROOT
BRANCH   1   2
ATOM      2  C   UNL     1      -5.407 -64.566  -0.984  1.00  0.00     0.000 C 
BRANCH   2   3
ATOM      3  C   UNL     1      -5.976 -64.044   0.347  1.00  0.00     0.000 C 
BRANCH   3   4
ATOM      4  C   UNL     1      -6.450 -65.189   1.267  1.00  0.00     0.000 C 
BRANCH   4   5
ATOM      5  C   UNL     1      -7.973 -65.223   1.474  1.00  0.00     0.006 C 
BRANCH   5   6
ATOM      6  C   UNL     1      -8.612 -66.531   0.995  1.00  0.00     0.053 C 
BRANCH   6   7
ATOM      7  C   UNL     1      -8.664 -66.571  -0.500  1.00  0.00     0.041 C 
ATOM      8  O   UNL     1      -8.886 -65.518  -1.154  1.00  0.00    -0.550 OA
ATOM      9  O   UNL     1      -8.518 -67.779  -1.169  1.00  0.00    -0.550 OA
ENDBRANCH   6   7
ENDBRANCH   5   6
ENDBRANCH   4   5
ENDBRANCH   3   4
ENDBRANCH   2   3
ENDBRANCH   1   2
BRANCH   1  10
ATOM     10  C   UNL     1      -5.172 -66.907  -2.079  1.00  0.00     0.000 C 
BRANCH  10  11
ATOM     11  C   UNL     1      -4.301 -66.607  -3.309  1.00  0.00    -0.000 C 
BRANCH  11  12
ATOM     12  C   UNL     1      -4.511 -67.668  -4.401  1.00  0.00    -0.000 C 
BRANCH  12  13
ATOM     13  C   UNL     1      -3.438 -67.612  -5.499  1.00  0.00    -0.000 C 
BRANCH  13  14
ATOM     14  C   UNL     1      -3.626 -66.418  -6.449  1.00  0.00    -0.000 C 
BRANCH  14  15
ATOM     15  C   UNL     1      -4.838 -66.582  -7.384  1.00  0.00    -0.000 C 
BRANCH  15  16
ATOM     16  C   UNL     1      -5.863 -65.435  -7.328  1.00  0.00    -0.003 C 
ATOM     17  C   UNL     1      -5.511 -64.368  -6.292  1.00  0.00     0.004 C 
ENDBRANCH  15  16
ENDBRANCH  14  15
ENDBRANCH  13  14
ENDBRANCH  12  13
ENDBRANCH  11  12
ENDBRANCH  10  11
ENDBRANCH   1  10
TORSDOF 13
ENDMDL
MODEL 7
REMARK VINA RESULT:    -3.491      2.570      4.689
REMARK INTER + INTRA:          -7.837
REMARK INTER:                  -6.335
REMARK INTRA:                  -1.501
REMARK UNBOUND:                -1.692
REMARK SMILES CCCCCCCCCCCCCCC(=O)[O-]
REMARK SMILES IDX 9 1 10 2 11 3 12 4 13 5 14 6 15 7 16 8 17 9 8 10 7 11 6 12
REMARK SMILES IDX 5 13 4 14 3 15 2 16 1 17
REMARK H PARENT
REMARK Flexibility Score: inf
ROOT
ATOM      1  C   UNL     1      -5.154 -65.357  -1.940  1.00  0.00     0.000 C 
ENDROOT
BRANCH   1   2
ATOM      2  C   UNL     1      -5.286 -66.890  -1.912  1.00  0.00     0.000 C 
BRANCH   2   3
ATOM      3  C   UNL     1      -4.731 -67.564  -3.179  1.00  0.00     0.000 C 
BRANCH   3   4
ATOM      4  C   UNL     1      -3.894 -66.592  -4.037  1.00  0.00     0.000 C 
BRANCH   4   5
ATOM      5  C   UNL     1      -4.373 -66.486  -5.494  1.00  0.00     0.006 C 
BRANCH   5   6
ATOM      6  C   UNL     1      -4.254 -67.809  -6.259  1.00  0.00     0.053 C 
BRANCH   6   7
ATOM      7  C   UNL     1      -4.585 -67.609  -7.704  1.00  0.00     0.041 C 
ATOM      8  O   UNL     1      -5.357 -66.677  -8.054  1.00  0.00    -0.550 OA
ATOM      9  O   UNL     1      -4.082 -68.482  -8.660  1.00  0.00    -0.550 OA
ENDBRANCH   6   7
ENDBRANCH   5   6
ENDBRANCH   4   5
ENDBRANCH   3   4
ENDBRANCH   2   3
ENDBRANCH   1   2
BRANCH   1  10
ATOM     10  C   UNL     1      -4.595 -64.732  -0.649  1.00  0.00     0.000 C 
BRANCH  10  11
ATOM     11  C   UNL     1      -5.475 -63.598  -0.102  1.00  0.00    -0.000 C 
BRANCH  11  12
ATOM     12  C   UNL     1      -5.652 -63.727   1.420  1.00  0.00    -0.000 C 
BRANCH  12  13
ATOM     13  C   UNL     1      -6.281 -65.067   1.833  1.00  0.00    -0.000 C 
BRANCH  13  14
ATOM     14  C   UNL     1      -7.789 -65.128   1.537  1.00  0.00    -0.000 C 
BRANCH  14  15
ATOM     15  C   UNL     1      -8.221 -66.461   0.900  1.00  0.00    -0.000 C 
BRANCH  15  16
ATOM     16  C   UNL     1      -8.632 -66.373  -0.580  1.00  0.00    -0.003 C 
ATOM     17  C   UNL     1      -8.709 -64.936  -1.095  1.00  0.00     0.004 C 
ENDBRANCH  15  16
ENDBRANCH  14  15
ENDBRANCH  13  14
ENDBRANCH  12  13
ENDBRANCH  11  12
ENDBRANCH  10  11
ENDBRANCH   1  10
TORSDOF 13
ENDMDL
MODEL 8
REMARK VINA RESULT:    -3.407      3.362      5.516
REMARK INTER + INTRA:          -7.688
REMARK INTER:                  -6.694
REMARK INTRA:                  -0.993
REMARK UNBOUND:                -1.692
REMARK SMILES CCCCCCCCCCCCCCC(=O)[O-]
REMARK SMILES IDX 9 1 10 2 11 3 12 4 13 5 14 6 15 7 16 8 17 9 8 10 7 11 6 12
REMARK SMILES IDX 5 13 4 14 3 15 2 16 1 17
REMARK H PARENT
REMARK Flexibility Score: inf
ROOT
ATOM      1  C   UNL     1      -4.776 -67.676  -3.122  1.00  0.00     0.000 C 
ENDROOT
BRANCH   1   2
ATOM      2  C   UNL     1      -3.898 -66.930  -4.143  1.00  0.00     0.000 C 
BRANCH   2   3
ATOM      3  C   UNL     1      -3.975 -67.534  -5.556  1.00  0.00     0.000 C 
BRANCH   3   4
ATOM      4  C   UNL     1      -3.862 -66.459  -6.657  1.00  0.00     0.000 C 
BRANCH   4   5
ATOM      5  C   UNL     1      -5.206 -66.103  -7.312  1.00  0.00     0.006 C 
BRANCH   5   6
ATOM      6  C   UNL     1      -5.664 -64.674  -6.999  1.00  0.00     0.053 C 
BRANCH   6   7
ATOM      7  C   UNL     1      -6.853 -64.312  -7.831  1.00  0.00     0.041 C 
ATOM      8  O   UNL     1      -7.753 -65.164  -8.056  1.00  0.00    -0.550 OA
ATOM      9  O   UNL     1      -6.944 -63.048  -8.401  1.00  0.00    -0.550 OA
ENDBRANCH   6   7
ENDBRANCH   5   6
ENDBRANCH   4   5
ENDBRANCH   3   4
ENDBRANCH   2   3
ENDBRANCH   1   2
BRANCH   1  10
ATOM     10  C   UNL     1      -5.182 -66.847  -1.889  1.00  0.00     0.000 C 
BRANCH  10  11
ATOM     11  C   UNL     1      -4.704 -65.389  -1.964  1.00  0.00    -0.000 C 
BRANCH  11  12
ATOM     12  C   UNL     1      -5.415 -64.525  -0.910  1.00  0.00    -0.000 C 
BRANCH  12  13
ATOM     13  C   UNL     1      -6.636 -65.226  -0.293  1.00  0.00    -0.000 C 
BRANCH  13  14
ATOM     14  C   UNL     1      -7.966 -64.712  -0.869  1.00  0.00    -0.000 C 
BRANCH  14  15
ATOM     15  C   UNL     1      -9.174 -65.559  -0.433  1.00  0.00    -0.000 C 
BRANCH  15  16
ATOM     16  C   UNL     1      -8.834 -66.985   0.038  1.00  0.00    -0.003 C 
ATOM     17  C   UNL     1      -9.042 -68.039  -1.049  1.00  0.00     0.004 C 
ENDBRANCH  15  16
ENDBRANCH  14  15
ENDBRANCH  13  14
ENDBRANCH  12  13
ENDBRANCH  11  12
ENDBRANCH  10  11
ENDBRANCH   1  10
TORSDOF 13
ENDMDL
MODEL 9
REMARK VINA RESULT:    -3.358      1.926      4.102
REMARK INTER + INTRA:          -7.602
REMARK INTER:                  -5.472
REMARK INTRA:                  -2.130
REMARK UNBOUND:                -1.692
REMARK SMILES CCCCCCCCCCCCCCC(=O)[O-]
REMARK SMILES IDX 9 1 10 2 11 3 12 4 13 5 14 6 15 7 16 8 17 9 8 10 7 11 6 12
REMARK SMILES IDX 5 13 4 14 3 15 2 16 1 17
REMARK H PARENT
REMARK Flexibility Score: inf
ROOT
ATOM      1  C   UNL     1      -9.263 -65.879   0.978  1.00  0.00     0.000 C 
ENDROOT
BRANCH   1   2
ATOM      2  C   UNL     1      -8.884 -65.983  -0.510  1.00  0.00     0.000 C 
BRANCH   2   3
ATOM      3  C   UNL     1      -8.486 -64.630  -1.124  1.00  0.00     0.000 C 
BRANCH   3   4
ATOM      4  C   UNL     1      -6.985 -64.571  -1.481  1.00  0.00     0.000 C 
BRANCH   4   5
ATOM      5  C   UNL     1      -6.160 -65.712  -0.865  1.00  0.00     0.006 C 
BRANCH   5   6
ATOM      6  C   UNL     1      -4.654 -65.427  -0.863  1.00  0.00     0.053 C 
BRANCH   6   7
ATOM      7  C   UNL     1      -4.117 -65.446  -2.259  1.00  0.00     0.041 C 
ATOM      8  O   UNL     1      -4.385 -66.406  -3.029  1.00  0.00    -0.550 OA
ATOM      9  O   UNL     1      -3.279 -64.428  -2.695  1.00  0.00    -0.550 OA
ENDBRANCH   6   7
ENDBRANCH   5   6
ENDBRANCH   4   5
ENDBRANCH   3   4
ENDBRANCH   2   3
ENDBRANCH   1   2
BRANCH   1  10
ATOM     10  C   UNL     1      -8.492 -66.831   1.911  1.00  0.00     0.000 C 
BRANCH  10  11
ATOM     11  C   UNL     1      -7.641 -66.089   2.953  1.00  0.00    -0.000 C 
BRANCH  11  12
ATOM     12  C   UNL     1      -7.690 -64.571   2.720  1.00  0.00    -0.000 C 
BRANCH  12  13
ATOM     13  C   UNL     1      -6.309 -63.971   2.413  1.00  0.00    -0.000 C 
BRANCH  13  14
ATOM     14  C   UNL     1      -6.399 -62.632   1.664  1.00  0.00    -0.000 C 
BRANCH  14  15
ATOM     15  C   UNL     1      -7.849 -62.160   1.454  1.00  0.00    -0.000 C 
BRANCH  15  16
ATOM     16  C   UNL     1      -8.227 -60.866   2.197  1.00  0.00    -0.003 C 
ATOM     17  C   UNL     1      -7.010 -60.076   2.678  1.00  0.00     0.004 C 
ENDBRANCH  15  16
ENDBRANCH  14  15
ENDBRANCH  13  14
ENDBRANCH  12  13
ENDBRANCH  11  12
ENDBRANCH  10  11
ENDBRANCH   1  10
TORSDOF 13
ENDMDL
