MODEL 1
REMARK VINA RESULT:     7.043      0.000      0.000
REMARK INTER + INTRA:           9.412
REMARK INTER:                   9.308
REMARK INTRA:                   0.104
REMARK UNBOUND:                 0.104
REMARK SMILES CC[C@H](C=C[C@@H](C)[C@@H]1CC[C@@H]2[C@@H]3CC=C4C[C@@H](O)CC[C@]4(C)[C@H]3CC[C@@]21C)C(C)C
REMARK SMILES IDX 6 1 7 2 5 3 4 4 3 5 2 6 1 7 28 8 29 9 30 10 8 11 9 12 26 13
REMARK SMILES IDX 10 14 11 15 25 16 27 17 12 18 24 19 23 20 13 21 21 22 14 23
REMARK SMILES IDX 15 24 20 25 22 26 16 27 19 28 17 29 18 30
REMARK H PARENT 18 31
REMARK Flexibility Score: inf
ROOT
ATOM      1  C   UNL     1     130.623 129.020 137.682  1.00  0.00     0.012 C 
ATOM      2  C   UNL     1     131.455 128.641 136.443  1.00  0.00     0.012 C 
ENDROOT
BRANCH   1   3
ATOM      3  C   UNL     1     130.984 130.421 138.137  1.00  0.00    -0.028 C 
ATOM      4  C   UNL     1     131.868 131.193 137.485  1.00  0.00    -0.027 C 
BRANCH   4   5
ATOM      5  C   UNL     1     132.303 132.541 138.023  1.00  0.00     0.014 C 
BRANCH   5   6
ATOM      6  C   UNL     1     133.796 132.499 138.451  1.00  0.00     0.004 C 
ATOM      7  C   UNL     1     134.193 133.470 139.564  1.00  0.00     0.004 C 
ENDBRANCH   5   6
BRANCH   5   8
ATOM      8  C   UNL     1     131.865 133.725 137.099  1.00  0.00    -0.011 C 
ATOM      9  C   UNL     1     132.738 133.952 135.850  1.00  0.00     0.008 C 
ATOM     10  C   UNL     1     131.682 135.038 137.876  1.00  0.00     0.008 C 
ENDBRANCH   5   8
ENDBRANCH   4   5
ENDBRANCH   1   3
BRANCH   1  11
ATOM     11  C   UNL     1     130.676 128.000 138.877  1.00  0.00     0.002 C 
ATOM     12  C   UNL     1     131.379 128.467 140.151  1.00  0.00     0.005 C 
ATOM     13  C   UNL     1     131.226 126.570 138.580  1.00  0.00    -0.026 C 
ATOM     14  C   UNL     1     131.634 127.204 140.965  1.00  0.00     0.005 C 
ATOM     15  C   UNL     1     131.510 125.997 140.005  1.00  0.00    -0.001 C 
ATOM     16  C   UNL     1     132.510 126.522 137.675  1.00  0.00     0.007 C 
ATOM     17  C   UNL     1     130.126 125.729 137.881  1.00  0.00     0.012 C 
ATOM     18  C   UNL     1     132.724 125.032 140.018  1.00  0.00     0.000 C 
ATOM     19  C   UNL     1     133.831 126.734 138.429  1.00  0.00     0.005 C 
ATOM     20  C   UNL     1     134.045 125.720 139.592  1.00  0.00     0.003 C 
ATOM     21  C   UNL     1     132.920 124.334 141.370  1.00  0.00     0.031 C 
ATOM     22  C   UNL     1     135.185 124.654 139.372  1.00  0.00    -0.008 C 
ATOM     23  C   UNL     1     134.146 123.460 141.367  1.00  0.00    -0.027 C 
ATOM     24  C   UNL     1     135.206 123.648 140.542  1.00  0.00    -0.065 C 
ATOM     25  C   UNL     1     136.566 125.388 139.327  1.00  0.00     0.014 C 
ATOM     26  C   UNL     1     134.969 123.863 138.051  1.00  0.00     0.016 C 
ATOM     27  C   UNL     1     136.411 122.741 140.691  1.00  0.00     0.063 C 
ATOM     28  C   UNL     1     137.780 124.448 139.415  1.00  0.00     0.033 C 
ATOM     29  C   UNL     1     137.705 123.565 140.670  1.00  0.00     0.118 C 
BRANCH  29  30
ATOM     30  O   UNL     1     138.830 122.725 140.751  1.00  0.00    -0.393 OA
ATOM     31  H   UNL     1     138.732 122.018 140.060  1.00  0.00     0.210 HD
ENDBRANCH  29  30
ENDBRANCH   1  11
TORSDOF 6
ENDMDL
MODEL 2
REMARK VINA RESULT:     7.058      4.018      9.182
REMARK INTER + INTRA:           9.432
REMARK INTER:                   9.347
REMARK INTRA:                   0.084
REMARK UNBOUND:                 0.104
REMARK SMILES CC[C@H](C=C[C@@H](C)[C@@H]1CC[C@@H]2[C@@H]3CC=C4C[C@@H](O)CC[C@]4(C)[C@H]3CC[C@@]21C)C(C)C
REMARK SMILES IDX 6 1 7 2 5 3 4 4 3 5 2 6 1 7 28 8 29 9 30 10 8 11 9 12 26 13
REMARK SMILES IDX 10 14 11 15 25 16 27 17 12 18 24 19 23 20 13 21 21 22 14 23
REMARK SMILES IDX 15 24 20 25 22 26 16 27 19 28 17 29 18 30
REMARK H PARENT 18 31
REMARK Flexibility Score: inf
ROOT
ATOM      1  C   UNL     1     139.259 123.482 141.647  1.00  0.00     0.012 C 
ATOM      2  C   UNL     1     138.486 123.803 142.940  1.00  0.00     0.012 C 
ENDROOT
BRANCH   1   3
ATOM      3  C   UNL     1     140.640 124.108 141.702  1.00  0.00    -0.028 C 
ATOM      4  C   UNL     1     140.998 124.999 142.641  1.00  0.00    -0.027 C 
BRANCH   4   5
ATOM      5  C   UNL     1     142.340 125.701 142.606  1.00  0.00     0.014 C 
BRANCH   5   6
ATOM      6  C   UNL     1     142.348 126.907 143.585  1.00  0.00     0.004 C 
ATOM      7  C   UNL     1     141.936 126.594 145.024  1.00  0.00     0.004 C 
ENDBRANCH   5   6
BRANCH   5   8
ATOM      8  C   UNL     1     143.542 124.702 142.703  1.00  0.00    -0.011 C 
ATOM      9  C   UNL     1     144.538 124.971 143.847  1.00  0.00     0.008 C 
ATOM     10  C   UNL     1     144.283 124.546 141.366  1.00  0.00     0.008 C 
ENDBRANCH   5   8
ENDBRANCH   4   5
ENDBRANCH   1   3
BRANCH   1  11
ATOM     11  C   UNL     1     138.522 123.841 140.306  1.00  0.00     0.002 C 
ATOM     12  C   UNL     1     138.563 125.304 139.868  1.00  0.00     0.005 C 
ATOM     13  C   UNL     1     137.036 123.387 140.155  1.00  0.00    -0.026 C 
ATOM     14  C   UNL     1     137.480 125.444 138.804  1.00  0.00     0.005 C 
ATOM     15  C   UNL     1     136.529 124.232 138.945  1.00  0.00    -0.001 C 
ATOM     16  C   UNL     1     136.138 123.605 141.427  1.00  0.00     0.007 C 
ATOM     17  C   UNL     1     136.992 121.877 139.802  1.00  0.00     0.012 C 
ATOM     18  C   UNL     1     135.027 124.599 139.074  1.00  0.00     0.000 C 
ATOM     19  C   UNL     1     135.557 125.021 141.562  1.00  0.00     0.005 C 
ATOM     20  C   UNL     1     134.724 125.465 140.323  1.00  0.00     0.003 C 
ATOM     21  C   UNL     1     134.469 125.288 137.823  1.00  0.00     0.031 C 
ATOM     22  C   UNL     1     133.170 125.593 140.551  1.00  0.00    -0.008 C 
ATOM     23  C   UNL     1     133.030 125.691 138.010  1.00  0.00    -0.027 C 
ATOM     24  C   UNL     1     132.461 125.920 139.220  1.00  0.00    -0.065 C 
ATOM     25  C   UNL     1     132.897 126.759 141.557  1.00  0.00     0.014 C 
ATOM     26  C   UNL     1     132.572 124.270 141.109  1.00  0.00     0.016 C 
ATOM     27  C   UNL     1     131.022 126.393 139.267  1.00  0.00     0.063 C 
ATOM     28  C   UNL     1     131.422 127.184 141.640  1.00  0.00     0.033 C 
ATOM     29  C   UNL     1     130.875 127.559 140.254  1.00  0.00     0.118 C 
BRANCH  29  30
ATOM     30  O   UNL     1     129.533 127.967 140.345  1.00  0.00    -0.393 OA
ATOM     31  H   UNL     1     129.176 128.044 139.422  1.00  0.00     0.210 HD
ENDBRANCH  29  30
ENDBRANCH   1  11
TORSDOF 6
ENDMDL
MODEL 3
REMARK VINA RESULT:     7.362      3.170      6.171
REMARK INTER + INTRA:           9.833
REMARK INTER:                  10.099
REMARK INTRA:                  -0.266
REMARK UNBOUND:                 0.104
REMARK SMILES CC[C@H](C=C[C@@H](C)[C@@H]1CC[C@@H]2[C@@H]3CC=C4C[C@@H](O)CC[C@]4(C)[C@H]3CC[C@@]21C)C(C)C
REMARK SMILES IDX 6 1 7 2 5 3 4 4 3 5 2 6 1 7 28 8 29 9 30 10 8 11 9 12 26 13
REMARK SMILES IDX 10 14 11 15 25 16 27 17 12 18 24 19 23 20 13 21 21 22 14 23
REMARK SMILES IDX 15 24 20 25 22 26 16 27 19 28 17 29 18 30
REMARK H PARENT 18 31
REMARK Flexibility Score: inf
ROOT
ATOM      1  C   UNL     1     133.897 123.681 138.279  1.00  0.00     0.012 C 
ATOM      2  C   UNL     1     133.428 122.646 137.240  1.00  0.00     0.012 C 
ENDROOT
BRANCH   1   3
ATOM      3  C   UNL     1     133.769 125.080 137.709  1.00  0.00    -0.028 C 
ATOM      4  C   UNL     1     132.772 125.915 138.045  1.00  0.00    -0.027 C 
BRANCH   4   5
ATOM      5  C   UNL     1     132.596 127.262 137.374  1.00  0.00     0.014 C 
BRANCH   5   6
ATOM      6  C   UNL     1     132.072 127.081 135.924  1.00  0.00     0.004 C 
ATOM      7  C   UNL     1     130.616 126.632 135.797  1.00  0.00     0.004 C 
ENDBRANCH   5   6
BRANCH   5   8
ATOM      8  C   UNL     1     131.836 128.288 138.279  1.00  0.00    -0.011 C 
ATOM      9  C   UNL     1     130.446 127.840 138.769  1.00  0.00     0.008 C 
ATOM     10  C   UNL     1     131.762 129.686 137.646  1.00  0.00     0.008 C 
ENDBRANCH   5   8
ENDBRANCH   4   5
ENDBRANCH   1   3
BRANCH   1  11
ATOM     11  C   UNL     1     135.328 123.439 138.884  1.00  0.00     0.002 C 
ATOM     12  C   UNL     1     135.563 122.099 139.581  1.00  0.00     0.005 C 
ATOM     13  C   UNL     1     135.900 124.530 139.842  1.00  0.00    -0.026 C 
ATOM     14  C   UNL     1     136.840 122.279 140.393  1.00  0.00     0.005 C 
ATOM     15  C   UNL     1     137.089 123.798 140.541  1.00  0.00    -0.001 C 
ATOM     16  C   UNL     1     134.878 125.100 140.892  1.00  0.00     0.007 C 
ATOM     17  C   UNL     1     136.431 125.724 139.006  1.00  0.00     0.012 C 
ATOM     18  C   UNL     1     137.299 124.282 142.000  1.00  0.00     0.000 C 
ATOM     19  C   UNL     1     134.726 124.249 142.162  1.00  0.00     0.005 C 
ATOM     20  C   UNL     1     136.072 124.009 142.907  1.00  0.00     0.003 C 
ATOM     21  C   UNL     1     138.558 123.696 142.650  1.00  0.00     0.031 C 
ATOM     22  C   UNL     1     136.229 124.741 144.294  1.00  0.00    -0.008 C 
ATOM     23  C   UNL     1     138.692 124.131 144.086  1.00  0.00    -0.027 C 
ATOM     24  C   UNL     1     137.646 124.512 144.859  1.00  0.00    -0.065 C 
ATOM     25  C   UNL     1     135.192 124.146 145.303  1.00  0.00     0.014 C 
ATOM     26  C   UNL     1     136.001 126.272 144.151  1.00  0.00     0.016 C 
ATOM     27  C   UNL     1     137.906 124.856 146.312  1.00  0.00     0.063 C 
ATOM     28  C   UNL     1     135.432 124.556 146.765  1.00  0.00     0.033 C 
ATOM     29  C   UNL     1     136.856 124.194 147.214  1.00  0.00     0.118 C 
BRANCH  29  30
ATOM     30  O   UNL     1     137.057 124.553 148.558  1.00  0.00    -0.393 OA
ATOM     31  H   UNL     1     138.002 124.844 148.656  1.00  0.00     0.210 HD
ENDBRANCH  29  30
ENDBRANCH   1  11
TORSDOF 6
ENDMDL
MODEL 4
REMARK VINA RESULT:     7.987      3.696      8.279
REMARK INTER + INTRA:          10.659
REMARK INTER:                   9.774
REMARK INTRA:                   0.885
REMARK UNBOUND:                 0.104
REMARK SMILES CC[C@H](C=C[C@@H](C)[C@@H]1CC[C@@H]2[C@@H]3CC=C4C[C@@H](O)CC[C@]4(C)[C@H]3CC[C@@]21C)C(C)C
REMARK SMILES IDX 6 1 7 2 5 3 4 4 3 5 2 6 1 7 28 8 29 9 30 10 8 11 9 12 26 13
REMARK SMILES IDX 10 14 11 15 25 16 27 17 12 18 24 19 23 20 13 21 21 22 14 23
REMARK SMILES IDX 15 24 20 25 22 26 16 27 19 28 17 29 18 30
REMARK H PARENT 18 31
REMARK Flexibility Score: inf
ROOT
ATOM      1  C   UNL     1     137.859 123.376 141.343  1.00  0.00     0.012 C 
ATOM      2  C   UNL     1     138.534 122.000 141.500  1.00  0.00     0.012 C 
ENDROOT
BRANCH   1   3
ATOM      3  C   UNL     1     136.762 123.535 142.378  1.00  0.00    -0.028 C 
ATOM      4  C   UNL     1     136.560 124.677 143.055  1.00  0.00    -0.027 C 
BRANCH   4   5
ATOM      5  C   UNL     1     135.538 124.776 144.169  1.00  0.00     0.014 C 
BRANCH   5   6
ATOM      6  C   UNL     1     134.487 123.640 144.044  1.00  0.00     0.004 C 
ATOM      7  C   UNL     1     133.128 124.054 143.476  1.00  0.00     0.004 C 
ENDBRANCH   5   6
BRANCH   5   8
ATOM      8  C   UNL     1     136.199 124.979 145.573  1.00  0.00    -0.011 C 
ATOM      9  C   UNL     1     136.333 126.441 146.039  1.00  0.00     0.008 C 
ATOM     10  C   UNL     1     137.543 124.246 145.699  1.00  0.00     0.008 C 
ENDBRANCH   5   8
ENDBRANCH   4   5
ENDBRANCH   1   3
BRANCH   1  11
ATOM     11  C   UNL     1     137.336 123.717 139.900  1.00  0.00     0.002 C 
ATOM     12  C   UNL     1     137.609 125.129 139.385  1.00  0.00     0.005 C 
ATOM     13  C   UNL     1     135.834 123.427 139.589  1.00  0.00    -0.026 C 
ATOM     14  C   UNL     1     136.686 125.314 138.186  1.00  0.00     0.005 C 
ATOM     15  C   UNL     1     135.582 124.234 138.276  1.00  0.00    -0.001 C 
ATOM     16  C   UNL     1     134.826 123.841 140.722  1.00  0.00     0.007 C 
ATOM     17  C   UNL     1     135.646 121.910 139.323  1.00  0.00     0.012 C 
ATOM     18  C   UNL     1     134.133 124.779 138.192  1.00  0.00     0.000 C 
ATOM     19  C   UNL     1     134.412 125.320 140.698  1.00  0.00     0.005 C 
ATOM     20  C   UNL     1     133.793 125.764 139.339  1.00  0.00     0.003 C 
ATOM     21  C   UNL     1     133.816 125.434 136.842  1.00  0.00     0.031 C 
ATOM     22  C   UNL     1     132.250 126.086 139.361  1.00  0.00    -0.008 C 
ATOM     23  C   UNL     1     132.426 126.013 136.821  1.00  0.00    -0.027 C 
ATOM     24  C   UNL     1     131.751 126.394 137.933  1.00  0.00    -0.065 C 
ATOM     25  C   UNL     1     132.006 127.347 140.253  1.00  0.00     0.014 C 
ATOM     26  C   UNL     1     131.432 124.886 139.916  1.00  0.00     0.016 C 
ATOM     27  C   UNL     1     130.386 127.032 137.770  1.00  0.00     0.063 C 
ATOM     28  C   UNL     1     130.595 127.945 140.123  1.00  0.00     0.033 C 
ATOM     29  C   UNL     1     130.268 128.277 138.659  1.00  0.00     0.118 C 
BRANCH  29  30
ATOM     30  O   UNL     1     128.985 128.842 138.555  1.00  0.00    -0.393 OA
ATOM     31  H   UNL     1     128.756 128.901 137.590  1.00  0.00     0.210 HD
ENDBRANCH  29  30
ENDBRANCH   1  11
TORSDOF 6
ENDMDL
MODEL 5
REMARK VINA RESULT:     8.603      2.770      5.872
REMARK INTER + INTRA:          11.473
REMARK INTER:                  10.552
REMARK INTRA:                   0.921
REMARK UNBOUND:                 0.104
REMARK SMILES CC[C@H](C=C[C@@H](C)[C@@H]1CC[C@@H]2[C@@H]3CC=C4C[C@@H](O)CC[C@]4(C)[C@H]3CC[C@@]21C)C(C)C
REMARK SMILES IDX 6 1 7 2 5 3 4 4 3 5 2 6 1 7 28 8 29 9 30 10 8 11 9 12 26 13
REMARK SMILES IDX 10 14 11 15 25 16 27 17 12 18 24 19 23 20 13 21 21 22 14 23
REMARK SMILES IDX 15 24 20 25 22 26 16 27 19 28 17 29 18 30
REMARK H PARENT 18 31
REMARK Flexibility Score: inf
ROOT
ATOM      1  C   UNL     1     134.534 124.078 138.105  1.00  0.00     0.012 C 
ATOM      2  C   UNL     1     135.836 124.084 137.282  1.00  0.00     0.012 C 
ENDROOT
BRANCH   1   3
ATOM      3  C   UNL     1     133.652 125.238 137.685  1.00  0.00    -0.028 C 
ATOM      4  C   UNL     1     132.849 125.889 138.542  1.00  0.00    -0.027 C 
BRANCH   4   5
ATOM      5  C   UNL     1     131.888 126.964 138.078  1.00  0.00     0.014 C 
BRANCH   5   6
ATOM      6  C   UNL     1     132.654 128.091 137.333  1.00  0.00     0.004 C 
ATOM      7  C   UNL     1     131.975 129.462 137.328  1.00  0.00     0.004 C 
ENDBRANCH   5   6
BRANCH   5   8
ATOM      8  C   UNL     1     130.626 126.374 137.365  1.00  0.00    -0.011 C 
ATOM      9  C   UNL     1     130.613 126.498 135.829  1.00  0.00     0.008 C 
ATOM     10  C   UNL     1     129.314 126.903 137.962  1.00  0.00     0.008 C 
ENDBRANCH   5   8
ENDBRANCH   4   5
ENDBRANCH   1   3
BRANCH   1  11
ATOM     11  C   UNL     1     134.716 124.034 139.666  1.00  0.00     0.002 C 
ATOM     12  C   UNL     1     134.687 125.374 140.401  1.00  0.00     0.005 C 
ATOM     13  C   UNL     1     135.950 123.261 140.228  1.00  0.00    -0.026 C 
ATOM     14  C   UNL     1     135.266 125.096 141.783  1.00  0.00     0.005 C 
ATOM     15  C   UNL     1     136.035 123.756 141.706  1.00  0.00    -0.001 C 
ATOM     16  C   UNL     1     137.299 123.506 139.460  1.00  0.00     0.007 C 
ATOM     17  C   UNL     1     135.661 121.737 140.196  1.00  0.00     0.012 C 
ATOM     18  C   UNL     1     137.498 123.818 142.220  1.00  0.00     0.000 C 
ATOM     19  C   UNL     1     138.058 124.770 139.891  1.00  0.00     0.005 C 
ATOM     20  C   UNL     1     138.377 124.807 141.415  1.00  0.00     0.003 C 
ATOM     21  C   UNL     1     137.594 124.146 143.715  1.00  0.00     0.031 C 
ATOM     22  C   UNL     1     139.897 124.645 141.801  1.00  0.00    -0.008 C 
ATOM     23  C   UNL     1     139.026 124.266 144.163  1.00  0.00    -0.027 C 
ATOM     24  C   UNL     1     140.052 124.579 143.335  1.00  0.00    -0.065 C 
ATOM     25  C   UNL     1     140.691 125.886 141.276  1.00  0.00     0.014 C 
ATOM     26  C   UNL     1     140.497 123.346 141.193  1.00  0.00     0.016 C 
ATOM     27  C   UNL     1     141.438 124.742 143.926  1.00  0.00     0.063 C 
ATOM     28  C   UNL     1     142.118 126.002 141.837  1.00  0.00     0.033 C 
ATOM     29  C   UNL     1     142.110 126.006 143.372  1.00  0.00     0.118 C 
BRANCH  29  30
ATOM     30  O   UNL     1     143.417 126.134 143.873  1.00  0.00    -0.393 OA
ATOM     31  H   UNL     1     143.630 125.307 144.380  1.00  0.00     0.210 HD
ENDBRANCH  29  30
ENDBRANCH   1  11
TORSDOF 6
ENDMDL
MODEL 6
REMARK VINA RESULT:     8.639      3.786      7.887
REMARK INTER + INTRA:          11.520
REMARK INTER:                  11.510
REMARK INTRA:                   0.010
REMARK UNBOUND:                 0.104
REMARK SMILES CC[C@H](C=C[C@@H](C)[C@@H]1CC[C@@H]2[C@@H]3CC=C4C[C@@H](O)CC[C@]4(C)[C@H]3CC[C@@]21C)C(C)C
REMARK SMILES IDX 6 1 7 2 5 3 4 4 3 5 2 6 1 7 28 8 29 9 30 10 8 11 9 12 26 13
REMARK SMILES IDX 10 14 11 15 25 16 27 17 12 18 24 19 23 20 13 21 21 22 14 23
REMARK SMILES IDX 15 24 20 25 22 26 16 27 19 28 17 29 18 30
REMARK H PARENT 18 31
REMARK Flexibility Score: inf
ROOT
ATOM      1  C   UNL     1     136.438 123.172 142.935  1.00  0.00     0.012 C 
ATOM      2  C   UNL     1     137.713 123.959 143.289  1.00  0.00     0.012 C 
ENDROOT
BRANCH   1   3
ATOM      3  C   UNL     1     136.524 122.661 141.509  1.00  0.00    -0.028 C 
ATOM      4  C   UNL     1     137.353 123.192 140.596  1.00  0.00    -0.027 C 
BRANCH   4   5
ATOM      5  C   UNL     1     137.337 122.747 139.147  1.00  0.00     0.014 C 
BRANCH   5   6
ATOM      6  C   UNL     1     136.118 121.824 138.876  1.00  0.00     0.004 C 
ATOM      7  C   UNL     1     134.953 122.470 138.125  1.00  0.00     0.004 C 
ENDBRANCH   5   6
BRANCH   5   8
ATOM      8  C   UNL     1     137.561 123.935 138.153  1.00  0.00    -0.011 C 
ATOM      9  C   UNL     1     138.652 123.712 137.087  1.00  0.00     0.008 C 
ATOM     10  C   UNL     1     137.779 125.273 138.876  1.00  0.00     0.008 C 
ENDBRANCH   5   8
ENDBRANCH   4   5
ENDBRANCH   1   3
BRANCH   1  11
ATOM     11  C   UNL     1     135.080 123.922 143.192  1.00  0.00     0.002 C 
ATOM     12  C   UNL     1     133.800 123.105 143.027  1.00  0.00     0.005 C 
ATOM     13  C   UNL     1     134.839 125.260 142.425  1.00  0.00    -0.026 C 
ATOM     14  C   UNL     1     132.671 124.125 142.939  1.00  0.00     0.005 C 
ATOM     15  C   UNL     1     133.305 125.493 142.594  1.00  0.00    -0.001 C 
ATOM     16  C   UNL     1     135.256 125.247 140.910  1.00  0.00     0.007 C 
ATOM     17  C   UNL     1     135.628 126.401 143.120  1.00  0.00     0.012 C 
ATOM     18  C   UNL     1     132.681 126.205 141.365  1.00  0.00     0.000 C 
ATOM     19  C   UNL     1     134.197 124.663 139.962  1.00  0.00     0.005 C 
ATOM     20  C   UNL     1     132.820 125.384 140.059  1.00  0.00     0.003 C 
ATOM     21  C   UNL     1     131.211 126.589 141.577  1.00  0.00     0.031 C 
ATOM     22  C   UNL     1     132.410 126.250 138.807  1.00  0.00    -0.008 C 
ATOM     23  C   UNL     1     130.620 127.214 140.341  1.00  0.00    -0.027 C 
ATOM     24  C   UNL     1     131.089 126.998 139.088  1.00  0.00    -0.065 C 
ATOM     25  C   UNL     1     132.192 125.303 137.582  1.00  0.00     0.014 C 
ATOM     26  C   UNL     1     133.504 127.301 138.467  1.00  0.00     0.016 C 
ATOM     27  C   UNL     1     130.358 127.629 137.920  1.00  0.00     0.063 C 
ATOM     28  C   UNL     1     131.505 125.976 136.382  1.00  0.00     0.033 C 
ATOM     29  C   UNL     1     130.166 126.605 136.793  1.00  0.00     0.118 C 
BRANCH  29  30
ATOM     30  O   UNL     1     129.537 127.199 135.685  1.00  0.00    -0.393 OA
ATOM     31  H   UNL     1     129.871 126.745 134.867  1.00  0.00     0.210 HD
ENDBRANCH  29  30
ENDBRANCH   1  11
TORSDOF 6
ENDMDL
