MODEL 1
REMARK VINA RESULT:    -5.240      0.000      0.000
REMARK INTER + INTRA:          -7.020
REMARK INTER:                  -6.618
REMARK INTRA:                  -0.402
REMARK UNBOUND:                -0.402
REMARK SMILES Oc1cc(O)cc(CCc2ccccc2O)c1
REMARK SMILES IDX 9 1 10 2 12 3 13 4 11 5 14 6 15 7 16 8 8 10 7 11 6 12 17 13
REMARK SMILES IDX 4 14 2 15 3 16 5 17 1 19
REMARK H PARENT 16 9 5 18 1 20
REMARK Flexibility Score: inf
ROOT
ATOM      1  C   UNL     1     132.271 145.461 120.753  1.00  0.00     0.044 C 
ENDROOT
BRANCH   1   2
ATOM      2  C   UNL     1     133.677 145.962 120.528  1.00  0.00    -0.006 A 
ATOM      3  C   UNL     1     135.461 146.493 118.957  1.00  0.00     0.001 A 
ATOM      4  C   UNL     1     136.296 146.850 120.016  1.00  0.00     0.004 A 
ATOM      5  C   UNL     1     134.162 146.047 119.209  1.00  0.00     0.007 A 
ATOM      6  C   UNL     1     135.836 146.756 121.330  1.00  0.00     0.046 A 
ATOM      7  C   UNL     1     134.537 146.307 121.601  1.00  0.00     0.118 A 
BRANCH   7   8
ATOM      8  O   UNL     1     134.143 146.212 122.937  1.00  0.00    -0.508 OA
ATOM      9  H   UNL     1     133.182 146.293 123.244  1.00  0.00     0.293 HD
ENDBRANCH   7   8
ENDBRANCH   1   2
BRANCH   1  10
ATOM     10  C   UNL     1     131.283 146.632 120.833  1.00  0.00     0.040 C 
BRANCH  10  11
ATOM     11  C   UNL     1     129.867 146.136 120.727  1.00  0.00    -0.040 A 
ATOM     12  C   UNL     1     129.044 146.092 121.863  1.00  0.00     0.050 A 
ATOM     13  C   UNL     1     129.376 145.659 119.501  1.00  0.00     0.050 A 
ATOM     14  C   UNL     1     127.735 145.599 121.770  1.00  0.00     0.119 A 
ATOM     15  C   UNL     1     128.068 145.165 119.406  1.00  0.00     0.119 A 
ATOM     16  C   UNL     1     127.250 145.140 120.541  1.00  0.00     0.092 A 
BRANCH  14  17
ATOM     17  O   UNL     1     126.909 145.559 122.892  1.00  0.00    -0.508 OA
ATOM     18  H   UNL     1     126.282 146.323 123.116  1.00  0.00     0.293 HD
ENDBRANCH  14  17
BRANCH  15  19
ATOM     19  O   UNL     1     127.571 144.696 118.193  1.00  0.00    -0.508 OA
ATOM     20  H   UNL     1     127.745 145.188 117.323  1.00  0.00     0.293 HD
ENDBRANCH  15  19
ENDBRANCH  10  11
ENDBRANCH   1  10
TORSDOF 6
ENDMDL
MODEL 2
REMARK VINA RESULT:    -5.212      0.115      2.032
REMARK INTER + INTRA:          -6.985
REMARK INTER:                  -6.586
REMARK INTRA:                  -0.399
REMARK UNBOUND:                -0.402
REMARK SMILES Oc1cc(O)cc(CCc2ccccc2O)c1
REMARK SMILES IDX 9 1 10 2 12 3 13 4 11 5 14 6 15 7 16 8 8 10 7 11 6 12 17 13
REMARK SMILES IDX 4 14 2 15 3 16 5 17 1 19
REMARK H PARENT 16 9 5 18 1 20
REMARK Flexibility Score: inf
ROOT
ATOM      1  C   UNL     1     132.325 145.443 120.898  1.00  0.00     0.044 C 
ENDROOT
BRANCH   1   2
ATOM      2  C   UNL     1     133.719 145.948 120.610  1.00  0.00    -0.006 A 
ATOM      3  C   UNL     1     135.406 146.549 118.960  1.00  0.00     0.001 A 
ATOM      4  C   UNL     1     136.307 146.849 119.981  1.00  0.00     0.004 A 
ATOM      5  C   UNL     1     134.122 146.096 119.269  1.00  0.00     0.007 A 
ATOM      6  C   UNL     1     135.928 146.693 121.315  1.00  0.00     0.046 A 
ATOM      7  C   UNL     1     134.645 146.236 121.643  1.00  0.00     0.118 A 
BRANCH   7   8
ATOM      8  O   UNL     1     134.333 146.078 122.995  1.00  0.00    -0.508 OA
ATOM      9  H   UNL     1     134.247 145.178 123.448  1.00  0.00     0.293 HD
ENDBRANCH   7   8
ENDBRANCH   1   2
BRANCH   1  10
ATOM     10  C   UNL     1     131.319 146.599 120.908  1.00  0.00     0.040 C 
BRANCH  10  11
ATOM     11  C   UNL     1     129.912 146.076 120.803  1.00  0.00    -0.040 A 
ATOM     12  C   UNL     1     129.389 145.691 119.559  1.00  0.00     0.050 A 
ATOM     13  C   UNL     1     129.091 146.023 121.942  1.00  0.00     0.050 A 
ATOM     14  C   UNL     1     128.068 145.234 119.456  1.00  0.00     0.119 A 
ATOM     15  C   UNL     1     127.769 145.569 121.841  1.00  0.00     0.119 A 
ATOM     16  C   UNL     1     127.263 145.172 120.599  1.00  0.00     0.092 A 
BRANCH  14  17
ATOM     17  O   UNL     1     127.545 144.844 118.225  1.00  0.00    -0.508 OA
ATOM     18  H   UNL     1     127.053 143.964 118.114  1.00  0.00     0.293 HD
ENDBRANCH  14  17
BRANCH  15  19
ATOM     19  O   UNL     1     126.951 145.508 122.966  1.00  0.00    -0.508 OA
ATOM     20  H   UNL     1     126.580 144.626 123.304  1.00  0.00     0.293 HD
ENDBRANCH  15  19
ENDBRANCH  10  11
ENDBRANCH   1  10
TORSDOF 6
ENDMDL
MODEL 3
REMARK VINA RESULT:    -5.164      1.604      6.498
REMARK INTER + INTRA:          -6.924
REMARK INTER:                  -6.398
REMARK INTRA:                  -0.527
REMARK UNBOUND:                -0.402
REMARK SMILES Oc1cc(O)cc(CCc2ccccc2O)c1
REMARK SMILES IDX 9 1 10 2 12 3 13 4 11 5 14 6 15 7 16 8 8 10 7 11 6 12 17 13
REMARK SMILES IDX 4 14 2 15 3 16 5 17 1 19
REMARK H PARENT 16 9 5 18 1 20
REMARK Flexibility Score: inf
ROOT
ATOM      1  C   UNL     1     130.978 146.440 121.656  1.00  0.00     0.044 C 
ENDROOT
BRANCH   1   2
ATOM      2  C   UNL     1     129.670 146.057 121.006  1.00  0.00    -0.006 A 
ATOM      3  C   UNL     1     128.492 145.273 119.024  1.00  0.00     0.001 A 
ATOM      4  C   UNL     1     127.278 145.356 119.705  1.00  0.00     0.004 A 
ATOM      5  C   UNL     1     129.681 145.625 119.666  1.00  0.00     0.007 A 
ATOM      6  C   UNL     1     127.248 145.796 121.029  1.00  0.00     0.046 A 
ATOM      7  C   UNL     1     128.431 146.157 121.687  1.00  0.00     0.118 A 
BRANCH   7   8
ATOM      8  O   UNL     1     128.334 146.612 123.004  1.00  0.00    -0.508 OA
ATOM      9  H   UNL     1     127.923 147.501 123.260  1.00  0.00     0.293 HD
ENDBRANCH   7   8
ENDBRANCH   1   2
BRANCH   1  10
ATOM     10  C   UNL     1     131.971 145.273 121.611  1.00  0.00     0.040 C 
BRANCH  10  11
ATOM     11  C   UNL     1     133.307 145.736 121.098  1.00  0.00    -0.040 A 
ATOM     12  C   UNL     1     134.342 146.047 121.993  1.00  0.00     0.050 A 
ATOM     13  C   UNL     1     133.510 145.916 119.719  1.00  0.00     0.050 A 
ATOM     14  C   UNL     1     135.576 146.510 121.515  1.00  0.00     0.119 A 
ATOM     15  C   UNL     1     134.743 146.379 119.241  1.00  0.00     0.119 A 
ATOM     16  C   UNL     1     135.773 146.671 120.140  1.00  0.00     0.092 A 
BRANCH  14  17
ATOM     17  O   UNL     1     136.611 146.814 122.398  1.00  0.00    -0.508 OA
ATOM     18  H   UNL     1     137.580 146.645 122.155  1.00  0.00     0.293 HD
ENDBRANCH  14  17
BRANCH  15  19
ATOM     19  O   UNL     1     134.955 146.554 117.875  1.00  0.00    -0.508 OA
ATOM     20  H   UNL     1     135.885 146.508 117.473  1.00  0.00     0.293 HD
ENDBRANCH  15  19
ENDBRANCH  10  11
ENDBRANCH   1  10
TORSDOF 6
ENDMDL
MODEL 4
REMARK VINA RESULT:    -5.099      5.420      7.178
REMARK INTER + INTRA:          -6.843
REMARK INTER:                  -6.305
REMARK INTRA:                  -0.538
REMARK UNBOUND:                -0.402
REMARK SMILES Oc1cc(O)cc(CCc2ccccc2O)c1
REMARK SMILES IDX 9 1 10 2 12 3 13 4 11 5 14 6 15 7 16 8 8 10 7 11 6 12 17 13
REMARK SMILES IDX 4 14 2 15 3 16 5 17 1 19
REMARK H PARENT 16 9 5 18 1 20
REMARK Flexibility Score: inf
ROOT
ATOM      1  C   UNL     1     128.038 142.728 121.551  1.00  0.00     0.044 C 
ENDROOT
BRANCH   1   2
ATOM      2  C   UNL     1     127.632 144.050 120.944  1.00  0.00    -0.006 A 
ATOM      3  C   UNL     1     127.269 145.387 118.941  1.00  0.00     0.001 A 
ATOM      4  C   UNL     1     126.924 146.484 119.729  1.00  0.00     0.004 A 
ATOM      5  C   UNL     1     127.626 144.178 119.542  1.00  0.00     0.007 A 
ATOM      6  C   UNL     1     126.939 146.378 121.120  1.00  0.00     0.046 A 
ATOM      7  C   UNL     1     127.299 145.174 121.740  1.00  0.00     0.118 A 
BRANCH   7   8
ATOM      8  O   UNL     1     127.318 145.138 123.136  1.00  0.00    -0.508 OA
ATOM      9  H   UNL     1     127.433 144.287 123.671  1.00  0.00     0.293 HD
ENDBRANCH   7   8
ENDBRANCH   1   2
BRANCH   1  10
ATOM     10  C   UNL     1     127.093 141.609 121.099  1.00  0.00     0.040 C 
BRANCH  10  11
ATOM     11  C   UNL     1     127.874 140.458 120.525  1.00  0.00    -0.040 A 
ATOM     12  C   UNL     1     129.275 140.513 120.461  1.00  0.00     0.050 A 
ATOM     13  C   UNL     1     127.203 139.343 119.994  1.00  0.00     0.050 A 
ATOM     14  C   UNL     1     130.001 139.454 119.897  1.00  0.00     0.119 A 
ATOM     15  C   UNL     1     127.927 138.285 119.428  1.00  0.00     0.119 A 
ATOM     16  C   UNL     1     129.324 138.343 119.385  1.00  0.00     0.092 A 
BRANCH  14  17
ATOM     17  O   UNL     1     131.392 139.499 119.837  1.00  0.00    -0.508 OA
ATOM     18  H   UNL     1     131.959 138.701 120.102  1.00  0.00     0.293 HD
ENDBRANCH  14  17
BRANCH  15  19
ATOM     19  O   UNL     1     127.270 137.174 118.907  1.00  0.00    -0.508 OA
ATOM     20  H   UNL     1     126.338 137.246 118.512  1.00  0.00     0.293 HD
ENDBRANCH  15  19
ENDBRANCH  10  11
ENDBRANCH   1  10
TORSDOF 6
ENDMDL
MODEL 5
REMARK VINA RESULT:    -5.092      1.975      6.488
REMARK INTER + INTRA:          -6.833
REMARK INTER:                  -6.307
REMARK INTRA:                  -0.526
REMARK UNBOUND:                -0.402
REMARK SMILES Oc1cc(O)cc(CCc2ccccc2O)c1
REMARK SMILES IDX 9 1 10 2 12 3 13 4 11 5 14 6 15 7 16 8 8 10 7 11 6 12 17 13
REMARK SMILES IDX 4 14 2 15 3 16 5 17 1 19
REMARK H PARENT 16 9 5 18 1 20
REMARK Flexibility Score: inf
ROOT
ATOM      1  C   UNL     1     130.547 146.380 119.796  1.00  0.00     0.044 C 
ENDROOT
BRANCH   1   2
ATOM      2  C   UNL     1     129.494 145.309 119.949  1.00  0.00    -0.006 A 
ATOM      3  C   UNL     1     127.205 144.720 120.538  1.00  0.00     0.001 A 
ATOM      4  C   UNL     1     127.482 143.375 120.293  1.00  0.00     0.004 A 
ATOM      5  C   UNL     1     128.204 145.681 120.373  1.00  0.00     0.007 A 
ATOM      6  C   UNL     1     128.759 142.987 119.887  1.00  0.00     0.046 A 
ATOM      7  C   UNL     1     129.774 143.938 119.720  1.00  0.00     0.118 A 
BRANCH   7   8
ATOM      8  O   UNL     1     131.038 143.485 119.335  1.00  0.00    -0.508 OA
ATOM      9  H   UNL     1     131.617 142.886 119.910  1.00  0.00     0.293 HD
ENDBRANCH   7   8
ENDBRANCH   1   2
BRANCH   1  10
ATOM     10  C   UNL     1     131.362 146.530 121.086  1.00  0.00     0.040 C 
BRANCH  10  11
ATOM     11  C   UNL     1     132.835 146.447 120.793  1.00  0.00    -0.040 A 
ATOM     12  C   UNL     1     133.767 146.434 121.843  1.00  0.00     0.050 A 
ATOM     13  C   UNL     1     133.292 146.442 119.465  1.00  0.00     0.050 A 
ATOM     14  C   UNL     1     135.141 146.390 121.568  1.00  0.00     0.119 A 
ATOM     15  C   UNL     1     134.665 146.399 119.189  1.00  0.00     0.119 A 
ATOM     16  C   UNL     1     135.585 146.370 120.242  1.00  0.00     0.092 A 
BRANCH  14  17
ATOM     17  O   UNL     1     136.072 146.370 122.605  1.00  0.00    -0.508 OA
ATOM     18  H   UNL     1     136.938 146.894 122.549  1.00  0.00     0.293 HD
ENDBRANCH  14  17
BRANCH  15  19
ATOM     19  O   UNL     1     135.126 146.387 117.875  1.00  0.00    -0.508 OA
ATOM     20  H   UNL     1     136.072 146.098 117.648  1.00  0.00     0.293 HD
ENDBRANCH  15  19
ENDBRANCH  10  11
ENDBRANCH   1  10
TORSDOF 6
ENDMDL
MODEL 6
REMARK VINA RESULT:    -5.078      1.962      6.806
REMARK INTER + INTRA:          -6.815
REMARK INTER:                  -6.301
REMARK INTRA:                  -0.514
REMARK UNBOUND:                -0.402
REMARK SMILES Oc1cc(O)cc(CCc2ccccc2O)c1
REMARK SMILES IDX 9 1 10 2 12 3 13 4 11 5 14 6 15 7 16 8 8 10 7 11 6 12 17 13
REMARK SMILES IDX 4 14 2 15 3 16 5 17 1 19
REMARK H PARENT 16 9 5 18 1 20
REMARK Flexibility Score: inf
ROOT
ATOM      1  C   UNL     1     130.583 146.387 120.002  1.00  0.00     0.044 C 
ENDROOT
BRANCH   1   2
ATOM      2  C   UNL     1     129.511 145.329 120.106  1.00  0.00    -0.006 A 
ATOM      3  C   UNL     1     127.233 144.741 120.736  1.00  0.00     0.001 A 
ATOM      4  C   UNL     1     127.467 143.416 120.368  1.00  0.00     0.004 A 
ATOM      5  C   UNL     1     128.249 145.692 120.612  1.00  0.00     0.007 A 
ATOM      6  C   UNL     1     128.718 143.037 119.880  1.00  0.00     0.046 A 
ATOM      7  C   UNL     1     129.749 143.977 119.753  1.00  0.00     0.118 A 
BRANCH   7   8
ATOM      8  O   UNL     1     130.985 143.532 119.280  1.00  0.00    -0.508 OA
ATOM      9  H   UNL     1     131.108 143.060 118.393  1.00  0.00     0.293 HD
ENDBRANCH   7   8
ENDBRANCH   1   2
BRANCH   1  10
ATOM     10  C   UNL     1     131.455 146.405 121.263  1.00  0.00     0.040 C 
BRANCH  10  11
ATOM     11  C   UNL     1     132.913 146.454 120.897  1.00  0.00    -0.040 A 
ATOM     12  C   UNL     1     133.308 146.429 119.550  1.00  0.00     0.050 A 
ATOM     13  C   UNL     1     133.894 146.465 121.902  1.00  0.00     0.050 A 
ATOM     14  C   UNL     1     134.668 146.442 119.210  1.00  0.00     0.119 A 
ATOM     15  C   UNL     1     135.254 146.475 121.564  1.00  0.00     0.119 A 
ATOM     16  C   UNL     1     135.636 146.467 120.219  1.00  0.00     0.092 A 
BRANCH  14  17
ATOM     17  O   UNL     1     135.066 146.425 117.875  1.00  0.00    -0.508 OA
ATOM     18  H   UNL     1     134.391 146.463 117.121  1.00  0.00     0.293 HD
ENDBRANCH  14  17
BRANCH  15  19
ATOM     19  O   UNL     1     136.232 146.493 122.555  1.00  0.00    -0.508 OA
ATOM     20  H   UNL     1     136.141 147.076 123.380  1.00  0.00     0.293 HD
ENDBRANCH  15  19
ENDBRANCH  10  11
ENDBRANCH   1  10
TORSDOF 6
ENDMDL
MODEL 7
REMARK VINA RESULT:    -5.073      4.096      5.618
REMARK INTER + INTRA:          -6.810
REMARK INTER:                  -6.099
REMARK INTRA:                  -0.710
REMARK UNBOUND:                -0.402
REMARK SMILES Oc1cc(O)cc(CCc2ccccc2O)c1
REMARK SMILES IDX 9 1 10 2 12 3 13 4 11 5 14 6 15 7 16 8 8 10 7 11 6 12 17 13
REMARK SMILES IDX 4 14 2 15 3 16 5 17 1 19
REMARK H PARENT 16 9 5 18 1 20
REMARK Flexibility Score: inf
ROOT
ATOM      1  C   UNL     1     128.419 145.663 119.489  1.00  0.00     0.044 C 
ENDROOT
BRANCH   1   2
ATOM      2  C   UNL     1     128.302 146.007 120.954  1.00  0.00    -0.006 A 
ATOM      3  C   UNL     1     126.886 146.671 122.821  1.00  0.00     0.001 A 
ATOM      4  C   UNL     1     127.997 146.693 123.664  1.00  0.00     0.004 A 
ATOM      5  C   UNL     1     127.035 146.335 121.474  1.00  0.00     0.007 A 
ATOM      6  C   UNL     1     129.261 146.385 123.161  1.00  0.00     0.046 A 
ATOM      7  C   UNL     1     129.430 146.050 121.811  1.00  0.00     0.118 A 
BRANCH   7   8
ATOM      8  O   UNL     1     130.724 145.775 121.363  1.00  0.00    -0.508 OA
ATOM      9  H   UNL     1     131.496 145.559 121.980  1.00  0.00     0.293 HD
ENDBRANCH   7   8
ENDBRANCH   1   2
BRANCH   1  10
ATOM     10  C   UNL     1     127.531 144.463 119.139  1.00  0.00     0.040 C 
BRANCH  10  11
ATOM     11  C   UNL     1     128.072 143.206 119.763  1.00  0.00    -0.040 A 
ATOM     12  C   UNL     1     127.214 142.322 120.437  1.00  0.00     0.050 A 
ATOM     13  C   UNL     1     129.450 142.936 119.728  1.00  0.00     0.050 A 
ATOM     14  C   UNL     1     127.724 141.167 121.047  1.00  0.00     0.119 A 
ATOM     15  C   UNL     1     129.961 141.782 120.338  1.00  0.00     0.119 A 
ATOM     16  C   UNL     1     129.096 140.900 120.992  1.00  0.00     0.092 A 
BRANCH  14  17
ATOM     17  O   UNL     1     126.877 140.282 121.711  1.00  0.00    -0.508 OA
ATOM     18  H   UNL     1     127.242 139.503 122.248  1.00  0.00     0.293 HD
ENDBRANCH  14  17
BRANCH  15  19
ATOM     19  O   UNL     1     131.326 141.504 120.301  1.00  0.00    -0.508 OA
ATOM     20  H   UNL     1     131.712 140.688 120.764  1.00  0.00     0.293 HD
ENDBRANCH  15  19
ENDBRANCH  10  11
ENDBRANCH   1  10
TORSDOF 6
ENDMDL
MODEL 8
REMARK VINA RESULT:    -5.061      5.341      7.922
REMARK INTER + INTRA:          -6.794
REMARK INTER:                  -6.407
REMARK INTRA:                  -0.387
REMARK UNBOUND:                -0.402
REMARK SMILES Oc1cc(O)cc(CCc2ccccc2O)c1
REMARK SMILES IDX 9 1 10 2 12 3 13 4 11 5 14 6 15 7 16 8 8 10 7 11 6 12 17 13
REMARK SMILES IDX 4 14 2 15 3 16 5 17 1 19
REMARK H PARENT 16 9 5 18 1 20
REMARK Flexibility Score: inf
ROOT
ATOM      1  C   UNL     1     126.955 140.638 120.588  1.00  0.00     0.044 C 
ENDROOT
BRANCH   1   2
ATOM      2  C   UNL     1     127.309 139.192 120.340  1.00  0.00    -0.006 A 
ATOM      3  C   UNL     1     127.580 137.367 118.750  1.00  0.00     0.001 A 
ATOM      4  C   UNL     1     127.921 136.503 119.790  1.00  0.00     0.004 A 
ATOM      5  C   UNL     1     127.271 138.701 119.021  1.00  0.00     0.007 A 
ATOM      6  C   UNL     1     127.949 136.969 121.105  1.00  0.00     0.046 A 
ATOM      7  C   UNL     1     127.637 138.304 121.396  1.00  0.00     0.118 A 
BRANCH   7   8
ATOM      8  O   UNL     1     127.660 138.704 122.733  1.00  0.00    -0.508 OA
ATOM      9  H   UNL     1     128.287 138.313 123.424  1.00  0.00     0.293 HD
ENDBRANCH   7   8
ENDBRANCH   1   2
BRANCH   1  10
ATOM     10  C   UNL     1     128.200 141.527 120.498  1.00  0.00     0.040 C 
BRANCH  10  11
ATOM     11  C   UNL     1     127.810 142.978 120.431  1.00  0.00    -0.040 A 
ATOM     12  C   UNL     1     127.688 143.624 119.191  1.00  0.00     0.050 A 
ATOM     13  C   UNL     1     127.622 143.714 121.613  1.00  0.00     0.050 A 
ATOM     14  C   UNL     1     127.356 144.985 119.130  1.00  0.00     0.119 A 
ATOM     15  C   UNL     1     127.291 145.075 121.554  1.00  0.00     0.119 A 
ATOM     16  C   UNL     1     127.156 145.705 120.313  1.00  0.00     0.092 A 
BRANCH  14  17
ATOM     17  O   UNL     1     127.226 145.630 117.902  1.00  0.00    -0.508 OA
ATOM     18  H   UNL     1     127.757 145.335 117.091  1.00  0.00     0.293 HD
ENDBRANCH  14  17
BRANCH  15  19
ATOM     19  O   UNL     1     127.096 145.810 122.721  1.00  0.00    -0.508 OA
ATOM     20  H   UNL     1     126.191 146.203 122.954  1.00  0.00     0.293 HD
ENDBRANCH  15  19
ENDBRANCH  10  11
ENDBRANCH   1  10
TORSDOF 6
ENDMDL
MODEL 9
REMARK VINA RESULT:    -3.867      5.447      7.277
REMARK INTER + INTRA:          -5.286
REMARK INTER:                  -4.731
REMARK INTRA:                  -0.555
REMARK UNBOUND:                -0.402
REMARK SMILES Oc1cc(O)cc(CCc2ccccc2O)c1
REMARK SMILES IDX 9 1 10 2 12 3 13 4 11 5 14 6 15 7 16 8 8 10 7 11 6 12 17 13
REMARK SMILES IDX 4 14 2 15 3 16 5 17 1 19
REMARK H PARENT 16 9 5 18 1 20
REMARK Flexibility Score: inf
ROOT
ATOM      1  C   UNL     1     127.997 142.688 121.613  1.00  0.00     0.044 C 
ENDROOT
BRANCH   1   2
ATOM      2  C   UNL     1     127.607 143.986 120.948  1.00  0.00    -0.006 A 
ATOM      3  C   UNL     1     127.289 145.245 118.887  1.00  0.00     0.001 A 
ATOM      4  C   UNL     1     126.930 146.373 119.625  1.00  0.00     0.004 A 
ATOM      5  C   UNL     1     127.630 144.060 119.542  1.00  0.00     0.007 A 
ATOM      6  C   UNL     1     126.917 146.321 121.019  1.00  0.00     0.046 A 
ATOM      7  C   UNL     1     127.261 145.141 121.692  1.00  0.00     0.118 A 
BRANCH   7   8
ATOM      8  O   UNL     1     127.251 145.159 123.089  1.00  0.00    -0.508 OA
ATOM      9  H   UNL     1     127.332 144.327 123.659  1.00  0.00     0.293 HD
ENDBRANCH   7   8
ENDBRANCH   1   2
BRANCH   1  10
ATOM     10  C   UNL     1     126.996 141.579 121.271  1.00  0.00     0.040 C 
BRANCH  10  11
ATOM     11  C   UNL     1     127.687 140.444 120.565  1.00  0.00    -0.040 A 
ATOM     12  C   UNL     1     126.955 139.565 119.750  1.00  0.00     0.050 A 
ATOM     13  C   UNL     1     129.060 140.220 120.761  1.00  0.00     0.050 A 
ATOM     14  C   UNL     1     127.593 138.489 119.118  1.00  0.00     0.119 A 
ATOM     15  C   UNL     1     129.698 139.143 120.132  1.00  0.00     0.119 A 
ATOM     16  C   UNL     1     128.964 138.283 119.309  1.00  0.00     0.092 A 
BRANCH  14  17
ATOM     17  O   UNL     1     126.875 137.616 118.303  1.00  0.00    -0.508 OA
ATOM     18  H   UNL     1     125.865 137.664 118.237  1.00  0.00     0.293 HD
ENDBRANCH  14  17
BRANCH  15  19
ATOM     19  O   UNL     1     131.061 138.918 120.316  1.00  0.00    -0.508 OA
ATOM     20  H   UNL     1     131.756 139.582 119.991  1.00  0.00     0.293 HD
ENDBRANCH  15  19
ENDBRANCH  10  11
ENDBRANCH   1  10
TORSDOF 6
ENDMDL
