MODEL 1
REMARK VINA RESULT:    -0.992      0.000      0.000
REMARK INTER + INTRA:          -1.079
REMARK INTER:                  -1.079
REMARK INTRA:                   0.000
REMARK UNBOUND:                 0.000
REMARK SMILES [NH3+]CC(=O)[O-]
REMARK SMILES IDX 2 1 1 2 3 6 4 7 5 8
REMARK H PARENT 1 3 1 4 1 5
REMARK Flexibility Score: inf
ROOT
ATOM      1  C   UNL     1      -2.241   3.128  -4.375  1.00  0.00     0.312 C 
ENDROOT
BRANCH   1   2
ATOM      2  N   UNL     1      -1.513   3.109  -5.642  1.00  0.00    -0.353 N 
ATOM      3  H   UNL     1      -0.491   3.253  -5.469  1.00  0.00     0.344 HD
ATOM      4  H   UNL     1      -1.875   3.860  -6.274  1.00  0.00     0.344 HD
ATOM      5  H   UNL     1      -1.652   2.181  -6.102  1.00  0.00     0.344 HD
ENDBRANCH   1   2
BRANCH   1   6
ATOM      6  C   UNL     1      -2.377   4.529  -3.863  1.00  0.00     0.096 C 
ATOM      7  O   UNL     1      -2.990   5.395  -4.541  1.00  0.00    -0.544 OA
ATOM      8  O   UNL     1      -1.870   4.864  -2.614  1.00  0.00    -0.544 OA
ENDBRANCH   1   6
TORSDOF 2
ENDMDL
MODEL 2
REMARK VINA RESULT:    -0.950     12.814     13.368
REMARK INTER + INTRA:          -1.033
REMARK INTER:                  -1.033
REMARK INTRA:                   0.000
REMARK UNBOUND:                 0.000
REMARK SMILES [NH3+]CC(=O)[O-]
REMARK SMILES IDX 2 1 1 2 3 6 4 7 5 8
REMARK H PARENT 1 3 1 4 1 5
REMARK Flexibility Score: inf
ROOT
ATOM      1  C   UNL     1      -4.193   4.172 -18.024  1.00  0.00     0.312 C 
ENDROOT
BRANCH   1   2
ATOM      2  N   UNL     1      -3.197   5.202 -17.738  1.00  0.00    -0.353 N 
ATOM      3  H   UNL     1      -3.667   6.067 -17.382  1.00  0.00     0.344 HD
ATOM      4  H   UNL     1      -2.653   5.425 -18.604  1.00  0.00     0.344 HD
ATOM      5  H   UNL     1      -2.540   4.848 -17.006  1.00  0.00     0.344 HD
ENDBRANCH   1   2
BRANCH   1   6
ATOM      6  C   UNL     1      -5.241   4.138 -16.954  1.00  0.00     0.096 C 
ATOM      7  O   UNL     1      -4.915   4.251 -15.743  1.00  0.00    -0.544 OA
ATOM      8  O   UNL     1      -6.583   4.031 -17.299  1.00  0.00    -0.544 OA
ENDBRANCH   1   6
TORSDOF 2
ENDMDL
MODEL 3
REMARK VINA RESULT:    -0.745      2.244      2.712
REMARK INTER + INTRA:          -0.811
REMARK INTER:                  -0.811
REMARK INTRA:                   0.000
REMARK UNBOUND:                 0.000
REMARK SMILES [NH3+]CC(=O)[O-]
REMARK SMILES IDX 2 1 1 2 3 6 4 7 5 8
REMARK H PARENT 1 3 1 4 1 5
REMARK Flexibility Score: inf
ROOT
ATOM      1  C   UNL     1      -2.959   5.565  -4.460  1.00  0.00     0.312 C 
ENDROOT
BRANCH   1   2
ATOM      2  N   UNL     1      -2.424   6.801  -3.894  1.00  0.00    -0.353 N 
ATOM      3  H   UNL     1      -3.199   7.483  -3.726  1.00  0.00     0.344 HD
ATOM      4  H   UNL     1      -1.720   7.218  -4.547  1.00  0.00     0.344 HD
ATOM      5  H   UNL     1      -1.957   6.587  -2.984  1.00  0.00     0.344 HD
ENDBRANCH   1   2
BRANCH   1   6
ATOM      6  C   UNL     1      -2.220   4.375  -3.928  1.00  0.00     0.096 C 
ATOM      7  O   UNL     1      -1.902   4.320  -2.710  1.00  0.00    -0.544 OA
ATOM      8  O   UNL     1      -1.928   3.306  -4.766  1.00  0.00    -0.544 OA
ENDBRANCH   1   6
TORSDOF 2
ENDMDL
MODEL 4
REMARK VINA RESULT:    -0.562      6.331      6.662
REMARK INTER + INTRA:          -0.611
REMARK INTER:                  -0.611
REMARK INTRA:                   0.000
REMARK UNBOUND:                 0.000
REMARK SMILES [NH3+]CC(=O)[O-]
REMARK SMILES IDX 2 1 1 2 3 6 4 7 5 8
REMARK H PARENT 1 3 1 4 1 5
REMARK Flexibility Score: inf
ROOT
ATOM      1  C   UNL     1       1.468   0.047  -7.803  1.00  0.00     0.312 C 
ENDROOT
BRANCH   1   2
ATOM      2  N   UNL     1       2.370   0.330  -8.916  1.00  0.00    -0.353 N 
ATOM      3  H   UNL     1       3.324  -0.048  -8.710  1.00  0.00     0.344 HD
ATOM      4  H   UNL     1       2.426   1.363  -9.078  1.00  0.00     0.344 HD
ATOM      5  H   UNL     1       2.003  -0.129  -9.780  1.00  0.00     0.344 HD
ENDBRANCH   1   2
BRANCH   1   6
ATOM      6  C   UNL     1       2.152   0.290  -6.492  1.00  0.00     0.096 C 
ATOM      7  O   UNL     1       3.327  -0.122  -6.304  1.00  0.00    -0.544 OA
ATOM      8  O   UNL     1       1.509   1.016  -5.497  1.00  0.00    -0.544 OA
ENDBRANCH   1   6
TORSDOF 2
ENDMDL
MODEL 5
REMARK VINA RESULT:    -0.421      6.208      6.571
REMARK INTER + INTRA:          -0.458
REMARK INTER:                  -0.458
REMARK INTRA:                   0.000
REMARK UNBOUND:                 0.000
REMARK SMILES [NH3+]CC(=O)[O-]
REMARK SMILES IDX 2 1 1 2 3 6 4 7 5 8
REMARK H PARENT 1 3 1 4 1 5
REMARK Flexibility Score: inf
ROOT
ATOM      1  C   UNL     1       1.406   1.097  -5.538  1.00  0.00     0.312 C 
ENDROOT
BRANCH   1   2
ATOM      2  N   UNL     1       2.458   1.658  -4.694  1.00  0.00    -0.353 N 
ATOM      3  H   UNL     1       3.392   1.296  -4.997  1.00  0.00     0.344 HD
ATOM      4  H   UNL     1       2.288   1.404  -3.693  1.00  0.00     0.344 HD
ATOM      5  H   UNL     1       2.452   2.699  -4.786  1.00  0.00     0.344 HD
ENDBRANCH   1   2
BRANCH   1   6
ATOM      6  C   UNL     1       1.995   0.262  -6.634  1.00  0.00     0.096 C 
ATOM      7  O   UNL     1       3.131  -0.262  -6.490  1.00  0.00    -0.544 OA
ATOM      8  O   UNL     1       1.267   0.023  -7.793  1.00  0.00    -0.544 OA
ENDBRANCH   1   6
TORSDOF 2
ENDMDL
MODEL 6
REMARK VINA RESULT:    -0.412      6.141      6.407
REMARK INTER + INTRA:          -0.448
REMARK INTER:                  -0.448
REMARK INTRA:                   0.000
REMARK UNBOUND:                 0.000
REMARK SMILES [NH3+]CC(=O)[O-]
REMARK SMILES IDX 2 1 1 2 3 6 4 7 5 8
REMARK H PARENT 1 3 1 4 1 5
REMARK Flexibility Score: inf
ROOT
ATOM      1  C   UNL     1       2.495  -0.003  -5.721  1.00  0.00     0.312 C 
ENDROOT
BRANCH   1   2
ATOM      2  N   UNL     1       3.741  -0.116  -6.476  1.00  0.00    -0.353 N 
ATOM      3  H   UNL     1       3.537  -0.389  -7.465  1.00  0.00     0.344 HD
ATOM      4  H   UNL     1       4.365  -0.830  -6.033  1.00  0.00     0.344 HD
ATOM      5  H   UNL     1       4.228   0.809  -6.473  1.00  0.00     0.344 HD
ENDBRANCH   1   2
BRANCH   1   6
ATOM      6  C   UNL     1       1.375   0.442  -6.611  1.00  0.00     0.096 C 
ATOM      7  O   UNL     1       0.481   1.210  -6.168  1.00  0.00    -0.544 OA
ATOM      8  O   UNL     1       1.348   0.048  -7.943  1.00  0.00    -0.544 OA
ENDBRANCH   1   6
TORSDOF 2
ENDMDL
MODEL 7
REMARK VINA RESULT:    -0.022     12.001     12.275
REMARK INTER + INTRA:          -0.024
REMARK INTER:                  -0.024
REMARK INTRA:                   0.000
REMARK UNBOUND:                 0.000
REMARK SMILES [NH3+]CC(=O)[O-]
REMARK SMILES IDX 2 1 1 2 3 6 4 7 5 8
REMARK H PARENT 1 3 1 4 1 5
REMARK Flexibility Score: inf
ROOT
ATOM      1  C   UNL     1      -2.560  -4.574 -11.135  1.00  0.00     0.312 C 
ENDROOT
BRANCH   1   2
ATOM      2  N   UNL     1      -1.549  -3.781 -10.440  1.00  0.00    -0.353 N 
ATOM      3  H   UNL     1      -1.228  -2.994 -11.051  1.00  0.00     0.344 HD
ATOM      4  H   UNL     1      -0.733  -4.385 -10.184  1.00  0.00     0.344 HD
ATOM      5  H   UNL     1      -1.965  -3.385  -9.567  1.00  0.00     0.344 HD
ENDBRANCH   1   2
BRANCH   1   6
ATOM      6  C   UNL     1      -1.934  -5.755 -11.811  1.00  0.00     0.096 C 
ATOM      7  O   UNL     1      -1.316  -5.610 -12.898  1.00  0.00    -0.544 OA
ATOM      8  O   UNL     1      -1.991  -7.008 -11.213  1.00  0.00    -0.544 OA
ENDBRANCH   1   6
TORSDOF 2
ENDMDL
MODEL 8
REMARK VINA RESULT:     0.111     10.231     10.450
REMARK INTER + INTRA:           0.121
REMARK INTER:                   0.121
REMARK INTRA:                   0.000
REMARK UNBOUND:                 0.000
REMARK SMILES [NH3+]CC(=O)[O-]
REMARK SMILES IDX 2 1 1 2 3 6 4 7 5 8
REMARK H PARENT 1 3 1 4 1 5
REMARK Flexibility Score: inf
ROOT
ATOM      1  C   UNL     1      -4.177  -3.728   2.125  1.00  0.00     0.312 C 
ENDROOT
BRANCH   1   2
ATOM      2  N   UNL     1      -3.303  -4.898   2.083  1.00  0.00    -0.353 N 
ATOM      3  H   UNL     1      -3.823  -5.720   1.695  1.00  0.00     0.344 HD
ATOM      4  H   UNL     1      -2.955  -5.121   3.045  1.00  0.00     0.344 HD
ATOM      5  H   UNL     1      -2.485  -4.693   1.465  1.00  0.00     0.344 HD
ENDBRANCH   1   2
BRANCH   1   6
ATOM      6  C   UNL     1      -5.233  -3.817   1.067  1.00  0.00     0.096 C 
ATOM      7  O   UNL     1      -4.915  -4.056  -0.128  1.00  0.00    -0.544 OA
ATOM      8  O   UNL     1      -6.573  -3.688   1.410  1.00  0.00    -0.544 OA
ENDBRANCH   1   6
TORSDOF 2
ENDMDL
