MODEL 1
REMARK VINA RESULT:    -3.900      0.000      0.000
REMARK INTER + INTRA:          -4.527
REMARK INTER:                  -4.812
REMARK INTRA:                   0.285
REMARK UNBOUND:                 0.285
REMARK SMILES O=c1c(O)c(-c2cc(O)c(O)c(O)c2)oc2cc(O)cc(O)c12
REMARK SMILES IDX 5 1 3 2 2 3 1 4 23 5 21 6 20 7 18 8 17 9 16 10 15 11 6 12
REMARK SMILES IDX 7 13 8 14 14 15 10 16 12 17 9 18 11 20 13 22 4 24 22 26
REMARK SMILES IDX 19 28
REMARK H PARENT 9 19 11 21 13 23 4 25 22 27 19 29
REMARK Flexibility Score: inf
ROOT
ATOM      1  C   UNL     1      73.241  41.303  20.268  1.00  0.00     0.180 A 
ATOM      2  C   UNL     1      73.846  41.614  19.034  1.00  0.00     0.208 A 
ATOM      3  C   UNL     1      75.238  41.791  18.987  1.00  0.00     0.238 A 
ATOM      4  O   UNL     1      75.789  42.080  17.890  1.00  0.00    -0.285 OA
ATOM      5  C   UNL     1      76.000  41.635  20.163  1.00  0.00     0.111 A 
ATOM      6  C   UNL     1      77.407  41.793  20.200  1.00  0.00     0.134 A 
ATOM      7  C   UNL     1      78.095  41.613  21.409  1.00  0.00     0.093 A 
ATOM      8  C   UNL     1      77.405  41.277  22.579  1.00  0.00     0.123 A 
ATOM      9  C   UNL     1      76.018  41.122  22.547  1.00  0.00     0.094 A 
ATOM     10  C   UNL     1      75.313  41.299  21.354  1.00  0.00     0.146 A 
ATOM     11  O   UNL     1      73.994  41.150  21.354  1.00  0.00    -0.452 OA
ENDROOT
BRANCH   1  12
ATOM     12  C   UNL     1      71.778  41.120  20.402  1.00  0.00     0.029 A 
ATOM     13  C   UNL     1      71.271  40.394  21.490  1.00  0.00     0.062 A 
ATOM     14  C   UNL     1      69.892  40.222  21.654  1.00  0.00     0.162 A 
ATOM     15  C   UNL     1      70.880  41.708  19.494  1.00  0.00     0.062 A 
ATOM     16  C   UNL     1      68.999  40.794  20.731  1.00  0.00     0.200 A 
ATOM     17  C   UNL     1      69.498  41.543  19.651  1.00  0.00     0.162 A 
BRANCH  14  18
ATOM     18  O   UNL     1      69.428  39.482  22.740  1.00  0.00    -0.504 OA
ATOM     19  H   UNL     1      69.407  39.858  23.680  1.00  0.00     0.293 HD
ENDBRANCH  14  18
BRANCH  16  20
ATOM     20  O   UNL     1      67.626  40.616  20.900  1.00  0.00    -0.502 OA
ATOM     21  H   UNL     1      67.234  40.193  21.733  1.00  0.00     0.293 HD
ENDBRANCH  16  20
BRANCH  17  22
ATOM     22  O   UNL     1      68.617  42.125  18.740  1.00  0.00    -0.504 OA
ATOM     23  H   UNL     1      67.880  42.753  19.041  1.00  0.00     0.293 HD
ENDBRANCH  17  22
ENDBRANCH   1  12
BRANCH   2  24
ATOM     24  O   UNL     1      73.073  41.714  17.875  1.00  0.00    -0.502 OA
ATOM     25  H   UNL     1      73.110  42.524  17.267  1.00  0.00     0.293 HD
ENDBRANCH   2  24
BRANCH   6  26
ATOM     26  O   UNL     1      78.123  42.125  19.049  1.00  0.00    -0.507 OA
ATOM     27  H   UNL     1      78.963  42.690  19.088  1.00  0.00     0.293 HD
ENDBRANCH   6  26
BRANCH   8  28
ATOM     28  O   UNL     1      78.089  41.097  23.780  1.00  0.00    -0.508 OA
ATOM     29  H   UNL     1      78.505  41.877  24.275  1.00  0.00     0.293 HD
ENDBRANCH   8  28
TORSDOF 7
ENDMDL
MODEL 2
REMARK VINA RESULT:    -3.867      0.358      1.788
REMARK INTER + INTRA:          -4.487
REMARK INTER:                  -4.775
REMARK INTRA:                   0.288
REMARK UNBOUND:                 0.285
REMARK SMILES O=c1c(O)c(-c2cc(O)c(O)c(O)c2)oc2cc(O)cc(O)c12
REMARK SMILES IDX 5 1 3 2 2 3 1 4 23 5 21 6 20 7 18 8 17 9 16 10 15 11 6 12
REMARK SMILES IDX 7 13 8 14 14 15 10 16 12 17 9 18 11 20 13 22 4 24 22 26
REMARK SMILES IDX 19 28
REMARK H PARENT 9 19 11 21 13 23 4 25 22 27 19 29
REMARK Flexibility Score: inf
ROOT
ATOM      1  C   UNL     1      72.917  41.255  20.330  1.00  0.00     0.180 A 
ATOM      2  C   UNL     1      73.495  41.519  19.074  1.00  0.00     0.208 A 
ATOM      3  C   UNL     1      74.882  41.724  18.995  1.00  0.00     0.238 A 
ATOM      4  O   UNL     1      75.409  41.972  17.876  1.00  0.00    -0.285 OA
ATOM      5  C   UNL     1      75.666  41.643  20.164  1.00  0.00     0.111 A 
ATOM      6  C   UNL     1      77.070  41.834  20.170  1.00  0.00     0.134 A 
ATOM      7  C   UNL     1      77.780  41.728  21.374  1.00  0.00     0.093 A 
ATOM      8  C   UNL     1      77.116  41.435  22.571  1.00  0.00     0.123 A 
ATOM      9  C   UNL     1      75.733  41.248  22.570  1.00  0.00     0.094 A 
ATOM     10  C   UNL     1      75.005  41.350  21.381  1.00  0.00     0.146 A 
ATOM     11  O   UNL     1      73.690  41.172  21.410  1.00  0.00    -0.452 OA
ENDROOT
BRANCH   1  12
ATOM     12  C   UNL     1      71.461  41.047  20.497  1.00  0.00     0.029 A 
ATOM     13  C   UNL     1      70.569  41.670  19.612  1.00  0.00     0.062 A 
ATOM     14  C   UNL     1      69.189  41.475  19.732  1.00  0.00     0.162 A 
ATOM     15  C   UNL     1      70.953  40.190  21.489  1.00  0.00     0.062 A 
ATOM     16  C   UNL     1      68.684  40.634  20.740  1.00  0.00     0.200 A 
ATOM     17  C   UNL     1      69.573  39.987  21.617  1.00  0.00     0.162 A 
BRANCH  14  18
ATOM     18  O   UNL     1      68.335  42.124  18.842  1.00  0.00    -0.504 OA
ATOM     19  H   UNL     1      68.112  43.109  18.929  1.00  0.00     0.293 HD
ENDBRANCH  14  18
BRANCH  16  20
ATOM     20  O   UNL     1      67.307  40.447  20.855  1.00  0.00    -0.502 OA
ATOM     21  H   UNL     1      66.664  40.689  20.110  1.00  0.00     0.293 HD
ENDBRANCH  16  20
BRANCH  17  22
ATOM     22  O   UNL     1      69.079  39.140  22.608  1.00  0.00    -0.504 OA
ATOM     23  H   UNL     1      68.821  39.489  23.525  1.00  0.00     0.293 HD
ENDBRANCH  17  22
ENDBRANCH   1  12
BRANCH   2  24
ATOM     24  O   UNL     1      72.703  41.545  17.924  1.00  0.00    -0.502 OA
ATOM     25  H   UNL     1      72.099  42.327  17.699  1.00  0.00     0.293 HD
ENDBRANCH   2  24
BRANCH   6  26
ATOM     26  O   UNL     1      77.760  42.125  18.992  1.00  0.00    -0.507 OA
ATOM     27  H   UNL     1      77.822  41.458  18.233  1.00  0.00     0.293 HD
ENDBRANCH   6  26
BRANCH   8  28
ATOM     28  O   UNL     1      77.822  41.329  23.768  1.00  0.00    -0.508 OA
ATOM     29  H   UNL     1      77.915  40.443  24.250  1.00  0.00     0.293 HD
ENDBRANCH   8  28
TORSDOF 7
ENDMDL
MODEL 3
REMARK VINA RESULT:    -3.028      1.149      3.273
REMARK INTER + INTRA:          -3.450
REMARK INTER:                  -3.704
REMARK INTRA:                   0.254
REMARK UNBOUND:                 0.285
REMARK SMILES O=c1c(O)c(-c2cc(O)c(O)c(O)c2)oc2cc(O)cc(O)c12
REMARK SMILES IDX 5 1 3 2 2 3 1 4 23 5 21 6 20 7 18 8 17 9 16 10 15 11 6 12
REMARK SMILES IDX 7 13 8 14 14 15 10 16 12 17 9 18 11 20 13 22 4 24 22 26
REMARK SMILES IDX 19 28
REMARK H PARENT 9 19 11 21 13 23 4 25 22 27 19 29
REMARK Flexibility Score: inf
ROOT
ATOM      1  C   UNL     1      73.072  41.106  21.037  1.00  0.00     0.180 A 
ATOM      2  C   UNL     1      73.623  40.973  22.327  1.00  0.00     0.208 A 
ATOM      3  C   UNL     1      75.014  41.073  22.484  1.00  0.00     0.238 A 
ATOM      4  O   UNL     1      75.519  40.945  23.632  1.00  0.00    -0.285 OA
ATOM      5  C   UNL     1      75.826  41.324  21.358  1.00  0.00     0.111 A 
ATOM      6  C   UNL     1      77.235  41.443  21.431  1.00  0.00     0.134 A 
ATOM      7  C   UNL     1      77.972  41.702  20.267  1.00  0.00     0.093 A 
ATOM      8  C   UNL     1      77.328  41.845  19.032  1.00  0.00     0.123 A 
ATOM      9  C   UNL     1      75.939  41.728  18.956  1.00  0.00     0.094 A 
ATOM     10  C   UNL     1      75.186  41.468  20.104  1.00  0.00     0.146 A 
ATOM     11  O   UNL     1      73.868  41.356  20.001  1.00  0.00    -0.452 OA
ENDROOT
BRANCH   1  12
ATOM     12  C   UNL     1      71.617  40.994  20.789  1.00  0.00     0.029 A 
ATOM     13  C   UNL     1      71.063  41.601  19.652  1.00  0.00     0.062 A 
ATOM     14  C   UNL     1      69.695  41.494  19.380  1.00  0.00     0.162 A 
ATOM     15  C   UNL     1      70.785  40.241  21.636  1.00  0.00     0.062 A 
ATOM     16  C   UNL     1      68.863  40.759  20.242  1.00  0.00     0.200 A 
ATOM     17  C   UNL     1      69.414  40.128  21.371  1.00  0.00     0.162 A 
BRANCH  14  18
ATOM     18  O   UNL     1      69.180  42.125  18.248  1.00  0.00    -0.504 OA
ATOM     19  H   UNL     1      69.570  42.987  17.886  1.00  0.00     0.293 HD
ENDBRANCH  14  18
BRANCH  16  20
ATOM     20  O   UNL     1      67.499  40.660  19.965  1.00  0.00    -0.502 OA
ATOM     21  H   UNL     1      66.959  41.445  19.621  1.00  0.00     0.293 HD
ENDBRANCH  16  20
BRANCH  17  22
ATOM     22  O   UNL     1      68.597  39.384  22.222  1.00  0.00    -0.504 OA
ATOM     23  H   UNL     1      68.918  38.521  22.646  1.00  0.00     0.293 HD
ENDBRANCH  17  22
ENDBRANCH   1  12
BRANCH   2  24
ATOM     24  O   UNL     1      72.792  40.773  23.432  1.00  0.00    -0.502 OA
ATOM     25  H   UNL     1      71.974  41.346  23.606  1.00  0.00     0.293 HD
ENDBRANCH   2  24
BRANCH   6  26
ATOM     26  O   UNL     1      77.906  41.307  22.648  1.00  0.00    -0.507 OA
ATOM     27  H   UNL     1      78.521  42.030  23.001  1.00  0.00     0.293 HD
ENDBRANCH   6  26
BRANCH   8  28
ATOM     28  O   UNL     1      78.060  42.104  17.875  1.00  0.00    -0.508 OA
ATOM     29  H   UNL     1      78.134  43.040  17.494  1.00  0.00     0.293 HD
ENDBRANCH   8  28
TORSDOF 7
ENDMDL
MODEL 4
REMARK VINA RESULT:    -2.861      1.197      2.772
REMARK INTER + INTRA:          -3.245
REMARK INTER:                  -3.661
REMARK INTRA:                   0.416
REMARK UNBOUND:                 0.285
REMARK SMILES O=c1c(O)c(-c2cc(O)c(O)c(O)c2)oc2cc(O)cc(O)c12
REMARK SMILES IDX 5 1 3 2 2 3 1 4 23 5 21 6 20 7 18 8 17 9 16 10 15 11 6 12
REMARK SMILES IDX 7 13 8 14 14 15 10 16 12 17 9 18 11 20 13 22 4 24 22 26
REMARK SMILES IDX 19 28
REMARK H PARENT 9 19 11 21 13 23 4 25 22 27 19 29
REMARK Flexibility Score: inf
ROOT
ATOM      1  C   UNL     1      73.510  41.106  20.795  1.00  0.00     0.180 A 
ATOM      2  C   UNL     1      74.004  40.926  22.101  1.00  0.00     0.208 A 
ATOM      3  C   UNL     1      75.389  41.000  22.319  1.00  0.00     0.238 A 
ATOM      4  O   UNL     1      75.844  40.829  23.483  1.00  0.00    -0.285 OA
ATOM      5  C   UNL     1      76.251  41.273  21.236  1.00  0.00     0.111 A 
ATOM      6  C   UNL     1      77.658  41.368  21.371  1.00  0.00     0.134 A 
ATOM      7  C   UNL     1      78.446  41.651  20.247  1.00  0.00     0.093 A 
ATOM      8  C   UNL     1      77.857  41.842  18.992  1.00  0.00     0.123 A 
ATOM      9  C   UNL     1      76.471  41.748  18.854  1.00  0.00     0.094 A 
ATOM     10  C   UNL     1      75.667  41.465  19.962  1.00  0.00     0.146 A 
ATOM     11  O   UNL     1      74.352  41.376  19.800  1.00  0.00    -0.452 OA
ENDROOT
BRANCH   1  12
ATOM     12  C   UNL     1      72.065  41.024  20.482  1.00  0.00     0.029 A 
ATOM     13  C   UNL     1      71.198  40.396  21.390  1.00  0.00     0.062 A 
ATOM     14  C   UNL     1      69.825  40.321  21.131  1.00  0.00     0.162 A 
ATOM     15  C   UNL     1      71.532  41.612  19.322  1.00  0.00     0.062 A 
ATOM     16  C   UNL     1      69.300  40.893  19.959  1.00  0.00     0.200 A 
ATOM     17  C   UNL     1      70.158  41.543  19.056  1.00  0.00     0.162 A 
BRANCH  14  18
ATOM     18  O   UNL     1      68.999  39.676  22.050  1.00  0.00    -0.504 OA
ATOM     19  H   UNL     1      68.363  38.937  21.777  1.00  0.00     0.293 HD
ENDBRANCH  14  18
BRANCH  16  20
ATOM     20  O   UNL     1      67.930  40.811  19.707  1.00  0.00    -0.502 OA
ATOM     21  H   UNL     1      67.290  41.558  19.951  1.00  0.00     0.293 HD
ENDBRANCH  16  20
BRANCH  17  22
ATOM     22  O   UNL     1      69.641  42.125  17.899  1.00  0.00    -0.504 OA
ATOM     23  H   UNL     1      69.294  43.078  17.893  1.00  0.00     0.293 HD
ENDBRANCH  17  22
ENDBRANCH   1  12
BRANCH   2  24
ATOM     24  O   UNL     1      73.125  40.705  23.164  1.00  0.00    -0.502 OA
ATOM     25  H   UNL     1      72.189  40.341  23.027  1.00  0.00     0.293 HD
ENDBRANCH   2  24
BRANCH   6  26
ATOM     26  O   UNL     1      78.274  41.185  22.610  1.00  0.00    -0.507 OA
ATOM     27  H   UNL     1      78.594  41.968  23.167  1.00  0.00     0.293 HD
ENDBRANCH   6  26
BRANCH   8  28
ATOM     28  O   UNL     1      78.640  42.125  17.875  1.00  0.00    -0.508 OA
ATOM     29  H   UNL     1      78.227  42.263  16.960  1.00  0.00     0.293 HD
ENDBRANCH   8  28
TORSDOF 7
ENDMDL
MODEL 5
REMARK VINA RESULT:    -2.453      1.154      6.905
REMARK INTER + INTRA:          -2.742
REMARK INTER:                  -3.252
REMARK INTRA:                   0.511
REMARK UNBOUND:                 0.285
REMARK SMILES O=c1c(O)c(-c2cc(O)c(O)c(O)c2)oc2cc(O)cc(O)c12
REMARK SMILES IDX 5 1 3 2 2 3 1 4 23 5 21 6 20 7 18 8 17 9 16 10 15 11 6 12
REMARK SMILES IDX 7 13 8 14 14 15 10 16 12 17 9 18 11 20 13 22 4 24 22 26
REMARK SMILES IDX 19 28
REMARK H PARENT 9 19 11 21 13 23 4 25 22 27 19 29
REMARK Flexibility Score: inf
ROOT
ATOM      1  C   UNL     1      73.523  41.138  20.959  1.00  0.00     0.180 A 
ATOM      2  C   UNL     1      73.401  41.641  19.649  1.00  0.00     0.208 A 
ATOM      3  C   UNL     1      72.131  41.674  19.052  1.00  0.00     0.238 A 
ATOM      4  O   UNL     1      72.010  42.113  17.875  1.00  0.00    -0.285 OA
ATOM      5  C   UNL     1      71.007  41.226  19.777  1.00  0.00     0.111 A 
ATOM      6  C   UNL     1      69.693  41.229  19.249  1.00  0.00     0.134 A 
ATOM      7  C   UNL     1      68.626  40.774  20.037  1.00  0.00     0.093 A 
ATOM      8  C   UNL     1      68.847  40.317  21.342  1.00  0.00     0.123 A 
ATOM      9  C   UNL     1      70.142  40.311  21.865  1.00  0.00     0.094 A 
ATOM     10  C   UNL     1      71.219  40.759  21.096  1.00  0.00     0.146 A 
ATOM     11  O   UNL     1      72.439  40.737  21.618  1.00  0.00    -0.452 OA
ENDROOT
BRANCH   1  12
ATOM     12  C   UNL     1      74.830  41.054  21.649  1.00  0.00     0.029 A 
ATOM     13  C   UNL     1      76.001  41.389  20.952  1.00  0.00     0.062 A 
ATOM     14  C   UNL     1      77.248  41.338  21.584  1.00  0.00     0.162 A 
ATOM     15  C   UNL     1      74.920  40.700  23.006  1.00  0.00     0.062 A 
ATOM     16  C   UNL     1      77.335  40.963  22.936  1.00  0.00     0.200 A 
ATOM     17  C   UNL     1      76.164  40.648  23.648  1.00  0.00     0.162 A 
BRANCH  14  18
ATOM     18  O   UNL     1      78.390  41.664  20.853  1.00  0.00    -0.504 OA
ATOM     19  H   UNL     1      79.042  42.375  21.161  1.00  0.00     0.293 HD
ENDBRANCH  14  18
BRANCH  16  20
ATOM     20  O   UNL     1      78.583  40.912  23.558  1.00  0.00    -0.502 OA
ATOM     21  H   UNL     1      78.953  40.057  23.958  1.00  0.00     0.293 HD
ENDBRANCH  16  20
BRANCH  17  22
ATOM     22  O   UNL     1      76.242  40.290  24.993  1.00  0.00    -0.504 OA
ATOM     23  H   UNL     1      75.455  39.875  25.479  1.00  0.00     0.293 HD
ENDBRANCH  17  22
ENDBRANCH   1  12
BRANCH   2  24
ATOM     24  O   UNL     1      74.522  42.125  18.971  1.00  0.00    -0.502 OA
ATOM     25  H   UNL     1      74.664  41.973  17.980  1.00  0.00     0.293 HD
ENDBRANCH   2  24
BRANCH   6  26
ATOM     26  O   UNL     1      69.441  41.680  17.953  1.00  0.00    -0.507 OA
ATOM     27  H   UNL     1      69.723  41.147  17.139  1.00  0.00     0.293 HD
ENDBRANCH   6  26
BRANCH   8  28
ATOM     28  O   UNL     1      67.787  39.867  22.126  1.00  0.00    -0.508 OA
ATOM     29  H   UNL     1      67.167  40.513  22.600  1.00  0.00     0.293 HD
ENDBRANCH   8  28
TORSDOF 7
ENDMDL
MODEL 6
REMARK VINA RESULT:    -2.204      1.261      6.717
REMARK INTER + INTRA:          -2.434
REMARK INTER:                  -2.876
REMARK INTRA:                   0.441
REMARK UNBOUND:                 0.285
REMARK SMILES O=c1c(O)c(-c2cc(O)c(O)c(O)c2)oc2cc(O)cc(O)c12
REMARK SMILES IDX 5 1 3 2 2 3 1 4 23 5 21 6 20 7 18 8 17 9 16 10 15 11 6 12
REMARK SMILES IDX 7 13 8 14 14 15 10 16 12 17 9 18 11 20 13 22 4 24 22 26
REMARK SMILES IDX 19 28
REMARK H PARENT 9 19 11 21 13 23 4 25 22 27 19 29
REMARK Flexibility Score: inf
ROOT
ATOM      1  C   UNL     1      73.385  41.134  21.015  1.00  0.00     0.180 A 
ATOM      2  C   UNL     1      73.305  41.641  19.704  1.00  0.00     0.208 A 
ATOM      3  C   UNL     1      72.054  41.683  19.068  1.00  0.00     0.238 A 
ATOM      4  O   UNL     1      71.973  42.125  17.889  1.00  0.00    -0.285 OA
ATOM      5  C   UNL     1      70.907  41.238  19.757  1.00  0.00     0.111 A 
ATOM      6  C   UNL     1      69.610  41.250  19.189  1.00  0.00     0.134 A 
ATOM      7  C   UNL     1      68.517  40.799  19.943  1.00  0.00     0.093 A 
ATOM      8  C   UNL     1      68.695  40.337  21.252  1.00  0.00     0.123 A 
ATOM      9  C   UNL     1      69.973  40.323  21.815  1.00  0.00     0.094 A 
ATOM     10  C   UNL     1      71.076  40.767  21.080  1.00  0.00     0.146 A 
ATOM     11  O   UNL     1      72.279  40.737  21.639  1.00  0.00    -0.452 OA
ENDROOT
BRANCH   1  12
ATOM     12  C   UNL     1      74.670  41.041  21.745  1.00  0.00     0.029 A 
ATOM     13  C   UNL     1      74.701  40.440  23.013  1.00  0.00     0.062 A 
ATOM     14  C   UNL     1      75.904  40.319  23.717  1.00  0.00     0.162 A 
ATOM     15  C   UNL     1      75.872  41.488  21.171  1.00  0.00     0.062 A 
ATOM     16  C   UNL     1      77.100  40.787  23.147  1.00  0.00     0.200 A 
ATOM     17  C   UNL     1      77.082  41.369  21.868  1.00  0.00     0.162 A 
BRANCH  14  18
ATOM     18  O   UNL     1      75.890  39.730  24.980  1.00  0.00    -0.504 OA
ATOM     19  H   UNL     1      76.621  39.898  25.662  1.00  0.00     0.293 HD
ENDBRANCH  14  18
BRANCH  16  20
ATOM     20  O   UNL     1      78.295  40.666  23.857  1.00  0.00    -0.502 OA
ATOM     21  H   UNL     1      79.065  41.314  23.736  1.00  0.00     0.293 HD
ENDBRANCH  16  20
BRANCH  17  22
ATOM     22  O   UNL     1      78.268  41.823  21.291  1.00  0.00    -0.504 OA
ATOM     23  H   UNL     1      78.614  42.761  21.456  1.00  0.00     0.293 HD
ENDBRANCH  17  22
ENDBRANCH   1  12
BRANCH   2  24
ATOM     24  O   UNL     1      74.449  42.121  19.062  1.00  0.00    -0.502 OA
ATOM     25  H   UNL     1      75.296  42.356  19.566  1.00  0.00     0.293 HD
ENDBRANCH   2  24
BRANCH   6  26
ATOM     26  O   UNL     1      69.400  41.706  17.887  1.00  0.00    -0.507 OA
ATOM     27  H   UNL     1      69.735  41.192  17.081  1.00  0.00     0.293 HD
ENDBRANCH   6  26
BRANCH   8  28
ATOM     28  O   UNL     1      67.610  39.890  22.002  1.00  0.00    -0.508 OA
ATOM     29  H   UNL     1      66.721  39.669  21.567  1.00  0.00     0.293 HD
ENDBRANCH   8  28
TORSDOF 7
ENDMDL
