MODEL 1
REMARK VINA RESULT:    -5.560      0.000      0.000
REMARK INTER + INTRA:          -8.030
REMARK INTER:                  -7.510
REMARK INTRA:                  -0.519
REMARK UNBOUND:                -0.519
REMARK SMILES COc1ccc(-c2cc(=O)c3c(OC)c(OC)c(OC)cc3o2)cc1OC
REMARK SMILES IDX 7 1 8 2 9 3 10 4 11 5 12 6 15 7 18 8 21 9 22 10 23 11 6 12
REMARK SMILES IDX 3 13 25 14 4 15 24 16 5 17 2 18 1 19 26 20 27 21 13 22 14 23
REMARK SMILES IDX 19 24 20 25 16 26 17 27
REMARK H PARENT
REMARK Flexibility Score: inf
ROOT
ATOM      1  C   UNL     1     130.335 130.223 133.744  1.00  0.00     0.138 A 
ATOM      2  C   UNL     1     129.217 131.033 134.000  1.00  0.00     0.100 A 
ATOM      3  C   UNL     1     129.345 132.420 133.930  1.00  0.00     0.197 A 
ATOM      4  O   UNL     1     128.324 133.134 134.125  1.00  0.00    -0.289 OA
ATOM      5  C   UNL     1     130.597 132.992 133.619  1.00  0.00     0.111 A 
ATOM      6  C   UNL     1     130.823 134.391 133.562  1.00  0.00     0.179 A 
ATOM      7  C   UNL     1     132.076 134.885 133.122  1.00  0.00     0.204 A 
ATOM      8  C   UNL     1     133.125 133.990 132.857  1.00  0.00     0.168 A 
ATOM      9  C   UNL     1     132.913 132.608 132.982  1.00  0.00     0.098 A 
ATOM     10  C   UNL     1     131.664 132.109 133.341  1.00  0.00     0.146 A 
ATOM     11  O   UNL     1     131.492 130.793 133.418  1.00  0.00    -0.456 OA
ENDROOT
BRANCH   1  12
ATOM     12  C   UNL     1     130.260 128.741 133.803  1.00  0.00     0.021 A 
ATOM     13  C   UNL     1     130.061 125.925 133.890  1.00  0.00     0.160 A 
ATOM     14  C   UNL     1     128.899 126.711 133.941  1.00  0.00     0.161 A 
ATOM     15  C   UNL     1     131.317 126.551 133.789  1.00  0.00     0.051 A 
ATOM     16  C   UNL     1     129.005 128.115 133.892  1.00  0.00     0.062 A 
ATOM     17  C   UNL     1     131.414 127.942 133.742  1.00  0.00     0.016 A 
BRANCH  13  18
ATOM     18  O   UNL     1     129.925 124.529 133.942  1.00  0.00    -0.493 OA
ATOM     19  C   UNL     1     130.549 123.624 133.037  1.00  0.00     0.278 C 
ENDBRANCH  13  18
BRANCH  14  20
ATOM     20  O   UNL     1     127.660 126.059 134.037  1.00  0.00    -0.493 OA
ATOM     21  C   UNL     1     126.446 126.543 133.472  1.00  0.00     0.278 C 
ENDBRANCH  14  20
ENDBRANCH   1  12
BRANCH   6  22
ATOM     22  O   UNL     1     129.826 135.279 133.972  1.00  0.00    -0.492 OA
ATOM     23  C   UNL     1     129.128 136.087 133.030  1.00  0.00     0.278 C 
ENDBRANCH   6  22
BRANCH   8  24
ATOM     24  O   UNL     1     134.365 134.518 132.462  1.00  0.00    -0.493 OA
ATOM     25  C   UNL     1     135.562 134.434 133.229  1.00  0.00     0.278 C 
ENDBRANCH   8  24
BRANCH   7  26
ATOM     26  O   UNL     1     132.346 136.253 132.928  1.00  0.00    -0.490 OA
ATOM     27  C   UNL     1     132.702 137.188 133.941  1.00  0.00     0.278 C 
ENDBRANCH   7  26
TORSDOF 6
ENDMDL
MODEL 2
REMARK VINA RESULT:    -5.485      1.769      9.315
REMARK INTER + INTRA:          -7.929
REMARK INTER:                  -7.399
REMARK INTRA:                  -0.530
REMARK UNBOUND:                -0.519
REMARK SMILES COc1ccc(-c2cc(=O)c3c(OC)c(OC)c(OC)cc3o2)cc1OC
REMARK SMILES IDX 7 1 8 2 9 3 10 4 11 5 12 6 15 7 18 8 21 9 22 10 23 11 6 12
REMARK SMILES IDX 3 13 25 14 4 15 24 16 5 17 2 18 1 19 26 20 27 21 13 22 14 23
REMARK SMILES IDX 19 24 20 25 16 26 17 27
REMARK H PARENT
REMARK Flexibility Score: inf
ROOT
ATOM      1  C   UNL     1     129.368 129.204 133.660  1.00  0.00     0.138 A 
ATOM      2  C   UNL     1     130.444 128.347 133.939  1.00  0.00     0.100 A 
ATOM      3  C   UNL     1     130.257 126.966 133.870  1.00  0.00     0.197 A 
ATOM      4  O   UNL     1     131.241 126.209 134.085  1.00  0.00    -0.289 OA
ATOM      5  C   UNL     1     128.986 126.449 133.537  1.00  0.00     0.111 A 
ATOM      6  C   UNL     1     128.700 125.061 133.480  1.00  0.00     0.179 A 
ATOM      7  C   UNL     1     127.434 124.621 133.018  1.00  0.00     0.204 A 
ATOM      8  C   UNL     1     126.431 125.561 132.731  1.00  0.00     0.168 A 
ATOM      9  C   UNL     1     126.701 126.933 132.856  1.00  0.00     0.098 A 
ATOM     10  C   UNL     1     127.965 127.377 133.238  1.00  0.00     0.146 A 
ATOM     11  O   UNL     1     128.193 128.684 133.314  1.00  0.00    -0.456 OA
ENDROOT
BRANCH   1  12
ATOM     12  C   UNL     1     129.507 130.682 133.717  1.00  0.00     0.021 A 
ATOM     13  C   UNL     1     129.829 133.486 133.803  1.00  0.00     0.160 A 
ATOM     14  C   UNL     1     130.949 132.649 133.917  1.00  0.00     0.161 A 
ATOM     15  C   UNL     1     128.552 132.917 133.639  1.00  0.00     0.051 A 
ATOM     16  C   UNL     1     130.783 131.251 133.869  1.00  0.00     0.062 A 
ATOM     17  C   UNL     1     128.395 131.531 133.593  1.00  0.00     0.016 A 
BRANCH  13  18
ATOM     18  O   UNL     1     130.025 134.875 133.856  1.00  0.00    -0.493 OA
ATOM     19  C   UNL     1     129.255 135.827 133.129  1.00  0.00     0.278 C 
ENDBRANCH  13  18
BRANCH  14  20
ATOM     20  O   UNL     1     132.210 133.245 134.075  1.00  0.00    -0.493 OA
ATOM     21  C   UNL     1     133.160 133.417 133.026  1.00  0.00     0.278 C 
ENDBRANCH  14  20
ENDBRANCH   1  12
BRANCH   6  22
ATOM     22  O   UNL     1     129.649 124.131 133.911  1.00  0.00    -0.492 OA
ATOM     23  C   UNL     1     130.317 123.280 132.985  1.00  0.00     0.278 C 
ENDBRANCH   6  22
BRANCH   8  24
ATOM     24  O   UNL     1     125.176 125.087 132.315  1.00  0.00    -0.493 OA
ATOM     25  C   UNL     1     123.993 125.126 133.106  1.00  0.00     0.278 C 
ENDBRANCH   8  24
BRANCH   7  26
ATOM     26  O   UNL     1     127.108 123.266 132.822  1.00  0.00    -0.490 OA
ATOM     27  C   UNL     1     126.652 122.362 133.823  1.00  0.00     0.278 C 
ENDBRANCH   7  26
TORSDOF 6
ENDMDL
MODEL 3
REMARK VINA RESULT:    -5.378      1.916      8.906
REMARK INTER + INTRA:          -7.783
REMARK INTER:                  -7.157
REMARK INTRA:                  -0.627
REMARK UNBOUND:                -0.519
REMARK SMILES COc1ccc(-c2cc(=O)c3c(OC)c(OC)c(OC)cc3o2)cc1OC
REMARK SMILES IDX 7 1 8 2 9 3 10 4 11 5 12 6 15 7 18 8 21 9 22 10 23 11 6 12
REMARK SMILES IDX 3 13 25 14 4 15 24 16 5 17 2 18 1 19 26 20 27 21 13 22 14 23
REMARK SMILES IDX 19 24 20 25 16 26 17 27
REMARK H PARENT
REMARK Flexibility Score: inf
ROOT
ATOM      1  C   UNL     1     128.918 128.710 133.048  1.00  0.00     0.138 A 
ATOM      2  C   UNL     1     127.623 128.168 133.029  1.00  0.00     0.100 A 
ATOM      3  C   UNL     1     127.458 126.789 132.892  1.00  0.00     0.197 A 
ATOM      4  O   UNL     1     126.292 126.312 132.916  1.00  0.00    -0.289 OA
ATOM      5  C   UNL     1     128.593 125.960 132.760  1.00  0.00     0.111 A 
ATOM      6  C   UNL     1     128.515 124.555 132.581  1.00  0.00     0.179 A 
ATOM      7  C   UNL     1     129.701 123.778 132.579  1.00  0.00     0.204 A 
ATOM      8  C   UNL     1     130.950 124.414 132.637  1.00  0.00     0.168 A 
ATOM      9  C   UNL     1     131.021 125.812 132.745  1.00  0.00     0.098 A 
ATOM     10  C   UNL     1     129.861 126.578 132.823  1.00  0.00     0.146 A 
ATOM     11  O   UNL     1     129.966 127.896 132.957  1.00  0.00    -0.456 OA
ENDROOT
BRANCH   1  12
ATOM     12  C   UNL     1     129.155 130.169 133.191  1.00  0.00     0.021 A 
ATOM     13  C   UNL     1     129.665 132.935 133.444  1.00  0.00     0.160 A 
ATOM     14  C   UNL     1     130.709 132.013 133.611  1.00  0.00     0.161 A 
ATOM     15  C   UNL     1     128.371 132.471 133.143  1.00  0.00     0.051 A 
ATOM     16  C   UNL     1     130.449 130.635 133.480  1.00  0.00     0.062 A 
ATOM     17  C   UNL     1     128.121 131.104 133.014  1.00  0.00     0.016 A 
BRANCH  13  18
ATOM     18  O   UNL     1     129.953 134.302 133.583  1.00  0.00    -0.493 OA
ATOM     19  C   UNL     1     128.971 135.320 133.751  1.00  0.00     0.278 C 
ENDBRANCH  13  18
BRANCH  14  20
ATOM     20  O   UNL     1     131.989 132.506 133.907  1.00  0.00    -0.493 OA
ATOM     21  C   UNL     1     132.986 132.802 132.932  1.00  0.00     0.278 C 
ENDBRANCH  14  20
ENDBRANCH   1  12
BRANCH   6  22
ATOM     22  O   UNL     1     127.277 123.943 132.371  1.00  0.00    -0.492 OA
ATOM     23  C   UNL     1     126.883 123.505 131.075  1.00  0.00     0.278 C 
ENDBRANCH   6  22
BRANCH   8  24
ATOM     24  O   UNL     1     132.105 123.614 132.592  1.00  0.00    -0.493 OA
ATOM     25  C   UNL     1     132.774 123.226 131.397  1.00  0.00     0.278 C 
ENDBRANCH   8  24
BRANCH   7  26
ATOM     26  O   UNL     1     129.706 122.372 132.522  1.00  0.00    -0.490 OA
ATOM     27  C   UNL     1     129.502 121.489 133.620  1.00  0.00     0.278 C 
ENDBRANCH   7  26
TORSDOF 6
ENDMDL
MODEL 4
REMARK VINA RESULT:    -5.190      1.990      9.241
REMARK INTER + INTRA:          -7.530
REMARK INTER:                  -7.110
REMARK INTRA:                  -0.420
REMARK UNBOUND:                -0.519
REMARK SMILES COc1ccc(-c2cc(=O)c3c(OC)c(OC)c(OC)cc3o2)cc1OC
REMARK SMILES IDX 7 1 8 2 9 3 10 4 11 5 12 6 15 7 18 8 21 9 22 10 23 11 6 12
REMARK SMILES IDX 3 13 25 14 4 15 24 16 5 17 2 18 1 19 26 20 27 21 13 22 14 23
REMARK SMILES IDX 19 24 20 25 16 26 17 27
REMARK H PARENT
REMARK Flexibility Score: inf
ROOT
ATOM      1  C   UNL     1     130.252 128.340 132.815  1.00  0.00     0.138 A 
ATOM      2  C   UNL     1     131.141 127.290 133.093  1.00  0.00     0.100 A 
ATOM      3  C   UNL     1     130.659 125.982 133.159  1.00  0.00     0.197 A 
ATOM      4  O   UNL     1     131.474 125.045 133.371  1.00  0.00    -0.289 OA
ATOM      5  C   UNL     1     129.283 125.734 132.960  1.00  0.00     0.111 A 
ATOM      6  C   UNL     1     128.704 124.442 133.044  1.00  0.00     0.179 A 
ATOM      7  C   UNL     1     127.339 124.259 132.710  1.00  0.00     0.204 A 
ATOM      8  C   UNL     1     126.538 125.373 132.412  1.00  0.00     0.168 A 
ATOM      9  C   UNL     1     127.104 126.658 132.398  1.00  0.00     0.098 A 
ATOM     10  C   UNL     1     128.461 126.840 132.651  1.00  0.00     0.146 A 
ATOM     11  O   UNL     1     128.968 128.067 132.597  1.00  0.00    -0.456 OA
ENDROOT
BRANCH   1  12
ATOM     12  C   UNL     1     130.707 129.751 132.733  1.00  0.00     0.021 A 
ATOM     13  C   UNL     1     131.536 132.449 132.625  1.00  0.00     0.160 A 
ATOM     14  C   UNL     1     130.256 132.128 133.103  1.00  0.00     0.161 A 
ATOM     15  C   UNL     1     132.399 131.418 132.209  1.00  0.00     0.051 A 
ATOM     16  C   UNL     1     129.850 130.781 133.159  1.00  0.00     0.062 A 
ATOM     17  C   UNL     1     131.990 130.085 132.267  1.00  0.00     0.016 A 
BRANCH  13  18
ATOM     18  O   UNL     1     131.912 133.801 132.579  1.00  0.00    -0.493 OA
ATOM     19  C   UNL     1     132.721 134.446 133.557  1.00  0.00     0.278 C 
ENDBRANCH  13  18
BRANCH  14  20
ATOM     20  O   UNL     1     129.419 133.177 133.515  1.00  0.00    -0.493 OA
ATOM     21  C   UNL     1     128.144 133.001 134.125  1.00  0.00     0.278 C 
ENDBRANCH  14  20
ENDBRANCH   1  12
BRANCH   6  22
ATOM     22  O   UNL     1     129.467 123.360 133.488  1.00  0.00    -0.492 OA
ATOM     23  C   UNL     1     129.961 122.385 132.576  1.00  0.00     0.278 C 
ENDBRANCH   6  22
BRANCH   8  24
ATOM     24  O   UNL     1     125.180 125.157 132.125  1.00  0.00    -0.493 OA
ATOM     25  C   UNL     1     124.136 125.176 133.093  1.00  0.00     0.278 C 
ENDBRANCH   8  24
BRANCH   7  26
ATOM     26  O   UNL     1     126.716 122.998 132.656  1.00  0.00    -0.490 OA
ATOM     27  C   UNL     1     126.407 122.169 133.772  1.00  0.00     0.278 C 
ENDBRANCH   7  26
TORSDOF 6
ENDMDL
MODEL 5
REMARK VINA RESULT:    -5.189      1.689      8.356
REMARK INTER + INTRA:          -7.528
REMARK INTER:                  -6.872
REMARK INTRA:                  -0.656
REMARK UNBOUND:                -0.519
REMARK SMILES COc1ccc(-c2cc(=O)c3c(OC)c(OC)c(OC)cc3o2)cc1OC
REMARK SMILES IDX 7 1 8 2 9 3 10 4 11 5 12 6 15 7 18 8 21 9 22 10 23 11 6 12
REMARK SMILES IDX 3 13 25 14 4 15 24 16 5 17 2 18 1 19 26 20 27 21 13 22 14 23
REMARK SMILES IDX 19 24 20 25 16 26 17 27
REMARK H PARENT
REMARK Flexibility Score: inf
ROOT
ATOM      1  C   UNL     1     130.231 130.224 132.773  1.00  0.00     0.138 A 
ATOM      2  C   UNL     1     128.859 130.177 132.481  1.00  0.00     0.100 A 
ATOM      3  C   UNL     1     128.231 128.940 132.339  1.00  0.00     0.197 A 
ATOM      4  O   UNL     1     126.990 128.911 132.115  1.00  0.00    -0.289 OA
ATOM      5  C   UNL     1     128.983 127.753 132.475  1.00  0.00     0.111 A 
ATOM      6  C   UNL     1     128.432 126.457 132.311  1.00  0.00     0.179 A 
ATOM      7  C   UNL     1     129.225 125.315 132.585  1.00  0.00     0.204 A 
ATOM      8  C   UNL     1     130.584 125.469 132.903  1.00  0.00     0.168 A 
ATOM      9  C   UNL     1     131.140 126.754 132.996  1.00  0.00     0.098 A 
ATOM     10  C   UNL     1     130.351 127.886 132.802  1.00  0.00     0.146 A 
ATOM     11  O   UNL     1     130.904 129.087 132.930  1.00  0.00    -0.456 OA
ENDROOT
BRANCH   1  12
ATOM     12  C   UNL     1     130.955 131.511 132.935  1.00  0.00     0.021 A 
ATOM     13  C   UNL     1     132.291 133.974 133.290  1.00  0.00     0.160 A 
ATOM     14  C   UNL     1     130.931 133.862 133.618  1.00  0.00     0.161 A 
ATOM     15  C   UNL     1     132.979 132.851 132.793  1.00  0.00     0.051 A 
ATOM     16  C   UNL     1     130.271 132.630 133.443  1.00  0.00     0.062 A 
ATOM     17  C   UNL     1     132.319 131.634 132.622  1.00  0.00     0.016 A 
BRANCH  13  18
ATOM     18  O   UNL     1     132.922 135.215 133.473  1.00  0.00    -0.493 OA
ATOM     19  C   UNL     1     133.294 136.093 132.416  1.00  0.00     0.278 C 
ENDBRANCH  13  18
BRANCH  14  20
ATOM     20  O   UNL     1     130.273 134.997 134.115  1.00  0.00    -0.493 OA
ATOM     21  C   UNL     1     128.914 135.327 133.844  1.00  0.00     0.278 C 
ENDBRANCH  14  20
ENDBRANCH   1  12
BRANCH   6  22
ATOM     22  O   UNL     1     127.123 126.306 131.848  1.00  0.00    -0.492 OA
ATOM     23  C   UNL     1     126.860 125.880 130.514  1.00  0.00     0.278 C 
ENDBRANCH   6  22
BRANCH   8  24
ATOM     24  O   UNL     1     131.349 124.312 133.128  1.00  0.00    -0.493 OA
ATOM     25  C   UNL     1     132.138 123.658 132.139  1.00  0.00     0.278 C 
ENDBRANCH   8  24
BRANCH   7  26
ATOM     26  O   UNL     1     128.726 123.999 132.559  1.00  0.00    -0.490 OA
ATOM     27  C   UNL     1     127.983 123.365 133.595  1.00  0.00     0.278 C 
ENDBRANCH   7  26
TORSDOF 6
ENDMDL
MODEL 6
REMARK VINA RESULT:    -5.188      1.546      3.306
REMARK INTER + INTRA:          -7.527
REMARK INTER:                  -6.949
REMARK INTRA:                  -0.579
REMARK UNBOUND:                -0.519
REMARK SMILES COc1ccc(-c2cc(=O)c3c(OC)c(OC)c(OC)cc3o2)cc1OC
REMARK SMILES IDX 7 1 8 2 9 3 10 4 11 5 12 6 15 7 18 8 21 9 22 10 23 11 6 12
REMARK SMILES IDX 3 13 25 14 4 15 24 16 5 17 2 18 1 19 26 20 27 21 13 22 14 23
REMARK SMILES IDX 19 24 20 25 16 26 17 27
REMARK H PARENT
REMARK Flexibility Score: inf
ROOT
ATOM      1  C   UNL     1     130.817 131.045 133.035  1.00  0.00     0.138 A 
ATOM      2  C   UNL     1     132.128 131.545 133.007  1.00  0.00     0.100 A 
ATOM      3  C   UNL     1     132.336 132.918 132.878  1.00  0.00     0.197 A 
ATOM      4  O   UNL     1     133.517 133.357 132.892  1.00  0.00    -0.289 OA
ATOM      5  C   UNL     1     131.228 133.785 132.763  1.00  0.00     0.111 A 
ATOM      6  C   UNL     1     131.350 135.188 132.594  1.00  0.00     0.179 A 
ATOM      7  C   UNL     1     130.190 136.003 132.611  1.00  0.00     0.204 A 
ATOM      8  C   UNL     1     128.920 135.408 132.677  1.00  0.00     0.168 A 
ATOM      9  C   UNL     1     128.806 134.013 132.776  1.00  0.00     0.098 A 
ATOM     10  C   UNL     1     129.941 133.208 132.835  1.00  0.00     0.146 A 
ATOM     11  O   UNL     1     129.794 131.893 132.961  1.00  0.00    -0.456 OA
ENDROOT
BRANCH   1  12
ATOM     12  C   UNL     1     130.533 129.593 133.170  1.00  0.00     0.021 A 
ATOM     13  C   UNL     1     129.937 126.843 133.405  1.00  0.00     0.160 A 
ATOM     14  C   UNL     1     128.913 127.794 133.527  1.00  0.00     0.161 A 
ATOM     15  C   UNL     1     131.255 127.271 133.158  1.00  0.00     0.051 A 
ATOM     16  C   UNL     1     129.215 129.164 133.404  1.00  0.00     0.062 A 
ATOM     17  C   UNL     1     131.548 128.630 133.038  1.00  0.00     0.016 A 
BRANCH  13  18
ATOM     18  O   UNL     1     129.606 125.485 133.534  1.00  0.00    -0.493 OA
ATOM     19  C   UNL     1     130.486 124.484 134.036  1.00  0.00     0.278 C 
ENDBRANCH  13  18
BRANCH  14  20
ATOM     20  O   UNL     1     127.608 127.337 133.768  1.00  0.00    -0.493 OA
ATOM     21  C   UNL     1     126.666 127.007 132.751  1.00  0.00     0.278 C 
ENDBRANCH  14  20
ENDBRANCH   1  12
BRANCH   6  22
ATOM     22  O   UNL     1     132.605 135.761 132.376  1.00  0.00    -0.492 OA
ATOM     23  C   UNL     1     133.050 136.077 131.060  1.00  0.00     0.278 C 
ENDBRANCH   6  22
BRANCH   8  24
ATOM     24  O   UNL     1     127.792 136.245 132.651  1.00  0.00    -0.493 OA
ATOM     25  C   UNL     1     126.960 136.445 131.513  1.00  0.00     0.278 C 
ENDBRANCH   8  24
BRANCH   7  26
ATOM     26  O   UNL     1     130.229 137.409 132.564  1.00  0.00    -0.490 OA
ATOM     27  C   UNL     1     130.215 138.208 131.386  1.00  0.00     0.278 C 
ENDBRANCH   7  26
TORSDOF 6
ENDMDL
MODEL 7
REMARK VINA RESULT:    -5.157      2.022      8.970
REMARK INTER + INTRA:          -7.485
REMARK INTER:                  -6.810
REMARK INTRA:                  -0.675
REMARK UNBOUND:                -0.519
REMARK SMILES COc1ccc(-c2cc(=O)c3c(OC)c(OC)c(OC)cc3o2)cc1OC
REMARK SMILES IDX 7 1 8 2 9 3 10 4 11 5 12 6 15 7 18 8 21 9 22 10 23 11 6 12
REMARK SMILES IDX 3 13 25 14 4 15 24 16 5 17 2 18 1 19 26 20 27 21 13 22 14 23
REMARK SMILES IDX 19 24 20 25 16 26 17 27
REMARK H PARENT
REMARK Flexibility Score: inf
ROOT
ATOM      1  C   UNL     1     129.912 128.335 132.748  1.00  0.00     0.138 A 
ATOM      2  C   UNL     1     128.519 128.349 132.925  1.00  0.00     0.100 A 
ATOM      3  C   UNL     1     127.822 127.142 132.979  1.00  0.00     0.197 A 
ATOM      4  O   UNL     1     126.578 127.168 133.176  1.00  0.00    -0.289 OA
ATOM      5  C   UNL     1     128.522 125.924 132.841  1.00  0.00     0.111 A 
ATOM      6  C   UNL     1     127.889 124.655 132.848  1.00  0.00     0.179 A 
ATOM      7  C   UNL     1     128.674 123.476 132.828  1.00  0.00     0.204 A 
ATOM      8  C   UNL     1     130.067 123.567 132.682  1.00  0.00     0.168 A 
ATOM      9  C   UNL     1     130.681 124.827 132.606  1.00  0.00     0.098 A 
ATOM     10  C   UNL     1     129.926 125.994 132.700  1.00  0.00     0.146 A 
ATOM     11  O   UNL     1     130.546 127.169 132.657  1.00  0.00    -0.456 OA
ENDROOT
BRANCH   1  12
ATOM     12  C   UNL     1     130.707 129.588 132.683  1.00  0.00     0.021 A 
ATOM     13  C   UNL     1     132.199 131.984 132.615  1.00  0.00     0.160 A 
ATOM     14  C   UNL     1     131.034 131.907 133.393  1.00  0.00     0.161 A 
ATOM     15  C   UNL     1     132.618 130.860 131.880  1.00  0.00     0.051 A 
ATOM     16  C   UNL     1     130.296 130.708 133.426  1.00  0.00     0.062 A 
ATOM     17  C   UNL     1     131.882 129.675 131.917  1.00  0.00     0.016 A 
BRANCH  13  18
ATOM     18  O   UNL     1     132.913 133.194 132.600  1.00  0.00    -0.493 OA
ATOM     19  C   UNL     1     132.826 134.168 131.565  1.00  0.00     0.278 C 
ENDBRANCH  13  18
BRANCH  14  20
ATOM     20  O   UNL     1     130.644 133.043 134.119  1.00  0.00    -0.493 OA
ATOM     21  C   UNL     1     129.513 133.853 133.807  1.00  0.00     0.278 C 
ENDBRANCH  14  20
ENDBRANCH   1  12
BRANCH   6  22
ATOM     22  O   UNL     1     126.495 124.568 132.840  1.00  0.00    -0.492 OA
ATOM     23  C   UNL     1     125.786 124.232 131.651  1.00  0.00     0.278 C 
ENDBRANCH   6  22
BRANCH   8  24
ATOM     24  O   UNL     1     130.809 122.376 132.625  1.00  0.00    -0.493 OA
ATOM     25  C   UNL     1     131.267 121.765 131.423  1.00  0.00     0.278 C 
ENDBRANCH   8  24
BRANCH   7  26
ATOM     26  O   UNL     1     128.133 122.182 132.947  1.00  0.00    -0.490 OA
ATOM     27  C   UNL     1     127.565 121.617 134.125  1.00  0.00     0.278 C 
ENDBRANCH   7  26
TORSDOF 6
ENDMDL
MODEL 8
REMARK VINA RESULT:    -5.015      1.330      2.298
REMARK INTER + INTRA:          -7.293
REMARK INTER:                  -6.958
REMARK INTRA:                  -0.335
REMARK UNBOUND:                -0.519
REMARK SMILES COc1ccc(-c2cc(=O)c3c(OC)c(OC)c(OC)cc3o2)cc1OC
REMARK SMILES IDX 7 1 8 2 9 3 10 4 11 5 12 6 15 7 18 8 21 9 22 10 23 11 6 12
REMARK SMILES IDX 3 13 25 14 4 15 24 16 5 17 2 18 1 19 26 20 27 21 13 22 14 23
REMARK SMILES IDX 19 24 20 25 16 26 17 27
REMARK H PARENT
REMARK Flexibility Score: inf
ROOT
ATOM      1  C   UNL     1     129.359 131.593 133.196  1.00  0.00     0.138 A 
ATOM      2  C   UNL     1     128.456 132.638 133.443  1.00  0.00     0.100 A 
ATOM      3  C   UNL     1     128.937 133.938 133.598  1.00  0.00     0.197 A 
ATOM      4  O   UNL     1     128.112 134.873 133.782  1.00  0.00    -0.289 OA
ATOM      5  C   UNL     1     130.325 134.184 133.520  1.00  0.00     0.111 A 
ATOM      6  C   UNL     1     130.902 135.467 133.701  1.00  0.00     0.179 A 
ATOM      7  C   UNL     1     132.290 135.652 133.484  1.00  0.00     0.204 A 
ATOM      8  C   UNL     1     133.107 134.545 133.208  1.00  0.00     0.168 A 
ATOM      9  C   UNL     1     132.539 133.266 133.098  1.00  0.00     0.098 A 
ATOM     10  C   UNL     1     131.164 133.084 133.235  1.00  0.00     0.146 A 
ATOM     11  O   UNL     1     130.658 131.863 133.093  1.00  0.00    -0.456 OA
ENDROOT
BRANCH   1  12
ATOM     12  C   UNL     1     128.906 130.189 133.023  1.00  0.00     0.021 A 
ATOM     13  C   UNL     1     128.068 127.506 132.749  1.00  0.00     0.160 A 
ATOM     14  C   UNL     1     129.206 127.809 133.511  1.00  0.00     0.161 A 
ATOM     15  C   UNL     1     127.349 128.547 132.132  1.00  0.00     0.051 A 
ATOM     16  C   UNL     1     129.616 129.150 133.648  1.00  0.00     0.062 A 
ATOM     17  C   UNL     1     127.761 129.873 132.271  1.00  0.00     0.016 A 
BRANCH  13  18
ATOM     18  O   UNL     1     127.684 126.161 132.628  1.00  0.00    -0.493 OA
ATOM     19  C   UNL     1     126.548 125.586 133.266  1.00  0.00     0.278 C 
ENDBRANCH  13  18
BRANCH  14  20
ATOM     20  O   UNL     1     129.900 126.751 134.118  1.00  0.00    -0.493 OA
ATOM     21  C   UNL     1     131.146 126.234 133.660  1.00  0.00     0.278 C 
ENDBRANCH  14  20
ENDBRANCH   1  12
BRANCH   6  22
ATOM     22  O   UNL     1     130.110 136.537 134.125  1.00  0.00    -0.492 OA
ATOM     23  C   UNL     1     129.608 137.493 133.196  1.00  0.00     0.278 C 
ENDBRANCH   6  22
BRANCH   8  24
ATOM     24  O   UNL     1     134.485 134.760 133.040  1.00  0.00    -0.493 OA
ATOM     25  C   UNL     1     135.506 134.025 133.705  1.00  0.00     0.278 C 
ENDBRANCH   8  24
BRANCH   7  26
ATOM     26  O   UNL     1     132.921 136.909 133.530  1.00  0.00    -0.490 OA
ATOM     27  C   UNL     1     132.952 137.869 132.479  1.00  0.00     0.278 C 
ENDBRANCH   7  26
TORSDOF 6
ENDMDL
MODEL 9
REMARK VINA RESULT:    -4.956      1.796      3.729
REMARK INTER + INTRA:          -7.213
REMARK INTER:                  -6.658
REMARK INTRA:                  -0.555
REMARK UNBOUND:                -0.519
REMARK SMILES COc1ccc(-c2cc(=O)c3c(OC)c(OC)c(OC)cc3o2)cc1OC
REMARK SMILES IDX 7 1 8 2 9 3 10 4 11 5 12 6 15 7 18 8 21 9 22 10 23 11 6 12
REMARK SMILES IDX 3 13 25 14 4 15 24 16 5 17 2 18 1 19 26 20 27 21 13 22 14 23
REMARK SMILES IDX 19 24 20 25 16 26 17 27
REMARK H PARENT
REMARK Flexibility Score: inf
ROOT
ATOM      1  C   UNL     1     129.941 131.117 132.948  1.00  0.00     0.138 A 
ATOM      2  C   UNL     1     131.259 131.386 133.349  1.00  0.00     0.100 A 
ATOM      3  C   UNL     1     131.675 132.709 133.493  1.00  0.00     0.197 A 
ATOM      4  O   UNL     1     132.850 132.936 133.891  1.00  0.00    -0.289 OA
ATOM      5  C   UNL     1     130.773 133.760 133.219  1.00  0.00     0.111 A 
ATOM      6  C   UNL     1     131.123 135.131 133.306  1.00  0.00     0.179 A 
ATOM      7  C   UNL     1     130.127 136.125 133.135  1.00  0.00     0.204 A 
ATOM      8  C   UNL     1     128.825 135.751 132.766  1.00  0.00     0.168 A 
ATOM      9  C   UNL     1     128.503 134.393 132.615  1.00  0.00     0.098 A 
ATOM     10  C   UNL     1     129.456 133.405 132.853  1.00  0.00     0.146 A 
ATOM     11  O   UNL     1     129.106 132.129 132.732  1.00  0.00    -0.456 OA
ENDROOT
BRANCH   1  12
ATOM     12  C   UNL     1     129.442 129.728 132.777  1.00  0.00     0.021 A 
ATOM     13  C   UNL     1     128.540 127.068 132.486  1.00  0.00     0.160 A 
ATOM     14  C   UNL     1     129.909 127.329 132.647  1.00  0.00     0.161 A 
ATOM     15  C   UNL     1     127.626 128.138 132.479  1.00  0.00     0.051 A 
ATOM     16  C   UNL     1     130.352 128.658 132.796  1.00  0.00     0.062 A 
ATOM     17  C   UNL     1     128.072 129.452 132.627  1.00  0.00     0.016 A 
BRANCH  13  18
ATOM     18  O   UNL     1     128.127 125.734 132.338  1.00  0.00    -0.493 OA
ATOM     19  C   UNL     1     127.248 125.271 131.317  1.00  0.00     0.278 C 
ENDBRANCH  13  18
BRANCH  14  20
ATOM     20  O   UNL     1     130.796 126.241 132.654  1.00  0.00    -0.493 OA
ATOM     21  C   UNL     1     131.249 125.576 133.829  1.00  0.00     0.278 C 
ENDBRANCH  14  20
ENDBRANCH   1  12
BRANCH   6  22
ATOM     22  O   UNL     1     132.452 135.502 133.523  1.00  0.00    -0.492 OA
ATOM     23  C   UNL     1     133.291 135.898 132.443  1.00  0.00     0.278 C 
ENDBRANCH   6  22
BRANCH   8  24
ATOM     24  O   UNL     1     127.874 136.765 132.566  1.00  0.00    -0.493 OA
ATOM     25  C   UNL     1     126.813 136.704 131.618  1.00  0.00     0.278 C 
ENDBRANCH   8  24
BRANCH   7  26
ATOM     26  O   UNL     1     130.364 137.500 133.317  1.00  0.00    -0.490 OA
ATOM     27  C   UNL     1     130.750 138.424 132.304  1.00  0.00     0.278 C 
ENDBRANCH   7  26
TORSDOF 6
ENDMDL
