MODEL 1
REMARK VINA RESULT:    -2.396      0.000      0.000
REMARK INTER + INTRA:          -2.215
REMARK INTER:                  -2.956
REMARK INTRA:                   0.742
REMARK UNBOUND:                 0.742
REMARK SMILES CC1=CC=CC(C)(C)CC1=O
REMARK SMILES IDX 1 1 2 2 3 3 10 4 11 5 9 6 4 8 5 9 6 10 7 11 8 12
REMARK H PARENT
REMARK Flexibility Score: 80.00
ROOT
ATOM      1  C   UNL     1      62.687   8.022  31.381  1.00  0.00     0.048 C 
ATOM      2  C   UNL     1      61.572   7.099  31.814  1.00  0.00    -0.008 C 
ATOM      3  C   UNL     1      60.397   7.660  32.172  1.00  0.00     0.007 C 
ENDROOT
BRANCH   2   4
ATOM      4  C   UNL     1      61.835   5.640  31.739  1.00  0.00     0.159 C 
ATOM      5  O   UNL     1      62.871   5.239  31.138  1.00  0.00    -0.295 OA
BRANCH   4   6
ATOM      6  C   UNL     1      60.943   4.606  32.352  1.00  0.00     0.091 CG0
ATOM      7  G   UNL     1      59.506   4.628  31.785  1.00  0.00     0.000 G0
ENDBRANCH   4   6
ENDBRANCH   2   4
BRANCH   3   8
ATOM      8  C   UNL     1      59.133   7.024  32.610  1.00  0.00    -0.003 C 
ATOM      9  C   UNL     1      58.725   5.759  32.450  1.00  0.00    -0.020 C 
BRANCH   9  10
ATOM     10  C   UNL     1      59.500   4.643  31.788  1.00  0.00    -0.010 CG0
ATOM     11  C   UNL     1      59.444   4.800  30.251  1.00  0.00     0.016 C 
ATOM     12  C   UNL     1      58.826   3.301  32.155  1.00  0.00     0.016 C 
ATOM     13  G   UNL     1      60.946   4.619  32.333  1.00  0.00     0.000 G0
ENDBRANCH   9  10
ENDBRANCH   3   8
TORSDOF 0
ENDMDL
MODEL 2
REMARK VINA RESULT:    -2.320     21.302     22.722
REMARK INTER + INTRA:          -2.121
REMARK INTER:                  -2.865
REMARK INTRA:                   0.744
REMARK UNBOUND:                 0.742
REMARK SMILES CC1=CC=CC(C)(C)CC1=O
REMARK SMILES IDX 1 1 2 2 3 3 10 4 11 5 9 6 4 8 5 9 6 10 7 11 8 12
REMARK H PARENT
REMARK Flexibility Score: 80.00
ROOT
ATOM      1  C   UNL     1      72.723  11.862  46.791  1.00  0.00     0.048 C 
ATOM      2  C   UNL     1      74.108  11.288  46.977  1.00  0.00    -0.008 C 
ATOM      3  C   UNL     1      75.126  11.879  46.316  1.00  0.00     0.007 C 
ENDROOT
BRANCH   2   4
ATOM      4  C   UNL     1      74.250  10.162  47.934  1.00  0.00     0.159 C 
ATOM      5  O   UNL     1      73.282   9.887  48.698  1.00  0.00    -0.295 OA
BRANCH   4   6
ATOM      6  C   UNL     1      75.480   9.314  48.038  1.00  0.00     0.091 CG0
ATOM      7  G   UNL     1      76.743  10.119  48.420  1.00  0.00     0.000 G0
ENDBRANCH   4   6
ENDBRANCH   2   4
BRANCH   3   8
ATOM      8  C   UNL     1      76.574  11.565  46.319  1.00  0.00    -0.003 C 
ATOM      9  C   UNL     1      77.278  10.839  47.197  1.00  0.00    -0.020 C 
BRANCH   9  10
ATOM     10  C   UNL     1      76.734  10.126  48.414  1.00  0.00    -0.010 CG0
ATOM     11  C   UNL     1      76.483  11.142  49.552  1.00  0.00     0.016 C 
ATOM     12  C   UNL     1      77.799   9.117  48.901  1.00  0.00     0.016 C 
ATOM     13  G   UNL     1      75.463   9.336  48.029  1.00  0.00     0.000 G0
ENDBRANCH   9  10
ENDBRANCH   3   8
TORSDOF 0
ENDMDL
MODEL 3
REMARK VINA RESULT:    -2.252      1.703      3.160
REMARK INTER + INTRA:          -2.038
REMARK INTER:                  -2.787
REMARK INTRA:                   0.750
REMARK UNBOUND:                 0.742
REMARK SMILES CC1=CC=CC(C)(C)CC1=O
REMARK SMILES IDX 1 1 2 2 3 3 10 4 11 5 9 6 4 8 5 9 6 10 7 11 8 12
REMARK H PARENT
REMARK Flexibility Score: 80.00
ROOT
ATOM      1  C   UNL     1      59.680   2.798  30.057  1.00  0.00     0.048 C 
ATOM      2  C   UNL     1      59.768   4.157  30.710  1.00  0.00    -0.008 C 
ATOM      3  C   UNL     1      58.986   5.141  30.217  1.00  0.00     0.007 C 
ENDROOT
BRANCH   2   4
ATOM      4  C   UNL     1      60.656   4.283  31.892  1.00  0.00     0.159 C 
ATOM      5  O   UNL     1      61.129   3.233  32.413  1.00  0.00    -0.295 OA
BRANCH   4   6
ATOM      6  C   UNL     1      61.041   5.595  32.502  1.00  0.00     0.091 CG0
ATOM      7  G   UNL     1      59.828   6.416  32.995  1.00  0.00     0.000 G0
ENDBRANCH   4   6
ENDBRANCH   2   4
BRANCH   3   8
ATOM      8  C   UNL     1      58.835   6.548  30.655  1.00  0.00    -0.003 C 
ATOM      9  C   UNL     1      59.170   7.107  31.825  1.00  0.00    -0.020 C 
BRANCH   9  10
ATOM     10  C   UNL     1      59.827   6.415  32.997  1.00  0.00    -0.010 CG0
ATOM     11  C   UNL     1      58.785   5.563  33.758  1.00  0.00     0.016 C 
ATOM     12  C   UNL     1      60.358   7.497  33.964  1.00  0.00     0.016 C 
ATOM     13  G   UNL     1      61.030   5.581  32.501  1.00  0.00     0.000 G0
ENDBRANCH   9  10
ENDBRANCH   3   8
TORSDOF 0
ENDMDL
MODEL 4
REMARK VINA RESULT:    -2.213      1.903      3.885
REMARK INTER + INTRA:          -1.989
REMARK INTER:                  -2.742
REMARK INTRA:                   0.753
REMARK UNBOUND:                 0.742
REMARK SMILES CC1=CC=CC(C)(C)CC1=O
REMARK SMILES IDX 1 1 2 2 3 3 10 4 11 5 9 6 4 8 5 9 6 10 7 11 8 12
REMARK H PARENT
REMARK Flexibility Score: 80.00
ROOT
ATOM      1  C   UNL     1      59.724   4.042  29.911  1.00  0.00     0.048 C 
ATOM      2  C   UNL     1      60.508   4.724  31.006  1.00  0.00    -0.008 C 
ATOM      3  C   UNL     1      61.612   4.099  31.469  1.00  0.00     0.007 C 
ENDROOT
BRANCH   2   4
ATOM      4  C   UNL     1      60.043   6.066  31.436  1.00  0.00     0.159 C 
ATOM      5  O   UNL     1      59.153   6.648  30.755  1.00  0.00    -0.295 OA
BRANCH   4   6
ATOM      6  C   UNL     1      60.562   6.772  32.650  1.00  0.00     0.091 CG0
ATOM      7  G   UNL     1      62.088   7.013  32.609  1.00  0.00     0.000 G0
ENDBRANCH   4   6
ENDBRANCH   2   4
BRANCH   3   8
ATOM      8  C   UNL     1      62.584   4.523  32.503  1.00  0.00    -0.003 C 
ATOM      9  C   UNL     1      62.818   5.749  32.989  1.00  0.00    -0.020 C 
BRANCH   9  10
ATOM     10  C   UNL     1      62.101   7.021  32.600  1.00  0.00    -0.010 CG0
ATOM     11  C   UNL     1      62.601   7.509  31.221  1.00  0.00     0.016 C 
ATOM     12  C   UNL     1      62.443   8.109  33.644  1.00  0.00     0.016 C 
ATOM     13  G   UNL     1      60.573   6.787  32.632  1.00  0.00     0.000 G0
ENDBRANCH   9  10
ENDBRANCH   3   8
TORSDOF 0
ENDMDL
MODEL 5
REMARK VINA RESULT:    -2.198     21.034     22.367
REMARK INTER + INTRA:          -1.970
REMARK INTER:                  -2.716
REMARK INTRA:                   0.746
REMARK UNBOUND:                 0.742
REMARK SMILES CC1=CC=CC(C)(C)CC1=O
REMARK SMILES IDX 1 1 2 2 3 3 10 4 11 5 9 6 4 8 5 9 6 10 7 11 8 12
REMARK H PARENT
REMARK Flexibility Score: 80.00
ROOT
ATOM      1  C   UNL     1      77.717  11.084  49.821  1.00  0.00     0.048 C 
ATOM      2  C   UNL     1      76.831  11.027  48.599  1.00  0.00    -0.008 C 
ATOM      3  C   UNL     1      77.431  10.958  47.391  1.00  0.00     0.007 C 
ENDROOT
BRANCH   2   4
ATOM      4  C   UNL     1      75.365  10.977  48.828  1.00  0.00     0.159 C 
ATOM      5  O   UNL     1      74.940  10.796  50.004  1.00  0.00    -0.295 OA
BRANCH   4   6
ATOM      6  C   UNL     1      74.351  11.143  47.740  1.00  0.00     0.091 CG0
ATOM      7  G   UNL     1      74.490  10.094  46.613  1.00  0.00     0.000 G0
ENDBRANCH   4   6
ENDBRANCH   2   4
BRANCH   3   8
ATOM      8  C   UNL     1      76.838  10.867  46.037  1.00  0.00    -0.003 C 
ATOM      9  C   UNL     1      75.602  10.496  45.680  1.00  0.00    -0.020 C 
BRANCH   9  10
ATOM     10  C   UNL     1      74.479  10.100  46.611  1.00  0.00    -0.010 CG0
ATOM     11  C   UNL     1      74.706   8.661  47.129  1.00  0.00     0.016 C 
ATOM     12  C   UNL     1      73.157  10.117  45.811  1.00  0.00     0.016 C 
ATOM     13  G   UNL     1      74.362  11.134  47.755  1.00  0.00     0.000 G0
ENDBRANCH   9  10
ENDBRANCH   3   8
TORSDOF 0
ENDMDL
MODEL 6
REMARK VINA RESULT:    -2.185      8.848     10.048
REMARK INTER + INTRA:          -1.954
REMARK INTER:                  -2.709
REMARK INTRA:                   0.754
REMARK UNBOUND:                 0.742
REMARK SMILES CC1=CC=CC(C)(C)CC1=O
REMARK SMILES IDX 1 1 2 2 3 3 10 4 11 5 9 6 4 8 5 9 6 10 7 11 8 12
REMARK H PARENT
REMARK Flexibility Score: 80.00
ROOT
ATOM      1  C   UNL     1      69.867   3.609  30.232  1.00  0.00     0.048 C 
ATOM      2  C   UNL     1      69.459   3.010  31.557  1.00  0.00    -0.008 C 
ATOM      3  C   UNL     1      68.167   2.649  31.712  1.00  0.00     0.007 C 
ENDROOT
BRANCH   2   4
ATOM      4  C   UNL     1      70.532   2.798  32.562  1.00  0.00     0.159 C 
ATOM      5  O   UNL     1      71.735   2.939  32.205  1.00  0.00    -0.295 OA
BRANCH   4   6
ATOM      6  C   UNL     1      70.268   2.437  33.990  1.00  0.00     0.091 CG0
ATOM      7  G   UNL     1      69.474   1.120  34.149  1.00  0.00     0.000 G0
ENDBRANCH   4   6
ENDBRANCH   2   4
BRANCH   3   8
ATOM      8  C   UNL     1      67.485   2.022  32.868  1.00  0.00    -0.003 C 
ATOM      9  C   UNL     1      68.017   1.363  33.905  1.00  0.00    -0.020 C 
BRANCH   9  10
ATOM     10  C   UNL     1      69.487   1.122  34.158  1.00  0.00    -0.010 CG0
ATOM     11  C   UNL     1      70.003  -0.006  33.235  1.00  0.00     0.016 C 
ATOM     12  C   UNL     1      69.657   0.655  35.622  1.00  0.00     0.016 C 
ATOM     13  G   UNL     1      70.269   2.443  33.981  1.00  0.00     0.000 G0
ENDBRANCH   9  10
ENDBRANCH   3   8
TORSDOF 0
ENDMDL
MODEL 7
REMARK VINA RESULT:    -2.090      2.139      3.511
REMARK INTER + INTRA:          -1.838
REMARK INTER:                  -2.582
REMARK INTRA:                   0.745
REMARK UNBOUND:                 0.742
REMARK SMILES CC1=CC=CC(C)(C)CC1=O
REMARK SMILES IDX 1 1 2 2 3 3 10 4 11 5 9 6 4 8 5 9 6 10 7 11 8 12
REMARK H PARENT
REMARK Flexibility Score: 80.00
ROOT
ATOM      1  C   UNL     1      57.960   7.702  31.961  1.00  0.00     0.048 C 
ATOM      2  C   UNL     1      59.156   6.794  32.128  1.00  0.00    -0.008 C 
ATOM      3  C   UNL     1      59.541   6.063  31.060  1.00  0.00     0.007 C 
ENDROOT
BRANCH   2   4
ATOM      4  C   UNL     1      59.859   6.835  33.434  1.00  0.00     0.159 C 
ATOM      5  O   UNL     1      59.567   7.750  34.254  1.00  0.00    -0.295 OA
BRANCH   4   6
ATOM      6  C   UNL     1      60.895   5.837  33.848  1.00  0.00     0.091 CG0
ATOM      7  G   UNL     1      62.123   5.810  32.910  1.00  0.00     0.000 G0
ENDBRANCH   4   6
ENDBRANCH   2   4
BRANCH   3   8
ATOM      8  C   UNL     1      60.672   5.117  30.911  1.00  0.00    -0.003 C 
ATOM      9  C   UNL     1      61.773   4.995  31.663  1.00  0.00    -0.020 C 
BRANCH   9  10
ATOM     10  C   UNL     1      62.114   5.801  32.895  1.00  0.00    -0.010 CG0
ATOM     11  C   UNL     1      62.609   7.207  32.485  1.00  0.00     0.016 C 
ATOM     12  C   UNL     1      63.267   5.087  33.638  1.00  0.00     0.016 C 
ATOM     13  G   UNL     1      60.892   5.850  33.840  1.00  0.00     0.000 G0
ENDBRANCH   9  10
ENDBRANCH   3   8
TORSDOF 0
ENDMDL
MODEL 8
REMARK VINA RESULT:    -2.075     14.575     15.075
REMARK INTER + INTRA:          -1.818
REMARK INTER:                  -2.565
REMARK INTRA:                   0.747
REMARK UNBOUND:                 0.742
REMARK SMILES CC1=CC=CC(C)(C)CC1=O
REMARK SMILES IDX 1 1 2 2 3 3 10 4 11 5 9 6 4 8 5 9 6 10 7 11 8 12
REMARK H PARENT
REMARK Flexibility Score: 80.00
ROOT
ATOM      1  C   UNL     1      61.183   5.839  46.677  1.00  0.00     0.048 C 
ATOM      2  C   UNL     1      60.310   4.621  46.866  1.00  0.00    -0.008 C 
ATOM      3  C   UNL     1      58.984   4.818  47.031  1.00  0.00     0.007 C 
ENDROOT
BRANCH   2   4
ATOM      4  C   UNL     1      60.972   3.295  46.781  1.00  0.00     0.159 C 
ATOM      5  O   UNL     1      62.165   3.236  46.369  1.00  0.00    -0.295 OA
BRANCH   4   6
ATOM      6  C   UNL     1      60.308   2.011  47.171  1.00  0.00     0.091 CG0
ATOM      7  G   UNL     1      59.023   1.720  46.362  1.00  0.00     0.000 G0
ENDBRANCH   4   6
ENDBRANCH   2   4
BRANCH   3   8
ATOM      8  C   UNL     1      57.890   3.836  47.210  1.00  0.00    -0.003 C 
ATOM      9  C   UNL     1      57.876   2.528  46.925  1.00  0.00    -0.020 C 
BRANCH   9  10
ATOM     10  C   UNL     1      59.022   1.718  46.363  1.00  0.00    -0.010 CG0
ATOM     11  C   UNL     1      59.171   1.995  44.849  1.00  0.00     0.016 C 
ATOM     12  C   UNL     1      58.691   0.219  46.544  1.00  0.00     0.016 C 
ATOM     13  G   UNL     1      60.313   2.025  47.155  1.00  0.00     0.000 G0
ENDBRANCH   9  10
ENDBRANCH   3   8
TORSDOF 0
ENDMDL
MODEL 9
REMARK VINA RESULT:    -2.046      9.046     10.653
REMARK INTER + INTRA:          -1.783
REMARK INTER:                  -2.529
REMARK INTRA:                   0.746
REMARK UNBOUND:                 0.742
REMARK SMILES CC1=CC=CC(C)(C)CC1=O
REMARK SMILES IDX 1 1 2 2 3 3 10 4 11 5 9 6 4 8 5 9 6 10 7 11 8 12
REMARK H PARENT
REMARK Flexibility Score: 80.00
ROOT
ATOM      1  C   UNL     1      67.390   1.375  32.961  1.00  0.00     0.048 C 
ATOM      2  C   UNL     1      68.618   2.119  32.492  1.00  0.00    -0.008 C 
ATOM      3  C   UNL     1      68.508   2.869  31.375  1.00  0.00     0.007 C 
ENDROOT
BRANCH   2   4
ATOM      4  C   UNL     1      69.831   2.024  33.342  1.00  0.00     0.159 C 
ATOM      5  O   UNL     1      69.732   1.501  34.488  1.00  0.00    -0.295 OA
BRANCH   4   6
ATOM      6  C   UNL     1      71.182   2.504  32.912  1.00  0.00     0.091 CG0
ATOM      7  G   UNL     1      71.212   4.012  32.572  1.00  0.00     0.000 G0
ENDBRANCH   4   6
ENDBRANCH   2   4
BRANCH   3   8
ATOM      8  C   UNL     1      69.514   3.718  30.695  1.00  0.00    -0.003 C 
ATOM      9  C   UNL     1      70.657   4.220  31.177  1.00  0.00    -0.020 C 
BRANCH   9  10
ATOM     10  C   UNL     1      71.219   4.006  32.564  1.00  0.00    -0.010 CG0
ATOM     11  C   UNL     1      70.460   4.888  33.582  1.00  0.00     0.016 C 
ATOM     12  C   UNL     1      72.701   4.448  32.560  1.00  0.00     0.016 C 
ATOM     13  G   UNL     1      71.166   2.503  32.920  1.00  0.00     0.000 G0
ENDBRANCH   9  10
ENDBRANCH   3   8
TORSDOF 0
ENDMDL
