MODEL 1
REMARK VINA RESULT:    -5.823      0.000      0.000
REMARK INTER + INTRA:         -11.381
REMARK INTER:                  -8.886
REMARK INTRA:                  -2.494
REMARK UNBOUND:                -2.494
REMARK SMILES CC(=O)CCC=C(C)CCC=C(C)CCC=C(C)C
REMARK SMILES IDX 10 1 11 2 12 3 13 4 14 5 15 6 16 7 18 8 17 9 19 10 9 11 7 12
REMARK SMILES IDX 6 13 8 14 5 15 4 16 2 17 3 18 1 19
REMARK H PARENT
REMARK Flexibility Score: inf
ROOT
ATOM      1  C   UNL     1     -10.343 -15.531  29.626  1.00  0.00     0.032 C 
ENDROOT
BRANCH   1   2
ATOM      2  C   UNL     1      -9.876 -16.166  30.914  1.00  0.00    -0.028 C 
ATOM      3  C   UNL     1     -10.643 -16.376  32.010  1.00  0.00    -0.077 C 
ATOM      4  C   UNL     1     -10.018 -17.077  33.188  1.00  0.00     0.039 C 
BRANCH   3   5
ATOM      5  C   UNL     1     -12.095 -15.944  32.116  1.00  0.00     0.034 C 
BRANCH   5   6
ATOM      6  C   UNL     1     -13.025 -17.162  32.215  1.00  0.00     0.032 C 
BRANCH   6   7
ATOM      7  C   UNL     1     -13.197 -17.814  30.865  1.00  0.00    -0.028 C 
ATOM      8  C   UNL     1     -13.078 -19.600  29.183  1.00  0.00     0.039 C 
ATOM      9  C   UNL     1     -12.896 -19.102  30.593  1.00  0.00    -0.080 C 
ATOM     10  C   UNL     1     -12.405 -20.052  31.660  1.00  0.00     0.039 C 
ENDBRANCH   6   7
ENDBRANCH   5   6
ENDBRANCH   3   5
ENDBRANCH   1   2
BRANCH   1  11
ATOM     11  C   UNL     1     -10.724 -16.585  28.580  1.00  0.00     0.034 C 
BRANCH  11  12
ATOM     12  C   UNL     1     -12.000 -16.197  27.865  1.00  0.00    -0.077 C 
ATOM     13  C   UNL     1     -12.822 -15.290  28.442  1.00  0.00    -0.028 C 
ATOM     14  C   UNL     1     -12.322 -16.834  26.534  1.00  0.00     0.039 C 
BRANCH  13  15
ATOM     15  C   UNL     1     -14.097 -14.778  27.819  1.00  0.00     0.035 C 
BRANCH  15  16
ATOM     16  C   UNL     1     -14.459 -13.400  28.383  1.00  0.00     0.079 C 
BRANCH  16  17
ATOM     17  C   UNL     1     -15.483 -13.524  29.477  1.00  0.00     0.130 C 
ATOM     18  O   UNL     1     -16.652 -13.249  29.250  1.00  0.00    -0.300 OA
ATOM     19  C   UNL     1     -15.078 -13.968  30.850  1.00  0.00     0.087 C 
ENDBRANCH  16  17
ENDBRANCH  15  16
ENDBRANCH  13  15
ENDBRANCH  11  12
ENDBRANCH   1  11
TORSDOF 9
ENDMDL
MODEL 2
REMARK VINA RESULT:    -5.714      1.721      3.668
REMARK INTER + INTRA:         -11.214
REMARK INTER:                  -9.155
REMARK INTRA:                  -2.059
REMARK UNBOUND:                -2.494
REMARK SMILES CC(=O)CCC=C(C)CCC=C(C)CCC=C(C)C
REMARK SMILES IDX 10 1 11 2 12 3 13 4 14 5 15 6 16 7 18 8 17 9 19 10 9 11 7 12
REMARK SMILES IDX 6 13 8 14 5 15 4 16 2 17 3 18 1 19
REMARK H PARENT
REMARK Flexibility Score: inf
ROOT
ATOM      1  C   UNL     1     -13.520 -16.298  32.668  1.00  0.00     0.032 C 
ENDROOT
BRANCH   1   2
ATOM      2  C   UNL     1     -12.328 -15.855  33.482  1.00  0.00    -0.028 C 
ATOM      3  C   UNL     1     -11.045 -15.834  33.049  1.00  0.00    -0.077 C 
ATOM      4  C   UNL     1      -9.990 -15.304  33.986  1.00  0.00     0.039 C 
BRANCH   3   5
ATOM      5  C   UNL     1     -10.613 -16.314  31.675  1.00  0.00     0.034 C 
BRANCH   5   6
ATOM      6  C   UNL     1     -10.506 -17.845  31.636  1.00  0.00     0.032 C 
BRANCH   6   7
ATOM      7  C   UNL     1     -11.193 -18.397  30.410  1.00  0.00    -0.028 C 
ATOM      8  C   UNL     1     -12.807 -19.736  29.131  1.00  0.00     0.039 C 
ATOM      9  C   UNL     1     -12.256 -19.229  30.439  1.00  0.00    -0.080 C 
ATOM     10  C   UNL     1     -12.913 -19.645  31.734  1.00  0.00     0.039 C 
ENDBRANCH   6   7
ENDBRANCH   5   6
ENDBRANCH   3   5
ENDBRANCH   1   2
BRANCH   1  11
ATOM     11  C   UNL     1     -14.440 -15.121  32.322  1.00  0.00     0.034 C 
BRANCH  11  12
ATOM     12  C   UNL     1     -14.300 -14.739  30.864  1.00  0.00    -0.077 C 
ATOM     13  C   UNL     1     -13.382 -15.381  30.105  1.00  0.00    -0.028 C 
ATOM     14  C   UNL     1     -15.185 -13.653  30.299  1.00  0.00     0.039 C 
BRANCH  13  15
ATOM     15  C   UNL     1     -13.172 -15.136  28.632  1.00  0.00     0.035 C 
BRANCH  15  16
ATOM     16  C   UNL     1     -11.939 -15.892  28.128  1.00  0.00     0.079 C 
BRANCH  16  17
ATOM     17  C   UNL     1     -12.252 -16.638  26.860  1.00  0.00     0.130 C 
ATOM     18  O   UNL     1     -13.396 -16.652  26.431  1.00  0.00    -0.300 OA
ATOM     19  C   UNL     1     -11.174 -17.378  26.128  1.00  0.00     0.087 C 
ENDBRANCH  16  17
ENDBRANCH  15  16
ENDBRANCH  13  15
ENDBRANCH  11  12
ENDBRANCH   1  11
TORSDOF 9
ENDMDL
MODEL 3
REMARK VINA RESULT:    -5.611      2.326      5.499
REMARK INTER + INTRA:         -11.058
REMARK INTER:                  -9.024
REMARK INTRA:                  -2.034
REMARK UNBOUND:                -2.494
REMARK SMILES CC(=O)CCC=C(C)CCC=C(C)CCC=C(C)C
REMARK SMILES IDX 10 1 11 2 12 3 13 4 14 5 15 6 16 7 18 8 17 9 19 10 9 11 7 12
REMARK SMILES IDX 6 13 8 14 5 15 4 16 2 17 3 18 1 19
REMARK H PARENT
REMARK Flexibility Score: inf
ROOT
ATOM      1  C   UNL     1     -13.765 -15.817  33.156  1.00  0.00     0.032 C 
ENDROOT
BRANCH   1   2
ATOM      2  C   UNL     1     -14.456 -14.787  32.295  1.00  0.00    -0.028 C 
ATOM      3  C   UNL     1     -14.386 -14.718  30.945  1.00  0.00    -0.077 C 
ATOM      4  C   UNL     1     -15.192 -13.652  30.247  1.00  0.00     0.039 C 
BRANCH   3   5
ATOM      5  C   UNL     1     -13.541 -15.653  30.097  1.00  0.00     0.034 C 
BRANCH   5   6
ATOM      6  C   UNL     1     -12.948 -14.914  28.889  1.00  0.00     0.032 C 
BRANCH   6   7
ATOM      7  C   UNL     1     -11.985 -15.802  28.140  1.00  0.00    -0.028 C 
ATOM      8  C   UNL     1     -11.237 -17.378  26.411  1.00  0.00     0.039 C 
ATOM      9  C   UNL     1     -12.293 -16.494  27.022  1.00  0.00    -0.080 C 
ATOM     10  C   UNL     1     -13.650 -16.391  26.365  1.00  0.00     0.039 C 
ENDBRANCH   6   7
ENDBRANCH   5   6
ENDBRANCH   3   5
ENDBRANCH   1   2
BRANCH   1  11
ATOM     11  C   UNL     1     -12.326 -15.406  33.488  1.00  0.00     0.034 C 
BRANCH  11  12
ATOM     12  C   UNL     1     -11.333 -16.293  32.769  1.00  0.00    -0.077 C 
ATOM     13  C   UNL     1     -11.728 -17.523  32.367  1.00  0.00    -0.028 C 
ATOM     14  C   UNL     1      -9.933 -15.784  32.522  1.00  0.00     0.039 C 
BRANCH  13  15
ATOM     15  C   UNL     1     -10.860 -18.488  31.598  1.00  0.00     0.035 C 
BRANCH  15  16
ATOM     16  C   UNL     1     -11.354 -18.628  30.154  1.00  0.00     0.079 C 
BRANCH  16  17
ATOM     17  C   UNL     1     -12.539 -19.549  30.082  1.00  0.00     0.130 C 
ATOM     18  O   UNL     1     -12.677 -20.428  30.920  1.00  0.00    -0.300 OA
ATOM     19  C   UNL     1     -13.545 -19.408  28.981  1.00  0.00     0.087 C 
ENDBRANCH  16  17
ENDBRANCH  15  16
ENDBRANCH  13  15
ENDBRANCH  11  12
ENDBRANCH   1  11
TORSDOF 9
ENDMDL
MODEL 4
REMARK VINA RESULT:    -5.552      3.279      5.775
REMARK INTER + INTRA:         -10.968
REMARK INTER:                  -9.768
REMARK INTRA:                  -1.200
REMARK UNBOUND:                -2.494
REMARK SMILES CC(=O)CCC=C(C)CCC=C(C)CCC=C(C)C
REMARK SMILES IDX 10 1 11 2 12 3 13 4 14 5 15 6 16 7 18 8 17 9 19 10 9 11 7 12
REMARK SMILES IDX 6 13 8 14 5 15 4 16 2 17 3 18 1 19
REMARK H PARENT
REMARK Flexibility Score: inf
ROOT
ATOM      1  C   UNL     1     -12.925 -17.501  32.007  1.00  0.00     0.032 C 
ENDROOT
BRANCH   1   2
ATOM      2  C   UNL     1     -13.237 -18.535  30.952  1.00  0.00    -0.028 C 
ATOM      3  C   UNL     1     -12.426 -18.877  29.923  1.00  0.00    -0.077 C 
ATOM      4  C   UNL     1     -12.881 -19.976  28.998  1.00  0.00     0.039 C 
BRANCH   3   5
ATOM      5  C   UNL     1     -11.086 -18.216  29.652  1.00  0.00     0.034 C 
BRANCH   5   6
ATOM      6  C   UNL     1     -11.151 -17.338  28.394  1.00  0.00     0.032 C 
BRANCH   6   7
ATOM      7  C   UNL     1     -11.950 -16.086  28.657  1.00  0.00    -0.028 C 
ATOM      8  C   UNL     1     -13.674 -14.379  28.270  1.00  0.00     0.039 C 
ATOM      9  C   UNL     1     -13.001 -15.679  27.913  1.00  0.00    -0.080 C 
ATOM     10  C   UNL     1     -13.527 -16.495  26.755  1.00  0.00     0.039 C 
ENDBRANCH   6   7
ENDBRANCH   5   6
ENDBRANCH   3   5
ENDBRANCH   1   2
BRANCH   1  11
ATOM     11  C   UNL     1     -13.309 -16.089  31.550  1.00  0.00     0.034 C 
BRANCH  11  12
ATOM     12  C   UNL     1     -13.794 -15.258  32.718  1.00  0.00    -0.077 C 
ATOM     13  C   UNL     1     -12.941 -15.002  33.737  1.00  0.00    -0.028 C 
ATOM     14  C   UNL     1     -15.213 -14.741  32.716  1.00  0.00     0.039 C 
BRANCH  13  15
ATOM     15  C   UNL     1     -13.275 -14.149  34.935  1.00  0.00     0.035 C 
BRANCH  15  16
ATOM     16  C   UNL     1     -12.011 -13.822  35.737  1.00  0.00     0.079 C 
BRANCH  16  17
ATOM     17  C   UNL     1     -12.218 -12.595  36.581  1.00  0.00     0.130 C 
ATOM     18  O   UNL     1     -13.094 -12.585  37.433  1.00  0.00    -0.300 OA
ATOM     19  C   UNL     1     -11.367 -11.379  36.375  1.00  0.00     0.087 C 
ENDBRANCH  16  17
ENDBRANCH  15  16
ENDBRANCH  13  15
ENDBRANCH  11  12
ENDBRANCH   1  11
TORSDOF 9
ENDMDL
MODEL 5
REMARK VINA RESULT:    -5.547      3.191      5.277
REMARK INTER + INTRA:         -10.959
REMARK INTER:                  -9.454
REMARK INTRA:                  -1.505
REMARK UNBOUND:                -2.494
REMARK SMILES CC(=O)CCC=C(C)CCC=C(C)CCC=C(C)C
REMARK SMILES IDX 10 1 11 2 12 3 13 4 14 5 15 6 16 7 18 8 17 9 19 10 9 11 7 12
REMARK SMILES IDX 6 13 8 14 5 15 4 16 2 17 3 18 1 19
REMARK H PARENT
REMARK Flexibility Score: inf
ROOT
ATOM      1  C   UNL     1     -13.226 -15.078  29.801  1.00  0.00     0.032 C 
ENDROOT
BRANCH   1   2
ATOM      2  C   UNL     1     -12.841 -15.757  28.509  1.00  0.00    -0.028 C 
ATOM      3  C   UNL     1     -11.665 -16.385  28.272  1.00  0.00    -0.077 C 
ATOM      4  C   UNL     1     -11.478 -17.059  26.937  1.00  0.00     0.039 C 
BRANCH   3   5
ATOM      5  C   UNL     1     -10.527 -16.448  29.276  1.00  0.00     0.034 C 
BRANCH   5   6
ATOM      6  C   UNL     1     -10.090 -17.899  29.521  1.00  0.00     0.032 C 
BRANCH   6   7
ATOM      7  C   UNL     1     -10.832 -18.489  30.696  1.00  0.00    -0.028 C 
ATOM      8  C   UNL     1     -12.601 -19.732  31.861  1.00  0.00     0.039 C 
ATOM      9  C   UNL     1     -11.942 -19.252  30.594  1.00  0.00    -0.080 C 
ATOM     10  C   UNL     1     -12.522 -19.648  29.257  1.00  0.00     0.039 C 
ENDBRANCH   6   7
ENDBRANCH   5   6
ENDBRANCH   3   5
ENDBRANCH   1   2
BRANCH   1  11
ATOM     11  C   UNL     1     -13.480 -16.092  30.922  1.00  0.00     0.034 C 
BRANCH  11  12
ATOM     12  C   UNL     1     -13.786 -15.388  32.226  1.00  0.00    -0.077 C 
ATOM     13  C   UNL     1     -12.851 -15.387  33.203  1.00  0.00    -0.028 C 
ATOM     14  C   UNL     1     -15.125 -14.710  32.400  1.00  0.00     0.039 C 
BRANCH  13  15
ATOM     15  C   UNL     1     -13.004 -14.684  34.529  1.00  0.00     0.035 C 
BRANCH  15  16
ATOM     16  C   UNL     1     -11.639 -14.247  35.070  1.00  0.00     0.079 C 
BRANCH  16  17
ATOM     17  C   UNL     1     -11.792 -13.515  36.375  1.00  0.00     0.130 C 
ATOM     18  O   UNL     1     -11.789 -14.140  37.425  1.00  0.00    -0.300 OA
ATOM     19  C   UNL     1     -11.965 -12.027  36.396  1.00  0.00     0.087 C 
ENDBRANCH  16  17
ENDBRANCH  15  16
ENDBRANCH  13  15
ENDBRANCH  11  12
ENDBRANCH   1  11
TORSDOF 9
ENDMDL
MODEL 6
REMARK VINA RESULT:    -5.513      2.338      4.712
REMARK INTER + INTRA:         -10.909
REMARK INTER:                  -8.941
REMARK INTRA:                  -1.967
REMARK UNBOUND:                -2.494
REMARK SMILES CC(=O)CCC=C(C)CCC=C(C)CCC=C(C)C
REMARK SMILES IDX 10 1 11 2 12 3 13 4 14 5 15 6 16 7 18 8 17 9 19 10 9 11 7 12
REMARK SMILES IDX 6 13 8 14 5 15 4 16 2 17 3 18 1 19
REMARK H PARENT
REMARK Flexibility Score: inf
ROOT
ATOM      1  C   UNL     1     -11.280 -16.427  32.688  1.00  0.00     0.032 C 
ENDROOT
BRANCH   1   2
ATOM      2  C   UNL     1     -11.800 -15.370  33.633  1.00  0.00    -0.028 C 
ATOM      3  C   UNL     1     -13.100 -15.026  33.788  1.00  0.00    -0.077 C 
ATOM      4  C   UNL     1     -13.438 -13.985  34.824  1.00  0.00     0.039 C 
BRANCH   3   5
ATOM      5  C   UNL     1     -14.233 -15.630  32.977  1.00  0.00     0.034 C 
BRANCH   5   6
ATOM      6  C   UNL     1     -14.727 -14.647  31.906  1.00  0.00     0.032 C 
BRANCH   6   7
ATOM      7  C   UNL     1     -13.975 -14.844  30.613  1.00  0.00    -0.028 C 
ATOM      8  C   UNL     1     -13.492 -14.600  28.217  1.00  0.00     0.039 C 
ATOM      9  C   UNL     1     -14.313 -14.272  29.437  1.00  0.00    -0.080 C 
ATOM     10  C   UNL     1     -15.469 -13.307  29.318  1.00  0.00     0.039 C 
ENDBRANCH   6   7
ENDBRANCH   5   6
ENDBRANCH   3   5
ENDBRANCH   1   2
BRANCH   1  11
ATOM     11  C   UNL     1     -10.237 -15.859  31.718  1.00  0.00     0.034 C 
BRANCH  11  12
ATOM     12  C   UNL     1     -10.546 -16.267  30.295  1.00  0.00    -0.077 C 
ATOM     13  C   UNL     1     -11.317 -17.357  30.080  1.00  0.00    -0.028 C 
ATOM     14  C   UNL     1      -9.985 -15.449  29.155  1.00  0.00     0.039 C 
BRANCH  13  15
ATOM     15  C   UNL     1     -11.744 -17.845  28.718  1.00  0.00     0.035 C 
BRANCH  15  16
ATOM     16  C   UNL     1     -13.228 -18.224  28.719  1.00  0.00     0.079 C 
BRANCH  16  17
ATOM     17  C   UNL     1     -13.415 -19.650  29.157  1.00  0.00     0.130 C 
ATOM     18  O   UNL     1     -13.810 -20.484  28.356  1.00  0.00    -0.300 OA
ATOM     19  C   UNL     1     -13.135 -20.053  30.573  1.00  0.00     0.087 C 
ENDBRANCH  16  17
ENDBRANCH  15  16
ENDBRANCH  13  15
ENDBRANCH  11  12
ENDBRANCH   1  11
TORSDOF 9
ENDMDL
MODEL 7
REMARK VINA RESULT:    -5.466      3.129      5.807
REMARK INTER + INTRA:         -10.836
REMARK INTER:                  -9.098
REMARK INTRA:                  -1.738
REMARK UNBOUND:                -2.494
REMARK SMILES CC(=O)CCC=C(C)CCC=C(C)CCC=C(C)C
REMARK SMILES IDX 10 1 11 2 12 3 13 4 14 5 15 6 16 7 18 8 17 9 19 10 9 11 7 12
REMARK SMILES IDX 6 13 8 14 5 15 4 16 2 17 3 18 1 19
REMARK H PARENT
REMARK Flexibility Score: inf
ROOT
ATOM      1  C   UNL     1     -12.498 -17.972  32.119  1.00  0.00     0.032 C 
ENDROOT
BRANCH   1   2
ATOM      2  C   UNL     1     -13.227 -18.541  30.926  1.00  0.00    -0.028 C 
ATOM      3  C   UNL     1     -12.683 -18.760  29.705  1.00  0.00    -0.077 C 
ATOM      4  C   UNL     1     -13.551 -19.391  28.647  1.00  0.00     0.039 C 
BRANCH   3   5
ATOM      5  C   UNL     1     -11.251 -18.406  29.346  1.00  0.00     0.034 C 
BRANCH   5   6
ATOM      6  C   UNL     1     -11.209 -17.341  28.241  1.00  0.00     0.032 C 
BRANCH   6   7
ATOM      7  C   UNL     1     -12.006 -16.124  28.641  1.00  0.00    -0.028 C 
ATOM      8  C   UNL     1     -13.710 -14.368  28.436  1.00  0.00     0.039 C 
ATOM      9  C   UNL     1     -13.039 -15.619  27.934  1.00  0.00    -0.080 C 
ATOM     10  C   UNL     1     -13.546 -16.281  26.673  1.00  0.00     0.039 C 
ENDBRANCH   6   7
ENDBRANCH   5   6
ENDBRANCH   3   5
ENDBRANCH   1   2
BRANCH   1  11
ATOM     11  C   UNL     1     -12.558 -16.440  32.145  1.00  0.00     0.034 C 
BRANCH  11  12
ATOM     12  C   UNL     1     -11.283 -15.860  32.716  1.00  0.00    -0.077 C 
ATOM     13  C   UNL     1     -11.313 -15.304  33.949  1.00  0.00    -0.028 C 
ATOM     14  C   UNL     1     -10.015 -15.917  31.896  1.00  0.00     0.039 C 
BRANCH  13  15
ATOM     15  C   UNL     1     -10.109 -14.736  34.658  1.00  0.00     0.035 C 
BRANCH  15  16
ATOM     16  C   UNL     1     -10.453 -13.401  35.326  1.00  0.00     0.079 C 
BRANCH  16  17
ATOM     17  C   UNL     1     -11.583 -13.570  36.304  1.00  0.00     0.130 C 
ATOM     18  O   UNL     1     -11.437 -14.286  37.283  1.00  0.00    -0.300 OA
ATOM     19  C   UNL     1     -12.893 -12.880  36.077  1.00  0.00     0.087 C 
ENDBRANCH  16  17
ENDBRANCH  15  16
ENDBRANCH  13  15
ENDBRANCH  11  12
ENDBRANCH   1  11
TORSDOF 9
ENDMDL
MODEL 8
REMARK VINA RESULT:    -5.350      2.172      4.762
REMARK INTER + INTRA:         -10.660
REMARK INTER:                  -9.289
REMARK INTRA:                  -1.371
REMARK UNBOUND:                -2.494
REMARK SMILES CC(=O)CCC=C(C)CCC=C(C)CCC=C(C)C
REMARK SMILES IDX 10 1 11 2 12 3 13 4 14 5 15 6 16 7 18 8 17 9 19 10 9 11 7 12
REMARK SMILES IDX 6 13 8 14 5 15 4 16 2 17 3 18 1 19
REMARK H PARENT
REMARK Flexibility Score: inf
ROOT
ATOM      1  C   UNL     1     -12.300 -18.993  32.044  1.00  0.00     0.032 C 
ENDROOT
BRANCH   1   2
ATOM      2  C   UNL     1     -13.253 -17.823  32.091  1.00  0.00    -0.028 C 
ATOM      3  C   UNL     1     -12.896 -16.518  32.048  1.00  0.00    -0.077 C 
ATOM      4  C   UNL     1     -13.992 -15.483  32.048  1.00  0.00     0.039 C 
BRANCH   3   5
ATOM      5  C   UNL     1     -11.455 -16.040  31.999  1.00  0.00     0.034 C 
BRANCH   5   6
ATOM      6  C   UNL     1     -10.888 -15.857  33.414  1.00  0.00     0.032 C 
BRANCH   6   7
ATOM      7  C   UNL     1     -11.723 -14.877  34.201  1.00  0.00    -0.028 C 
ATOM      8  C   UNL     1     -12.258 -13.295  36.002  1.00  0.00     0.039 C 
ATOM      9  C   UNL     1     -11.292 -14.207  35.291  1.00  0.00    -0.080 C 
ATOM     10  C   UNL     1      -9.875 -14.333  35.800  1.00  0.00     0.039 C 
ENDBRANCH   6   7
ENDBRANCH   5   6
ENDBRANCH   3   5
ENDBRANCH   1   2
BRANCH   1  11
ATOM     11  C   UNL     1     -12.670 -19.982  30.932  1.00  0.00     0.034 C 
BRANCH  11  12
ATOM     12  C   UNL     1     -12.631 -19.308  29.578  1.00  0.00    -0.077 C 
ATOM     13  C   UNL     1     -11.597 -18.486  29.286  1.00  0.00    -0.028 C 
ATOM     14  C   UNL     1     -13.745 -19.570  28.592  1.00  0.00     0.039 C 
BRANCH  13  15
ATOM     15  C   UNL     1     -11.407 -17.791  27.961  1.00  0.00     0.035 C 
BRANCH  15  16
ATOM     16  C   UNL     1     -11.443 -16.270  28.137  1.00  0.00     0.079 C 
BRANCH  16  17
ATOM     17  C   UNL     1     -12.820 -15.733  27.859  1.00  0.00     0.130 C 
ATOM     18  O   UNL     1     -13.278 -14.843  28.561  1.00  0.00    -0.300 OA
ATOM     19  C   UNL     1     -13.642 -16.293  26.739  1.00  0.00     0.087 C 
ENDBRANCH  16  17
ENDBRANCH  15  16
ENDBRANCH  13  15
ENDBRANCH  11  12
ENDBRANCH   1  11
TORSDOF 9
ENDMDL
