MODEL 1
REMARK VINA RESULT:    -3.093      0.000      0.000
REMARK INTER + INTRA:          -5.102
REMARK INTER:                  -4.359
REMARK INTRA:                  -0.743
REMARK UNBOUND:                -0.743
REMARK SMILES C=CCCCCCCC(=O)[O-]
REMARK SMILES IDX 6 1 7 2 8 3 9 4 10 5 11 6 5 7 4 8 3 9 2 10 1 11
REMARK H PARENT
REMARK Flexibility Score: inf
ROOT
ATOM      1  C   UNL     1      10.752  -4.953  -1.201  1.00  0.00     0.000 C 
ENDROOT
BRANCH   1   2
ATOM      2  C   UNL     1      11.488  -5.952  -2.116  1.00  0.00     0.006 C 
BRANCH   2   3
ATOM      3  C   UNL     1      11.937  -5.354  -3.462  1.00  0.00     0.053 C 
BRANCH   3   4
ATOM      4  C   UNL     1      12.962  -4.273  -3.294  1.00  0.00     0.041 C 
ATOM      5  O   UNL     1      13.998  -4.481  -2.610  1.00  0.00    -0.550 OA
ATOM      6  O   UNL     1      12.789  -3.046  -3.923  1.00  0.00    -0.550 OA
ENDBRANCH   3   4
ENDBRANCH   2   3
ENDBRANCH   1   2
BRANCH   1   7
ATOM      7  C   UNL     1       9.275  -5.286  -0.917  1.00  0.00     0.000 C 
BRANCH   7   8
ATOM      8  C   UNL     1       8.274  -4.786  -1.978  1.00  0.00     0.004 C 
BRANCH   8   9
ATOM      9  C   UNL     1       8.555  -3.367  -2.501  1.00  0.00     0.027 C 
BRANCH   9  10
ATOM     10  C   UNL     1       8.913  -3.348  -3.963  1.00  0.00    -0.035 C 
ATOM     11  C   UNL     1       8.448  -4.267  -4.813  1.00  0.00     0.004 C 
ENDBRANCH   9  10
ENDBRANCH   8   9
ENDBRANCH   7   8
ENDBRANCH   1   7
TORSDOF 7
ENDMDL
MODEL 2
REMARK VINA RESULT:    -3.012      1.048      1.356
REMARK INTER + INTRA:          -4.987
REMARK INTER:                  -4.322
REMARK INTRA:                  -0.666
REMARK UNBOUND:                -0.743
REMARK SMILES C=CCCCCCCC(=O)[O-]
REMARK SMILES IDX 6 1 7 2 8 3 9 4 10 5 11 6 5 7 4 8 3 9 2 10 1 11
REMARK H PARENT
REMARK Flexibility Score: inf
ROOT
ATOM      1  C   UNL     1      11.229  -4.582  -0.752  1.00  0.00     0.000 C 
ENDROOT
BRANCH   1   2
ATOM      2  C   UNL     1      12.568  -5.255  -1.113  1.00  0.00     0.006 C 
BRANCH   2   3
ATOM      3  C   UNL     1      13.450  -4.423  -2.061  1.00  0.00     0.053 C 
BRANCH   3   4
ATOM      4  C   UNL     1      12.814  -4.218  -3.402  1.00  0.00     0.041 C 
ATOM      5  O   UNL     1      12.968  -3.130  -4.018  1.00  0.00    -0.550 OA
ATOM      6  O   UNL     1      12.078  -5.240  -3.989  1.00  0.00    -0.550 OA
ENDBRANCH   3   4
ENDBRANCH   2   3
ENDBRANCH   1   2
BRANCH   1   7
ATOM      7  C   UNL     1       9.980  -5.466  -0.928  1.00  0.00     0.000 C 
BRANCH   7   8
ATOM      8  C   UNL     1       8.969  -4.971  -1.982  1.00  0.00     0.004 C 
BRANCH   8   9
ATOM      9  C   UNL     1       9.249  -3.557  -2.519  1.00  0.00     0.027 C 
BRANCH   9  10
ATOM     10  C   UNL     1       8.830  -3.388  -3.955  1.00  0.00    -0.035 C 
ATOM     11  C   UNL     1       8.676  -4.435  -4.771  1.00  0.00     0.004 C 
ENDBRANCH   9  10
ENDBRANCH   8   9
ENDBRANCH   7   8
ENDBRANCH   1   7
TORSDOF 7
ENDMDL
MODEL 3
REMARK VINA RESULT:    -2.758      1.654      3.159
REMARK INTER + INTRA:          -4.630
REMARK INTER:                  -4.231
REMARK INTRA:                  -0.399
REMARK UNBOUND:                -0.743
REMARK SMILES C=CCCCCCCC(=O)[O-]
REMARK SMILES IDX 6 1 7 2 8 3 9 4 10 5 11 6 5 7 4 8 3 9 2 10 1 11
REMARK H PARENT
REMARK Flexibility Score: inf
ROOT
ATOM      1  C   UNL     1      10.543  -4.417  -1.557  1.00  0.00     0.000 C 
ENDROOT
BRANCH   1   2
ATOM      2  C   UNL     1      10.472  -4.670  -3.075  1.00  0.00     0.006 C 
BRANCH   2   3
ATOM      3  C   UNL     1      11.793  -5.171  -3.688  1.00  0.00     0.053 C 
BRANCH   3   4
ATOM      4  C   UNL     1      12.932  -4.229  -3.441  1.00  0.00     0.041 C 
ATOM      5  O   UNL     1      12.948  -3.095  -3.988  1.00  0.00    -0.550 OA
ATOM      6  O   UNL     1      13.960  -4.590  -2.579  1.00  0.00    -0.550 OA
ENDBRANCH   3   4
ENDBRANCH   2   3
ENDBRANCH   1   2
BRANCH   1   7
ATOM      7  C   UNL     1       9.688  -5.363  -0.691  1.00  0.00     0.000 C 
BRANCH   7   8
ATOM      8  C   UNL     1       8.483  -6.001  -1.412  1.00  0.00     0.004 C 
BRANCH   8   9
ATOM      9  C   UNL     1       7.199  -6.070  -0.567  1.00  0.00     0.027 C 
BRANCH   9  10
ATOM     10  C   UNL     1       7.371  -5.461   0.799  1.00  0.00    -0.035 C 
ATOM     11  C   UNL     1       7.035  -6.120   1.911  1.00  0.00     0.004 C 
ENDBRANCH   9  10
ENDBRANCH   8   9
ENDBRANCH   7   8
ENDBRANCH   1   7
TORSDOF 7
ENDMDL
MODEL 4
REMARK VINA RESULT:    -2.654     13.032     14.207
REMARK INTER + INTRA:          -4.483
REMARK INTER:                  -3.813
REMARK INTRA:                  -0.670
REMARK UNBOUND:                -0.743
REMARK SMILES C=CCCCCCCC(=O)[O-]
REMARK SMILES IDX 6 1 7 2 8 3 9 4 10 5 11 6 5 7 4 8 3 9 2 10 1 11
REMARK H PARENT
REMARK Flexibility Score: inf
ROOT
ATOM      1  C   UNL     1      16.515   2.724   7.598  1.00  0.00     0.000 C 
ENDROOT
BRANCH   1   2
ATOM      2  C   UNL     1      17.763   3.626   7.652  1.00  0.00     0.006 C 
BRANCH   2   3
ATOM      3  C   UNL     1      19.078   2.860   7.886  1.00  0.00     0.053 C 
BRANCH   3   4
ATOM      4  C   UNL     1      20.124   3.194   6.866  1.00  0.00     0.041 C 
ATOM      5  O   UNL     1      20.422   2.364   5.967  1.00  0.00    -0.550 OA
ATOM      6  O   UNL     1      20.747   4.436   6.887  1.00  0.00    -0.550 OA
ENDBRANCH   3   4
ENDBRANCH   2   3
ENDBRANCH   1   2
BRANCH   1   7
ATOM      7  C   UNL     1      16.315   1.803   8.816  1.00  0.00     0.000 C 
BRANCH   7   8
ATOM      8  C   UNL     1      16.324   0.292   8.506  1.00  0.00     0.004 C 
BRANCH   8   9
ATOM      9  C   UNL     1      15.935  -0.064   7.061  1.00  0.00     0.027 C 
BRANCH   9  10
ATOM     10  C   UNL     1      17.006  -0.843   6.346  1.00  0.00    -0.035 C 
ATOM     11  C   UNL     1      18.303  -0.560   6.500  1.00  0.00     0.004 C 
ENDBRANCH   9  10
ENDBRANCH   8   9
ENDBRANCH   7   8
ENDBRANCH   1   7
TORSDOF 7
ENDMDL
MODEL 5
REMARK VINA RESULT:    -2.638      1.300      2.600
REMARK INTER + INTRA:          -4.460
REMARK INTER:                  -3.943
REMARK INTRA:                  -0.517
REMARK UNBOUND:                -0.743
REMARK SMILES C=CCCCCCCC(=O)[O-]
REMARK SMILES IDX 6 1 7 2 8 3 9 4 10 5 11 6 5 7 4 8 3 9 2 10 1 11
REMARK H PARENT
REMARK Flexibility Score: inf
ROOT
ATOM      1  C   UNL     1       9.223  -4.893  -4.071  1.00  0.00     0.000 C 
ENDROOT
BRANCH   1   2
ATOM      2  C   UNL     1      10.674  -5.348  -3.815  1.00  0.00     0.006 C 
BRANCH   2   3
ATOM      3  C   UNL     1      11.436  -4.469  -2.808  1.00  0.00     0.053 C 
BRANCH   3   4
ATOM      4  C   UNL     1      12.799  -4.085  -3.299  1.00  0.00     0.041 C 
ATOM      5  O   UNL     1      12.952  -3.057  -4.009  1.00  0.00    -0.550 OA
ATOM      6  O   UNL     1      13.907  -4.845  -2.944  1.00  0.00    -0.550 OA
ENDBRANCH   3   4
ENDBRANCH   2   3
ENDBRANCH   1   2
BRANCH   1   7
ATOM      7  C   UNL     1       8.989  -3.372  -4.001  1.00  0.00     0.000 C 
BRANCH   7   8
ATOM      8  C   UNL     1       8.032  -2.907  -2.884  1.00  0.00     0.004 C 
BRANCH   8   9
ATOM      9  C   UNL     1       7.588  -4.021  -1.920  1.00  0.00     0.027 C 
BRANCH   9  10
ATOM     10  C   UNL     1       6.147  -4.412  -2.111  1.00  0.00    -0.035 C 
ATOM     11  C   UNL     1       5.767  -5.692  -2.163  1.00  0.00     0.004 C 
ENDBRANCH   9  10
ENDBRANCH   8   9
ENDBRANCH   7   8
ENDBRANCH   1   7
TORSDOF 7
ENDMDL
MODEL 6
REMARK VINA RESULT:    -2.628      2.880      4.388
REMARK INTER + INTRA:          -4.446
REMARK INTER:                  -3.681
REMARK INTRA:                  -0.766
REMARK UNBOUND:                -0.743
REMARK SMILES C=CCCCCCCC(=O)[O-]
REMARK SMILES IDX 6 1 7 2 8 3 9 4 10 5 11 6 5 7 4 8 3 9 2 10 1 11
REMARK H PARENT
REMARK Flexibility Score: inf
ROOT
ATOM      1  C   UNL     1       9.413  -5.779  -2.465  1.00  0.00     0.000 C 
ENDROOT
BRANCH   1   2
ATOM      2  C   UNL     1       9.729  -4.920  -3.706  1.00  0.00     0.006 C 
BRANCH   2   3
ATOM      3  C   UNL     1       9.273  -3.454  -3.584  1.00  0.00     0.053 C 
BRANCH   3   4
ATOM      4  C   UNL     1       7.806  -3.332  -3.304  1.00  0.00     0.041 C 
ATOM      5  O   UNL     1       7.406  -2.885  -2.196  1.00  0.00    -0.550 OA
ATOM      6  O   UNL     1       6.879  -3.678  -4.280  1.00  0.00    -0.550 OA
ENDBRANCH   3   4
ENDBRANCH   2   3
ENDBRANCH   1   2
BRANCH   1   7
ATOM      7  C   UNL     1      10.066  -5.304  -1.153  1.00  0.00     0.000 C 
BRANCH   7   8
ATOM      8  C   UNL     1      11.541  -5.714  -0.968  1.00  0.00     0.004 C 
BRANCH   8   9
ATOM      9  C   UNL     1      12.483  -4.555  -0.599  1.00  0.00     0.027 C 
BRANCH   9  10
ATOM     10  C   UNL     1      12.863  -3.717  -1.790  1.00  0.00    -0.035 C 
ATOM     11  C   UNL     1      13.294  -4.266  -2.928  1.00  0.00     0.004 C 
ENDBRANCH   9  10
ENDBRANCH   8   9
ENDBRANCH   7   8
ENDBRANCH   1   7
TORSDOF 7
ENDMDL
MODEL 7
REMARK VINA RESULT:    -2.619     11.537     12.970
REMARK INTER + INTRA:          -4.434
REMARK INTER:                  -3.991
REMARK INTRA:                  -0.443
REMARK UNBOUND:                -0.743
REMARK SMILES C=CCCCCCCC(=O)[O-]
REMARK SMILES IDX 6 1 7 2 8 3 9 4 10 5 11 6 5 7 4 8 3 9 2 10 1 11
REMARK H PARENT
REMARK Flexibility Score: inf
ROOT
ATOM      1  C   UNL     1      15.900  -0.362   6.853  1.00  0.00     0.000 C 
ENDROOT
BRANCH   1   2
ATOM      2  C   UNL     1      15.198  -1.229   7.917  1.00  0.00     0.006 C 
BRANCH   2   3
ATOM      3  C   UNL     1      15.488  -2.735   7.786  1.00  0.00     0.053 C 
BRANCH   3   4
ATOM      4  C   UNL     1      15.221  -3.253   6.405  1.00  0.00     0.041 C 
ATOM      5  O   UNL     1      14.042  -3.304   5.964  1.00  0.00    -0.550 OA
ATOM      6  O   UNL     1      16.276  -3.646   5.592  1.00  0.00    -0.550 OA
ENDBRANCH   3   4
ENDBRANCH   2   3
ENDBRANCH   1   2
BRANCH   1   7
ATOM      7  C   UNL     1      17.344   0.056   7.194  1.00  0.00     0.000 C 
BRANCH   7   8
ATOM      8  C   UNL     1      17.482   1.033   8.380  1.00  0.00     0.004 C 
BRANCH   8   9
ATOM      9  C   UNL     1      16.697   2.346   8.218  1.00  0.00     0.027 C 
BRANCH   9  10
ATOM     10  C   UNL     1      17.522   3.441   7.596  1.00  0.00    -0.035 C 
ATOM     11  C   UNL     1      18.854   3.455   7.685  1.00  0.00     0.004 C 
ENDBRANCH   9  10
ENDBRANCH   8   9
ENDBRANCH   7   8
ENDBRANCH   1   7
TORSDOF 7
ENDMDL
MODEL 8
REMARK VINA RESULT:    -2.613     12.325     13.716
REMARK INTER + INTRA:          -4.425
REMARK INTER:                  -3.728
REMARK INTRA:                  -0.697
REMARK UNBOUND:                -0.743
REMARK SMILES C=CCCCCCCC(=O)[O-]
REMARK SMILES IDX 6 1 7 2 8 3 9 4 10 5 11 6 5 7 4 8 3 9 2 10 1 11
REMARK H PARENT
REMARK Flexibility Score: inf
ROOT
ATOM      1  C   UNL     1      16.613   1.574   8.747  1.00  0.00     0.000 C 
ENDROOT
BRANCH   1   2
ATOM      2  C   UNL     1      16.491   0.128   8.225  1.00  0.00     0.006 C 
BRANCH   2   3
ATOM      3  C   UNL     1      15.869   0.021   6.821  1.00  0.00     0.053 C 
BRANCH   3   4
ATOM      4  C   UNL     1      16.285  -1.228   6.104  1.00  0.00     0.041 C 
ATOM      5  O   UNL     1      17.434  -1.317   5.599  1.00  0.00    -0.550 OA
ATOM      6  O   UNL     1      15.414  -2.309   6.025  1.00  0.00    -0.550 OA
ENDBRANCH   3   4
ENDBRANCH   2   3
ENDBRANCH   1   2
BRANCH   1   7
ATOM      7  C   UNL     1      16.567   2.670   7.665  1.00  0.00     0.000 C 
BRANCH   7   8
ATOM      8  C   UNL     1      17.775   3.628   7.650  1.00  0.00     0.004 C 
BRANCH   8   9
ATOM      9  C   UNL     1      19.099   2.992   8.108  1.00  0.00     0.027 C 
BRANCH   9  10
ATOM     10  C   UNL     1      19.881   2.397   6.967  1.00  0.00    -0.035 C 
ATOM     11  C   UNL     1      19.803   1.099   6.663  1.00  0.00     0.004 C 
ENDBRANCH   9  10
ENDBRANCH   8   9
ENDBRANCH   7   8
ENDBRANCH   1   7
TORSDOF 7
ENDMDL
MODEL 9
REMARK VINA RESULT:    -2.587      9.861     11.623
REMARK INTER + INTRA:          -4.389
REMARK INTER:                  -3.619
REMARK INTRA:                  -0.769
REMARK UNBOUND:                -0.743
REMARK SMILES C=CCCCCCCC(=O)[O-]
REMARK SMILES IDX 6 1 7 2 8 3 9 4 10 5 11 6 5 7 4 8 3 9 2 10 1 11
REMARK H PARENT
REMARK Flexibility Score: inf
ROOT
ATOM      1  C   UNL     1       7.062   5.334  -7.582  1.00  0.00     0.000 C 
ENDROOT
BRANCH   1   2
ATOM      2  C   UNL     1       7.708   4.167  -6.809  1.00  0.00     0.006 C 
BRANCH   2   3
ATOM      3  C   UNL     1       9.123   3.803  -7.294  1.00  0.00     0.053 C 
BRANCH   3   4
ATOM      4  C   UNL     1       9.106   2.808  -8.414  1.00  0.00     0.041 C 
ATOM      5  O   UNL     1       9.037   3.198  -9.609  1.00  0.00    -0.550 OA
ATOM      6  O   UNL     1       9.203   1.449  -8.140  1.00  0.00    -0.550 OA
ENDBRANCH   3   4
ENDBRANCH   2   3
ENDBRANCH   1   2
BRANCH   1   7
ATOM      7  C   UNL     1       7.428   6.742  -7.074  1.00  0.00     0.000 C 
BRANCH   7   8
ATOM      8  C   UNL     1       8.222   7.613  -8.069  1.00  0.00     0.004 C 
BRANCH   8   9
ATOM      9  C   UNL     1       9.751   7.475  -7.957  1.00  0.00     0.027 C 
BRANCH   9  10
ATOM     10  C   UNL     1      10.358   6.773  -9.142  1.00  0.00    -0.035 C 
ATOM     11  C   UNL     1       9.674   6.585 -10.275  1.00  0.00     0.004 C 
ENDBRANCH   9  10
ENDBRANCH   8   9
ENDBRANCH   7   8
ENDBRANCH   1   7
TORSDOF 7
ENDMDL
