MODEL 1
REMARK VINA RESULT:    -3.877      0.000      0.000
REMARK INTER + INTRA:          -5.671
REMARK INTER:                  -5.917
REMARK INTRA:                   0.247
REMARK UNBOUND:                 0.247
REMARK SMILES CC1=CCC[C@@H](C)C(=O)C[C@@H](C(C)C)C(=O)C1
REMARK SMILES IDX 8 1 9 2 6 3 7 4 5 5 4 6 3 7 2 8 1 9 10 11 11 12 15 13 16 14
REMARK SMILES IDX 17 15 12 17 13 18 14 19
REMARK H PARENT
REMARK Flexibility Score: 70.00
ROOT
ATOM      1  C   UNL     1       8.752 -29.624  14.695  1.00  0.00     0.136 C 
ATOM      2  O   UNL     1       9.835 -29.188  15.063  1.00  0.00    -0.299 OA
ENDROOT
BRANCH   1   3
ATOM      3  C   UNL     1       8.613 -30.070  13.250  1.00  0.00     0.053 C 
ATOM      4  C   UNL     1       9.787 -29.616  12.368  1.00  0.00     0.016 C 
BRANCH   3   5
ATOM      5  C   UNL     1       7.216 -29.747  12.671  1.00  0.00     0.015 C 
BRANCH   5   6
ATOM      6  C   UNL     1       6.147 -30.837  12.878  1.00  0.00     0.028 C 
BRANCH   6   7
ATOM      7  C   UNL     1       6.792 -32.179  13.106  1.00  0.00    -0.028 C 
ATOM      8  C   UNL     1       6.900 -32.780  14.313  1.00  0.00    -0.070 CG0
ATOM      9  C   UNL     1       7.652 -34.084  14.390  1.00  0.00     0.039 C 
ATOM     10  G   UNL     1       6.281 -32.210  15.580  1.00  0.00     0.000 G0
ENDBRANCH   6   7
ENDBRANCH   5   6
ENDBRANCH   3   5
ENDBRANCH   1   3
BRANCH   1  11
ATOM     11  C   UNL     1       7.624 -29.675  15.702  1.00  0.00     0.087 C 
BRANCH  11  12
ATOM     12  C   UNL     1       7.943 -30.618  16.892  1.00  0.00     0.066 C 
BRANCH  12  13
ATOM     13  C   UNL     1       7.268 -31.971  16.694  1.00  0.00     0.140 C 
ATOM     14  O   UNL     1       7.486 -32.863  17.502  1.00  0.00    -0.299 OA
BRANCH  13  15
ATOM     15  C   UNL     1       6.273 -32.211  15.578  1.00  0.00     0.106 CG0
ATOM     16  G   UNL     1       6.916 -32.789  14.326  1.00  0.00     0.000 G0
ENDBRANCH  13  15
ENDBRANCH  12  13
BRANCH  12  17
ATOM     17  C   UNL     1       7.588 -30.003  18.285  1.00  0.00    -0.006 C 
ATOM     18  C   UNL     1       6.284 -29.183  18.256  1.00  0.00     0.008 C 
ATOM     19  C   UNL     1       8.725 -29.096  18.793  1.00  0.00     0.008 C 
ENDBRANCH  12  17
ENDBRANCH  11  12
ENDBRANCH   1  11
TORSDOF 1
ENDMDL
MODEL 2
REMARK VINA RESULT:    -3.525      1.845      4.343
REMARK INTER + INTRA:          -5.133
REMARK INTER:                  -4.773
REMARK INTRA:                  -0.360
REMARK UNBOUND:                 0.247
REMARK SMILES CC1=CCC[C@@H](C)C(=O)C[C@@H](C(C)C)C(=O)C1
REMARK SMILES IDX 8 1 9 2 6 3 7 4 5 5 4 6 3 7 2 8 1 9 10 11 11 12 15 13 16 14
REMARK SMILES IDX 17 15 12 17 13 18 14 19
REMARK H PARENT
REMARK Flexibility Score: 70.00
ROOT
ATOM      1  C   UNL     1       6.812 -31.066  13.034  1.00  0.00     0.136 C 
ATOM      2  O   UNL     1       6.117 -30.776  12.069  1.00  0.00    -0.299 OA
ENDROOT
BRANCH   1   3
ATOM      3  C   UNL     1       6.864 -32.520  13.469  1.00  0.00     0.053 C 
ATOM      4  C   UNL     1       6.703 -33.501  12.297  1.00  0.00     0.016 C 
BRANCH   3   5
ATOM      5  C   UNL     1       5.933 -32.803  14.671  1.00  0.00     0.015 C 
BRANCH   5   6
ATOM      6  C   UNL     1       6.607 -32.752  16.056  1.00  0.00     0.028 C 
BRANCH   6   7
ATOM      7  C   UNL     1       6.214 -31.498  16.792  1.00  0.00    -0.028 C 
ATOM      8  C   UNL     1       7.090 -30.581  17.262  1.00  0.00    -0.070 CG0
ATOM      9  C   UNL     1       6.545 -29.421  18.056  1.00  0.00     0.039 C 
ATOM     10  G   UNL     1       8.587 -30.659  17.005  1.00  0.00     0.000 G0
ENDBRANCH   6   7
ENDBRANCH   5   6
ENDBRANCH   3   5
ENDBRANCH   1   3
BRANCH   1  11
ATOM     11  C   UNL     1       7.564 -29.953  13.733  1.00  0.00     0.087 C 
BRANCH  11  12
ATOM     12  C   UNL     1       8.883 -30.452  14.378  1.00  0.00     0.066 C 
BRANCH  12  13
ATOM     13  C   UNL     1       9.036 -29.882  15.783  1.00  0.00     0.140 C 
ATOM     14  O   UNL     1       9.472 -28.747  15.916  1.00  0.00    -0.299 OA
BRANCH  13  15
ATOM     15  C   UNL     1       8.586 -30.649  17.009  1.00  0.00     0.106 CG0
ATOM     16  G   UNL     1       7.085 -30.568  17.240  1.00  0.00     0.000 G0
ENDBRANCH  13  15
ENDBRANCH  12  13
BRANCH  12  17
ATOM     17  C   UNL     1      10.149 -30.163  13.506  1.00  0.00    -0.006 C 
ATOM     18  C   UNL     1       9.888 -29.110  12.412  1.00  0.00     0.008 C 
ATOM     19  C   UNL     1      10.660 -31.451  12.832  1.00  0.00     0.008 C 
ENDBRANCH  12  17
ENDBRANCH  11  12
ENDBRANCH   1  11
TORSDOF 1
ENDMDL
MODEL 3
REMARK VINA RESULT:    -3.413      1.756      4.165
REMARK INTER + INTRA:          -4.962
REMARK INTER:                  -4.725
REMARK INTRA:                  -0.236
REMARK UNBOUND:                 0.247
REMARK SMILES CC1=CCC[C@@H](C)C(=O)C[C@@H](C(C)C)C(=O)C1
REMARK SMILES IDX 8 1 9 2 6 3 7 4 5 5 4 6 3 7 2 8 1 9 10 11 11 12 15 13 16 14
REMARK SMILES IDX 17 15 12 17 13 18 14 19
REMARK H PARENT
REMARK Flexibility Score: 70.00
ROOT
ATOM      1  C   UNL     1       8.730 -29.822  15.778  1.00  0.00     0.136 C 
ATOM      2  O   UNL     1       9.220 -29.017  16.559  1.00  0.00    -0.299 OA
ENDROOT
BRANCH   1   3
ATOM      3  C   UNL     1       7.417 -30.483  16.158  1.00  0.00     0.053 C 
ATOM      4  C   UNL     1       6.266 -29.477  16.322  1.00  0.00     0.016 C 
BRANCH   3   5
ATOM      5  C   UNL     1       7.578 -31.466  17.341  1.00  0.00     0.015 C 
BRANCH   5   6
ATOM      6  C   UNL     1       7.990 -32.900  16.957  1.00  0.00     0.028 C 
BRANCH   6   7
ATOM      7  C   UNL     1       7.129 -33.418  15.836  1.00  0.00    -0.028 C 
ATOM      8  C   UNL     1       7.563 -33.625  14.571  1.00  0.00    -0.070 CG0
ATOM      9  C   UNL     1       6.556 -34.065  13.539  1.00  0.00     0.039 C 
ATOM     10  G   UNL     1       9.017 -33.455  14.157  1.00  0.00     0.000 G0
ENDBRANCH   6   7
ENDBRANCH   5   6
ENDBRANCH   3   5
ENDBRANCH   1   3
BRANCH   1  11
ATOM     11  C   UNL     1       9.473 -30.111  14.491  1.00  0.00     0.087 C 
BRANCH  11  12
ATOM     12  C   UNL     1       8.610 -30.914  13.483  1.00  0.00     0.066 C 
BRANCH  12  13
ATOM     13  C   UNL     1       9.236 -32.279  13.216  1.00  0.00     0.140 C 
ATOM     14  O   UNL     1       9.988 -32.406  12.261  1.00  0.00    -0.299 OA
BRANCH  13  15
ATOM     15  C   UNL     1       9.019 -33.453  14.148  1.00  0.00     0.106 CG0
ATOM     16  G   UNL     1       7.565 -33.619  14.563  1.00  0.00     0.000 G0
ENDBRANCH  13  15
ENDBRANCH  12  13
BRANCH  12  17
ATOM     17  C   UNL     1       8.333 -30.145  12.150  1.00  0.00    -0.006 C 
ATOM     18  C   UNL     1       9.317 -28.981  11.922  1.00  0.00     0.008 C 
ATOM     19  C   UNL     1       6.898 -29.583  12.125  1.00  0.00     0.008 C 
ENDBRANCH  12  17
ENDBRANCH  11  12
ENDBRANCH   1  11
TORSDOF 1
ENDMDL
MODEL 4
REMARK VINA RESULT:    -3.375      1.873      4.932
REMARK INTER + INTRA:          -4.905
REMARK INTER:                  -4.679
REMARK INTRA:                  -0.226
REMARK UNBOUND:                 0.247
REMARK SMILES CC1=CCC[C@@H](C)C(=O)C[C@@H](C(C)C)C(=O)C1
REMARK SMILES IDX 8 1 9 2 6 3 7 4 5 5 4 6 3 7 2 8 1 9 10 11 11 12 15 13 16 14
REMARK SMILES IDX 17 15 12 17 13 18 14 19
REMARK H PARENT
REMARK Flexibility Score: 70.00
ROOT
ATOM      1  C   UNL     1       6.601 -32.432  16.488  1.00  0.00     0.136 C 
ATOM      2  O   UNL     1       6.661 -33.492  17.096  1.00  0.00    -0.299 OA
ENDROOT
BRANCH   1   3
ATOM      3  C   UNL     1       7.021 -31.165  17.212  1.00  0.00     0.053 C 
ATOM      4  C   UNL     1       6.017 -30.015  17.034  1.00  0.00     0.016 C 
BRANCH   3   5
ATOM      5  C   UNL     1       8.490 -30.782  16.917  1.00  0.00     0.015 C 
BRANCH   5   6
ATOM      6  C   UNL     1       8.698 -29.387  16.299  1.00  0.00     0.028 C 
BRANCH   6   7
ATOM      7  C   UNL     1       9.546 -29.477  15.057  1.00  0.00    -0.028 C 
ATOM      8  C   UNL     1       9.070 -29.775  13.826  1.00  0.00    -0.070 CG0
ATOM      9  C   UNL     1      10.059 -29.913  12.697  1.00  0.00     0.039 C 
ATOM     10  G   UNL     1       7.588 -29.953  13.533  1.00  0.00     0.000 G0
ENDBRANCH   6   7
ENDBRANCH   5   6
ENDBRANCH   3   5
ENDBRANCH   1   3
BRANCH   1  11
ATOM     11  C   UNL     1       6.103 -32.456  15.058  1.00  0.00     0.087 C 
BRANCH  11  12
ATOM     12  C   UNL     1       7.265 -32.533  14.034  1.00  0.00     0.066 C 
BRANCH  12  13
ATOM     13  C   UNL     1       7.215 -31.343  13.082  1.00  0.00     0.140 C 
ATOM     14  O   UNL     1       6.806 -31.516  11.943  1.00  0.00    -0.299 OA
BRANCH  13  15
ATOM     15  C   UNL     1       7.574 -29.943  13.534  1.00  0.00     0.106 CG0
ATOM     16  G   UNL     1       9.058 -29.778  13.828  1.00  0.00     0.000 G0
ENDBRANCH  13  15
ENDBRANCH  12  13
BRANCH  12  17
ATOM     17  C   UNL     1       7.315 -33.887  13.251  1.00  0.00    -0.006 C 
ATOM     18  C   UNL     1       6.421 -34.970  13.883  1.00  0.00     0.008 C 
ATOM     19  C   UNL     1       8.757 -34.426  13.173  1.00  0.00     0.008 C 
ENDBRANCH  12  17
ENDBRANCH  11  12
ENDBRANCH   1  11
TORSDOF 1
ENDMDL
MODEL 5
REMARK VINA RESULT:    -3.307      2.169      3.099
REMARK INTER + INTRA:          -4.800
REMARK INTER:                  -5.235
REMARK INTRA:                   0.435
REMARK UNBOUND:                 0.247
REMARK SMILES CC1=CCC[C@@H](C)C(=O)C[C@@H](C(C)C)C(=O)C1
REMARK SMILES IDX 8 1 9 2 6 3 7 4 5 5 4 6 3 7 2 8 1 9 10 11 11 12 15 13 16 14
REMARK SMILES IDX 17 15 12 17 13 18 14 19
REMARK H PARENT
REMARK Flexibility Score: 70.00
ROOT
ATOM      1  C   UNL     1       9.598 -29.188  15.206  1.00  0.00     0.136 C 
ATOM      2  O   UNL     1       9.887 -28.719  16.298  1.00  0.00    -0.299 OA
ENDROOT
BRANCH   1   3
ATOM      3  C   UNL     1      10.682 -29.256  14.144  1.00  0.00     0.053 C 
ATOM      4  C   UNL     1      11.874 -28.334  14.447  1.00  0.00     0.016 C 
BRANCH   3   5
ATOM      5  C   UNL     1      10.109 -29.110  12.714  1.00  0.00     0.015 C 
BRANCH   5   6
ATOM      6  C   UNL     1       9.955 -30.425  11.927  1.00  0.00     0.028 C 
BRANCH   6   7
ATOM      7  C   UNL     1      10.691 -31.545  12.614  1.00  0.00    -0.028 C 
ATOM      8  C   UNL     1      10.095 -32.626  13.168  1.00  0.00    -0.070 CG0
ATOM      9  C   UNL     1      10.963 -33.619  13.897  1.00  0.00     0.039 C 
ATOM     10  G   UNL     1       8.600 -32.889  13.068  1.00  0.00     0.000 G0
ENDBRANCH   6   7
ENDBRANCH   5   6
ENDBRANCH   3   5
ENDBRANCH   1   3
BRANCH   1  11
ATOM     11  C   UNL     1       8.176 -29.659  14.985  1.00  0.00     0.087 C 
BRANCH  11  12
ATOM     12  C   UNL     1       8.053 -31.203  15.053  1.00  0.00     0.066 C 
BRANCH  12  13
ATOM     13  C   UNL     1       7.767 -31.775  13.669  1.00  0.00     0.140 C 
ATOM     14  O   UNL     1       6.886 -31.267  12.991  1.00  0.00    -0.299 OA
BRANCH  13  15
ATOM     15  C   UNL     1       8.599 -32.896  13.080  1.00  0.00     0.106 CG0
ATOM     16  G   UNL     1      10.095 -32.641  13.185  1.00  0.00     0.000 G0
ENDBRANCH  13  15
ENDBRANCH  12  13
BRANCH  12  17
ATOM     17  C   UNL     1       7.002 -31.698  16.101  1.00  0.00    -0.006 C 
ATOM     18  C   UNL     1       6.229 -30.538  16.757  1.00  0.00     0.008 C 
ATOM     19  C   UNL     1       7.679 -32.524  17.212  1.00  0.00     0.008 C 
ENDBRANCH  12  17
ENDBRANCH  11  12
ENDBRANCH   1  11
TORSDOF 1
ENDMDL
MODEL 6
REMARK VINA RESULT:    -3.283      1.746      4.090
REMARK INTER + INTRA:          -4.764
REMARK INTER:                  -4.457
REMARK INTRA:                  -0.307
REMARK UNBOUND:                 0.247
REMARK SMILES CC1=CCC[C@@H](C)C(=O)C[C@@H](C(C)C)C(=O)C1
REMARK SMILES IDX 8 1 9 2 6 3 7 4 5 5 4 6 3 7 2 8 1 9 10 11 11 12 15 13 16 14
REMARK SMILES IDX 17 15 12 17 13 18 14 19
REMARK H PARENT
REMARK Flexibility Score: 70.00
ROOT
ATOM      1  C   UNL     1       9.758 -32.388  13.894  1.00  0.00     0.136 C 
ATOM      2  O   UNL     1      10.841 -32.950  13.803  1.00  0.00    -0.299 OA
ENDROOT
BRANCH   1   3
ATOM      3  C   UNL     1       9.613 -31.006  13.282  1.00  0.00     0.053 C 
ATOM      4  C   UNL     1      10.352 -30.865  11.941  1.00  0.00     0.016 C 
BRANCH   3   5
ATOM      5  C   UNL     1       9.917 -29.882  14.300  1.00  0.00     0.015 C 
BRANCH   5   6
ATOM      6  C   UNL     1       8.685 -29.242  14.966  1.00  0.00     0.028 C 
BRANCH   6   7
ATOM      7  C   UNL     1       8.688 -29.501  16.450  1.00  0.00    -0.028 C 
ATOM      8  C   UNL     1       7.683 -30.109  17.122  1.00  0.00    -0.070 CG0
ATOM      9  C   UNL     1       7.797 -30.218  18.622  1.00  0.00     0.039 C 
ATOM     10  G   UNL     1       6.465 -30.703  16.431  1.00  0.00     0.000 G0
ENDBRANCH   6   7
ENDBRANCH   5   6
ENDBRANCH   3   5
ENDBRANCH   1   3
BRANCH   1  11
ATOM     11  C   UNL     1       8.640 -33.106  14.619  1.00  0.00     0.087 C 
BRANCH  11  12
ATOM     12  C   UNL     1       7.290 -32.349  14.512  1.00  0.00     0.066 C 
BRANCH  12  13
ATOM     13  C   UNL     1       6.698 -32.120  15.898  1.00  0.00     0.140 C 
ATOM     14  O   UNL     1       6.480 -33.087  16.614  1.00  0.00    -0.299 OA
BRANCH  13  15
ATOM     15  C   UNL     1       6.452 -30.728  16.442  1.00  0.00     0.106 CG0
ATOM     16  G   UNL     1       7.677 -30.132  17.119  1.00  0.00     0.000 G0
ENDBRANCH  13  15
ENDBRANCH  12  13
BRANCH  12  17
ATOM     17  C   UNL     1       6.261 -33.044  13.561  1.00  0.00    -0.006 C 
ATOM     18  C   UNL     1       6.586 -34.530  13.321  1.00  0.00     0.008 C 
ATOM     19  C   UNL     1       6.203 -32.330  12.196  1.00  0.00     0.008 C 
ENDBRANCH  12  17
ENDBRANCH  11  12
ENDBRANCH   1  11
TORSDOF 1
ENDMDL
MODEL 7
REMARK VINA RESULT:    -3.045      2.368      5.078
REMARK INTER + INTRA:          -4.400
REMARK INTER:                  -4.590
REMARK INTRA:                   0.190
REMARK UNBOUND:                 0.247
REMARK SMILES CC1=CCC[C@@H](C)C(=O)C[C@@H](C(C)C)C(=O)C1
REMARK SMILES IDX 8 1 9 2 6 3 7 4 5 5 4 6 3 7 2 8 1 9 10 11 11 12 15 13 16 14
REMARK SMILES IDX 17 15 12 17 13 18 14 19
REMARK H PARENT
REMARK Flexibility Score: 70.00
ROOT
ATOM      1  C   UNL     1       7.167 -32.915  15.452  1.00  0.00     0.136 C 
ATOM      2  O   UNL     1       5.959 -32.935  15.259  1.00  0.00    -0.299 OA
ENDROOT
BRANCH   1   3
ATOM      3  C   UNL     1       7.683 -32.211  16.694  1.00  0.00     0.053 C 
ATOM      4  C   UNL     1       7.749 -33.134  17.922  1.00  0.00     0.016 C 
BRANCH   3   5
ATOM      5  C   UNL     1       6.963 -30.865  16.945  1.00  0.00     0.015 C 
BRANCH   5   6
ATOM      6  C   UNL     1       6.989 -29.872  15.767  1.00  0.00     0.028 C 
BRANCH   6   7
ATOM      7  C   UNL     1       8.405 -29.496  15.421  1.00  0.00    -0.028 C 
ATOM      8  C   UNL     1       8.962 -29.657  14.198  1.00  0.00    -0.070 CG0
ATOM      9  C   UNL     1      10.420 -29.312  14.032  1.00  0.00     0.039 C 
ATOM     10  G   UNL     1       8.178 -30.145  12.989  1.00  0.00     0.000 G0
ENDBRANCH   6   7
ENDBRANCH   5   6
ENDBRANCH   3   5
ENDBRANCH   1   3
BRANCH   1  11
ATOM     11  C   UNL     1       8.064 -33.585  14.433  1.00  0.00     0.087 C 
BRANCH  11  12
ATOM     12  C   UNL     1       8.980 -32.570  13.701  1.00  0.00     0.066 C 
BRANCH  12  13
ATOM     13  C   UNL     1       8.150 -31.651  12.812  1.00  0.00     0.140 C 
ATOM     14  O   UNL     1       7.386 -32.150  11.998  1.00  0.00    -0.299 OA
BRANCH  13  15
ATOM     15  C   UNL     1       8.183 -30.145  12.967  1.00  0.00     0.106 CG0
ATOM     16  G   UNL     1       8.955 -29.693  14.198  1.00  0.00     0.000 G0
ENDBRANCH  13  15
ENDBRANCH  12  13
BRANCH  12  17
ATOM     17  C   UNL     1      10.139 -33.245  12.897  1.00  0.00    -0.006 C 
ATOM     18  C   UNL     1       9.961 -34.770  12.768  1.00  0.00     0.008 C 
ATOM     19  C   UNL     1      11.503 -32.966  13.558  1.00  0.00     0.008 C 
ENDBRANCH  12  17
ENDBRANCH  11  12
ENDBRANCH   1  11
TORSDOF 1
ENDMDL
MODEL 8
REMARK VINA RESULT:    -2.924      1.856      3.850
REMARK INTER + INTRA:          -4.216
REMARK INTER:                  -4.753
REMARK INTRA:                   0.537
REMARK UNBOUND:                 0.247
REMARK SMILES CC1=CCC[C@@H](C)C(=O)C[C@@H](C(C)C)C(=O)C1
REMARK SMILES IDX 8 1 9 2 6 3 7 4 5 5 4 6 3 7 2 8 1 9 10 11 11 12 15 13 16 14
REMARK SMILES IDX 17 15 12 17 13 18 14 19
REMARK H PARENT
REMARK Flexibility Score: 70.00
ROOT
ATOM      1  C   UNL     1       7.459 -32.944  16.503  1.00  0.00     0.136 C 
ATOM      2  O   UNL     1       7.072 -33.682  17.400  1.00  0.00    -0.299 OA
ENDROOT
BRANCH   1   3
ATOM      3  C   UNL     1       7.262 -33.397  15.067  1.00  0.00     0.053 C 
ATOM      4  C   UNL     1       6.181 -34.481  14.924  1.00  0.00     0.016 C 
BRANCH   3   5
ATOM      5  C   UNL     1       8.602 -33.735  14.372  1.00  0.00     0.015 C 
BRANCH   5   6
ATOM      6  C   UNL     1       9.682 -32.640  14.451  1.00  0.00     0.028 C 
BRANCH   6   7
ATOM      7  C   UNL     1       9.618 -31.743  13.243  1.00  0.00    -0.028 C 
ATOM      8  C   UNL     1       9.226 -30.448  13.272  1.00  0.00    -0.070 CG0
ATOM      9  C   UNL     1       9.132 -29.706  11.964  1.00  0.00     0.039 C 
ATOM     10  G   UNL     1       8.900 -29.711  14.563  1.00  0.00     0.000 G0
ENDBRANCH   6   7
ENDBRANCH   5   6
ENDBRANCH   3   5
ENDBRANCH   1   3
BRANCH   1  11
ATOM     11  C   UNL     1       8.117 -31.637  16.888  1.00  0.00     0.087 C 
BRANCH  11  12
ATOM     12  C   UNL     1       7.245 -30.409  16.516  1.00  0.00     0.066 C 
BRANCH  12  13
ATOM     13  C   UNL     1       7.493 -30.000  15.069  1.00  0.00     0.140 C 
ATOM     14  O   UNL     1       6.534 -29.849  14.325  1.00  0.00    -0.299 OA
BRANCH  13  15
ATOM     15  C   UNL     1       8.883 -29.693  14.553  1.00  0.00     0.106 CG0
ATOM     16  G   UNL     1       9.219 -30.444  13.272  1.00  0.00     0.000 G0
ENDBRANCH  13  15
ENDBRANCH  12  13
BRANCH  12  17
ATOM     17  C   UNL     1       7.427 -29.199  17.490  1.00  0.00    -0.006 C 
ATOM     18  C   UNL     1       8.747 -29.269  18.282  1.00  0.00     0.008 C 
ATOM     19  C   UNL     1       6.259 -29.116  18.491  1.00  0.00     0.008 C 
ENDBRANCH  12  17
ENDBRANCH  11  12
ENDBRANCH   1  11
TORSDOF 1
ENDMDL
MODEL 9
REMARK VINA RESULT:    -2.906      1.923      4.023
REMARK INTER + INTRA:          -4.189
REMARK INTER:                  -4.627
REMARK INTRA:                   0.438
REMARK UNBOUND:                 0.247
REMARK SMILES CC1=CCC[C@@H](C)C(=O)C[C@@H](C(C)C)C(=O)C1
REMARK SMILES IDX 8 1 9 2 6 3 7 4 5 5 4 6 3 7 2 8 1 9 10 11 11 12 15 13 16 14
REMARK SMILES IDX 17 15 12 17 13 18 14 19
REMARK H PARENT
REMARK Flexibility Score: 70.00
ROOT
ATOM      1  C   UNL     1       7.738 -31.680  13.131  1.00  0.00     0.136 C 
ATOM      2  O   UNL     1       7.865 -32.134  12.002  1.00  0.00    -0.299 OA
ENDROOT
BRANCH   1   3
ATOM      3  C   UNL     1       7.619 -30.175  13.289  1.00  0.00     0.053 C 
ATOM      4  C   UNL     1       6.724 -29.530  12.218  1.00  0.00     0.016 C 
BRANCH   3   5
ATOM      5  C   UNL     1       8.997 -29.495  13.465  1.00  0.00     0.015 C 
BRANCH   5   6
ATOM      6  C   UNL     1       9.836 -30.000  14.653  1.00  0.00     0.028 C 
BRANCH   6   7
ATOM      7  C   UNL     1       9.445 -29.287  15.921  1.00  0.00    -0.028 C 
ATOM      8  C   UNL     1       8.676 -29.826  16.895  1.00  0.00    -0.070 CG0
ATOM      9  C   UNL     1       8.299 -28.954  18.066  1.00  0.00     0.039 C 
ATOM     10  G   UNL     1       8.200 -31.271  16.870  1.00  0.00     0.000 G0
ENDBRANCH   6   7
ENDBRANCH   5   6
ENDBRANCH   3   5
ENDBRANCH   1   3
BRANCH   1  11
ATOM     11  C   UNL     1       7.719 -32.650  14.293  1.00  0.00     0.087 C 
BRANCH  11  12
ATOM     12  C   UNL     1       6.482 -32.447  15.206  1.00  0.00     0.066 C 
BRANCH  12  13
ATOM     13  C   UNL     1       6.793 -31.435  16.304  1.00  0.00     0.140 C 
ATOM     14  O   UNL     1       5.876 -30.781  16.780  1.00  0.00    -0.299 OA
BRANCH  13  15
ATOM     15  C   UNL     1       8.186 -31.281  16.877  1.00  0.00     0.106 CG0
ATOM     16  G   UNL     1       8.657 -29.835  16.907  1.00  0.00     0.000 G0
ENDBRANCH  13  15
ENDBRANCH  12  13
BRANCH  12  17
ATOM     17  C   UNL     1       5.925 -33.781  15.803  1.00  0.00    -0.006 C 
ATOM     18  C   UNL     1       6.573 -34.143  17.153  1.00  0.00     0.008 C 
ATOM     19  C   UNL     1       6.139 -34.954  14.827  1.00  0.00     0.008 C 
ENDBRANCH  12  17
ENDBRANCH  11  12
ENDBRANCH   1  11
TORSDOF 1
ENDMDL
