MODEL 1
REMARK VINA RESULT:    -4.881      0.000      0.000
REMARK INTER + INTRA:          -6.652
REMARK INTER:                  -6.308
REMARK INTRA:                  -0.345
REMARK UNBOUND:                -0.345
REMARK SMILES CCO[C@H]1O[C@@H](CO)[C@@H](O)[C@H](O)[C@H]1O
REMARK SMILES IDX 4 1 13 2 11 3 9 4 6 5 5 6 3 7 2 8 1 9 14 10 12 12 7 14 8 15
REMARK SMILES IDX 10 17
REMARK H PARENT 14 11 12 13 8 16 10 18
REMARK Flexibility Score: inf
ROOT
ATOM      1  C   UNL     1      -2.676   3.335  21.347  1.00  0.00     0.281 C 
ATOM      2  C   UNL     1      -3.770   4.421  21.366  1.00  0.00     0.202 C 
ATOM      3  C   UNL     1      -3.530   5.409  22.511  1.00  0.00     0.179 C 
ATOM      4  C   UNL     1      -3.403   4.630  23.826  1.00  0.00     0.177 C 
ATOM      5  C   UNL     1      -2.346   3.504  23.712  1.00  0.00     0.178 C 
ATOM      6  O   UNL     1      -2.571   2.653  22.592  1.00  0.00    -0.341 OA
ENDROOT
BRANCH   1   7
ATOM      7  O   UNL     1      -1.426   3.902  20.974  1.00  0.00    -0.350 OA
BRANCH   7   8
ATOM      8  C   UNL     1      -0.919   3.343  19.776  1.00  0.00     0.160 C 
ATOM      9  C   UNL     1      -1.250   1.855  19.670  1.00  0.00     0.035 C 
ENDBRANCH   7   8
ENDBRANCH   1   7
BRANCH   2  10
ATOM     10  O   UNL     1      -3.782   5.114  20.144  1.00  0.00    -0.385 OA
ATOM     11  H   UNL     1      -3.226   4.588  19.511  1.00  0.00     0.211 HD
ENDBRANCH   2  10
BRANCH   3  12
ATOM     12  O   UNL     1      -4.611   6.301  22.605  1.00  0.00    -0.387 OA
ATOM     13  H   UNL     1      -4.277   7.191  22.320  1.00  0.00     0.211 HD
ENDBRANCH   3  12
BRANCH   5  14
ATOM     14  C   UNL     1      -0.878   3.985  23.794  1.00  0.00     0.191 C 
BRANCH  14  15
ATOM     15  O   UNL     1      -0.500   4.215  25.125  1.00  0.00    -0.394 OA
ATOM     16  H   UNL     1       0.491   4.280  25.134  1.00  0.00     0.210 HD
ENDBRANCH  14  15
ENDBRANCH   5  14
BRANCH   4  17
ATOM     17  O   UNL     1      -3.073   5.500  24.880  1.00  0.00    -0.387 OA
ATOM     18  H   UNL     1      -2.628   6.290  24.475  1.00  0.00     0.211 HD
ENDBRANCH   4  17
TORSDOF 7
ENDMDL
MODEL 2
REMARK VINA RESULT:    -4.859     13.253     15.088
REMARK INTER + INTRA:          -6.624
REMARK INTER:                  -6.156
REMARK INTRA:                  -0.468
REMARK UNBOUND:                -0.345
REMARK SMILES CCO[C@H]1O[C@@H](CO)[C@@H](O)[C@H](O)[C@H]1O
REMARK SMILES IDX 4 1 13 2 11 3 9 4 6 5 5 6 3 7 2 8 1 9 14 10 12 12 7 14 8 15
REMARK SMILES IDX 10 17
REMARK H PARENT 14 11 12 13 8 16 10 18
REMARK Flexibility Score: inf
ROOT
ATOM      1  C   UNL     1       1.392  -2.249   8.282  1.00  0.00     0.281 C 
ATOM      2  C   UNL     1       1.935  -0.995   8.995  1.00  0.00     0.202 C 
ATOM      3  C   UNL     1       1.020  -0.596  10.157  1.00  0.00     0.179 C 
ATOM      4  C   UNL     1      -0.415  -0.445   9.635  1.00  0.00     0.177 C 
ATOM      5  C   UNL     1      -0.867  -1.707   8.860  1.00  0.00     0.178 C 
ATOM      6  O   UNL     1       0.051  -2.079   7.836  1.00  0.00    -0.341 OA
ENDROOT
BRANCH   1   7
ATOM      7  O   UNL     1       1.502  -3.385   9.131  1.00  0.00    -0.350 OA
BRANCH   7   8
ATOM      8  C   UNL     1       2.220  -4.442   8.523  1.00  0.00     0.160 C 
ATOM      9  C   UNL     1       1.465  -5.766   8.634  1.00  0.00     0.035 C 
ENDBRANCH   7   8
ENDBRANCH   1   7
BRANCH   2  10
ATOM     10  O   UNL     1       3.230  -1.240   9.480  1.00  0.00    -0.385 OA
ATOM     11  H   UNL     1       3.172  -2.047  10.055  1.00  0.00     0.211 HD
ENDBRANCH   2  10
BRANCH   3  12
ATOM     12  O   UNL     1       1.446   0.627  10.700  1.00  0.00    -0.387 OA
ATOM     13  H   UNL     1       1.682   0.456  11.648  1.00  0.00     0.211 HD
ENDBRANCH   3  12
BRANCH   5  14
ATOM     14  C   UNL     1      -1.262  -2.906   9.754  1.00  0.00     0.191 C 
BRANCH  14  15
ATOM     15  O   UNL     1      -1.540  -4.040   8.975  1.00  0.00    -0.394 OA
ATOM     16  H   UNL     1      -1.929  -3.713   8.122  1.00  0.00     0.210 HD
ENDBRANCH  14  15
ENDBRANCH   5  14
BRANCH   4  17
ATOM     17  O   UNL     1      -1.296  -0.186  10.699  1.00  0.00    -0.387 OA
ATOM     18  H   UNL     1      -2.003  -0.883  10.666  1.00  0.00     0.211 HD
ENDBRANCH   4  17
TORSDOF 7
ENDMDL
MODEL 3
REMARK VINA RESULT:    -4.554     12.797     15.211
REMARK INTER + INTRA:          -6.229
REMARK INTER:                  -5.754
REMARK INTRA:                  -0.475
REMARK UNBOUND:                -0.345
REMARK SMILES CCO[C@H]1O[C@@H](CO)[C@@H](O)[C@H](O)[C@H]1O
REMARK SMILES IDX 4 1 13 2 11 3 9 4 6 5 5 6 3 7 2 8 1 9 14 10 12 12 7 14 8 15
REMARK SMILES IDX 10 17
REMARK H PARENT 14 11 12 13 8 16 10 18
REMARK Flexibility Score: inf
ROOT
ATOM      1  C   UNL     1       1.065  -0.913   9.138  1.00  0.00     0.281 C 
ATOM      2  C   UNL     1      -0.457  -1.071   9.325  1.00  0.00     0.202 C 
ATOM      3  C   UNL     1      -0.833  -2.549   9.468  1.00  0.00     0.179 C 
ATOM      4  C   UNL     1      -0.268  -3.326   8.272  1.00  0.00     0.177 C 
ATOM      5  C   UNL     1       1.246  -3.059   8.094  1.00  0.00     0.178 C 
ATOM      6  O   UNL     1       1.555  -1.670   8.037  1.00  0.00    -0.341 OA
ENDROOT
BRANCH   1   7
ATOM      7  O   UNL     1       1.747  -1.264  10.336  1.00  0.00    -0.350 OA
BRANCH   7   8
ATOM      8  C   UNL     1       2.845  -0.411  10.599  1.00  0.00     0.160 C 
ATOM      9  C   UNL     1       2.432   0.783  11.459  1.00  0.00     0.035 C 
ENDBRANCH   7   8
ENDBRANCH   1   7
BRANCH   2  10
ATOM     10  O   UNL     1      -0.877  -0.368  10.467  1.00  0.00    -0.385 OA
ATOM     11  H   UNL     1      -0.799  -0.994  11.233  1.00  0.00     0.211 HD
ENDBRANCH   2  10
BRANCH   3  12
ATOM     12  O   UNL     1      -2.231  -2.684   9.488  1.00  0.00    -0.387 OA
ATOM     13  H   UNL     1      -2.573  -2.049  10.170  1.00  0.00     0.211 HD
ENDBRANCH   3  12
BRANCH   5  14
ATOM     14  C   UNL     1       2.158  -3.819   9.086  1.00  0.00     0.191 C 
BRANCH  14  15
ATOM     15  O   UNL     1       2.328  -5.154   8.689  1.00  0.00    -0.394 OA
ATOM     16  H   UNL     1       1.459  -5.610   8.840  1.00  0.00     0.210 HD
ENDBRANCH  14  15
ENDBRANCH   5  14
BRANCH   4  17
ATOM     17  O   UNL     1      -0.503  -4.703   8.430  1.00  0.00    -0.387 OA
ATOM     18  H   UNL     1      -1.348  -4.910   7.951  1.00  0.00     0.211 HD
ENDBRANCH   4  17
TORSDOF 7
ENDMDL
MODEL 4
REMARK VINA RESULT:    -4.527     13.210     15.161
REMARK INTER + INTRA:          -6.194
REMARK INTER:                  -5.731
REMARK INTRA:                  -0.464
REMARK UNBOUND:                -0.345
REMARK SMILES CCO[C@H]1O[C@@H](CO)[C@@H](O)[C@H](O)[C@H]1O
REMARK SMILES IDX 4 1 13 2 11 3 9 4 6 5 5 6 3 7 2 8 1 9 14 10 12 12 7 14 8 15
REMARK SMILES IDX 10 17
REMARK H PARENT 14 11 12 13 8 16 10 18
REMARK Flexibility Score: inf
ROOT
ATOM      1  C   UNL     1      -0.217  -0.951   8.709  1.00  0.00     0.281 C 
ATOM      2  C   UNL     1      -1.215  -2.124   8.640  1.00  0.00     0.202 C 
ATOM      3  C   UNL     1      -0.576  -3.408   9.179  1.00  0.00     0.179 C 
ATOM      4  C   UNL     1       0.739  -3.664   8.433  1.00  0.00     0.177 C 
ATOM      5  C   UNL     1       1.659  -2.419   8.472  1.00  0.00     0.178 C 
ATOM      6  O   UNL     1       1.000  -1.237   8.028  1.00  0.00    -0.341 OA
ENDROOT
BRANCH   1   7
ATOM      7  O   UNL     1       0.032  -0.596  10.063  1.00  0.00    -0.350 OA
BRANCH   7   8
ATOM      8  C   UNL     1      -0.307   0.751  10.337  1.00  0.00     0.160 C 
ATOM      9  C   UNL     1       0.850   1.695  10.011  1.00  0.00     0.035 C 
ENDBRANCH   7   8
ENDBRANCH   1   7
BRANCH   2  10
ATOM     10  O   UNL     1      -2.365  -1.822   9.388  1.00  0.00    -0.385 OA
ATOM     11  H   UNL     1      -3.133  -1.859   8.760  1.00  0.00     0.211 HD
ENDBRANCH   2  10
BRANCH   3  12
ATOM     12  O   UNL     1      -1.444  -4.493   8.972  1.00  0.00    -0.387 OA
ATOM     13  H   UNL     1      -2.369  -4.139   9.029  1.00  0.00     0.211 HD
ENDBRANCH   3  12
BRANCH   5  14
ATOM     14  C   UNL     1       2.399  -2.206   9.814  1.00  0.00     0.191 C 
BRANCH  14  15
ATOM     15  O   UNL     1       3.134  -1.010   9.796  1.00  0.00    -0.394 OA
ATOM     16  H   UNL     1       3.610  -0.954  10.665  1.00  0.00     0.210 HD
ENDBRANCH  14  15
ENDBRANCH   5  14
BRANCH   4  17
ATOM     17  O   UNL     1       1.402  -4.776   8.980  1.00  0.00    -0.387 OA
ATOM     18  H   UNL     1       0.810  -5.150   9.684  1.00  0.00     0.211 HD
ENDBRANCH   4  17
TORSDOF 7
ENDMDL
MODEL 5
REMARK VINA RESULT:    -4.437     12.926     15.063
REMARK INTER + INTRA:          -6.079
REMARK INTER:                  -5.575
REMARK INTRA:                  -0.504
REMARK UNBOUND:                -0.345
REMARK SMILES CCO[C@H]1O[C@@H](CO)[C@@H](O)[C@H](O)[C@H]1O
REMARK SMILES IDX 4 1 13 2 11 3 9 4 6 5 5 6 3 7 2 8 1 9 14 10 12 12 7 14 8 15
REMARK SMILES IDX 10 17
REMARK H PARENT 14 11 12 13 8 16 10 18
REMARK Flexibility Score: inf
ROOT
ATOM      1  C   UNL     1       1.029  -0.930  10.299  1.00  0.00     0.281 C 
ATOM      2  C   UNL     1       2.096  -1.902   9.756  1.00  0.00     0.202 C 
ATOM      3  C   UNL     1       1.538  -2.715   8.584  1.00  0.00     0.179 C 
ATOM      4  C   UNL     1       0.237  -3.399   9.022  1.00  0.00     0.177 C 
ATOM      5  C   UNL     1      -0.756  -2.379   9.631  1.00  0.00     0.178 C 
ATOM      6  O   UNL     1      -0.172  -1.598  10.670  1.00  0.00    -0.341 OA
ENDROOT
BRANCH   1   7
ATOM      7  O   UNL     1       0.766   0.093   9.346  1.00  0.00    -0.350 OA
BRANCH   7   8
ATOM      8  C   UNL     1       0.632   1.366   9.948  1.00  0.00     0.160 C 
ATOM      9  C   UNL     1       1.633   1.554  11.087  1.00  0.00     0.035 C 
ENDBRANCH   7   8
ENDBRANCH   1   7
BRANCH   2  10
ATOM     10  O   UNL     1       3.229  -1.187   9.335  1.00  0.00    -0.385 OA
ATOM     11  H   UNL     1       3.867  -1.188  10.095  1.00  0.00     0.211 HD
ENDBRANCH   2  10
BRANCH   3  12
ATOM     12  O   UNL     1       2.469  -3.695   8.199  1.00  0.00    -0.387 OA
ATOM     13  H   UNL     1       2.584  -3.614   7.217  1.00  0.00     0.211 HD
ENDBRANCH   3  12
BRANCH   5  14
ATOM     14  C   UNL     1      -1.502  -1.505   8.594  1.00  0.00     0.191 C 
BRANCH  14  15
ATOM     15  O   UNL     1      -2.356  -0.592   9.231  1.00  0.00    -0.394 OA
ATOM     16  H   UNL     1      -2.495   0.159   8.597  1.00  0.00     0.210 HD
ENDBRANCH  14  15
ENDBRANCH   5  14
BRANCH   4  17
ATOM     17  O   UNL     1      -0.355  -4.064   7.935  1.00  0.00    -0.387 OA
ATOM     18  H   UNL     1      -0.517  -5.001   8.221  1.00  0.00     0.211 HD
ENDBRANCH   4  17
TORSDOF 7
ENDMDL
MODEL 6
REMARK VINA RESULT:    -4.384      8.741      9.774
REMARK INTER + INTRA:          -6.010
REMARK INTER:                  -5.701
REMARK INTRA:                  -0.308
REMARK UNBOUND:                -0.345
REMARK SMILES CCO[C@H]1O[C@@H](CO)[C@@H](O)[C@H](O)[C@H]1O
REMARK SMILES IDX 4 1 13 2 11 3 9 4 6 5 5 6 3 7 2 8 1 9 14 10 12 12 7 14 8 15
REMARK SMILES IDX 10 17
REMARK H PARENT 14 11 12 13 8 16 10 18
REMARK Flexibility Score: inf
ROOT
ATOM      1  C   UNL     1       3.438   1.094  15.126  1.00  0.00     0.281 C 
ATOM      2  C   UNL     1       3.877   2.568  15.230  1.00  0.00     0.202 C 
ATOM      3  C   UNL     1       4.851   2.760  16.396  1.00  0.00     0.179 C 
ATOM      4  C   UNL     1       4.212   2.209  17.677  1.00  0.00     0.177 C 
ATOM      5  C   UNL     1       3.720   0.754  17.479  1.00  0.00     0.178 C 
ATOM      6  O   UNL     1       2.875   0.612  16.341  1.00  0.00    -0.341 OA
ENDROOT
BRANCH   1   7
ATOM      7  O   UNL     1       4.532   0.282  14.718  1.00  0.00    -0.350 OA
BRANCH   7   8
ATOM      8  C   UNL     1       4.123  -0.800  13.903  1.00  0.00     0.160 C 
ATOM      9  C   UNL     1       3.086  -0.361  12.870  1.00  0.00     0.035 C 
ENDBRANCH   7   8
ENDBRANCH   1   7
BRANCH   2  10
ATOM     10  O   UNL     1       4.494   2.971  14.033  1.00  0.00    -0.385 OA
ATOM     11  H   UNL     1       4.376   2.228  13.386  1.00  0.00     0.211 HD
ENDBRANCH   2  10
BRANCH   3  12
ATOM     12  O   UNL     1       5.125   4.127  16.568  1.00  0.00    -0.387 OA
ATOM     13  H   UNL     1       5.596   4.221  17.436  1.00  0.00     0.211 HD
ENDBRANCH   3  12
BRANCH   5  14
ATOM     14  C   UNL     1       4.838  -0.315  17.513  1.00  0.00     0.191 C 
BRANCH  14  15
ATOM     15  O   UNL     1       4.740  -1.105  18.669  1.00  0.00    -0.394 OA
ATOM     16  H   UNL     1       5.328  -1.893  18.528  1.00  0.00     0.210 HD
ENDBRANCH  14  15
ENDBRANCH   5  14
BRANCH   4  17
ATOM     17  O   UNL     1       5.125   2.272  18.745  1.00  0.00    -0.387 OA
ATOM     18  H   UNL     1       6.035   2.270  18.348  1.00  0.00     0.211 HD
ENDBRANCH   4  17
TORSDOF 7
ENDMDL
MODEL 7
REMARK VINA RESULT:    -4.375     14.321     16.178
REMARK INTER + INTRA:          -5.998
REMARK INTER:                  -5.826
REMARK INTRA:                  -0.172
REMARK UNBOUND:                -0.345
REMARK SMILES CCO[C@H]1O[C@@H](CO)[C@@H](O)[C@H](O)[C@H]1O
REMARK SMILES IDX 4 1 13 2 11 3 9 4 6 5 5 6 3 7 2 8 1 9 14 10 12 12 7 14 8 15
REMARK SMILES IDX 10 17
REMARK H PARENT 14 11 12 13 8 16 10 18
REMARK Flexibility Score: inf
ROOT
ATOM      1  C   UNL     1       0.402  -3.176   9.008  1.00  0.00     0.281 C 
ATOM      2  C   UNL     1      -0.741  -2.394   9.683  1.00  0.00     0.202 C 
ATOM      3  C   UNL     1      -1.543  -1.605   8.644  1.00  0.00     0.179 C 
ATOM      4  C   UNL     1      -0.584  -0.727   7.831  1.00  0.00     0.177 C 
ATOM      5  C   UNL     1       0.584  -1.562   7.250  1.00  0.00     0.178 C 
ATOM      6  O   UNL     1       1.255  -2.332   8.243  1.00  0.00    -0.341 OA
ENDROOT
BRANCH   1   7
ATOM      7  O   UNL     1      -0.126  -4.224   8.204  1.00  0.00    -0.350 OA
BRANCH   7   8
ATOM      8  C   UNL     1       0.671  -5.392   8.252  1.00  0.00     0.160 C 
ATOM      9  C   UNL     1       2.019  -5.123   8.922  1.00  0.00     0.035 C 
ENDBRANCH   7   8
ENDBRANCH   1   7
BRANCH   2  10
ATOM     10  O   UNL     1      -1.595  -3.280  10.361  1.00  0.00    -0.385 OA
ATOM     11  H   UNL     1      -2.473  -3.241   9.899  1.00  0.00     0.211 HD
ENDBRANCH   2  10
BRANCH   3  12
ATOM     12  O   UNL     1      -2.484  -0.786   9.290  1.00  0.00    -0.387 OA
ATOM     13  H   UNL     1      -2.028  -0.386  10.076  1.00  0.00     0.211 HD
ENDBRANCH   3  12
BRANCH   5  14
ATOM     14  C   UNL     1       0.219  -2.405   6.005  1.00  0.00     0.191 C 
BRANCH  14  15
ATOM     15  O   UNL     1       1.303  -3.199   5.603  1.00  0.00    -0.394 OA
ATOM     16  H   UNL     1       0.991  -3.739   4.830  1.00  0.00     0.210 HD
ENDBRANCH  14  15
ENDBRANCH   5  14
BRANCH   4  17
ATOM     17  O   UNL     1      -1.276  -0.074   6.797  1.00  0.00    -0.387 OA
ATOM     18  H   UNL     1      -0.779  -0.254   5.956  1.00  0.00     0.211 HD
ENDBRANCH   4  17
TORSDOF 7
ENDMDL
MODEL 8
REMARK VINA RESULT:    -4.369      1.705      3.451
REMARK INTER + INTRA:          -5.990
REMARK INTER:                  -5.513
REMARK INTRA:                  -0.478
REMARK UNBOUND:                -0.345
REMARK SMILES CCO[C@H]1O[C@@H](CO)[C@@H](O)[C@H](O)[C@H]1O
REMARK SMILES IDX 4 1 13 2 11 3 9 4 6 5 5 6 3 7 2 8 1 9 14 10 12 12 7 14 8 15
REMARK SMILES IDX 10 17
REMARK H PARENT 14 11 12 13 8 16 10 18
REMARK Flexibility Score: inf
ROOT
ATOM      1  C   UNL     1      -2.231   4.295  22.101  1.00  0.00     0.281 C 
ATOM      2  C   UNL     1      -2.131   2.825  21.646  1.00  0.00     0.202 C 
ATOM      3  C   UNL     1      -2.552   1.881  22.776  1.00  0.00     0.179 C 
ATOM      4  C   UNL     1      -1.728   2.202  24.030  1.00  0.00     0.177 C 
ATOM      5  C   UNL     1      -1.808   3.708  24.383  1.00  0.00     0.178 C 
ATOM      6  O   UNL     1      -1.476   4.547  23.281  1.00  0.00    -0.341 OA
ENDROOT
BRANCH   1   7
ATOM      7  O   UNL     1      -3.593   4.662  22.284  1.00  0.00    -0.350 OA
BRANCH   7   8
ATOM      8  C   UNL     1      -3.885   5.935  21.739  1.00  0.00     0.160 C 
ATOM      9  C   UNL     1      -4.436   5.821  20.318  1.00  0.00     0.035 C 
ENDBRANCH   7   8
ENDBRANCH   1   7
BRANCH   2  10
ATOM     10  O   UNL     1      -2.952   2.612  20.526  1.00  0.00    -0.385 OA
ATOM     11  H   UNL     1      -3.460   1.777  20.699  1.00  0.00     0.211 HD
ENDBRANCH   2  10
BRANCH   3  12
ATOM     12  O   UNL     1      -2.314   0.549  22.397  1.00  0.00    -0.387 OA
ATOM     13  H   UNL     1      -3.165   0.199  22.024  1.00  0.00     0.211 HD
ENDBRANCH   3  12
BRANCH   5  14
ATOM     14  C   UNL     1      -3.124   4.141  25.072  1.00  0.00     0.191 C 
BRANCH  14  15
ATOM     15  O   UNL     1      -3.223   5.540  25.125  1.00  0.00    -0.394 OA
ATOM     16  H   UNL     1      -2.652   5.839  25.880  1.00  0.00     0.210 HD
ENDBRANCH  14  15
ENDBRANCH   5  14
BRANCH   4  17
ATOM     17  O   UNL     1      -2.168   1.425  25.116  1.00  0.00    -0.387 OA
ATOM     18  H   UNL     1      -1.636   1.703  25.906  1.00  0.00     0.211 HD
ENDBRANCH   4  17
TORSDOF 7
ENDMDL
MODEL 9
REMARK VINA RESULT:    -4.246      8.171     10.334
REMARK INTER + INTRA:          -5.832
REMARK INTER:                  -5.369
REMARK INTRA:                  -0.463
REMARK UNBOUND:                -0.345
REMARK SMILES CCO[C@H]1O[C@@H](CO)[C@@H](O)[C@H](O)[C@H]1O
REMARK SMILES IDX 4 1 13 2 11 3 9 4 6 5 5 6 3 7 2 8 1 9 14 10 12 12 7 14 8 15
REMARK SMILES IDX 10 17
REMARK H PARENT 14 11 12 13 8 16 10 18
REMARK Flexibility Score: inf
ROOT
ATOM      1  C   UNL     1       3.248   2.137  17.230  1.00  0.00     0.281 C 
ATOM      2  C   UNL     1       3.865   0.724  17.219  1.00  0.00     0.202 C 
ATOM      3  C   UNL     1       4.693   0.507  15.950  1.00  0.00     0.179 C 
ATOM      4  C   UNL     1       3.824   0.816  14.725  1.00  0.00     0.177 C 
ATOM      5  C   UNL     1       3.171   2.215  14.839  1.00  0.00     0.178 C 
ATOM      6  O   UNL     1       2.471   2.395  16.066  1.00  0.00    -0.341 OA
ENDROOT
BRANCH   1   7
ATOM      7  O   UNL     1       4.267   3.117  17.386  1.00  0.00    -0.350 OA
BRANCH   7   8
ATOM      8  C   UNL     1       3.870   4.173  18.241  1.00  0.00     0.160 C 
ATOM      9  C   UNL     1       3.931   5.523  17.527  1.00  0.00     0.035 C 
ENDBRANCH   7   8
ENDBRANCH   1   7
BRANCH   2  10
ATOM     10  O   UNL     1       4.681   0.547  18.349  1.00  0.00    -0.385 OA
ATOM     11  H   UNL     1       5.025  -0.384  18.310  1.00  0.00     0.211 HD
ENDBRANCH   2  10
BRANCH   3  12
ATOM     12  O   UNL     1       5.124  -0.829  15.885  1.00  0.00    -0.387 OA
ATOM     13  H   UNL     1       4.309  -1.396  15.882  1.00  0.00     0.211 HD
ENDBRANCH   3  12
BRANCH   5  14
ATOM     14  C   UNL     1       4.120   3.398  14.530  1.00  0.00     0.191 C 
BRANCH  14  15
ATOM     15  O   UNL     1       4.131   3.685  13.156  1.00  0.00    -0.394 OA
ATOM     16  H   UNL     1       3.235   4.048  12.932  1.00  0.00     0.210 HD
ENDBRANCH  14  15
ENDBRANCH   5  14
BRANCH   4  17
ATOM     17  O   UNL     1       4.588   0.731  13.549  1.00  0.00    -0.387 OA
ATOM     18  H   UNL     1       5.394   0.192  13.764  1.00  0.00     0.211 HD
ENDBRANCH   4  17
TORSDOF 7
ENDMDL
