MODEL 1
REMARK VINA RESULT:    90.609      0.000      0.000
REMARK INTER + INTRA:          93.257
REMARK INTER:                  93.257
REMARK INTRA:                   0.000
REMARK UNBOUND:                 0.000
REMARK SMILES CC1(C)CC[C@]2(C)CC[C@]3(C)C(=CC[C@H]4[C@@]5(C)CC[C@@H](O)C(C)(C)[C@@H]5CC[C@]43C)[C@@H]2C1
REMARK SMILES IDX 1 1 2 2 4 3 5 4 6 5 8 6 9 7 10 8 12 9 13 10 14 11 15 12
REMARK SMILES IDX 28 13 27 14 26 15 25 16 16 17 18 18 19 19 20 20 22 21 23 22
REMARK SMILES IDX 24 23 17 24 29 25 30 26 31 27 11 28 7 29 3 30 21 31
REMARK H PARENT 21 32
REMARK Flexibility Score: inf
ROOT
ATOM      1  C   UNL     1       1.138  48.123  51.783  1.00  0.00     0.011 C 
ATOM      2  C   UNL     1       0.330  46.941  51.191  1.00  0.00    -0.035 C 
ATOM      3  C   UNL     1      -0.124  47.256  49.718  1.00  0.00     0.007 C 
ATOM      4  C   UNL     1       0.414  46.303  48.636  1.00  0.00     0.008 C 
ATOM      5  C   UNL     1       1.934  46.029  48.766  1.00  0.00    -0.026 C 
ATOM      6  C   UNL     1       2.401  45.035  47.659  1.00  0.00     0.008 C 
ATOM      7  C   UNL     1       1.988  43.567  47.859  1.00  0.00     0.012 C 
ATOM      8  C   UNL     1       2.204  42.965  49.302  1.00  0.00    -0.006 C 
ATOM      9  C   UNL     1       2.886  44.060  50.145  1.00  0.00    -0.064 C 
ATOM     10  C   UNL     1       4.162  43.936  50.534  1.00  0.00    -0.027 C 
ATOM     11  C   UNL     1       5.105  42.871  50.093  1.00  0.00     0.032 C 
ATOM     12  C   UNL     1       4.582  41.812  49.069  1.00  0.00     0.006 C 
ATOM     13  C   UNL     1       3.028  41.561  49.267  1.00  0.00    -0.020 C 
ATOM     14  C   UNL     1       2.878  40.767  50.610  1.00  0.00     0.008 C 
ATOM     15  C   UNL     1       3.700  39.464  50.677  1.00  0.00     0.005 C 
ATOM     16  C   UNL     1       5.213  39.658  50.404  1.00  0.00     0.003 C 
ATOM     17  C   UNL     1       5.501  40.483  49.091  1.00  0.00    -0.025 C 
ATOM     18  C   UNL     1       7.038  40.843  49.061  1.00  0.00     0.010 C 
ATOM     19  C   UNL     1       7.995  39.793  49.682  1.00  0.00     0.033 C 
ATOM     20  C   UNL     1       7.420  38.375  49.798  1.00  0.00     0.120 C 
ATOM     21  C   UNL     1       6.076  38.331  50.607  1.00  0.00    -0.006 C 
ATOM     22  C   UNL     1       6.390  38.180  52.125  1.00  0.00     0.014 C 
ATOM     23  C   UNL     1       5.319  37.045  50.177  1.00  0.00     0.014 C 
ATOM     24  C   UNL     1       5.242  39.655  47.793  1.00  0.00     0.012 C 
ATOM     25  C   UNL     1       2.422  40.690  48.099  1.00  0.00     0.012 C 
ATOM     26  C   UNL     1       2.294  45.494  50.206  1.00  0.00     0.022 C 
ATOM     27  C   UNL     1       1.174  45.636  51.280  1.00  0.00     0.015 C 
ATOM     28  C   UNL     1       0.795  42.683  49.918  1.00  0.00     0.017 C 
ATOM     29  C   UNL     1       2.699  47.351  48.463  1.00  0.00     0.012 C 
ATOM     30  C   UNL     1      -0.929  46.774  52.072  1.00  0.00     0.011 C 
ENDROOT
BRANCH  20  31
ATOM     31  O   UNL     1       8.380  37.533  50.389  1.00  0.00    -0.393 OA
ATOM     32  H   UNL     1       8.823  37.024  49.658  1.00  0.00     0.210 HD
ENDBRANCH  20  31
TORSDOF 1
ENDMDL
MODEL 2
REMARK VINA RESULT:    91.506      2.875      8.100
REMARK INTER + INTRA:          94.180
REMARK INTER:                  94.180
REMARK INTRA:                   0.000
REMARK UNBOUND:                 0.000
REMARK SMILES CC1(C)CC[C@]2(C)CC[C@]3(C)C(=CC[C@H]4[C@@]5(C)CC[C@@H](O)C(C)(C)[C@@H]5CC[C@]43C)[C@@H]2C1
REMARK SMILES IDX 1 1 2 2 4 3 5 4 6 5 8 6 9 7 10 8 12 9 13 10 14 11 15 12
REMARK SMILES IDX 28 13 27 14 26 15 25 16 16 17 18 18 19 19 20 20 22 21 23 22
REMARK SMILES IDX 24 23 17 24 29 25 30 26 31 27 11 28 7 29 3 30 21 31
REMARK H PARENT 21 32
REMARK Flexibility Score: inf
ROOT
ATOM      1  C   UNL     1       6.770  36.941  48.802  1.00  0.00     0.011 C 
ATOM      2  C   UNL     1       6.068  37.405  50.103  1.00  0.00    -0.035 C 
ATOM      3  C   UNL     1       7.122  37.892  51.164  1.00  0.00     0.007 C 
ATOM      4  C   UNL     1       7.001  39.364  51.597  1.00  0.00     0.008 C 
ATOM      5  C   UNL     1       6.833  40.339  50.405  1.00  0.00    -0.026 C 
ATOM      6  C   UNL     1       6.686  41.804  50.920  1.00  0.00     0.008 C 
ATOM      7  C   UNL     1       5.335  42.155  51.564  1.00  0.00     0.012 C 
ATOM      8  C   UNL     1       4.042  41.684  50.790  1.00  0.00    -0.006 C 
ATOM      9  C   UNL     1       4.520  41.030  49.479  1.00  0.00    -0.064 C 
ATOM     10  C   UNL     1       4.308  41.622  48.295  1.00  0.00    -0.027 C 
ATOM     11  C   UNL     1       3.766  42.995  48.096  1.00  0.00     0.032 C 
ATOM     12  C   UNL     1       3.433  43.840  49.368  1.00  0.00     0.006 C 
ATOM     13  C   UNL     1       2.982  42.900  50.564  1.00  0.00    -0.020 C 
ATOM     14  C   UNL     1       1.557  42.365  50.189  1.00  0.00     0.008 C 
ATOM     15  C   UNL     1       0.522  43.465  49.880  1.00  0.00     0.005 C 
ATOM     16  C   UNL     1       0.966  44.455  48.774  1.00  0.00     0.003 C 
ATOM     17  C   UNL     1       2.411  45.041  49.014  1.00  0.00    -0.025 C 
ATOM     18  C   UNL     1       2.855  45.812  47.710  1.00  0.00     0.010 C 
ATOM     19  C   UNL     1       1.725  46.524  46.923  1.00  0.00     0.033 C 
ATOM     20  C   UNL     1       0.448  46.805  47.726  1.00  0.00     0.120 C 
ATOM     21  C   UNL     1      -0.162  45.509  48.366  1.00  0.00    -0.006 C 
ATOM     22  C   UNL     1      -1.120  44.827  47.344  1.00  0.00     0.014 C 
ATOM     23  C   UNL     1      -1.037  45.954  49.569  1.00  0.00     0.014 C 
ATOM     24  C   UNL     1       2.446  46.102  50.159  1.00  0.00     0.012 C 
ATOM     25  C   UNL     1       2.878  43.691  51.925  1.00  0.00     0.012 C 
ATOM     26  C   UNL     1       5.610  39.925  49.499  1.00  0.00     0.022 C 
ATOM     27  C   UNL     1       5.020  38.507  49.765  1.00  0.00     0.015 C 
ATOM     28  C   UNL     1       3.340  40.587  51.654  1.00  0.00     0.017 C 
ATOM     29  C   UNL     1       8.154  40.337  49.580  1.00  0.00     0.012 C 
ATOM     30  C   UNL     1       5.324  36.176  50.673  1.00  0.00     0.011 C 
ENDROOT
BRANCH  20  31
ATOM     31  O   UNL     1      -0.495  47.435  46.892  1.00  0.00    -0.393 OA
ATOM     32  H   UNL     1      -0.351  48.416  46.965  1.00  0.00     0.210 HD
ENDBRANCH  20  31
TORSDOF 1
ENDMDL
