MODEL 1
REMARK VINA RESULT:    -4.749      0.000      0.000
REMARK INTER + INTRA:          -8.113
REMARK INTER:                  -7.525
REMARK INTRA:                  -0.587
REMARK UNBOUND:                -0.587
REMARK SMILES CCCCCCCCCCCC(=O)[O-]
REMARK SMILES IDX 7 1 8 2 9 3 10 4 11 5 12 6 13 7 14 8 6 9 5 10 4 11 3 12 2 13
REMARK SMILES IDX 1 14
REMARK H PARENT
REMARK Flexibility Score: inf
ROOT
ATOM      1  C   UNL     1      -0.768  -0.908   8.044  1.00  0.00     0.000 C 
ENDROOT
BRANCH   1   2
ATOM      2  C   UNL     1      -1.174   0.397   7.340  1.00  0.00     0.000 C 
BRANCH   2   3
ATOM      3  C   UNL     1      -1.194   0.261   5.810  1.00  0.00     0.000 C 
BRANCH   3   4
ATOM      4  C   UNL     1      -1.507  -1.184   5.391  1.00  0.00     0.006 C 
BRANCH   4   5
ATOM      5  C   UNL     1      -1.499  -1.363   3.868  1.00  0.00     0.053 C 
BRANCH   5   6
ATOM      6  C   UNL     1      -1.444  -2.807   3.477  1.00  0.00     0.041 C 
ATOM      7  O   UNL     1      -1.408  -3.134   2.262  1.00  0.00    -0.550 OA
ATOM      8  O   UNL     1      -1.467  -3.795   4.454  1.00  0.00    -0.550 OA
ENDBRANCH   5   6
ENDBRANCH   4   5
ENDBRANCH   3   4
ENDBRANCH   2   3
ENDBRANCH   1   2
BRANCH   1   9
ATOM      9  C   UNL     1      -0.023  -0.661   9.365  1.00  0.00     0.000 C 
BRANCH   9  10
ATOM     10  C   UNL     1       0.291  -1.983  10.075  1.00  0.00    -0.000 C 
BRANCH  10  11
ATOM     11  C   UNL     1       0.040  -3.180   9.145  1.00  0.00    -0.000 C 
BRANCH  11  12
ATOM     12  C   UNL     1       0.895  -4.408   9.505  1.00  0.00    -0.000 C 
BRANCH  12  13
ATOM     13  C   UNL     1       1.310  -5.282   8.308  1.00  0.00    -0.003 C 
ATOM     14  C   UNL     1       0.179  -5.497   7.303  1.00  0.00     0.004 C 
ENDBRANCH  12  13
ENDBRANCH  11  12
ENDBRANCH  10  11
ENDBRANCH   9  10
ENDBRANCH   1   9
TORSDOF 10
ENDMDL
MODEL 2
REMARK VINA RESULT:    -4.491      2.007      4.925
REMARK INTER + INTRA:          -7.703
REMARK INTER:                  -7.012
REMARK INTRA:                  -0.691
REMARK UNBOUND:                -0.587
REMARK SMILES CCCCCCCCCCCC(=O)[O-]
REMARK SMILES IDX 7 1 8 2 9 3 10 4 11 5 12 6 13 7 14 8 6 9 5 10 4 11 3 12 2 13
REMARK SMILES IDX 1 14
REMARK H PARENT
REMARK Flexibility Score: inf
ROOT
ATOM      1  C   UNL     1      -0.672   0.316   8.259  1.00  0.00     0.000 C 
ENDROOT
BRANCH   1   2
ATOM      2  C   UNL     1      -0.615  -0.513   9.552  1.00  0.00     0.000 C 
BRANCH   2   3
ATOM      3  C   UNL     1       0.782  -1.094   9.821  1.00  0.00     0.000 C 
BRANCH   3   4
ATOM      4  C   UNL     1       0.711  -2.614  10.034  1.00  0.00     0.006 C 
BRANCH   4   5
ATOM      5  C   UNL     1      -0.170  -3.308   8.987  1.00  0.00     0.053 C 
BRANCH   5   6
ATOM      6  C   UNL     1       0.457  -4.568   8.477  1.00  0.00     0.041 C 
ATOM      7  O   UNL     1      -0.015  -5.145   7.462  1.00  0.00    -0.550 OA
ATOM      8  O   UNL     1       1.543  -5.124   9.142  1.00  0.00    -0.550 OA
ENDBRANCH   5   6
ENDBRANCH   4   5
ENDBRANCH   3   4
ENDBRANCH   2   3
ENDBRANCH   1   2
BRANCH   1   9
ATOM      9  C   UNL     1      -1.483  -0.372   7.150  1.00  0.00     0.000 C 
BRANCH   9  10
ATOM     10  C   UNL     1      -1.127   0.201   5.772  1.00  0.00    -0.000 C 
BRANCH  10  11
ATOM     11  C   UNL     1      -1.483  -0.791   4.655  1.00  0.00    -0.000 C 
BRANCH  11  12
ATOM     12  C   UNL     1      -1.481  -2.255   5.131  1.00  0.00    -0.000 C 
BRANCH  12  13
ATOM     13  C   UNL     1      -1.557  -3.302   4.006  1.00  0.00    -0.003 C 
ATOM     14  C   UNL     1      -1.266  -2.717   2.624  1.00  0.00     0.004 C 
ENDBRANCH  12  13
ENDBRANCH  11  12
ENDBRANCH  10  11
ENDBRANCH   9  10
ENDBRANCH   1   9
TORSDOF 10
ENDMDL
MODEL 3
REMARK VINA RESULT:    -4.473      2.203      3.744
REMARK INTER + INTRA:          -7.676
REMARK INTER:                  -7.168
REMARK INTRA:                  -0.508
REMARK UNBOUND:                -0.587
REMARK SMILES CCCCCCCCCCCC(=O)[O-]
REMARK SMILES IDX 7 1 8 2 9 3 10 4 11 5 12 6 13 7 14 8 6 9 5 10 4 11 3 12 2 13
REMARK SMILES IDX 1 14
REMARK H PARENT
REMARK Flexibility Score: inf
ROOT
ATOM      1  C   UNL     1       1.524  -2.769  10.013  1.00  0.00     0.000 C 
ENDROOT
BRANCH   1   2
ATOM      2  C   UNL     1       1.821  -1.265  10.112  1.00  0.00     0.000 C 
BRANCH   2   3
ATOM      3  C   UNL     1       0.552  -0.404  10.024  1.00  0.00     0.000 C 
BRANCH   3   4
ATOM      4  C   UNL     1      -0.443  -0.996   9.013  1.00  0.00     0.006 C 
BRANCH   4   5
ATOM      5  C   UNL     1      -1.110   0.085   8.153  1.00  0.00     0.053 C 
BRANCH   5   6
ATOM      6  C   UNL     1      -1.183  -0.316   6.713  1.00  0.00     0.041 C 
ATOM      7  O   UNL     1      -1.194  -1.534   6.394  1.00  0.00    -0.550 OA
ATOM      8  O   UNL     1      -1.202   0.655   5.719  1.00  0.00    -0.550 OA
ENDBRANCH   5   6
ENDBRANCH   4   5
ENDBRANCH   3   4
ENDBRANCH   2   3
ENDBRANCH   1   2
BRANCH   1   9
ATOM      9  C   UNL     1       2.791  -3.610   9.793  1.00  0.00     0.000 C 
BRANCH   9  10
ATOM     10  C   UNL     1       2.524  -4.760   8.813  1.00  0.00    -0.000 C 
BRANCH  10  11
ATOM     11  C   UNL     1       1.105  -5.317   8.992  1.00  0.00    -0.000 C 
BRANCH  11  12
ATOM     12  C   UNL     1       0.200  -5.053   7.774  1.00  0.00    -0.000 C 
BRANCH  12  13
ATOM     13  C   UNL     1      -0.022  -6.269   6.856  1.00  0.00    -0.003 C 
ATOM     14  C   UNL     1      -1.143  -7.188   7.341  1.00  0.00     0.004 C 
ENDBRANCH  12  13
ENDBRANCH  11  12
ENDBRANCH  10  11
ENDBRANCH   9  10
ENDBRANCH   1   9
TORSDOF 10
ENDMDL
MODEL 4
REMARK VINA RESULT:    -4.459      3.899      6.943
REMARK INTER + INTRA:          -7.653
REMARK INTER:                  -7.164
REMARK INTRA:                  -0.489
REMARK UNBOUND:                -0.587
REMARK SMILES CCCCCCCCCCCC(=O)[O-]
REMARK SMILES IDX 7 1 8 2 9 3 10 4 11 5 12 6 13 7 14 8 6 9 5 10 4 11 3 12 2 13
REMARK SMILES IDX 1 14
REMARK H PARENT
REMARK Flexibility Score: inf
ROOT
ATOM      1  C   UNL     1      -0.827  -6.379   7.568  1.00  0.00     0.000 C 
ENDROOT
BRANCH   1   2
ATOM      2  C   UNL     1      -0.927  -7.876   7.233  1.00  0.00     0.000 C 
BRANCH   2   3
ATOM      3  C   UNL     1      -2.140  -8.549   7.893  1.00  0.00     0.000 C 
BRANCH   3   4
ATOM      4  C   UNL     1      -2.949  -7.536   8.717  1.00  0.00     0.006 C 
BRANCH   4   5
ATOM      5  C   UNL     1      -4.304  -8.099   9.165  1.00  0.00     0.053 C 
BRANCH   5   6
ATOM      6  C   UNL     1      -5.373  -7.857   8.145  1.00  0.00     0.041 C 
ATOM      7  O   UNL     1      -5.943  -6.737   8.078  1.00  0.00    -0.550 OA
ATOM      8  O   UNL     1      -5.765  -8.880   7.291  1.00  0.00    -0.550 OA
ENDBRANCH   5   6
ENDBRANCH   4   5
ENDBRANCH   3   4
ENDBRANCH   2   3
ENDBRANCH   1   2
BRANCH   1   9
ATOM      9  C   UNL     1      -0.264  -5.548   6.405  1.00  0.00     0.000 C 
BRANCH   9  10
ATOM     10  C   UNL     1      -0.776  -4.104   6.462  1.00  0.00    -0.000 C 
BRANCH  10  11
ATOM     11  C   UNL     1      -1.566  -3.750   5.193  1.00  0.00    -0.000 C 
BRANCH  11  12
ATOM     12  C   UNL     1      -1.535  -2.245   4.868  1.00  0.00    -0.000 C 
BRANCH  12  13
ATOM     13  C   UNL     1      -1.397  -1.909   3.372  1.00  0.00    -0.003 C 
ATOM     14  C   UNL     1      -1.311  -3.150   2.485  1.00  0.00     0.004 C 
ENDBRANCH  12  13
ENDBRANCH  11  12
ENDBRANCH  10  11
ENDBRANCH   9  10
ENDBRANCH   1   9
TORSDOF 10
ENDMDL
MODEL 5
REMARK VINA RESULT:    -4.374      4.233      6.792
REMARK INTER + INTRA:          -7.519
REMARK INTER:                  -6.822
REMARK INTRA:                  -0.697
REMARK UNBOUND:                -0.587
REMARK SMILES CCCCCCCCCCCC(=O)[O-]
REMARK SMILES IDX 7 1 8 2 9 3 10 4 11 5 12 6 13 7 14 8 6 9 5 10 4 11 3 12 2 13
REMARK SMILES IDX 1 14
REMARK H PARENT
REMARK Flexibility Score: inf
ROOT
ATOM      1  C   UNL     1      -1.345  -7.244   7.442  1.00  0.00     0.000 C 
ENDROOT
BRANCH   1   2
ATOM      2  C   UNL     1      -1.173  -8.762   7.268  1.00  0.00     0.000 C 
BRANCH   2   3
ATOM      3  C   UNL     1      -2.216  -9.569   8.056  1.00  0.00     0.000 C 
BRANCH   3   4
ATOM      4  C   UNL     1      -2.920  -8.686   9.099  1.00  0.00     0.006 C 
BRANCH   4   5
ATOM      5  C   UNL     1      -4.433  -8.930   9.141  1.00  0.00     0.053 C 
BRANCH   5   6
ATOM      6  C   UNL     1      -5.109  -8.456   7.892  1.00  0.00     0.041 C 
ATOM      7  O   UNL     1      -4.945  -7.273   7.493  1.00  0.00    -0.550 OA
ATOM      8  O   UNL     1      -5.950  -9.309   7.188  1.00  0.00    -0.550 OA
ENDBRANCH   5   6
ENDBRANCH   4   5
ENDBRANCH   3   4
ENDBRANCH   2   3
ENDBRANCH   1   2
BRANCH   1   9
ATOM      9  C   UNL     1      -0.077  -6.459   7.074  1.00  0.00     0.000 C 
BRANCH   9  10
ATOM     10  C   UNL     1      -0.321  -4.947   7.165  1.00  0.00    -0.000 C 
BRANCH  10  11
ATOM     11  C   UNL     1       0.101  -4.404   8.539  1.00  0.00    -0.000 C 
BRANCH  11  12
ATOM     12  C   UNL     1       0.785  -5.466   9.418  1.00  0.00    -0.000 C 
BRANCH  12  13
ATOM     13  C   UNL     1       2.261  -5.180   9.748  1.00  0.00    -0.003 C 
ATOM     14  C   UNL     1       3.162  -5.188   8.514  1.00  0.00     0.004 C 
ENDBRANCH  12  13
ENDBRANCH  11  12
ENDBRANCH  10  11
ENDBRANCH   9  10
ENDBRANCH   1   9
TORSDOF 10
ENDMDL
MODEL 6
REMARK VINA RESULT:    -4.244      3.095      6.367
REMARK INTER + INTRA:          -7.312
REMARK INTER:                  -7.004
REMARK INTRA:                  -0.308
REMARK UNBOUND:                -0.587
REMARK SMILES CCCCCCCCCCCC(=O)[O-]
REMARK SMILES IDX 7 1 8 2 9 3 10 4 11 5 12 6 13 7 14 8 6 9 5 10 4 11 3 12 2 13
REMARK SMILES IDX 1 14
REMARK H PARENT
REMARK Flexibility Score: inf
ROOT
ATOM      1  C   UNL     1      -0.902  -4.262   6.300  1.00  0.00     0.000 C 
ENDROOT
BRANCH   1   2
ATOM      2  C   UNL     1      -0.048  -5.480   6.683  1.00  0.00     0.000 C 
BRANCH   2   3
ATOM      3  C   UNL     1      -0.877  -6.611   7.311  1.00  0.00     0.000 C 
BRANCH   3   4
ATOM      4  C   UNL     1      -1.100  -6.359   8.811  1.00  0.00     0.006 C 
BRANCH   4   5
ATOM      5  C   UNL     1      -2.128  -7.324   9.415  1.00  0.00     0.053 C 
BRANCH   5   6
ATOM      6  C   UNL     1      -2.992  -7.949   8.364  1.00  0.00     0.041 C 
ATOM      7  O   UNL     1      -4.006  -7.340   7.932  1.00  0.00    -0.550 OA
ATOM      8  O   UNL     1      -2.697  -9.219   7.885  1.00  0.00    -0.550 OA
ENDBRANCH   5   6
ENDBRANCH   4   5
ENDBRANCH   3   4
ENDBRANCH   2   3
ENDBRANCH   1   2
BRANCH   1   9
ATOM      9  C   UNL     1      -1.251  -4.229   4.804  1.00  0.00     0.000 C 
BRANCH   9  10
ATOM     10  C   UNL     1      -1.587  -2.804   4.348  1.00  0.00    -0.000 C 
BRANCH  10  11
ATOM     11  C   UNL     1      -1.453  -1.809   5.511  1.00  0.00    -0.000 C 
BRANCH  11  12
ATOM     12  C   UNL     1      -1.317  -0.350   5.037  1.00  0.00    -0.000 C 
BRANCH  12  13
ATOM     13  C   UNL     1      -1.224   0.691   6.167  1.00  0.00    -0.003 C 
ATOM     14  C   UNL     1      -1.160   0.061   7.558  1.00  0.00     0.004 C 
ENDBRANCH  12  13
ENDBRANCH  11  12
ENDBRANCH  10  11
ENDBRANCH   9  10
ENDBRANCH   1   9
TORSDOF 10
ENDMDL
MODEL 7
REMARK VINA RESULT:    -4.162      3.137      4.653
REMARK INTER + INTRA:          -7.182
REMARK INTER:                  -6.538
REMARK INTRA:                  -0.644
REMARK UNBOUND:                -0.587
REMARK SMILES CCCCCCCCCCCC(=O)[O-]
REMARK SMILES IDX 7 1 8 2 9 3 10 4 11 5 12 6 13 7 14 8 6 9 5 10 4 11 3 12 2 13
REMARK SMILES IDX 1 14
REMARK H PARENT
REMARK Flexibility Score: inf
ROOT
ATOM      1  C   UNL     1      -1.520  -2.203   5.154  1.00  0.00     0.000 C 
ENDROOT
BRANCH   1   2
ATOM      2  C   UNL     1      -1.070  -1.564   6.478  1.00  0.00     0.000 C 
BRANCH   2   3
ATOM      3  C   UNL     1      -1.292  -0.044   6.506  1.00  0.00     0.000 C 
BRANCH   3   4
ATOM      4  C   UNL     1      -1.074   0.515   7.921  1.00  0.00     0.006 C 
BRANCH   4   5
ATOM      5  C   UNL     1      -0.723  -0.583   8.933  1.00  0.00     0.053 C 
BRANCH   5   6
ATOM      6  C   UNL     1       0.643  -0.388   9.514  1.00  0.00     0.041 C 
ATOM      7  O   UNL     1       1.212  -1.331  10.125  1.00  0.00    -0.550 OA
ATOM      8  O   UNL     1       1.274   0.845   9.413  1.00  0.00    -0.550 OA
ENDBRANCH   5   6
ENDBRANCH   4   5
ENDBRANCH   3   4
ENDBRANCH   2   3
ENDBRANCH   1   2
BRANCH   1   9
ATOM      9  C   UNL     1      -1.415  -3.735   5.170  1.00  0.00     0.000 C 
BRANCH   9  10
ATOM     10  C   UNL     1      -0.758  -4.228   6.466  1.00  0.00    -0.000 C 
BRANCH  10  11
ATOM     11  C   UNL     1      -0.404  -5.719   6.370  1.00  0.00    -0.000 C 
BRANCH  11  12
ATOM     12  C   UNL     1      -0.277  -6.395   7.748  1.00  0.00    -0.000 C 
BRANCH  12  13
ATOM     13  C   UNL     1      -0.037  -5.429   8.923  1.00  0.00    -0.003 C 
ATOM     14  C   UNL     1       1.439  -5.293   9.293  1.00  0.00     0.004 C 
ENDBRANCH  12  13
ENDBRANCH  11  12
ENDBRANCH  10  11
ENDBRANCH   9  10
ENDBRANCH   1   9
TORSDOF 10
ENDMDL
MODEL 8
REMARK VINA RESULT:    -4.111      3.242      4.681
REMARK INTER + INTRA:          -7.102
REMARK INTER:                  -6.455
REMARK INTRA:                  -0.646
REMARK UNBOUND:                -0.587
REMARK SMILES CCCCCCCCCCCC(=O)[O-]
REMARK SMILES IDX 7 1 8 2 9 3 10 4 11 5 12 6 13 7 14 8 6 9 5 10 4 11 3 12 2 13
REMARK SMILES IDX 1 14
REMARK H PARENT
REMARK Flexibility Score: inf
ROOT
ATOM      1  C   UNL     1      -0.572  -6.405   7.337  1.00  0.00     0.000 C 
ENDROOT
BRANCH   1   2
ATOM      2  C   UNL     1      -0.428  -5.168   6.436  1.00  0.00     0.000 C 
BRANCH   2   3
ATOM      3  C   UNL     1      -0.451  -3.852   7.229  1.00  0.00     0.000 C 
BRANCH   3   4
ATOM      4  C   UNL     1      -1.133  -2.737   6.422  1.00  0.00     0.006 C 
BRANCH   4   5
ATOM      5  C   UNL     1      -1.605  -3.221   5.045  1.00  0.00     0.053 C 
BRANCH   5   6
ATOM      6  C   UNL     1      -1.518  -2.139   4.014  1.00  0.00     0.041 C 
ATOM      7  O   UNL     1      -1.324  -2.431   2.804  1.00  0.00    -0.550 OA
ATOM      8  O   UNL     1      -1.616  -0.806   4.392  1.00  0.00    -0.550 OA
ENDBRANCH   5   6
ENDBRANCH   4   5
ENDBRANCH   3   4
ENDBRANCH   2   3
ENDBRANCH   1   2
BRANCH   1   9
ATOM      9  C   UNL     1      -0.611  -6.048   8.831  1.00  0.00     0.000 C 
BRANCH   9  10
ATOM     10  C   UNL     1      -1.684  -6.863   9.563  1.00  0.00    -0.000 C 
BRANCH  10  11
ATOM     11  C   UNL     1      -2.639  -7.537   8.567  1.00  0.00    -0.000 C 
BRANCH  11  12
ATOM     12  C   UNL     1      -2.772  -9.053   8.797  1.00  0.00    -0.000 C 
BRANCH  12  13
ATOM     13  C   UNL     1      -4.047  -9.688   8.212  1.00  0.00    -0.003 C 
ATOM     14  C   UNL     1      -5.054  -8.653   7.712  1.00  0.00     0.004 C 
ENDBRANCH  12  13
ENDBRANCH  11  12
ENDBRANCH  10  11
ENDBRANCH   9  10
ENDBRANCH   1   9
TORSDOF 10
ENDMDL
MODEL 9
REMARK VINA RESULT:    -4.071      2.989      4.365
REMARK INTER + INTRA:          -7.039
REMARK INTER:                  -6.524
REMARK INTRA:                  -0.515
REMARK UNBOUND:                -0.587
REMARK SMILES CCCCCCCCCCCC(=O)[O-]
REMARK SMILES IDX 7 1 8 2 9 3 10 4 11 5 12 6 13 7 14 8 6 9 5 10 4 11 3 12 2 13
REMARK SMILES IDX 1 14
REMARK H PARENT
REMARK Flexibility Score: inf
ROOT
ATOM      1  C   UNL     1      -0.170  -5.339   6.189  1.00  0.00     0.000 C 
ENDROOT
BRANCH   1   2
ATOM      2  C   UNL     1      -1.174  -4.179   6.279  1.00  0.00     0.000 C 
BRANCH   2   3
ATOM      3  C   UNL     1      -1.453  -3.531   4.914  1.00  0.00     0.000 C 
BRANCH   3   4
ATOM      4  C   UNL     1      -1.462  -1.999   5.026  1.00  0.00     0.006 C 
BRANCH   4   5
ATOM      5  C   UNL     1      -1.126  -1.517   6.443  1.00  0.00     0.053 C 
BRANCH   5   6
ATOM      6  C   UNL     1      -1.267  -0.032   6.574  1.00  0.00     0.041 C 
ATOM      7  O   UNL     1      -1.532   0.482   7.692  1.00  0.00    -0.550 OA
ATOM      8  O   UNL     1      -1.139   0.782   5.455  1.00  0.00    -0.550 OA
ENDBRANCH   5   6
ENDBRANCH   4   5
ENDBRANCH   3   4
ENDBRANCH   2   3
ENDBRANCH   1   2
BRANCH   1   9
ATOM      9  C   UNL     1       0.505  -5.644   7.535  1.00  0.00     0.000 C 
BRANCH   9  10
ATOM     10  C   UNL     1      -0.284  -5.028   8.698  1.00  0.00    -0.000 C 
BRANCH  10  11
ATOM     11  C   UNL     1      -1.036  -6.111   9.486  1.00  0.00    -0.000 C 
BRANCH  11  12
ATOM     12  C   UNL     1      -1.696  -7.164   8.578  1.00  0.00    -0.000 C 
BRANCH  12  13
ATOM     13  C   UNL     1      -2.583  -8.187   9.311  1.00  0.00    -0.003 C 
ATOM     14  C   UNL     1      -3.627  -8.833   8.401  1.00  0.00     0.004 C 
ENDBRANCH  12  13
ENDBRANCH  11  12
ENDBRANCH  10  11
ENDBRANCH   9  10
ENDBRANCH   1   9
TORSDOF 10
ENDMDL
