MODEL 1
REMARK VINA RESULT:    -5.553      0.000      0.000
REMARK INTER + INTRA:          -5.553
REMARK INTER:                  -5.553
REMARK INTRA:                   0.000
REMARK UNBOUND:                 0.000
REMARK SMILES C=C1CCC[C@]2(C)C=C3OC(=O)C(C)=C3C[C@H]12
REMARK SMILES IDX 14 1 13 2 15 3 16 4 17 5 2 6 1 7 3 8 4 9 5 10 6 11 8 12 9 13
REMARK SMILES IDX 10 14 11 15 12 16 7 17
REMARK H PARENT
REMARK Flexibility Score: inf
ROOT
ATOM      1  C   UNL     1      27.693  -3.980  33.987  1.00  0.00     0.053 C 
ATOM      2  C   UNL     1      27.515  -2.914  35.022  1.00  0.00     0.041 C 
ATOM      3  C   UNL     1      26.516  -2.038  35.091  1.00  0.00     0.005 C 
ATOM      4  C   UNL     1      25.318  -1.901  34.207  1.00  0.00     0.049 C 
ATOM      5  C   UNL     1      24.698  -0.485  34.365  1.00  0.00     0.029 C 
ATOM      6  C   UNL     1      25.471   0.541  33.542  1.00  0.00    -0.073 C 
ATOM      7  C   UNL     1      25.439   0.498  32.199  1.00  0.00     0.008 C 
ATOM      8  C   UNL     1      26.248   1.628  34.247  1.00  0.00     0.031 C 
ATOM      9  C   UNL     1      25.391   2.350  35.303  1.00  0.00     0.005 C 
ATOM     10  C   UNL     1      24.270   1.485  35.923  1.00  0.00     0.012 C 
ATOM     11  C   UNL     1      24.562  -0.036  35.878  1.00  0.00    -0.004 C 
ATOM     12  C   UNL     1      25.814  -0.332  36.699  1.00  0.00     0.027 C 
ATOM     13  C   UNL     1      26.667  -1.277  36.316  1.00  0.00     0.131 C 
ATOM     14  O   UNL     1      27.801  -1.686  37.000  1.00  0.00    -0.423 OA
ATOM     15  C   UNL     1      28.335  -2.702  36.217  1.00  0.00     0.339 C 
ATOM     16  O   UNL     1      29.375  -3.345  36.515  1.00  0.00    -0.246 OA
ATOM     17  C   UNL     1      23.385  -0.784  36.537  1.00  0.00     0.016 C 
ENDROOT
TORSDOF 0
ENDMDL
MODEL 2
REMARK VINA RESULT:    -5.479      5.387      8.380
REMARK INTER + INTRA:          -5.479
REMARK INTER:                  -5.479
REMARK INTRA:                   0.000
REMARK UNBOUND:                 0.000
REMARK SMILES C=C1CCC[C@]2(C)C=C3OC(=O)C(C)=C3C[C@H]12
REMARK SMILES IDX 14 1 13 2 15 3 16 4 17 5 2 6 1 7 3 8 4 9 5 10 6 11 8 12 9 13
REMARK SMILES IDX 10 14 11 15 12 16 7 17
REMARK H PARENT
REMARK Flexibility Score: inf
ROOT
ATOM      1  C   UNL     1      29.804  -6.006  34.258  1.00  0.00     0.053 C 
ATOM      2  C   UNL     1      30.411  -4.652  34.451  1.00  0.00     0.041 C 
ATOM      3  C   UNL     1      31.603  -4.251  34.018  1.00  0.00     0.005 C 
ATOM      4  C   UNL     1      32.617  -5.001  33.216  1.00  0.00     0.049 C 
ATOM      5  C   UNL     1      34.011  -4.327  33.356  1.00  0.00     0.029 C 
ATOM      6  C   UNL     1      34.683  -4.738  34.663  1.00  0.00    -0.073 C 
ATOM      7  C   UNL     1      35.094  -6.004  34.846  1.00  0.00     0.008 C 
ATOM      8  C   UNL     1      34.914  -3.703  35.737  1.00  0.00     0.031 C 
ATOM      9  C   UNL     1      35.595  -2.440  35.178  1.00  0.00     0.005 C 
ATOM     10  C   UNL     1      35.296  -2.153  33.689  1.00  0.00     0.012 C 
ATOM     11  C   UNL     1      33.954  -2.753  33.198  1.00  0.00    -0.004 C 
ATOM     12  C   UNL     1      32.806  -2.120  33.979  1.00  0.00     0.027 C 
ATOM     13  C   UNL     1      31.735  -2.836  34.308  1.00  0.00     0.131 C 
ATOM     14  O   UNL     1      30.602  -2.369  34.957  1.00  0.00    -0.423 OA
ATOM     15  C   UNL     1      29.770  -3.478  35.049  1.00  0.00     0.339 C 
ATOM     16  O   UNL     1      28.624  -3.454  35.567  1.00  0.00    -0.246 OA
ATOM     17  C   UNL     1      33.765  -2.386  31.712  1.00  0.00     0.016 C 
ENDROOT
TORSDOF 0
ENDMDL
MODEL 3
REMARK VINA RESULT:    -5.407      2.082      3.782
REMARK INTER + INTRA:          -5.407
REMARK INTER:                  -5.407
REMARK INTRA:                   0.000
REMARK UNBOUND:                 0.000
REMARK SMILES C=C1CCC[C@]2(C)C=C3OC(=O)C(C)=C3C[C@H]12
REMARK SMILES IDX 14 1 13 2 15 3 16 4 17 5 2 6 1 7 3 8 4 9 5 10 6 11 8 12 9 13
REMARK SMILES IDX 10 14 11 15 12 16 7 17
REMARK H PARENT
REMARK Flexibility Score: inf
ROOT
ATOM      1  C   UNL     1      27.541   2.905  35.767  1.00  0.00     0.053 C 
ATOM      2  C   UNL     1      26.820   1.704  36.290  1.00  0.00     0.041 C 
ATOM      3  C   UNL     1      26.138   0.816  35.572  1.00  0.00     0.005 C 
ATOM      4  C   UNL     1      25.939   0.753  34.091  1.00  0.00     0.049 C 
ATOM      5  C   UNL     1      24.713  -0.141  33.757  1.00  0.00     0.029 C 
ATOM      6  C   UNL     1      23.410   0.633  33.938  1.00  0.00    -0.073 C 
ATOM      7  C   UNL     1      23.103   1.648  33.112  1.00  0.00     0.008 C 
ATOM      8  C   UNL     1      22.452   0.230  35.032  1.00  0.00     0.031 C 
ATOM      9  C   UNL     1      22.157  -1.281  35.007  1.00  0.00     0.005 C 
ATOM     10  C   UNL     1      23.299  -2.150  34.434  1.00  0.00     0.012 C 
ATOM     11  C   UNL     1      24.700  -1.501  34.568  1.00  0.00    -0.004 C 
ATOM     12  C   UNL     1      25.028  -1.313  36.046  1.00  0.00     0.027 C 
ATOM     13  C   UNL     1      25.713  -0.250  36.457  1.00  0.00     0.131 C 
ATOM     14  O   UNL     1      26.128   0.007  37.755  1.00  0.00    -0.423 OA
ATOM     15  C   UNL     1      26.819   1.209  37.669  1.00  0.00     0.339 C 
ATOM     16  O   UNL     1      27.370   1.774  38.650  1.00  0.00    -0.246 OA
ATOM     17  C   UNL     1      25.748  -2.467  33.978  1.00  0.00     0.016 C 
ENDROOT
TORSDOF 0
ENDMDL
MODEL 4
REMARK VINA RESULT:    -5.392      1.268      1.655
REMARK INTER + INTRA:          -5.392
REMARK INTER:                  -5.392
REMARK INTRA:                   0.000
REMARK UNBOUND:                 0.000
REMARK SMILES C=C1CCC[C@]2(C)C=C3OC(=O)C(C)=C3C[C@H]12
REMARK SMILES IDX 14 1 13 2 15 3 16 4 17 5 2 6 1 7 3 8 4 9 5 10 6 11 8 12 9 13
REMARK SMILES IDX 10 14 11 15 12 16 7 17
REMARK H PARENT
REMARK Flexibility Score: inf
ROOT
ATOM      1  C   UNL     1      27.773  -2.882  35.124  1.00  0.00     0.053 C 
ATOM      2  C   UNL     1      26.846  -1.984  35.879  1.00  0.00     0.041 C 
ATOM      3  C   UNL     1      25.734  -1.422  35.413  1.00  0.00     0.005 C 
ATOM      4  C   UNL     1      25.104  -1.555  34.064  1.00  0.00     0.049 C 
ATOM      5  C   UNL     1      24.119  -0.379  33.818  1.00  0.00     0.029 C 
ATOM      6  C   UNL     1      24.871   0.877  33.386  1.00  0.00    -0.073 C 
ATOM      7  C   UNL     1      25.484   0.924  32.191  1.00  0.00     0.008 C 
ATOM      8  C   UNL     1      24.894   2.080  34.297  1.00  0.00     0.031 C 
ATOM      9  C   UNL     1      23.481   2.462  34.777  1.00  0.00     0.005 C 
ATOM     10  C   UNL     1      22.488   1.280  34.857  1.00  0.00     0.012 C 
ATOM     11  C   UNL     1      23.174  -0.095  35.056  1.00  0.00    -0.004 C 
ATOM     12  C   UNL     1      23.923  -0.095  36.386  1.00  0.00     0.027 C 
ATOM     13  C   UNL     1      25.078  -0.740  36.512  1.00  0.00     0.131 C 
ATOM     14  O   UNL     1      25.823  -0.871  37.674  1.00  0.00    -0.423 OA
ATOM     15  C   UNL     1      26.918  -1.641  37.302  1.00  0.00     0.339 C 
ATOM     16  O   UNL     1      27.828  -1.996  38.096  1.00  0.00    -0.246 OA
ATOM     17  C   UNL     1      22.083  -1.182  35.136  1.00  0.00     0.016 C 
ENDROOT
TORSDOF 0
ENDMDL
MODEL 5
REMARK VINA RESULT:    -5.324      5.205      8.200
REMARK INTER + INTRA:          -5.324
REMARK INTER:                  -5.324
REMARK INTRA:                   0.000
REMARK UNBOUND:                 0.000
REMARK SMILES C=C1CCC[C@]2(C)C=C3OC(=O)C(C)=C3C[C@H]12
REMARK SMILES IDX 14 1 13 2 15 3 16 4 17 5 2 6 1 7 3 8 4 9 5 10 6 11 8 12 9 13
REMARK SMILES IDX 10 14 11 15 12 16 7 17
REMARK H PARENT
REMARK Flexibility Score: inf
ROOT
ATOM      1  C   UNL     1      29.404  -3.126  36.071  1.00  0.00     0.053 C 
ATOM      2  C   UNL     1      30.058  -3.831  34.926  1.00  0.00     0.041 C 
ATOM      3  C   UNL     1      31.360  -3.871  34.661  1.00  0.00     0.005 C 
ATOM      4  C   UNL     1      32.497  -3.275  35.428  1.00  0.00     0.049 C 
ATOM      5  C   UNL     1      33.752  -3.163  34.518  1.00  0.00     0.029 C 
ATOM      6  C   UNL     1      33.663  -1.933  33.619  1.00  0.00    -0.073 C 
ATOM      7  C   UNL     1      33.732  -0.699  34.148  1.00  0.00     0.008 C 
ATOM      8  C   UNL     1      33.527  -2.111  32.126  1.00  0.00     0.031 C 
ATOM      9  C   UNL     1      34.582  -3.085  31.568  1.00  0.00     0.005 C 
ATOM     10  C   UNL     1      35.062  -4.158  32.572  1.00  0.00     0.012 C 
ATOM     11  C   UNL     1      34.028  -4.478  33.681  1.00  0.00    -0.004 C 
ATOM     12  C   UNL     1      32.765  -5.048  33.040  1.00  0.00     0.027 C 
ATOM     13  C   UNL     1      31.566  -4.767  33.540  1.00  0.00     0.131 C 
ATOM     14  O   UNL     1      30.352  -5.267  33.094  1.00  0.00    -0.423 OA
ATOM     15  C   UNL     1      29.409  -4.703  33.943  1.00  0.00     0.339 C 
ATOM     16  O   UNL     1      28.173  -4.931  33.869  1.00  0.00    -0.246 OA
ATOM     17  C   UNL     1      34.615  -5.567  34.602  1.00  0.00     0.016 C 
ENDROOT
TORSDOF 0
ENDMDL
MODEL 6
REMARK VINA RESULT:    -5.045      2.184      4.440
REMARK INTER + INTRA:          -5.045
REMARK INTER:                  -5.045
REMARK INTRA:                   0.000
REMARK UNBOUND:                 0.000
REMARK SMILES C=C1CCC[C@]2(C)C=C3OC(=O)C(C)=C3C[C@H]12
REMARK SMILES IDX 14 1 13 2 15 3 16 4 17 5 2 6 1 7 3 8 4 9 5 10 6 11 8 12 9 13
REMARK SMILES IDX 10 14 11 15 12 16 7 17
REMARK H PARENT
REMARK Flexibility Score: inf
ROOT
ATOM      1  C   UNL     1      24.504   2.853  38.640  1.00  0.00     0.053 C 
ATOM      2  C   UNL     1      25.394   1.890  37.920  1.00  0.00     0.041 C 
ATOM      3  C   UNL     1      25.273   1.496  36.656  1.00  0.00     0.005 C 
ATOM      4  C   UNL     1      24.273   1.916  35.627  1.00  0.00     0.049 C 
ATOM      5  C   UNL     1      24.217   0.870  34.480  1.00  0.00     0.029 C 
ATOM      6  C   UNL     1      23.360  -0.328  34.879  1.00  0.00    -0.073 C 
ATOM      7  C   UNL     1      22.033  -0.190  35.041  1.00  0.00     0.008 C 
ATOM      8  C   UNL     1      24.009  -1.679  35.061  1.00  0.00     0.031 C 
ATOM      9  C   UNL     1      24.896  -2.054  33.859  1.00  0.00     0.005 C 
ATOM     10  C   UNL     1      25.502  -0.848  33.105  1.00  0.00     0.012 C 
ATOM     11  C   UNL     1      25.651   0.421  33.983  1.00  0.00    -0.004 C 
ATOM     12  C   UNL     1      26.612   0.127  35.131  1.00  0.00     0.027 C 
ATOM     13  C   UNL     1      26.416   0.664  36.332  1.00  0.00     0.131 C 
ATOM     14  O   UNL     1      27.243   0.530  37.436  1.00  0.00    -0.423 OA
ATOM     15  C   UNL     1      26.629   1.286  38.427  1.00  0.00     0.339 C 
ATOM     16  O   UNL     1      27.091   1.429  39.588  1.00  0.00    -0.246 OA
ATOM     17  C   UNL     1      26.277   1.540  33.126  1.00  0.00     0.016 C 
ENDROOT
TORSDOF 0
ENDMDL
MODEL 7
REMARK VINA RESULT:    -4.992      2.029      3.580
REMARK INTER + INTRA:          -4.992
REMARK INTER:                  -4.992
REMARK INTRA:                   0.000
REMARK UNBOUND:                 0.000
REMARK SMILES C=C1CCC[C@]2(C)C=C3OC(=O)C(C)=C3C[C@H]12
REMARK SMILES IDX 14 1 13 2 15 3 16 4 17 5 2 6 1 7 3 8 4 9 5 10 6 11 8 12 9 13
REMARK SMILES IDX 10 14 11 15 12 16 7 17
REMARK H PARENT
REMARK Flexibility Score: inf
ROOT
ATOM      1  C   UNL     1      26.956  -1.628  37.077  1.00  0.00     0.053 C 
ATOM      2  C   UNL     1      26.382  -1.416  35.711  1.00  0.00     0.041 C 
ATOM      3  C   UNL     1      25.782  -0.316  35.267  1.00  0.00     0.005 C 
ATOM      4  C   UNL     1      25.553   0.983  35.971  1.00  0.00     0.049 C 
ATOM      5  C   UNL     1      24.423   1.781  35.262  1.00  0.00     0.029 C 
ATOM      6  C   UNL     1      23.049   1.266  35.683  1.00  0.00    -0.073 C 
ATOM      7  C   UNL     1      22.613   1.447  36.942  1.00  0.00     0.008 C 
ATOM      8  C   UNL     1      22.168   0.580  34.667  1.00  0.00     0.031 C 
ATOM      9  C   UNL     1      22.038   1.406  33.373  1.00  0.00     0.005 C 
ATOM     10  C   UNL     1      23.253   2.309  33.061  1.00  0.00     0.012 C 
ATOM     11  C   UNL     1      24.578   1.805  33.687  1.00  0.00    -0.004 C 
ATOM     12  C   UNL     1      24.921   0.437  33.104  1.00  0.00     0.027 C 
ATOM     13  C   UNL     1      25.497  -0.495  33.857  1.00  0.00     0.131 C 
ATOM     14  O   UNL     1      25.915  -1.748  33.436  1.00  0.00    -0.423 OA
ATOM     15  C   UNL     1      26.470  -2.330  34.569  1.00  0.00     0.339 C 
ATOM     16  O   UNL     1      26.981  -3.480  34.588  1.00  0.00    -0.246 OA
ATOM     17  C   UNL     1      25.709   2.776  33.291  1.00  0.00     0.016 C 
ENDROOT
TORSDOF 0
ENDMDL
MODEL 8
REMARK VINA RESULT:    -4.946      2.589      4.986
REMARK INTER + INTRA:          -4.946
REMARK INTER:                  -4.946
REMARK INTRA:                   0.000
REMARK UNBOUND:                 0.000
REMARK SMILES C=C1CCC[C@]2(C)C=C3OC(=O)C(C)=C3C[C@H]12
REMARK SMILES IDX 14 1 13 2 15 3 16 4 17 5 2 6 1 7 3 8 4 9 5 10 6 11 8 12 9 13
REMARK SMILES IDX 10 14 11 15 12 16 7 17
REMARK H PARENT
REMARK Flexibility Score: inf
ROOT
ATOM      1  C   UNL     1      23.927   3.550  37.701  1.00  0.00     0.053 C 
ATOM      2  C   UNL     1      23.671   2.117  37.356  1.00  0.00     0.041 C 
ATOM      3  C   UNL     1      24.551   1.254  36.858  1.00  0.00     0.005 C 
ATOM      4  C   UNL     1      26.000   1.456  36.549  1.00  0.00     0.049 C 
ATOM      5  C   UNL     1      26.492   0.360  35.564  1.00  0.00     0.029 C 
ATOM      6  C   UNL     1      26.099   0.703  34.130  1.00  0.00    -0.073 C 
ATOM      7  C   UNL     1      26.661   1.751  33.504  1.00  0.00     0.008 C 
ATOM      8  C   UNL     1      25.096  -0.163  33.407  1.00  0.00     0.031 C 
ATOM      9  C   UNL     1      25.457  -1.658  33.502  1.00  0.00     0.005 C 
ATOM     10  C   UNL     1      26.249  -2.049  34.770  1.00  0.00     0.012 C 
ATOM     11  C   UNL     1      26.014  -1.094  35.968  1.00  0.00    -0.004 C 
ATOM     12  C   UNL     1      24.542  -1.144  36.369  1.00  0.00     0.027 C 
ATOM     13  C   UNL     1      23.920  -0.050  36.798  1.00  0.00     0.131 C 
ATOM     14  O   UNL     1      22.612   0.027  37.250  1.00  0.00    -0.423 OA
ATOM     15  C   UNL     1      22.442   1.359  37.604  1.00  0.00     0.339 C 
ATOM     16  O   UNL     1      21.376   1.828  38.081  1.00  0.00    -0.246 OA
ATOM     17  C   UNL     1      26.841  -1.598  37.168  1.00  0.00     0.016 C 
ENDROOT
TORSDOF 0
ENDMDL
MODEL 9
REMARK VINA RESULT:    -4.890      2.134      2.951
REMARK INTER + INTRA:          -4.890
REMARK INTER:                  -4.890
REMARK INTRA:                   0.000
REMARK UNBOUND:                 0.000
REMARK SMILES C=C1CCC[C@]2(C)C=C3OC(=O)C(C)=C3C[C@H]12
REMARK SMILES IDX 14 1 13 2 15 3 16 4 17 5 2 6 1 7 3 8 4 9 5 10 6 11 8 12 9 13
REMARK SMILES IDX 10 14 11 15 12 16 7 17
REMARK H PARENT
REMARK Flexibility Score: inf
ROOT
ATOM      1  C   UNL     1      24.089  -2.963  33.894  1.00  0.00     0.053 C 
ATOM      2  C   UNL     1      24.570  -1.796  34.697  1.00  0.00     0.041 C 
ATOM      3  C   UNL     1      23.835  -0.771  35.120  1.00  0.00     0.005 C 
ATOM      4  C   UNL     1      22.370  -0.526  34.948  1.00  0.00     0.049 C 
ATOM      5  C   UNL     1      22.053   0.979  35.173  1.00  0.00     0.029 C 
ATOM      6  C   UNL     1      22.376   1.795  33.925  1.00  0.00    -0.073 C 
ATOM      7  C   UNL     1      21.649   1.640  32.805  1.00  0.00     0.008 C 
ATOM      8  C   UNL     1      23.499   2.803  33.965  1.00  0.00     0.031 C 
ATOM      9  C   UNL     1      23.383   3.741  35.181  1.00  0.00     0.005 C 
ATOM     10  C   UNL     1      22.673   3.120  36.406  1.00  0.00     0.012 C 
ATOM     11  C   UNL     1      22.761   1.574  36.458  1.00  0.00    -0.004 C 
ATOM     12  C   UNL     1      24.225   1.158  36.575  1.00  0.00     0.027 C 
ATOM     13  C   UNL     1      24.666   0.060  35.968  1.00  0.00     0.131 C 
ATOM     14  O   UNL     1      25.949  -0.461  36.045  1.00  0.00    -0.423 OA
ATOM     15  C   UNL     1      25.906  -1.612  35.269  1.00  0.00     0.339 C 
ATOM     16  O   UNL     1      26.887  -2.383  35.102  1.00  0.00    -0.246 OA
ATOM     17  C   UNL     1      22.035   1.082  37.726  1.00  0.00     0.016 C 
ENDROOT
TORSDOF 0
ENDMDL
