MODEL 1
REMARK VINA RESULT:    -4.981      0.000      0.000
REMARK INTER + INTRA:          -7.200
REMARK INTER:                  -6.729
REMARK INTRA:                  -0.471
REMARK UNBOUND:                -0.471
REMARK SMILES CC(=O)CCC=C(C)CCC=C(C)C
REMARK SMILES IDX 7 1 6 2 8 3 9 4 10 5 11 6 13 7 12 8 14 9 5 10 4 11 2 12 3 13
REMARK SMILES IDX 1 14
REMARK H PARENT
REMARK Flexibility Score: inf
ROOT
ATOM      1  C   UNL     1      20.572  24.890  27.761  1.00  0.00    -0.077 C 
ATOM      2  C   UNL     1      21.366  24.203  26.909  1.00  0.00    -0.028 C 
ATOM      3  C   UNL     1      19.138  25.227  27.424  1.00  0.00     0.039 C 
ENDROOT
BRANCH   1   4
ATOM      4  C   UNL     1      21.146  25.383  29.074  1.00  0.00     0.034 C 
BRANCH   4   5
ATOM      5  C   UNL     1      21.504  26.874  29.013  1.00  0.00     0.032 C 
BRANCH   5   6
ATOM      6  C   UNL     1      22.747  27.110  28.187  1.00  0.00    -0.028 C 
ATOM      7  C   UNL     1      23.652  28.876  29.716  1.00  0.00     0.039 C 
ATOM      8  C   UNL     1      23.704  28.019  28.473  1.00  0.00    -0.080 C 
ATOM      9  C   UNL     1      24.853  28.178  27.510  1.00  0.00     0.039 C 
ENDBRANCH   5   6
ENDBRANCH   4   5
ENDBRANCH   1   4
BRANCH   2  10
ATOM     10  C   UNL     1      20.919  23.662  25.574  1.00  0.00     0.035 C 
BRANCH  10  11
ATOM     11  C   UNL     1      21.671  24.345  24.429  1.00  0.00     0.079 C 
BRANCH  11  12
ATOM     12  C   UNL     1      22.080  23.339  23.387  1.00  0.00     0.130 C 
ATOM     13  O   UNL     1      23.267  23.147  23.170  1.00  0.00    -0.300 OA
ATOM     14  C   UNL     1      21.061  22.559  22.611  1.00  0.00     0.087 C 
ENDBRANCH  11  12
ENDBRANCH  10  11
ENDBRANCH   2  10
TORSDOF 6
ENDMDL
MODEL 2
REMARK VINA RESULT:    -4.795      1.364      2.241
REMARK INTER + INTRA:          -6.948
REMARK INTER:                  -6.292
REMARK INTRA:                  -0.655
REMARK UNBOUND:                -0.471
REMARK SMILES CC(=O)CCC=C(C)CCC=C(C)C
REMARK SMILES IDX 7 1 6 2 8 3 9 4 10 5 11 6 13 7 12 8 14 9 5 10 4 11 2 12 3 13
REMARK SMILES IDX 1 14
REMARK H PARENT
REMARK Flexibility Score: inf
ROOT
ATOM      1  C   UNL     1      20.532  24.872  27.698  1.00  0.00    -0.077 C 
ATOM      2  C   UNL     1      21.349  24.292  26.789  1.00  0.00    -0.028 C 
ATOM      3  C   UNL     1      19.057  25.071  27.437  1.00  0.00     0.039 C 
ENDROOT
BRANCH   1   4
ATOM      4  C   UNL     1      21.116  25.386  28.998  1.00  0.00     0.034 C 
BRANCH   4   5
ATOM      5  C   UNL     1      21.862  26.711  28.802  1.00  0.00     0.032 C 
BRANCH   5   6
ATOM      6  C   UNL     1      21.438  27.741  29.823  1.00  0.00    -0.028 C 
ATOM      7  C   UNL     1      19.585  28.654  28.405  1.00  0.00     0.039 C 
ATOM      8  C   UNL     1      20.438  28.634  29.650  1.00  0.00    -0.080 C 
ATOM      9  C   UNL     1      20.181  29.640  30.742  1.00  0.00     0.039 C 
ENDBRANCH   5   6
ENDBRANCH   4   5
ENDBRANCH   1   4
BRANCH   2  10
ATOM     10  C   UNL     1      20.894  23.745  25.460  1.00  0.00     0.035 C 
BRANCH  10  11
ATOM     11  C   UNL     1      21.726  24.330  24.316  1.00  0.00     0.079 C 
BRANCH  11  12
ATOM     12  C   UNL     1      22.054  23.268  23.300  1.00  0.00     0.130 C 
ATOM     13  O   UNL     1      23.223  23.006  23.060  1.00  0.00    -0.300 OA
ATOM     14  C   UNL     1      20.975  22.516  22.580  1.00  0.00     0.087 C 
ENDBRANCH  11  12
ENDBRANCH  10  11
ENDBRANCH   2  10
TORSDOF 6
ENDMDL
MODEL 3
REMARK VINA RESULT:    -4.705      2.928      5.366
REMARK INTER + INTRA:          -6.826
REMARK INTER:                  -6.057
REMARK INTRA:                  -0.769
REMARK UNBOUND:                -0.471
REMARK SMILES CC(=O)CCC=C(C)CCC=C(C)C
REMARK SMILES IDX 7 1 6 2 8 3 9 4 10 5 11 6 13 7 12 8 14 9 5 10 4 11 2 12 3 13
REMARK SMILES IDX 1 14
REMARK H PARENT
REMARK Flexibility Score: inf
ROOT
ATOM      1  C   UNL     1      19.992  25.576  27.934  1.00  0.00    -0.077 C 
ATOM      2  C   UNL     1      20.726  26.418  28.696  1.00  0.00    -0.028 C 
ATOM      3  C   UNL     1      20.633  24.582  26.994  1.00  0.00     0.039 C 
ENDROOT
BRANCH   1   4
ATOM      4  C   UNL     1      18.480  25.663  27.981  1.00  0.00     0.034 C 
BRANCH   4   5
ATOM      5  C   UNL     1      17.976  27.049  27.560  1.00  0.00     0.032 C 
BRANCH   5   6
ATOM      6  C   UNL     1      17.453  27.829  28.743  1.00  0.00    -0.028 C 
ATOM      7  C   UNL     1      19.127  29.678  28.499  1.00  0.00     0.039 C 
ATOM      8  C   UNL     1      17.973  28.993  29.192  1.00  0.00    -0.080 C 
ATOM      9  C   UNL     1      17.375  29.615  30.427  1.00  0.00     0.039 C 
ENDBRANCH   5   6
ENDBRANCH   4   5
ENDBRANCH   1   4
BRANCH   2  10
ATOM     10  C   UNL     1      22.234  26.436  28.737  1.00  0.00     0.035 C 
BRANCH  10  11
ATOM     11  C   UNL     1      22.767  27.859  28.546  1.00  0.00     0.079 C 
BRANCH  11  12
ATOM     12  C   UNL     1      24.161  27.831  27.977  1.00  0.00     0.130 C 
ATOM     13  O   UNL     1      24.334  28.098  26.797  1.00  0.00    -0.300 OA
ATOM     14  C   UNL     1      25.347  27.493  28.830  1.00  0.00     0.087 C 
ENDBRANCH  11  12
ENDBRANCH  10  11
ENDBRANCH   2  10
TORSDOF 6
ENDMDL
MODEL 4
REMARK VINA RESULT:    -4.684      5.820      8.116
REMARK INTER + INTRA:          -6.799
REMARK INTER:                  -6.081
REMARK INTRA:                  -0.718
REMARK UNBOUND:                -0.471
REMARK SMILES CC(=O)CCC=C(C)CCC=C(C)C
REMARK SMILES IDX 7 1 6 2 8 3 9 4 10 5 11 6 13 7 12 8 14 9 5 10 4 11 2 12 3 13
REMARK SMILES IDX 1 14
REMARK H PARENT
REMARK Flexibility Score: inf
ROOT
ATOM      1  C   UNL     1      18.167  28.859  28.603  1.00  0.00    -0.077 C 
ATOM      2  C   UNL     1      17.034  28.791  29.339  1.00  0.00    -0.028 C 
ATOM      3  C   UNL     1      19.132  30.015  28.724  1.00  0.00     0.039 C 
ENDROOT
BRANCH   1   4
ATOM      4  C   UNL     1      18.457  27.772  27.588  1.00  0.00     0.034 C 
BRANCH   4   5
ATOM      5  C   UNL     1      18.240  26.372  28.175  1.00  0.00     0.032 C 
BRANCH   5   6
ATOM      6  C   UNL     1      19.191  25.366  27.570  1.00  0.00    -0.028 C 
ATOM      7  C   UNL     1      21.025  25.835  29.212  1.00  0.00     0.039 C 
ATOM      8  C   UNL     1      20.449  25.132  28.005  1.00  0.00    -0.080 C 
ATOM      9  C   UNL     1      21.295  24.140  27.251  1.00  0.00     0.039 C 
ENDBRANCH   5   6
ENDBRANCH   4   5
ENDBRANCH   1   4
BRANCH   2  10
ATOM     10  C   UNL     1      16.629  29.807  30.377  1.00  0.00     0.035 C 
BRANCH  10  11
ATOM     11  C   UNL     1      15.597  30.785  29.809  1.00  0.00     0.079 C 
BRANCH  11  12
ATOM     12  C   UNL     1      16.046  32.207  30.010  1.00  0.00     0.130 C 
ATOM     13  O   UNL     1      15.868  32.747  31.091  1.00  0.00    -0.300 OA
ATOM     14  C   UNL     1      16.718  32.977  28.912  1.00  0.00     0.087 C 
ENDBRANCH  11  12
ENDBRANCH  10  11
ENDBRANCH   2  10
TORSDOF 6
ENDMDL
MODEL 5
REMARK VINA RESULT:    -4.664      5.166      7.774
REMARK INTER + INTRA:          -6.772
REMARK INTER:                  -6.112
REMARK INTRA:                  -0.660
REMARK UNBOUND:                -0.471
REMARK SMILES CC(=O)CCC=C(C)CCC=C(C)C
REMARK SMILES IDX 7 1 6 2 8 3 9 4 10 5 11 6 13 7 12 8 14 9 5 10 4 11 2 12 3 13
REMARK SMILES IDX 1 14
REMARK H PARENT
REMARK Flexibility Score: inf
ROOT
ATOM      1  C   UNL     1      19.269  28.590  28.740  1.00  0.00    -0.077 C 
ATOM      2  C   UNL     1      18.942  29.894  28.592  1.00  0.00    -0.028 C 
ATOM      3  C   UNL     1      20.324  28.136  29.722  1.00  0.00     0.039 C 
ENDROOT
BRANCH   1   4
ATOM      4  C   UNL     1      18.598  27.554  27.862  1.00  0.00     0.034 C 
BRANCH   4   5
ATOM      5  C   UNL     1      18.793  26.133  28.406  1.00  0.00     0.032 C 
BRANCH   5   6
ATOM      6  C   UNL     1      19.278  25.191  27.329  1.00  0.00    -0.028 C 
ATOM      7  C   UNL     1      21.631  25.125  28.188  1.00  0.00     0.039 C 
ATOM      8  C   UNL     1      20.549  24.751  27.203  1.00  0.00    -0.080 C 
ATOM      9  C   UNL     1      20.887  23.863  26.033  1.00  0.00     0.039 C 
ENDBRANCH   5   6
ENDBRANCH   4   5
ENDBRANCH   1   4
BRANCH   2  10
ATOM     10  C   UNL     1      19.537  31.020  29.399  1.00  0.00     0.035 C 
BRANCH  10  11
ATOM     11  C   UNL     1      18.459  31.731  30.222  1.00  0.00     0.079 C 
BRANCH  11  12
ATOM     12  C   UNL     1      17.877  32.885  29.451  1.00  0.00     0.130 C 
ATOM     13  O   UNL     1      18.619  33.749  29.010  1.00  0.00    -0.300 OA
ATOM     14  C   UNL     1      16.402  32.994  29.202  1.00  0.00     0.087 C 
ENDBRANCH  11  12
ENDBRANCH  10  11
ENDBRANCH   2  10
TORSDOF 6
ENDMDL
MODEL 6
REMARK VINA RESULT:    -4.636      4.142      5.253
REMARK INTER + INTRA:          -6.733
REMARK INTER:                  -6.192
REMARK INTRA:                  -0.541
REMARK UNBOUND:                -0.471
REMARK SMILES CC(=O)CCC=C(C)CCC=C(C)C
REMARK SMILES IDX 7 1 6 2 8 3 9 4 10 5 11 6 13 7 12 8 14 9 5 10 4 11 2 12 3 13
REMARK SMILES IDX 1 14
REMARK H PARENT
REMARK Flexibility Score: inf
ROOT
ATOM      1  C   UNL     1      19.228  27.755  28.256  1.00  0.00    -0.077 C 
ATOM      2  C   UNL     1      20.185  26.883  28.649  1.00  0.00    -0.028 C 
ATOM      3  C   UNL     1      17.988  27.303  27.521  1.00  0.00     0.039 C 
ENDROOT
BRANCH   1   4
ATOM      4  C   UNL     1      19.425  29.235  28.511  1.00  0.00     0.034 C 
BRANCH   4   5
ATOM      5  C   UNL     1      18.532  29.739  29.652  1.00  0.00     0.032 C 
BRANCH   5   6
ATOM      6  C   UNL     1      18.099  31.169  29.423  1.00  0.00    -0.028 C 
ATOM      7  C   UNL     1      15.662  30.674  29.732  1.00  0.00     0.039 C 
ATOM      8  C   UNL     1      16.817  31.598  29.430  1.00  0.00    -0.080 C 
ATOM      9  C   UNL     1      16.546  33.048  29.120  1.00  0.00     0.039 C 
ENDBRANCH   5   6
ENDBRANCH   4   5
ENDBRANCH   1   4
BRANCH   2  10
ATOM     10  C   UNL     1      20.112  25.390  28.452  1.00  0.00     0.035 C 
BRANCH  10  11
ATOM     11  C   UNL     1      21.306  24.889  27.635  1.00  0.00     0.079 C 
BRANCH  11  12
ATOM     12  C   UNL     1      20.841  24.214  26.373  1.00  0.00     0.130 C 
ATOM     13  O   UNL     1      21.441  24.416  25.327  1.00  0.00    -0.300 OA
ATOM     14  C   UNL     1      19.659  23.290  26.369  1.00  0.00     0.087 C 
ENDBRANCH  11  12
ENDBRANCH  10  11
ENDBRANCH   2  10
TORSDOF 6
ENDMDL
MODEL 7
REMARK VINA RESULT:    -4.610      3.016      5.834
REMARK INTER + INTRA:          -6.698
REMARK INTER:                  -5.603
REMARK INTRA:                  -1.094
REMARK UNBOUND:                -0.471
REMARK SMILES CC(=O)CCC=C(C)CCC=C(C)C
REMARK SMILES IDX 7 1 6 2 8 3 9 4 10 5 11 6 13 7 12 8 14 9 5 10 4 11 2 12 3 13
REMARK SMILES IDX 1 14
REMARK H PARENT
REMARK Flexibility Score: inf
ROOT
ATOM      1  C   UNL     1      19.324  28.525  29.129  1.00  0.00    -0.077 C 
ATOM      2  C   UNL     1      20.531  28.845  28.610  1.00  0.00    -0.028 C 
ATOM      3  C   UNL     1      18.993  28.751  30.586  1.00  0.00     0.039 C 
ENDROOT
BRANCH   1   4
ATOM      4  C   UNL     1      18.286  27.871  28.240  1.00  0.00     0.034 C 
BRANCH   4   5
ATOM      5  C   UNL     1      18.182  26.363  28.501  1.00  0.00     0.032 C 
BRANCH   5   6
ATOM      6  C   UNL     1      19.023  25.574  27.523  1.00  0.00    -0.028 C 
ATOM      7  C   UNL     1      20.922  25.259  29.127  1.00  0.00     0.039 C 
ATOM      8  C   UNL     1      20.261  25.096  27.779  1.00  0.00    -0.080 C 
ATOM      9  C   UNL     1      20.996  24.384  26.673  1.00  0.00     0.039 C 
ENDBRANCH   5   6
ENDBRANCH   4   5
ENDBRANCH   1   4
BRANCH   2  10
ATOM     10  C   UNL     1      21.648  29.495  29.387  1.00  0.00     0.035 C 
BRANCH  10  11
ATOM     11  C   UNL     1      22.768  28.490  29.674  1.00  0.00     0.079 C 
BRANCH  11  12
ATOM     12  C   UNL     1      23.946  28.735  28.769  1.00  0.00     0.130 C 
ATOM     13  O   UNL     1      24.828  29.503  29.124  1.00  0.00    -0.300 OA
ATOM     14  C   UNL     1      24.067  28.049  27.441  1.00  0.00     0.087 C 
ENDBRANCH  11  12
ENDBRANCH  10  11
ENDBRANCH   2  10
TORSDOF 6
ENDMDL
MODEL 8
REMARK VINA RESULT:    -4.584      3.323      6.148
REMARK INTER + INTRA:          -6.663
REMARK INTER:                  -5.850
REMARK INTRA:                  -0.813
REMARK UNBOUND:                -0.471
REMARK SMILES CC(=O)CCC=C(C)CCC=C(C)C
REMARK SMILES IDX 7 1 6 2 8 3 9 4 10 5 11 6 13 7 12 8 14 9 5 10 4 11 2 12 3 13
REMARK SMILES IDX 1 14
REMARK H PARENT
REMARK Flexibility Score: inf
ROOT
ATOM      1  C   UNL     1      21.665  28.013  29.597  1.00  0.00    -0.077 C 
ATOM      2  C   UNL     1      22.280  27.187  28.719  1.00  0.00    -0.028 C 
ATOM      3  C   UNL     1      22.442  28.884  30.556  1.00  0.00     0.039 C 
ENDROOT
BRANCH   1   4
ATOM      4  C   UNL     1      20.152  28.031  29.659  1.00  0.00     0.034 C 
BRANCH   4   5
ATOM      5  C   UNL     1      19.525  28.082  28.260  1.00  0.00     0.032 C 
BRANCH   5   6
ATOM      6  C   UNL     1      18.259  27.259  28.192  1.00  0.00    -0.028 C 
ATOM      7  C   UNL     1      19.438  25.166  27.478  1.00  0.00     0.039 C 
ATOM      8  C   UNL     1      18.200  25.961  27.819  1.00  0.00    -0.080 C 
ATOM      9  C   UNL     1      16.849  25.299  27.740  1.00  0.00     0.039 C 
ENDBRANCH   5   6
ENDBRANCH   4   5
ENDBRANCH   1   4
BRANCH   2  10
ATOM     10  C   UNL     1      23.776  27.072  28.561  1.00  0.00     0.035 C 
BRANCH  10  11
ATOM     11  C   UNL     1      24.291  28.068  27.517  1.00  0.00     0.079 C 
BRANCH  11  12
ATOM     12  C   UNL     1      25.613  28.647  27.944  1.00  0.00     0.130 C 
ATOM     13  O   UNL     1      26.639  28.274  27.395  1.00  0.00    -0.300 OA
ATOM     14  C   UNL     1      25.700  29.683  29.026  1.00  0.00     0.087 C 
ENDBRANCH  11  12
ENDBRANCH  10  11
ENDBRANCH   2  10
TORSDOF 6
ENDMDL
MODEL 9
REMARK VINA RESULT:    -4.482      4.635      6.120
REMARK INTER + INTRA:          -6.525
REMARK INTER:                  -5.611
REMARK INTRA:                  -0.914
REMARK UNBOUND:                -0.471
REMARK SMILES CC(=O)CCC=C(C)CCC=C(C)C
REMARK SMILES IDX 7 1 6 2 8 3 9 4 10 5 11 6 13 7 12 8 14 9 5 10 4 11 2 12 3 13
REMARK SMILES IDX 1 14
REMARK H PARENT
REMARK Flexibility Score: inf
ROOT
ATOM      1  C   UNL     1      18.160  28.055  28.759  1.00  0.00    -0.077 C 
ATOM      2  C   UNL     1      19.304  28.428  29.378  1.00  0.00    -0.028 C 
ATOM      3  C   UNL     1      18.167  27.313  27.443  1.00  0.00     0.039 C 
ENDROOT
BRANCH   1   4
ATOM      4  C   UNL     1      16.829  28.436  29.373  1.00  0.00     0.034 C 
BRANCH   4   5
ATOM      5  C   UNL     1      16.976  29.574  30.391  1.00  0.00     0.032 C 
BRANCH   5   6
ATOM      6  C   UNL     1      16.424  30.873  29.851  1.00  0.00    -0.028 C 
ATOM      7  C   UNL     1      18.674  31.954  29.635  1.00  0.00     0.039 C 
ATOM      8  C   UNL     1      17.167  31.955  29.532  1.00  0.00    -0.080 C 
ATOM      9  C   UNL     1      16.457  33.200  29.066  1.00  0.00     0.039 C 
ENDBRANCH   5   6
ENDBRANCH   4   5
ENDBRANCH   1   4
BRANCH   2  10
ATOM     10  C   UNL     1      20.689  28.115  28.870  1.00  0.00     0.035 C 
BRANCH  10  11
ATOM     11  C   UNL     1      21.269  26.892  29.586  1.00  0.00     0.079 C 
BRANCH  11  12
ATOM     12  C   UNL     1      21.972  25.988  28.608  1.00  0.00     0.130 C 
ATOM     13  O   UNL     1      23.190  26.032  28.518  1.00  0.00    -0.300 OA
ATOM     14  C   UNL     1      21.211  25.026  27.746  1.00  0.00     0.087 C 
ENDBRANCH  11  12
ENDBRANCH  10  11
ENDBRANCH   2  10
TORSDOF 6
ENDMDL
