MODEL 1
REMARK VINA RESULT:    -4.156      0.000      0.000
REMARK INTER + INTRA:          -6.327
REMARK INTER:                  -5.613
REMARK INTRA:                  -0.714
REMARK UNBOUND:                -0.714
REMARK SMILES CCCCCCC=CC(=O)[O-]
REMARK SMILES IDX 5 1 6 2 7 3 8 4 9 5 10 6 11 7 4 8 3 9 2 10 1 11
REMARK H PARENT
REMARK Flexibility Score: inf
ROOT
ATOM      1  C   UNL     1      -8.997   2.031  -3.830  1.00  0.00     0.004 C 
ENDROOT
BRANCH   1   2
ATOM      2  C   UNL     1      -8.643   1.456  -5.208  1.00  0.00     0.027 C 
BRANCH   2   3
ATOM      3  C   UNL     1      -7.457   2.161  -5.802  1.00  0.00    -0.025 C 
ATOM      4  C   UNL     1      -6.223   1.977  -5.322  1.00  0.00     0.020 C 
BRANCH   4   5
ATOM      5  C   UNL     1      -5.051   2.648  -5.903  1.00  0.00     0.064 C 
ATOM      6  O   UNL     1      -3.901   2.181  -5.695  1.00  0.00    -0.545 OA
ATOM      7  O   UNL     1      -5.192   3.793  -6.679  1.00  0.00    -0.545 OA
ENDBRANCH   4   5
ENDBRANCH   2   3
ENDBRANCH   1   2
BRANCH   1   8
ATOM      8  C   UNL     1      -9.532   3.463  -3.953  1.00  0.00     0.000 C 
BRANCH   8   9
ATOM      9  C   UNL     1      -8.955   4.362  -2.853  1.00  0.00    -0.000 C 
BRANCH   9  10
ATOM     10  C   UNL     1      -7.422   4.355  -2.886  1.00  0.00    -0.003 C 
ATOM     11  C   UNL     1      -6.886   5.413  -3.845  1.00  0.00     0.004 C 
ENDBRANCH   9  10
ENDBRANCH   8   9
ENDBRANCH   1   8
TORSDOF 6
ENDMDL
MODEL 2
REMARK VINA RESULT:    -4.142      0.311      1.021
REMARK INTER + INTRA:          -6.310
REMARK INTER:                  -5.601
REMARK INTRA:                  -0.709
REMARK UNBOUND:                -0.714
REMARK SMILES CCCCCCC=CC(=O)[O-]
REMARK SMILES IDX 5 1 6 2 7 3 8 4 9 5 10 6 11 7 4 8 3 9 2 10 1 11
REMARK H PARENT
REMARK Flexibility Score: inf
ROOT
ATOM      1  C   UNL     1      -9.384   2.306  -4.116  1.00  0.00     0.004 C 
ENDROOT
BRANCH   1   2
ATOM      2  C   UNL     1      -8.653   1.502  -5.199  1.00  0.00     0.027 C 
BRANCH   2   3
ATOM      3  C   UNL     1      -7.474   2.261  -5.737  1.00  0.00    -0.025 C 
ATOM      4  C   UNL     1      -6.222   1.932  -5.405  1.00  0.00     0.020 C 
BRANCH   4   5
ATOM      5  C   UNL     1      -5.058   2.656  -5.936  1.00  0.00     0.064 C 
ATOM      6  O   UNL     1      -5.228   3.738  -6.556  1.00  0.00    -0.545 OA
ATOM      7  O   UNL     1      -3.768   2.163  -5.766  1.00  0.00    -0.545 OA
ENDBRANCH   4   5
ENDBRANCH   2   3
ENDBRANCH   1   2
BRANCH   1   8
ATOM      8  C   UNL     1      -9.075   3.803  -4.241  1.00  0.00     0.000 C 
BRANCH   8   9
ATOM      9  C   UNL     1      -8.688   4.401  -2.883  1.00  0.00    -0.000 C 
BRANCH   9  10
ATOM     10  C   UNL     1      -7.165   4.508  -2.745  1.00  0.00    -0.003 C 
ATOM     11  C   UNL     1      -6.583   5.465  -3.781  1.00  0.00     0.004 C 
ENDBRANCH   9  10
ENDBRANCH   8   9
ENDBRANCH   1   8
TORSDOF 6
ENDMDL
MODEL 3
REMARK VINA RESULT:    -4.027     14.612     16.661
REMARK INTER + INTRA:          -6.153
REMARK INTER:                  -5.855
REMARK INTRA:                  -0.298
REMARK UNBOUND:                -0.714
REMARK SMILES CCCCCCC=CC(=O)[O-]
REMARK SMILES IDX 5 1 6 2 7 3 8 4 9 5 10 6 11 7 4 8 3 9 2 10 1 11
REMARK H PARENT
REMARK Flexibility Score: inf
ROOT
ATOM      1  C   UNL     1       8.844  -1.693  -0.420  1.00  0.00     0.004 C 
ENDROOT
BRANCH   1   2
ATOM      2  C   UNL     1       8.624  -1.497  -1.925  1.00  0.00     0.027 C 
BRANCH   2   3
ATOM      3  C   UNL     1       8.259  -0.074  -2.240  1.00  0.00    -0.025 C 
ATOM      4  C   UNL     1       7.758   0.271  -3.430  1.00  0.00     0.020 C 
BRANCH   4   5
ATOM      5  C   UNL     1       7.382   1.657  -3.747  1.00  0.00     0.064 C 
ATOM      6  O   UNL     1       8.279   2.528  -3.885  1.00  0.00    -0.545 OA
ATOM      7  O   UNL     1       6.048   2.022  -3.894  1.00  0.00    -0.545 OA
ENDBRANCH   4   5
ENDBRANCH   2   3
ENDBRANCH   1   2
BRANCH   1   8
ATOM      8  C   UNL     1       9.422  -3.083  -0.126  1.00  0.00     0.000 C 
BRANCH   8   9
ATOM      9  C   UNL     1       8.856  -4.130  -1.092  1.00  0.00    -0.000 C 
BRANCH   9  10
ATOM     10  C   UNL     1       7.570  -4.752  -0.537  1.00  0.00    -0.003 C 
ATOM     11  C   UNL     1       7.802  -5.359   0.843  1.00  0.00     0.004 C 
ENDBRANCH   9  10
ENDBRANCH   8   9
ENDBRANCH   1   8
TORSDOF 6
ENDMDL
MODEL 4
REMARK VINA RESULT:    -3.962     13.850     15.295
REMARK INTER + INTRA:          -6.066
REMARK INTER:                  -5.805
REMARK INTRA:                  -0.261
REMARK UNBOUND:                -0.714
REMARK SMILES CCCCCCC=CC(=O)[O-]
REMARK SMILES IDX 5 1 6 2 7 3 8 4 9 5 10 6 11 7 4 8 3 9 2 10 1 11
REMARK H PARENT
REMARK Flexibility Score: inf
ROOT
ATOM      1  C   UNL     1       6.689   1.635  -4.356  1.00  0.00     0.004 C 
ENDROOT
BRANCH   1   2
ATOM      2  C   UNL     1       7.952   1.283  -3.559  1.00  0.00     0.027 C 
BRANCH   2   3
ATOM      3  C   UNL     1       7.869  -0.107  -2.997  1.00  0.00    -0.025 C 
ATOM      4  C   UNL     1       8.614  -0.484  -1.953  1.00  0.00     0.020 C 
BRANCH   4   5
ATOM      5  C   UNL     1       8.532  -1.837  -1.382  1.00  0.00     0.064 C 
ATOM      6  O   UNL     1       8.921  -2.822  -2.061  1.00  0.00    -0.545 OA
ATOM      7  O   UNL     1       8.029  -2.045  -0.102  1.00  0.00    -0.545 OA
ENDBRANCH   4   5
ENDBRANCH   2   3
ENDBRANCH   1   2
BRANCH   1   8
ATOM      8  C   UNL     1       6.725   3.095  -4.825  1.00  0.00     0.000 C 
BRANCH   8   9
ATOM      9  C   UNL     1       5.913   3.280  -6.112  1.00  0.00    -0.000 C 
BRANCH   9  10
ATOM     10  C   UNL     1       5.494   1.926  -6.697  1.00  0.00    -0.003 C 
ATOM     11  C   UNL     1       6.016   1.754  -8.120  1.00  0.00     0.004 C 
ENDBRANCH   9  10
ENDBRANCH   8   9
ENDBRANCH   1   8
TORSDOF 6
ENDMDL
MODEL 5
REMARK VINA RESULT:    -3.942      2.377      3.945
REMARK INTER + INTRA:          -6.039
REMARK INTER:                  -5.412
REMARK INTRA:                  -0.627
REMARK UNBOUND:                -0.714
REMARK SMILES CCCCCCC=CC(=O)[O-]
REMARK SMILES IDX 5 1 6 2 7 3 8 4 9 5 10 6 11 7 4 8 3 9 2 10 1 11
REMARK H PARENT
REMARK Flexibility Score: inf
ROOT
ATOM      1  C   UNL     1      -8.408   1.731  -4.960  1.00  0.00     0.004 C 
ENDROOT
BRANCH   1   2
ATOM      2  C   UNL     1      -8.368   2.230  -3.510  1.00  0.00     0.027 C 
BRANCH   2   3
ATOM      3  C   UNL     1      -8.220   3.723  -3.452  1.00  0.00    -0.025 C 
ATOM      4  C   UNL     1      -7.239   4.302  -2.753  1.00  0.00     0.020 C 
BRANCH   4   5
ATOM      5  C   UNL     1      -7.072   5.761  -2.700  1.00  0.00     0.064 C 
ATOM      6  O   UNL     1      -6.610   6.297  -1.660  1.00  0.00    -0.545 OA
ATOM      7  O   UNL     1      -7.421   6.562  -3.783  1.00  0.00    -0.545 OA
ENDBRANCH   4   5
ENDBRANCH   2   3
ENDBRANCH   1   2
BRANCH   1   8
ATOM      8  C   UNL     1      -7.270   2.347  -5.784  1.00  0.00     0.000 C 
BRANCH   8   9
ATOM      9  C   UNL     1      -5.913   1.764  -5.371  1.00  0.00    -0.000 C 
BRANCH   9  10
ATOM     10  C   UNL     1      -4.767   2.690  -5.791  1.00  0.00    -0.003 C 
ATOM     11  C   UNL     1      -5.223   4.145  -5.843  1.00  0.00     0.004 C 
ENDBRANCH   9  10
ENDBRANCH   8   9
ENDBRANCH   1   8
TORSDOF 6
ENDMDL
MODEL 6
REMARK VINA RESULT:    -3.878     12.432     13.530
REMARK INTER + INTRA:          -5.953
REMARK INTER:                  -5.353
REMARK INTRA:                  -0.600
REMARK UNBOUND:                -0.714
REMARK SMILES CCCCCCC=CC(=O)[O-]
REMARK SMILES IDX 5 1 6 2 7 3 8 4 9 5 10 6 11 7 4 8 3 9 2 10 1 11
REMARK H PARENT
REMARK Flexibility Score: inf
ROOT
ATOM      1  C   UNL     1       4.319   3.997  -6.419  1.00  0.00     0.004 C 
ENDROOT
BRANCH   1   2
ATOM      2  C   UNL     1       5.132   2.779  -6.877  1.00  0.00     0.027 C 
BRANCH   2   3
ATOM      3  C   UNL     1       6.329   2.561  -5.996  1.00  0.00    -0.025 C 
ATOM      4  C   UNL     1       6.199   2.166  -4.726  1.00  0.00     0.020 C 
BRANCH   4   5
ATOM      5  C   UNL     1       7.361   1.935  -3.857  1.00  0.00     0.064 C 
ATOM      6  O   UNL     1       8.388   2.650  -3.988  1.00  0.00    -0.545 OA
ATOM      7  O   UNL     1       7.347   0.933  -2.892  1.00  0.00    -0.545 OA
ENDBRANCH   4   5
ENDBRANCH   2   3
ENDBRANCH   1   2
BRANCH   1   8
ATOM      8  C   UNL     1       5.165   5.275  -6.477  1.00  0.00     0.000 C 
BRANCH   8   9
ATOM      9  C   UNL     1       4.640   6.328  -5.494  1.00  0.00    -0.000 C 
BRANCH   9  10
ATOM     10  C   UNL     1       5.790   6.966  -4.706  1.00  0.00    -0.003 C 
ATOM     11  C   UNL     1       6.803   5.916  -4.261  1.00  0.00     0.004 C 
ENDBRANCH   9  10
ENDBRANCH   8   9
ENDBRANCH   1   8
TORSDOF 6
ENDMDL
MODEL 7
REMARK VINA RESULT:    -3.837      0.998      2.879
REMARK INTER + INTRA:          -5.897
REMARK INTER:                  -5.259
REMARK INTRA:                  -0.638
REMARK UNBOUND:                -0.714
REMARK SMILES CCCCCCC=CC(=O)[O-]
REMARK SMILES IDX 5 1 6 2 7 3 8 4 9 5 10 6 11 7 4 8 3 9 2 10 1 11
REMARK H PARENT
REMARK Flexibility Score: inf
ROOT
ATOM      1  C   UNL     1      -8.358   4.951  -3.318  1.00  0.00     0.004 C 
ENDROOT
BRANCH   1   2
ATOM      2  C   UNL     1      -7.098   4.362  -2.670  1.00  0.00     0.027 C 
BRANCH   2   3
ATOM      3  C   UNL     1      -6.344   3.495  -3.637  1.00  0.00    -0.025 C 
ATOM      4  C   UNL     1      -5.774   4.005  -4.734  1.00  0.00     0.020 C 
BRANCH   4   5
ATOM      5  C   UNL     1      -5.019   3.172  -5.681  1.00  0.00     0.064 C 
ATOM      6  O   UNL     1      -4.849   3.572  -6.862  1.00  0.00    -0.545 OA
ATOM      7  O   UNL     1      -4.492   1.944  -5.294  1.00  0.00    -0.545 OA
ENDBRANCH   4   5
ENDBRANCH   2   3
ENDBRANCH   1   2
BRANCH   1   8
ATOM      8  C   UNL     1      -9.542   3.985  -3.193  1.00  0.00     0.000 C 
BRANCH   8   9
ATOM      9  C   UNL     1      -9.838   3.301  -4.534  1.00  0.00    -0.000 C 
BRANCH   9  10
ATOM     10  C   UNL     1      -9.543   1.798  -4.461  1.00  0.00    -0.003 C 
ATOM     11  C   UNL     1      -8.674   1.349  -5.631  1.00  0.00     0.004 C 
ENDBRANCH   9  10
ENDBRANCH   8   9
ENDBRANCH   1   8
TORSDOF 6
ENDMDL
MODEL 8
REMARK VINA RESULT:    -3.810      2.674      4.358
REMARK INTER + INTRA:          -5.861
REMARK INTER:                  -5.234
REMARK INTRA:                  -0.627
REMARK UNBOUND:                -0.714
REMARK SMILES CCCCCCC=CC(=O)[O-]
REMARK SMILES IDX 5 1 6 2 7 3 8 4 9 5 10 6 11 7 4 8 3 9 2 10 1 11
REMARK H PARENT
REMARK Flexibility Score: inf
ROOT
ATOM      1  C   UNL     1      -5.508   2.904  -4.729  1.00  0.00     0.004 C 
ENDROOT
BRANCH   1   2
ATOM      2  C   UNL     1      -5.271   4.016  -5.758  1.00  0.00     0.027 C 
BRANCH   2   3
ATOM      3  C   UNL     1      -5.459   5.374  -5.144  1.00  0.00    -0.025 C 
ATOM      4  C   UNL     1      -6.275   5.563  -4.103  1.00  0.00     0.020 C 
BRANCH   4   5
ATOM      5  C   UNL     1      -6.456   6.883  -3.482  1.00  0.00     0.064 C 
ATOM      6  O   UNL     1      -7.464   7.575  -3.778  1.00  0.00    -0.545 OA
ATOM      7  O   UNL     1      -5.530   7.380  -2.572  1.00  0.00    -0.545 OA
ENDBRANCH   4   5
ENDBRANCH   2   3
ENDBRANCH   1   2
BRANCH   1   8
ATOM      8  C   UNL     1      -6.186   1.691  -5.378  1.00  0.00     0.000 C 
BRANCH   8   9
ATOM      9  C   UNL     1      -7.708   1.751  -5.201  1.00  0.00    -0.000 C 
BRANCH   9  10
ATOM     10  C   UNL     1      -8.080   2.084  -3.752  1.00  0.00    -0.003 C 
ATOM     11  C   UNL     1      -9.148   3.172  -3.693  1.00  0.00     0.004 C 
ENDBRANCH   9  10
ENDBRANCH   8   9
ENDBRANCH   1   8
TORSDOF 6
ENDMDL
MODEL 9
REMARK VINA RESULT:    -3.790     18.168     18.845
REMARK INTER + INTRA:          -5.834
REMARK INTER:                  -5.541
REMARK INTRA:                  -0.293
REMARK UNBOUND:                -0.714
REMARK SMILES CCCCCCC=CC(=O)[O-]
REMARK SMILES IDX 5 1 6 2 7 3 8 4 9 5 10 6 11 7 4 8 3 9 2 10 1 11
REMARK H PARENT
REMARK Flexibility Score: inf
ROOT
ATOM      1  C   UNL     1       6.755   1.108   7.737  1.00  0.00     0.004 C 
ENDROOT
BRANCH   1   2
ATOM      2  C   UNL     1       7.983   1.696   7.032  1.00  0.00     0.027 C 
BRANCH   2   3
ATOM      3  C   UNL     1       7.826   3.172   6.806  1.00  0.00    -0.025 C 
ATOM      4  C   UNL     1       8.574   3.825   5.910  1.00  0.00     0.020 C 
BRANCH   4   5
ATOM      5  C   UNL     1       8.420   5.267   5.667  1.00  0.00     0.064 C 
ATOM      6  O   UNL     1       7.417   5.687   5.034  1.00  0.00    -0.545 OA
ATOM      7  O   UNL     1       9.368   6.176   6.125  1.00  0.00    -0.545 OA
ENDBRANCH   4   5
ENDBRANCH   2   3
ENDBRANCH   1   2
BRANCH   1   8
ATOM      8  C   UNL     1       6.215   2.076   8.798  1.00  0.00     0.000 C 
BRANCH   8   9
ATOM      9  C   UNL     1       4.797   1.684   9.230  1.00  0.00    -0.000 C 
BRANCH   9  10
ATOM     10  C   UNL     1       4.673   0.165   9.396  1.00  0.00    -0.003 C 
ATOM     11  C   UNL     1       3.311  -0.218   9.966  1.00  0.00     0.004 C 
ENDBRANCH   9  10
ENDBRANCH   8   9
ENDBRANCH   1   8
TORSDOF 6
ENDMDL
