MODEL 1
REMARK VINA RESULT:     3.806      0.000      0.000
REMARK INTER + INTRA:           5.247
REMARK INTER:                   5.364
REMARK INTRA:                  -0.117
REMARK UNBOUND:                -0.117
REMARK SMILES CCCCCCCCC(=O)[O-]
REMARK SMILES IDX 6 1 7 2 8 3 9 4 10 5 11 6 5 7 4 8 3 9 2 10 1 11
REMARK H PARENT
REMARK Flexibility Score: inf
ROOT
ATOM      1  C   UNL     1      13.655 -14.580   6.150  1.00  0.00     0.000 C 
ENDROOT
BRANCH   1   2
ATOM      2  C   UNL     1      12.696 -13.396   6.368  1.00  0.00     0.006 C 
BRANCH   2   3
ATOM      3  C   UNL     1      11.401 -13.541   5.557  1.00  0.00     0.053 C 
BRANCH   3   4
ATOM      4  C   UNL     1      10.572 -12.294   5.601  1.00  0.00     0.041 C 
ATOM      5  O   UNL     1      11.122 -11.175   5.782  1.00  0.00    -0.550 OA
ATOM      6  O   UNL     1       9.197 -12.364   5.415  1.00  0.00    -0.550 OA
ENDBRANCH   3   4
ENDBRANCH   2   3
ENDBRANCH   1   2
BRANCH   1   7
ATOM      7  C   UNL     1      14.853 -14.553   7.111  1.00  0.00     0.000 C 
BRANCH   7   8
ATOM      8  C   UNL     1      15.791 -15.758   6.922  1.00  0.00    -0.000 C 
BRANCH   8   9
ATOM      9  C   UNL     1      17.246 -15.339   6.661  1.00  0.00    -0.000 C 
BRANCH   9  10
ATOM     10  C   UNL     1      18.241 -16.485   6.901  1.00  0.00    -0.003 C 
ATOM     11  C   UNL     1      19.044 -16.788   5.639  1.00  0.00     0.004 C 
ENDBRANCH   9  10
ENDBRANCH   8   9
ENDBRANCH   7   8
ENDBRANCH   1   7
TORSDOF 7
ENDMDL
MODEL 2
REMARK VINA RESULT:     4.761      3.958      7.091
REMARK INTER + INTRA:           6.591
REMARK INTER:                   6.745
REMARK INTRA:                  -0.154
REMARK UNBOUND:                -0.117
REMARK SMILES CCCCCCCCC(=O)[O-]
REMARK SMILES IDX 6 1 7 2 8 3 9 4 10 5 11 6 5 7 4 8 3 9 2 10 1 11
REMARK H PARENT
REMARK Flexibility Score: inf
ROOT
ATOM      1  C   UNL     1      14.413 -15.028   6.651  1.00  0.00     0.000 C 
ENDROOT
BRANCH   1   2
ATOM      2  C   UNL     1      15.891 -14.912   7.064  1.00  0.00     0.006 C 
BRANCH   2   3
ATOM      3  C   UNL     1      16.612 -16.267   7.024  1.00  0.00     0.053 C 
BRANCH   3   4
ATOM      4  C   UNL     1      17.985 -16.151   6.436  1.00  0.00     0.041 C 
ATOM      5  O   UNL     1      18.181 -15.425   5.425  1.00  0.00    -0.550 OA
ATOM      6  O   UNL     1      19.053 -16.819   7.020  1.00  0.00    -0.550 OA
ENDBRANCH   3   4
ENDBRANCH   2   3
ENDBRANCH   1   2
BRANCH   1   7
ATOM      7  C   UNL     1      13.638 -13.717   6.858  1.00  0.00     0.000 C 
BRANCH   7   8
ATOM      8  C   UNL     1      12.366 -13.640   5.997  1.00  0.00    -0.000 C 
BRANCH   8   9
ATOM      9  C   UNL     1      12.016 -12.200   5.589  1.00  0.00    -0.000 C 
BRANCH   9  10
ATOM     10  C   UNL     1      10.554 -11.839   5.895  1.00  0.00    -0.003 C 
ATOM     11  C   UNL     1       9.596 -12.845   5.260  1.00  0.00     0.004 C 
ENDBRANCH   9  10
ENDBRANCH   8   9
ENDBRANCH   7   8
ENDBRANCH   1   7
TORSDOF 7
ENDMDL
