MODEL 1
REMARK VINA RESULT:    -3.970      0.000      0.000
REMARK INTER + INTRA:          -4.844
REMARK INTER:                  -4.782
REMARK INTRA:                  -0.063
REMARK UNBOUND:                -0.063
REMARK SMILES CC[C@H](C)[C@@H]([NH3+])C(=O)[O-]
REMARK SMILES IDX 3 1 4 2 5 3 6 4 7 8 8 9 9 10 2 11 1 12
REMARK H PARENT 6 5 6 6 6 7
REMARK Flexibility Score: inf
ROOT
ATOM      1  C   UNL     1     195.718 187.257 180.793  1.00  0.00     0.050 C 
ATOM      2  C   UNL     1     194.362 186.525 180.830  1.00  0.00     0.014 C 
ENDROOT
BRANCH   1   3
ATOM      3  C   UNL     1     196.171 187.636 182.240  1.00  0.00     0.230 C 
BRANCH   3   4
ATOM      4  N   UNL     1     195.026 187.928 183.114  1.00  0.00    -0.350 N 
ATOM      5  H   UNL     1     194.322 187.158 183.056  1.00  0.00     0.345 HD
ATOM      6  H   UNL     1     195.319 188.050 184.109  1.00  0.00     0.345 HD
ATOM      7  H   UNL     1     194.565 188.812 182.797  1.00  0.00     0.345 HD
ENDBRANCH   3   4
BRANCH   3   8
ATOM      8  C   UNL     1     197.063 186.587 182.859  1.00  0.00     0.099 C 
ATOM      9  O   UNL     1     198.301 186.597 182.627  1.00  0.00    -0.544 OA
ATOM     10  O   UNL     1     196.529 185.585 183.660  1.00  0.00    -0.544 OA
ENDBRANCH   3   8
ENDBRANCH   1   3
BRANCH   1  11
ATOM     11  C   UNL     1     195.669 188.475 179.832  1.00  0.00     0.006 C 
ATOM     12  C   UNL     1     196.020 188.108 178.389  1.00  0.00     0.004 C 
ENDBRANCH   1  11
TORSDOF 4
ENDMDL
MODEL 2
REMARK VINA RESULT:    -3.953      2.384      3.092
REMARK INTER + INTRA:          -4.824
REMARK INTER:                  -4.721
REMARK INTRA:                  -0.103
REMARK UNBOUND:                -0.063
REMARK SMILES CC[C@H](C)[C@@H]([NH3+])C(=O)[O-]
REMARK SMILES IDX 3 1 4 2 5 3 6 4 7 8 8 9 9 10 2 11 1 12
REMARK H PARENT 6 5 6 6 6 7
REMARK Flexibility Score: inf
ROOT
ATOM      1  C   UNL     1     196.940 186.909 182.279  1.00  0.00     0.050 C 
ATOM      2  C   UNL     1     198.333 186.513 182.810  1.00  0.00     0.014 C 
ENDROOT
BRANCH   1   3
ATOM      3  C   UNL     1     195.961 185.695 182.363  1.00  0.00     0.230 C 
BRANCH   3   4
ATOM      4  N   UNL     1     196.364 184.735 183.401  1.00  0.00    -0.350 N 
ATOM      5  H   UNL     1     196.855 183.920 182.967  1.00  0.00     0.345 HD
ATOM      6  H   UNL     1     196.990 185.173 184.112  1.00  0.00     0.345 HD
ATOM      7  H   UNL     1     195.512 184.376 183.890  1.00  0.00     0.345 HD
ENDBRANCH   3   4
BRANCH   3   8
ATOM      8  C   UNL     1     194.526 186.122 182.556  1.00  0.00     0.099 C 
ATOM      9  O   UNL     1     193.660 185.832 181.690  1.00  0.00    -0.544 OA
ATOM     10  O   UNL     1     194.152 186.865 183.671  1.00  0.00    -0.544 OA
ENDBRANCH   3   8
ENDBRANCH   1   3
BRANCH   1  11
ATOM     11  C   UNL     1     197.038 187.515 180.854  1.00  0.00     0.006 C 
ATOM     12  C   UNL     1     196.196 188.782 180.688  1.00  0.00     0.004 C 
ENDBRANCH   1  11
TORSDOF 4
ENDMDL
MODEL 3
REMARK VINA RESULT:    -3.849      2.464      3.730
REMARK INTER + INTRA:          -4.699
REMARK INTER:                  -4.555
REMARK INTRA:                  -0.143
REMARK UNBOUND:                -0.063
REMARK SMILES CC[C@H](C)[C@@H]([NH3+])C(=O)[O-]
REMARK SMILES IDX 3 1 4 2 5 3 6 4 7 8 8 9 9 10 2 11 1 12
REMARK H PARENT 6 5 6 6 6 7
REMARK Flexibility Score: inf
ROOT
ATOM      1  C   UNL     1     196.074 187.528 182.966  1.00  0.00     0.050 C 
ATOM      2  C   UNL     1     195.580 188.618 183.939  1.00  0.00     0.014 C 
ENDROOT
BRANCH   1   3
ATOM      3  C   UNL     1     194.911 186.548 182.613  1.00  0.00     0.230 C 
BRANCH   3   4
ATOM      4  N   UNL     1     193.697 186.832 183.392  1.00  0.00    -0.350 N 
ATOM      5  H   UNL     1     193.854 186.602 184.400  1.00  0.00     0.345 HD
ATOM      6  H   UNL     1     193.408 187.832 183.310  1.00  0.00     0.345 HD
ATOM      7  H   UNL     1     192.913 186.234 183.043  1.00  0.00     0.345 HD
ENDBRANCH   3   4
BRANCH   3   8
ATOM      8  C   UNL     1     194.604 186.524 181.135  1.00  0.00     0.099 C 
ATOM      9  O   UNL     1     195.305 187.197 180.335  1.00  0.00    -0.544 OA
ATOM     10  O   UNL     1     193.529 185.789 180.646  1.00  0.00    -0.544 OA
ENDBRANCH   3   8
ENDBRANCH   1   3
BRANCH   1  11
ATOM     11  C   UNL     1     197.329 186.807 183.526  1.00  0.00     0.006 C 
ATOM     12  C   UNL     1     197.098 185.314 183.768  1.00  0.00     0.004 C 
ENDBRANCH   1  11
TORSDOF 4
ENDMDL
MODEL 4
REMARK VINA RESULT:    -3.609      2.432      3.724
REMARK INTER + INTRA:          -4.409
REMARK INTER:                  -4.319
REMARK INTRA:                  -0.091
REMARK UNBOUND:                -0.063
REMARK SMILES CC[C@H](C)[C@@H]([NH3+])C(=O)[O-]
REMARK SMILES IDX 3 1 4 2 5 3 6 4 7 8 8 9 9 10 2 11 1 12
REMARK H PARENT 6 5 6 6 6 7
REMARK Flexibility Score: inf
ROOT
ATOM      1  C   UNL     1     195.851 186.925 182.363  1.00  0.00     0.050 C 
ATOM      2  C   UNL     1     194.647 186.882 183.325  1.00  0.00     0.014 C 
ENDROOT
BRANCH   1   3
ATOM      3  C   UNL     1     195.361 186.945 180.880  1.00  0.00     0.230 C 
BRANCH   3   4
ATOM      4  N   UNL     1     193.898 186.838 180.783  1.00  0.00    -0.350 N 
ATOM      5  H   UNL     1     193.444 187.454 181.495  1.00  0.00     0.345 HD
ATOM      6  H   UNL     1     193.552 187.100 179.833  1.00  0.00     0.345 HD
ATOM      7  H   UNL     1     193.609 185.852 180.978  1.00  0.00     0.345 HD
ENDBRANCH   3   4
BRANCH   3   8
ATOM      8  C   UNL     1     195.861 188.151 180.122  1.00  0.00     0.099 C 
ATOM      9  O   UNL     1     196.361 189.125 180.746  1.00  0.00    -0.544 OA
ATOM     10  O   UNL     1     195.747 188.216 178.738  1.00  0.00    -0.544 OA
ENDBRANCH   3   8
ENDBRANCH   1   3
BRANCH   1  11
ATOM     11  C   UNL     1     196.845 185.771 182.660  1.00  0.00     0.006 C 
ATOM     12  C   UNL     1     198.180 186.266 183.222  1.00  0.00     0.004 C 
ENDBRANCH   1  11
TORSDOF 4
ENDMDL
MODEL 5
REMARK VINA RESULT:    -3.563      5.897      6.818
REMARK INTER + INTRA:          -4.354
REMARK INTER:                  -4.273
REMARK INTRA:                  -0.081
REMARK UNBOUND:                -0.063
REMARK SMILES CC[C@H](C)[C@@H]([NH3+])C(=O)[O-]
REMARK SMILES IDX 3 1 4 2 5 3 6 4 7 8 8 9 9 10 2 11 1 12
REMARK H PARENT 6 5 6 6 6 7
REMARK Flexibility Score: inf
ROOT
ATOM      1  C   UNL     1     194.692 187.313 174.727  1.00  0.00     0.050 C 
ATOM      2  C   UNL     1     193.853 188.345 173.948  1.00  0.00     0.014 C 
ENDROOT
BRANCH   1   3
ATOM      3  C   UNL     1     196.164 187.813 174.879  1.00  0.00     0.230 C 
BRANCH   3   4
ATOM      4  N   UNL     1     196.367 189.124 174.246  1.00  0.00    -0.350 N 
ATOM      5  H   UNL     1     195.525 189.386 173.684  1.00  0.00     0.345 HD
ATOM      6  H   UNL     1     196.555 189.871 174.951  1.00  0.00     0.345 HD
ATOM      7  H   UNL     1     197.185 189.072 173.596  1.00  0.00     0.345 HD
ENDBRANCH   3   4
BRANCH   3   8
ATOM      8  C   UNL     1     196.621 187.837 176.318  1.00  0.00     0.099 C 
ATOM      9  O   UNL     1     197.802 187.511 176.610  1.00  0.00    -0.544 OA
ATOM     10  O   UNL     1     195.739 188.186 177.335  1.00  0.00    -0.544 OA
ENDBRANCH   3   8
ENDBRANCH   1   3
BRANCH   1  11
ATOM     11  C   UNL     1     194.590 185.907 174.079  1.00  0.00     0.006 C 
ATOM     12  C   UNL     1     195.170 184.801 174.963  1.00  0.00     0.004 C 
ENDBRANCH   1  11
TORSDOF 4
ENDMDL
MODEL 6
REMARK VINA RESULT:    -3.540      6.777      7.515
REMARK INTER + INTRA:          -4.327
REMARK INTER:                  -4.204
REMARK INTRA:                  -0.122
REMARK UNBOUND:                -0.063
REMARK SMILES CC[C@H](C)[C@@H]([NH3+])C(=O)[O-]
REMARK SMILES IDX 3 1 4 2 5 3 6 4 7 8 8 9 9 10 2 11 1 12
REMARK H PARENT 6 5 6 6 6 7
REMARK Flexibility Score: inf
ROOT
ATOM      1  C   UNL     1     194.577 187.083 175.063  1.00  0.00     0.050 C 
ATOM      2  C   UNL     1     196.016 187.089 175.617  1.00  0.00     0.014 C 
ENDROOT
BRANCH   1   3
ATOM      3  C   UNL     1     194.258 185.707 174.396  1.00  0.00     0.230 C 
BRANCH   3   4
ATOM      4  N   UNL     1     195.065 185.483 173.188  1.00  0.00    -0.350 N 
ATOM      5  H   UNL     1     194.476 185.061 172.434  1.00  0.00     0.345 HD
ATOM      6  H   UNL     1     195.491 186.369 172.835  1.00  0.00     0.345 HD
ATOM      7  H   UNL     1     195.838 184.812 173.407  1.00  0.00     0.345 HD
ENDBRANCH   3   4
BRANCH   3   8
ATOM      8  C   UNL     1     194.401 184.551 175.357  1.00  0.00     0.099 C 
ATOM      9  O   UNL     1     195.223 183.628 175.115  1.00  0.00    -0.544 OA
ATOM     10  O   UNL     1     193.608 184.476 176.497  1.00  0.00    -0.544 OA
ENDBRANCH   3   8
ENDBRANCH   1   3
BRANCH   1  11
ATOM     11  C   UNL     1     194.338 188.289 174.117  1.00  0.00     0.006 C 
ATOM     12  C   UNL     1     192.897 188.370 173.609  1.00  0.00     0.004 C 
ENDBRANCH   1  11
TORSDOF 4
ENDMDL
MODEL 7
REMARK VINA RESULT:    -3.539      2.550      3.686
REMARK INTER + INTRA:          -4.326
REMARK INTER:                  -4.254
REMARK INTRA:                  -0.071
REMARK UNBOUND:                -0.063
REMARK SMILES CC[C@H](C)[C@@H]([NH3+])C(=O)[O-]
REMARK SMILES IDX 3 1 4 2 5 3 6 4 7 8 8 9 9 10 2 11 1 12
REMARK H PARENT 6 5 6 6 6 7
REMARK Flexibility Score: inf
ROOT
ATOM      1  C   UNL     1     196.696 187.142 182.422  1.00  0.00     0.050 C 
ATOM      2  C   UNL     1     196.178 188.260 181.495  1.00  0.00     0.014 C 
ENDROOT
BRANCH   1   3
ATOM      3  C   UNL     1     195.973 185.795 182.104  1.00  0.00     0.230 C 
BRANCH   3   4
ATOM      4  N   UNL     1     196.245 184.772 183.124  1.00  0.00    -0.350 N 
ATOM      5  H   UNL     1     195.452 184.093 183.174  1.00  0.00     0.345 HD
ATOM      6  H   UNL     1     197.130 184.253 182.927  1.00  0.00     0.345 HD
ATOM      7  H   UNL     1     196.336 185.232 184.060  1.00  0.00     0.345 HD
ENDBRANCH   3   4
BRANCH   3   8
ATOM      8  C   UNL     1     194.487 185.969 181.903  1.00  0.00     0.099 C 
ATOM      9  O   UNL     1     193.728 186.102 182.900  1.00  0.00    -0.544 OA
ATOM     10  O   UNL     1     193.938 185.952 180.626  1.00  0.00    -0.544 OA
ENDBRANCH   3   8
ENDBRANCH   1   3
BRANCH   1  11
ATOM     11  C   UNL     1     196.583 187.557 183.913  1.00  0.00     0.006 C 
ATOM     12  C   UNL     1     195.689 188.780 184.125  1.00  0.00     0.004 C 
ENDBRANCH   1  11
TORSDOF 4
ENDMDL
MODEL 8
REMARK VINA RESULT:    -3.411      2.350      3.808
REMARK INTER + INTRA:          -4.171
REMARK INTER:                  -4.188
REMARK INTRA:                   0.017
REMARK UNBOUND:                -0.063
REMARK SMILES CC[C@H](C)[C@@H]([NH3+])C(=O)[O-]
REMARK SMILES IDX 3 1 4 2 5 3 6 4 7 8 8 9 9 10 2 11 1 12
REMARK H PARENT 6 5 6 6 6 7
REMARK Flexibility Score: inf
ROOT
ATOM      1  C   UNL     1     196.100 186.336 183.717  1.00  0.00     0.050 C 
ATOM      2  C   UNL     1     197.553 186.814 183.906  1.00  0.00     0.014 C 
ENDROOT
BRANCH   1   3
ATOM      3  C   UNL     1     195.905 185.744 182.285  1.00  0.00     0.230 C 
BRANCH   3   4
ATOM      4  N   UNL     1     194.805 184.769 182.239  1.00  0.00    -0.350 N 
ATOM      5  H   UNL     1     194.049 185.047 182.905  1.00  0.00     0.345 HD
ATOM      6  H   UNL     1     194.402 184.683 181.279  1.00  0.00     0.345 HD
ATOM      7  H   UNL     1     195.163 183.830 182.531  1.00  0.00     0.345 HD
ENDBRANCH   3   4
BRANCH   3   8
ATOM      8  C   UNL     1     195.714 186.815 181.237  1.00  0.00     0.099 C 
ATOM      9  O   UNL     1     194.608 186.928 180.646  1.00  0.00    -0.544 OA
ATOM     10  O   UNL     1     196.761 187.662 180.892  1.00  0.00    -0.544 OA
ENDBRANCH   3   8
ENDBRANCH   1   3
BRANCH   1  11
ATOM     11  C   UNL     1     195.093 187.469 184.050  1.00  0.00     0.006 C 
ATOM     12  C   UNL     1     195.750 188.848 184.119  1.00  0.00     0.004 C 
ENDBRANCH   1  11
TORSDOF 4
ENDMDL
MODEL 9
REMARK VINA RESULT:    -3.396      2.386      3.075
REMARK INTER + INTRA:          -4.153
REMARK INTER:                  -4.346
REMARK INTRA:                   0.193
REMARK UNBOUND:                -0.063
REMARK SMILES CC[C@H](C)[C@@H]([NH3+])C(=O)[O-]
REMARK SMILES IDX 3 1 4 2 5 3 6 4 7 8 8 9 9 10 2 11 1 12
REMARK H PARENT 6 5 6 6 6 7
REMARK Flexibility Score: inf
ROOT
ATOM      1  C   UNL     1     195.663 187.056 181.907  1.00  0.00     0.050 C 
ATOM      2  C   UNL     1     197.000 186.339 182.182  1.00  0.00     0.014 C 
ENDROOT
BRANCH   1   3
ATOM      3  C   UNL     1     194.487 186.299 182.602  1.00  0.00     0.230 C 
BRANCH   3   4
ATOM      4  N   UNL     1     193.677 187.195 183.441  1.00  0.00    -0.350 N 
ATOM      5  H   UNL     1     194.004 187.153 184.433  1.00  0.00     0.345 HD
ATOM      6  H   UNL     1     193.720 188.184 183.107  1.00  0.00     0.345 HD
ATOM      7  H   UNL     1     192.678 186.884 183.416  1.00  0.00     0.345 HD
ENDBRANCH   3   4
BRANCH   3   8
ATOM      8  C   UNL     1     193.616 185.555 181.618  1.00  0.00     0.099 C 
ATOM      9  O   UNL     1     192.730 186.172 180.970  1.00  0.00    -0.544 OA
ATOM     10  O   UNL     1     193.760 184.184 181.441  1.00  0.00    -0.544 OA
ENDBRANCH   3   8
ENDBRANCH   1   3
BRANCH   1  11
ATOM     11  C   UNL     1     195.441 187.259 180.384  1.00  0.00     0.006 C 
ATOM     12  C   UNL     1     195.629 188.712 179.944  1.00  0.00     0.004 C 
ENDBRANCH   1  11
TORSDOF 4
ENDMDL
