MODEL 1
REMARK VINA RESULT:    -3.624      0.000      0.000
REMARK INTER + INTRA:          -4.438
REMARK INTER:                  -4.896
REMARK INTRA:                   0.458
REMARK UNBOUND:                 0.458
REMARK SMILES C=C(C)[C@H]1CC[C@@H](C)C2=C(C1)[C@@H](C)CC2
REMARK SMILES IDX 10 1 9 2 15 3 14 4 12 5 13 6 7 7 8 8 6 9 11 11 4 12 5 13
REMARK SMILES IDX 2 15 1 16 3 17
REMARK H PARENT
REMARK Flexibility Score: 80.00
ROOT
ATOM      1  C   UNL     1      21.674  63.712  15.403  1.00  0.00    -0.067 C 
ATOM      2  C   UNL     1      21.653  63.667  16.738  1.00  0.00    -0.068 C 
ATOM      3  C   UNL     1      20.274  63.858  17.273  1.00  0.00     0.032 C 
ATOM      4  C   UNL     1      19.440  64.257  16.056  1.00  0.00     0.012 C 
ATOM      5  C   UNL     1      20.307  63.927  14.831  1.00  0.00     0.012 C 
ATOM      6  C   UNL     1      19.811  62.666  14.113  1.00  0.00     0.012 C 
ENDROOT
BRANCH   2   7
ATOM      7  C   UNL     1      22.826  63.376  17.652  1.00  0.00     0.012 C 
ATOM      8  C   UNL     1      23.763  64.583  17.792  1.00  0.00     0.012 C 
BRANCH   7   9
ATOM      9  C   UNL     1      23.551  62.059  17.298  1.00  0.00     0.008 CG0
ATOM     10  G   UNL     1      24.373  62.078  15.998  1.00  0.00     0.000 G0
ENDBRANCH   7   9
ENDBRANCH   2   7
BRANCH   1  11
ATOM     11  C   UNL     1      22.894  63.535  14.534  1.00  0.00     0.039 C 
BRANCH  11  12
ATOM     12  C   UNL     1      23.538  62.147  14.715  1.00  0.00     0.018 C 
BRANCH  12  13
ATOM     13  C   UNL     1      24.385  62.060  16.003  1.00  0.00     0.009 CG0
ATOM     14  G   UNL     1      23.547  62.054  17.293  1.00  0.00     0.000 G0
ENDBRANCH  12  13
BRANCH  12  15
ATOM     15  C   UNL     1      24.388  61.795  13.502  1.00  0.00    -0.077 C 
ATOM     16  C   UNL     1      24.994  62.750  12.775  1.00  0.00     0.008 C 
ATOM     17  C   UNL     1      24.532  60.346  13.114  1.00  0.00     0.039 C 
ENDBRANCH  12  15
ENDBRANCH  11  12
ENDBRANCH   1  11
TORSDOF 1
ENDMDL
MODEL 2
REMARK VINA RESULT:    -3.474      1.732      4.297
REMARK INTER + INTRA:          -4.234
REMARK INTER:                  -4.630
REMARK INTRA:                   0.396
REMARK UNBOUND:                 0.458
REMARK SMILES C=C(C)[C@H]1CC[C@@H](C)C2=C(C1)[C@@H](C)CC2
REMARK SMILES IDX 10 1 9 2 15 3 14 4 12 5 13 6 7 7 8 8 6 9 11 11 4 12 5 13
REMARK SMILES IDX 2 15 1 16 3 17
REMARK H PARENT
REMARK Flexibility Score: 80.00
ROOT
ATOM      1  C   UNL     1      21.550  63.156  16.460  1.00  0.00    -0.067 C 
ATOM      2  C   UNL     1      22.533  63.145  15.555  1.00  0.00    -0.068 C 
ATOM      3  C   UNL     1      22.024  63.442  14.186  1.00  0.00     0.032 C 
ATOM      4  C   UNL     1      20.503  63.428  14.329  1.00  0.00     0.012 C 
ATOM      5  C   UNL     1      20.226  63.477  15.840  1.00  0.00     0.012 C 
ATOM      6  C   UNL     1      19.738  64.863  16.279  1.00  0.00     0.012 C 
ENDROOT
BRANCH   2   7
ATOM      7  C   UNL     1      24.011  62.951  15.828  1.00  0.00     0.012 C 
ATOM      8  C   UNL     1      24.359  61.482  16.104  1.00  0.00     0.012 C 
BRANCH   7   9
ATOM      9  C   UNL     1      24.562  63.933  16.884  1.00  0.00     0.008 CG0
ATOM     10  G   UNL     1      24.108  63.682  18.332  1.00  0.00     0.000 G0
ENDBRANCH   7   9
ENDBRANCH   2   7
BRANCH   1  11
ATOM     11  C   UNL     1      21.712  62.919  17.941  1.00  0.00     0.039 C 
BRANCH  11  12
ATOM     12  C   UNL     1      22.619  63.975  18.602  1.00  0.00     0.018 C 
BRANCH  12  13
ATOM     13  C   UNL     1      24.117  63.697  18.352  1.00  0.00     0.009 CG0
ATOM     14  G   UNL     1      24.551  63.924  16.893  1.00  0.00     0.000 G0
ENDBRANCH  12  13
BRANCH  12  15
ATOM     15  C   UNL     1      22.341  64.052  20.096  1.00  0.00    -0.077 C 
ATOM     16  C   UNL     1      21.211  64.607  20.568  1.00  0.00     0.008 C 
ATOM     17  C   UNL     1      23.368  63.502  21.053  1.00  0.00     0.039 C 
ENDBRANCH  12  15
ENDBRANCH  11  12
ENDBRANCH   1  11
TORSDOF 1
ENDMDL
MODEL 3
REMARK VINA RESULT:    -3.420      1.169      1.540
REMARK INTER + INTRA:          -4.161
REMARK INTER:                  -4.583
REMARK INTRA:                   0.422
REMARK UNBOUND:                 0.458
REMARK SMILES C=C(C)[C@H]1CC[C@@H](C)C2=C(C1)[C@@H](C)CC2
REMARK SMILES IDX 10 1 9 2 15 3 14 4 12 5 13 6 7 7 8 8 6 9 11 11 4 12 5 13
REMARK SMILES IDX 2 15 1 16 3 17
REMARK H PARENT
REMARK Flexibility Score: 80.00
ROOT
ATOM      1  C   UNL     1      20.895  64.098  14.988  1.00  0.00    -0.067 C 
ATOM      2  C   UNL     1      20.569  64.561  16.198  1.00  0.00    -0.068 C 
ATOM      3  C   UNL     1      19.094  64.732  16.342  1.00  0.00     0.032 C 
ATOM      4  C   UNL     1      18.542  64.510  14.935  1.00  0.00     0.012 C 
ATOM      5  C   UNL     1      19.687  63.873  14.133  1.00  0.00     0.012 C 
ATOM      6  C   UNL     1      19.451  62.375  13.904  1.00  0.00     0.012 C 
ENDROOT
BRANCH   2   7
ATOM      7  C   UNL     1      21.514  64.817  17.354  1.00  0.00     0.012 C 
ATOM      8  C   UNL     1      22.319  66.110  17.166  1.00  0.00     0.012 C 
BRANCH   7   9
ATOM      9  C   UNL     1      22.379  63.587  17.707  1.00  0.00     0.008 CG0
ATOM     10  G   UNL     1      23.493  63.244  16.703  1.00  0.00     0.000 G0
ENDBRANCH   7   9
ENDBRANCH   2   7
BRANCH   1  11
ATOM     11  C   UNL     1      22.292  63.789  14.509  1.00  0.00     0.039 C 
BRANCH  11  12
ATOM     12  C   UNL     1      22.964  62.689  15.354  1.00  0.00     0.018 C 
BRANCH  12  13
ATOM     13  C   UNL     1      23.497  63.228  16.699  1.00  0.00     0.009 CG0
ATOM     14  G   UNL     1      22.387  63.580  17.705  1.00  0.00     0.000 G0
ENDBRANCH  12  13
BRANCH  12  15
ATOM     15  C   UNL     1      24.090  62.032  14.568  1.00  0.00    -0.077 C 
ATOM     16  C   UNL     1      24.270  62.288  13.261  1.00  0.00     0.008 C 
ATOM     17  C   UNL     1      25.003  61.067  15.280  1.00  0.00     0.039 C 
ENDBRANCH  12  15
ENDBRANCH  11  12
ENDBRANCH   1  11
TORSDOF 1
ENDMDL
MODEL 4
REMARK VINA RESULT:    -3.388      1.977      5.107
REMARK INTER + INTRA:          -4.119
REMARK INTER:                  -4.517
REMARK INTRA:                   0.398
REMARK UNBOUND:                 0.458
REMARK SMILES C=C(C)[C@H]1CC[C@@H](C)C2=C(C1)[C@@H](C)CC2
REMARK SMILES IDX 10 1 9 2 15 3 14 4 12 5 13 6 7 7 8 8 6 9 11 11 4 12 5 13
REMARK SMILES IDX 2 15 1 16 3 17
REMARK H PARENT
REMARK Flexibility Score: 80.00
ROOT
ATOM      1  C   UNL     1      23.322  63.218  16.340  1.00  0.00    -0.067 C 
ATOM      2  C   UNL     1      22.566  63.244  15.239  1.00  0.00    -0.068 C 
ATOM      3  C   UNL     1      23.128  62.376  14.165  1.00  0.00     0.032 C 
ATOM      4  C   UNL     1      24.501  61.957  14.688  1.00  0.00     0.012 C 
ATOM      5  C   UNL     1      24.505  62.315  16.182  1.00  0.00     0.012 C 
ATOM      6  C   UNL     1      24.361  61.067  17.061  1.00  0.00     0.012 C 
ENDROOT
BRANCH   2   7
ATOM      7  C   UNL     1      21.247  63.971  15.064  1.00  0.00     0.012 C 
ATOM      8  C   UNL     1      21.441  65.482  14.880  1.00  0.00     0.012 C 
BRANCH   7   9
ATOM      9  C   UNL     1      20.209  63.600  16.145  1.00  0.00     0.008 CG0
ATOM     10  G   UNL     1      20.498  64.132  17.559  1.00  0.00     0.000 G0
ENDBRANCH   7   9
ENDBRANCH   2   7
BRANCH   1  11
ATOM     11  C   UNL     1      23.038  63.960  17.623  1.00  0.00     0.039 C 
BRANCH  11  12
ATOM     12  C   UNL     1      21.711  63.514  18.269  1.00  0.00     0.018 C 
BRANCH  12  13
ATOM     13  C   UNL     1      20.484  64.142  17.574  1.00  0.00     0.009 CG0
ATOM     14  G   UNL     1      20.221  63.585  16.164  1.00  0.00     0.000 G0
ENDBRANCH  12  13
BRANCH  12  15
ATOM     15  C   UNL     1      21.705  63.851  19.753  1.00  0.00    -0.077 C 
ATOM     16  C   UNL     1      22.514  63.214  20.616  1.00  0.00     0.008 C 
ATOM     17  C   UNL     1      20.758  64.913  20.250  1.00  0.00     0.039 C 
ENDBRANCH  12  15
ENDBRANCH  11  12
ENDBRANCH   1  11
TORSDOF 1
ENDMDL
MODEL 5
REMARK VINA RESULT:    -3.338      1.959      5.174
REMARK INTER + INTRA:          -4.051
REMARK INTER:                  -4.471
REMARK INTRA:                   0.420
REMARK UNBOUND:                 0.458
REMARK SMILES C=C(C)[C@H]1CC[C@@H](C)C2=C(C1)[C@@H](C)CC2
REMARK SMILES IDX 10 1 9 2 15 3 14 4 12 5 13 6 7 7 8 8 6 9 11 11 4 12 5 13
REMARK SMILES IDX 2 15 1 16 3 17
REMARK H PARENT
REMARK Flexibility Score: 80.00
ROOT
ATOM      1  C   UNL     1      23.030  63.276  15.618  1.00  0.00    -0.067 C 
ATOM      2  C   UNL     1      22.658  62.923  14.385  1.00  0.00    -0.068 C 
ATOM      3  C   UNL     1      23.597  61.928  13.791  1.00  0.00     0.032 C 
ATOM      4  C   UNL     1      24.767  61.869  14.772  1.00  0.00     0.012 C 
ATOM      5  C   UNL     1      24.273  62.562  16.051  1.00  0.00     0.012 C 
ATOM      6  C   UNL     1      23.963  61.549  17.159  1.00  0.00     0.012 C 
ENDROOT
BRANCH   2   7
ATOM      7  C   UNL     1      21.406  63.367  13.656  1.00  0.00     0.012 C 
ATOM      8  C   UNL     1      21.525  64.803  13.127  1.00  0.00     0.012 C 
BRANCH   7   9
ATOM      9  C   UNL     1      20.115  63.101  14.460  1.00  0.00     0.008 CG0
ATOM     10  G   UNL     1      19.895  64.003  15.687  1.00  0.00     0.000 G0
ENDBRANCH   7   9
ENDBRANCH   2   7
BRANCH   1  11
ATOM     11  C   UNL     1      22.299  64.242  16.517  1.00  0.00     0.039 C 
BRANCH  11  12
ATOM     12  C   UNL     1      20.874  63.759  16.850  1.00  0.00     0.018 C 
BRANCH  12  13
ATOM     13  C   UNL     1      19.887  64.009  15.690  1.00  0.00     0.009 CG0
ATOM     14  G   UNL     1      20.116  63.092  14.477  1.00  0.00     0.000 G0
ENDBRANCH  12  13
BRANCH  12  15
ATOM     15  C   UNL     1      20.372  64.429  18.121  1.00  0.00    -0.077 C 
ATOM     16  C   UNL     1      21.012  64.270  19.293  1.00  0.00     0.008 C 
ATOM     17  C   UNL     1      19.125  65.272  18.052  1.00  0.00     0.039 C 
ENDBRANCH  12  15
ENDBRANCH  11  12
ENDBRANCH   1  11
TORSDOF 1
ENDMDL
MODEL 6
REMARK VINA RESULT:    -3.322      2.450      5.496
REMARK INTER + INTRA:          -4.030
REMARK INTER:                  -4.425
REMARK INTRA:                   0.395
REMARK UNBOUND:                 0.458
REMARK SMILES C=C(C)[C@H]1CC[C@@H](C)C2=C(C1)[C@@H](C)CC2
REMARK SMILES IDX 10 1 9 2 15 3 14 4 12 5 13 6 7 7 8 8 6 9 11 11 4 12 5 13
REMARK SMILES IDX 2 15 1 16 3 17
REMARK H PARENT
REMARK Flexibility Score: 80.00
ROOT
ATOM      1  C   UNL     1      21.361  64.290  16.403  1.00  0.00    -0.067 C 
ATOM      2  C   UNL     1      21.950  63.616  15.411  1.00  0.00    -0.068 C 
ATOM      3  C   UNL     1      23.156  62.880  15.887  1.00  0.00     0.032 C 
ATOM      4  C   UNL     1      23.371  63.376  17.316  1.00  0.00     0.012 C 
ATOM      5  C   UNL     1      22.074  64.100  17.706  1.00  0.00     0.012 C 
ATOM      6  C   UNL     1      21.229  63.263  18.673  1.00  0.00     0.012 C 
ENDROOT
BRANCH   2   7
ATOM      7  C   UNL     1      21.460  63.498  13.982  1.00  0.00     0.012 C 
ATOM      8  C   UNL     1      21.735  64.772  13.170  1.00  0.00     0.012 C 
BRANCH   7   9
ATOM      9  C   UNL     1      20.003  62.997  13.885  1.00  0.00     0.008 CG0
ATOM     10  G   UNL     1      18.922  63.996  14.330  1.00  0.00     0.000 G0
ENDBRANCH   7   9
ENDBRANCH   2   7
BRANCH   1  11
ATOM     11  C   UNL     1      20.109  65.123  16.281  1.00  0.00     0.039 C 
BRANCH  11  12
ATOM     12  C   UNL     1      18.894  64.282  15.842  1.00  0.00     0.018 C 
BRANCH  12  13
ATOM     13  C   UNL     1      18.903  63.989  14.327  1.00  0.00     0.009 CG0
ATOM     14  G   UNL     1      19.999  63.000  13.896  1.00  0.00     0.000 G0
ENDBRANCH  12  13
BRANCH  12  15
ATOM     15  C   UNL     1      17.599  64.977  16.236  1.00  0.00    -0.077 C 
ATOM     16  C   UNL     1      17.408  65.445  17.482  1.00  0.00     0.008 C 
ATOM     17  C   UNL     1      16.513  65.127  15.201  1.00  0.00     0.039 C 
ENDBRANCH  12  15
ENDBRANCH  11  12
ENDBRANCH   1  11
TORSDOF 1
ENDMDL
MODEL 7
REMARK VINA RESULT:    -3.208      2.836      5.641
REMARK INTER + INTRA:          -3.875
REMARK INTER:                  -4.329
REMARK INTRA:                   0.454
REMARK UNBOUND:                 0.458
REMARK SMILES C=C(C)[C@H]1CC[C@@H](C)C2=C(C1)[C@@H](C)CC2
REMARK SMILES IDX 10 1 9 2 15 3 14 4 12 5 13 6 7 7 8 8 6 9 11 11 4 12 5 13
REMARK SMILES IDX 2 15 1 16 3 17
REMARK H PARENT
REMARK Flexibility Score: 80.00
ROOT
ATOM      1  C   UNL     1      20.171  64.008  14.910  1.00  0.00    -0.067 C 
ATOM      2  C   UNL     1      21.083  64.127  15.879  1.00  0.00    -0.068 C 
ATOM      3  C   UNL     1      22.471  64.060  15.338  1.00  0.00     0.032 C 
ATOM      4  C   UNL     1      22.296  63.653  13.876  1.00  0.00     0.012 C 
ATOM      5  C   UNL     1      20.806  63.856  13.563  1.00  0.00     0.012 C 
ATOM      6  C   UNL     1      20.574  65.105  12.705  1.00  0.00     0.012 C 
ENDROOT
BRANCH   2   7
ATOM      7  C   UNL     1      20.815  64.388  17.347  1.00  0.00     0.012 C 
ATOM      8  C   UNL     1      20.335  63.128  18.079  1.00  0.00     0.012 C 
BRANCH   7   9
ATOM      9  C   UNL     1      19.925  65.628  17.585  1.00  0.00     0.008 CG0
ATOM     10  G   UNL     1      18.442  65.467  17.208  1.00  0.00     0.000 G0
ENDBRANCH   7   9
ENDBRANCH   2   7
BRANCH   1  11
ATOM     11  C   UNL     1      18.675  64.054  15.098  1.00  0.00     0.039 C 
BRANCH  11  12
ATOM     12  C   UNL     1      18.206  65.397  15.692  1.00  0.00     0.018 C 
BRANCH  12  13
ATOM     13  C   UNL     1      18.453  65.480  17.213  1.00  0.00     0.009 CG0
ATOM     14  G   UNL     1      19.938  65.620  17.590  1.00  0.00     0.000 G0
ENDBRANCH  12  13
BRANCH  12  15
ATOM     15  C   UNL     1      16.733  65.625  15.385  1.00  0.00    -0.077 C 
ATOM     16  C   UNL     1      16.328  66.036  14.170  1.00  0.00     0.008 C 
ATOM     17  C   UNL     1      15.721  65.396  16.478  1.00  0.00     0.039 C 
ENDBRANCH  12  15
ENDBRANCH  11  12
ENDBRANCH   1  11
TORSDOF 1
ENDMDL
MODEL 8
REMARK VINA RESULT:    -3.086      1.649      3.284
REMARK INTER + INTRA:          -3.710
REMARK INTER:                  -4.575
REMARK INTRA:                   0.864
REMARK UNBOUND:                 0.458
REMARK SMILES C=C(C)[C@H]1CC[C@@H](C)C2=C(C1)[C@@H](C)CC2
REMARK SMILES IDX 10 1 9 2 15 3 14 4 12 5 13 6 7 7 8 8 6 9 11 11 4 12 5 13
REMARK SMILES IDX 2 15 1 16 3 17
REMARK H PARENT
REMARK Flexibility Score: 80.00
ROOT
ATOM      1  C   UNL     1      22.464  63.623  16.736  1.00  0.00    -0.067 C 
ATOM      2  C   UNL     1      21.252  63.973  16.296  1.00  0.00    -0.068 C 
ATOM      3  C   UNL     1      20.194  63.671  17.302  1.00  0.00     0.032 C 
ATOM      4  C   UNL     1      20.908  62.860  18.381  1.00  0.00     0.012 C 
ATOM      5  C   UNL     1      22.410  63.043  18.115  1.00  0.00     0.012 C 
ATOM      6  C   UNL     1      23.051  63.994  19.133  1.00  0.00     0.012 C 
ENDROOT
BRANCH   2   7
ATOM      7  C   UNL     1      20.931  64.672  14.990  1.00  0.00     0.012 C 
ATOM      8  C   UNL     1      19.419  64.816  14.769  1.00  0.00     0.012 C 
BRANCH   7   9
ATOM      9  C   UNL     1      21.685  64.070  13.785  1.00  0.00     0.008 CG0
ATOM     10  G   UNL     1      22.426  62.749  14.052  1.00  0.00     0.000 G0
ENDBRANCH   7   9
ENDBRANCH   2   7
BRANCH   1  11
ATOM     11  C   UNL     1      23.761  63.806  15.987  1.00  0.00     0.039 C 
BRANCH  11  12
ATOM     12  C   UNL     1      23.823  62.938  14.715  1.00  0.00     0.018 C 
BRANCH  12  13
ATOM     13  C   UNL     1      22.434  62.750  14.068  1.00  0.00     0.009 CG0
ATOM     14  G   UNL     1      21.700  64.072  13.789  1.00  0.00     0.000 G0
ENDBRANCH  12  13
BRANCH  12  15
ATOM     15  C   UNL     1      24.445  61.585  15.028  1.00  0.00    -0.077 C 
ATOM     16  C   UNL     1      24.773  61.241  16.286  1.00  0.00     0.008 C 
ATOM     17  C   UNL     1      24.704  60.627  13.893  1.00  0.00     0.039 C 
ENDBRANCH  12  15
ENDBRANCH  11  12
ENDBRANCH   1  11
TORSDOF 1
ENDMDL
MODEL 9
REMARK VINA RESULT:    -3.060      1.996      3.475
REMARK INTER + INTRA:          -3.675
REMARK INTER:                  -4.267
REMARK INTRA:                   0.592
REMARK UNBOUND:                 0.458
REMARK SMILES C=C(C)[C@H]1CC[C@@H](C)C2=C(C1)[C@@H](C)CC2
REMARK SMILES IDX 10 1 9 2 15 3 14 4 12 5 13 6 7 7 8 8 6 9 11 11 4 12 5 13
REMARK SMILES IDX 2 15 1 16 3 17
REMARK H PARENT
REMARK Flexibility Score: 80.00
ROOT
ATOM      1  C   UNL     1      22.125  63.908  14.889  1.00  0.00    -0.067 C 
ATOM      2  C   UNL     1      21.967  64.557  13.733  1.00  0.00    -0.068 C 
ATOM      3  C   UNL     1      20.625  64.299  13.136  1.00  0.00     0.032 C 
ATOM      4  C   UNL     1      20.026  63.190  14.000  1.00  0.00     0.012 C 
ATOM      5  C   UNL     1      20.905  63.121  15.258  1.00  0.00     0.012 C 
ATOM      6  C   UNL     1      20.203  63.739  16.472  1.00  0.00     0.012 C 
ENDROOT
BRANCH   2   7
ATOM      7  C   UNL     1      22.948  65.519  13.094  1.00  0.00     0.012 C 
ATOM      8  C   UNL     1      22.531  65.908  11.669  1.00  0.00     0.012 C 
BRANCH   7   9
ATOM      9  C   UNL     1      24.414  65.049  13.211  1.00  0.00     0.008 CG0
ATOM     10  G   UNL     1      24.613  63.570  13.585  1.00  0.00     0.000 G0
ENDBRANCH   7   9
ENDBRANCH   2   7
BRANCH   1  11
ATOM     11  C   UNL     1      23.348  63.960  15.771  1.00  0.00     0.039 C 
BRANCH  11  12
ATOM     12  C   UNL     1      24.571  63.298  15.105  1.00  0.00     0.018 C 
BRANCH  12  13
ATOM     13  C   UNL     1      24.624  63.565  13.586  1.00  0.00     0.009 CG0
ATOM     14  G   UNL     1      24.418  65.042  13.211  1.00  0.00     0.000 G0
ENDBRANCH  12  13
BRANCH  12  15
ATOM     15  C   UNL     1      24.575  61.801  15.377  1.00  0.00    -0.077 C 
ATOM     16  C   UNL     1      24.802  60.914  14.393  1.00  0.00     0.008 C 
ATOM     17  C   UNL     1      24.306  61.319  16.780  1.00  0.00     0.039 C 
ENDBRANCH  12  15
ENDBRANCH  11  12
ENDBRANCH   1  11
TORSDOF 1
ENDMDL
