MODEL 1
REMARK VINA RESULT:    -3.416      0.000      0.000
REMARK INTER + INTRA:          -8.210
REMARK INTER:                  -7.410
REMARK INTRA:                  -0.800
REMARK UNBOUND:                -0.800
REMARK SMILES CCCCCCCCCCCCCCCCCCCCCC(=O)[O-]
REMARK SMILES IDX 12 1 11 2 10 3 9 4 8 5 7 6 6 7 5 8 4 9 3 10 2 11 1 12 13 13
REMARK SMILES IDX 14 14 15 15 16 16 17 17 18 18 19 19 20 20 21 21 22 22 23 23
REMARK SMILES IDX 24 24
REMARK H PARENT
REMARK Flexibility Score: inf
ROOT
ATOM      1  C   UNL     1       6.321  22.307  26.652  1.00  0.00     0.000 C 
ENDROOT
BRANCH   1   2
ATOM      2  C   UNL     1       7.124  21.059  27.036  1.00  0.00     0.000 C 
BRANCH   2   3
ATOM      3  C   UNL     1       6.946  19.945  25.994  1.00  0.00     0.000 C 
BRANCH   3   4
ATOM      4  C   UNL     1       6.982  18.538  26.629  1.00  0.00    -0.000 C 
BRANCH   4   5
ATOM      5  C   UNL     1       5.588  17.964  26.944  1.00  0.00    -0.000 C 
BRANCH   5   6
ATOM      6  C   UNL     1       5.187  16.737  26.105  1.00  0.00    -0.000 C 
BRANCH   6   7
ATOM      7  C   UNL     1       6.263  16.246  25.117  1.00  0.00    -0.000 C 
BRANCH   7   8
ATOM      8  C   UNL     1       5.946  14.873  24.484  1.00  0.00    -0.000 C 
BRANCH   8   9
ATOM      9  C   UNL     1       5.451  14.998  23.033  1.00  0.00    -0.000 C 
BRANCH   9  10
ATOM     10  C   UNL     1       3.970  14.621  22.872  1.00  0.00    -0.000 C 
BRANCH  10  11
ATOM     11  C   UNL     1       2.999  15.769  23.221  1.00  0.00    -0.003 C 
ATOM     12  C   UNL     1       2.177  15.476  24.476  1.00  0.00     0.004 C 
ENDBRANCH  10  11
ENDBRANCH   9  10
ENDBRANCH   8   9
ENDBRANCH   7   8
ENDBRANCH   6   7
ENDBRANCH   5   6
ENDBRANCH   4   5
ENDBRANCH   3   4
ENDBRANCH   2   3
ENDBRANCH   1   2
BRANCH   1  13
ATOM     13  C   UNL     1       6.800  22.873  25.308  1.00  0.00     0.000 C 
BRANCH  13  14
ATOM     14  C   UNL     1       6.163  24.231  24.970  1.00  0.00     0.000 C 
BRANCH  14  15
ATOM     15  C   UNL     1       5.508  24.273  23.573  1.00  0.00     0.000 C 
BRANCH  15  16
ATOM     16  C   UNL     1       3.973  24.217  23.651  1.00  0.00     0.000 C 
BRANCH  16  17
ATOM     17  C   UNL     1       3.317  23.988  22.281  1.00  0.00     0.000 C 
BRANCH  17  18
ATOM     18  C   UNL     1       1.808  23.711  22.383  1.00  0.00     0.000 C 
BRANCH  18  19
ATOM     19  C   UNL     1       1.531  22.511  23.304  1.00  0.00     0.000 C 
BRANCH  19  20
ATOM     20  C   UNL     1       1.704  22.853  24.792  1.00  0.00     0.006 C 
BRANCH  20  21
ATOM     21  C   UNL     1       0.375  22.882  25.555  1.00  0.00     0.053 C 
BRANCH  21  22
ATOM     22  C   UNL     1       0.234  24.165  26.311  1.00  0.00     0.041 C 
ATOM     23  O   UNL     1       1.142  25.037  26.258  1.00  0.00    -0.550 OA
ATOM     24  O   UNL     1      -0.877  24.377  27.119  1.00  0.00    -0.550 OA
ENDBRANCH  21  22
ENDBRANCH  20  21
ENDBRANCH  19  20
ENDBRANCH  18  19
ENDBRANCH  17  18
ENDBRANCH  16  17
ENDBRANCH  15  16
ENDBRANCH  14  15
ENDBRANCH  13  14
ENDBRANCH   1  13
TORSDOF 20
ENDMDL
MODEL 2
REMARK VINA RESULT:    -3.152      3.200      8.209
REMARK INTER + INTRA:          -7.638
REMARK INTER:                  -5.576
REMARK INTRA:                  -2.062
REMARK UNBOUND:                -0.800
REMARK SMILES CCCCCCCCCCCCCCCCCCCCCC(=O)[O-]
REMARK SMILES IDX 12 1 11 2 10 3 9 4 8 5 7 6 6 7 5 8 4 9 3 10 2 11 1 12 13 13
REMARK SMILES IDX 14 14 15 15 16 16 17 17 18 18 19 19 20 20 21 21 22 22 23 23
REMARK SMILES IDX 24 24
REMARK H PARENT
REMARK Flexibility Score: inf
ROOT
ATOM      1  C   UNL     1       4.219  22.001  26.782  1.00  0.00     0.000 C 
ENDROOT
BRANCH   1   2
ATOM      2  C   UNL     1       3.472  23.338  26.743  1.00  0.00     0.000 C 
BRANCH   2   3
ATOM      3  C   UNL     1       1.956  23.121  26.611  1.00  0.00     0.000 C 
BRANCH   3   4
ATOM      4  C   UNL     1       1.255  24.302  25.906  1.00  0.00    -0.000 C 
BRANCH   4   5
ATOM      5  C   UNL     1       1.069  24.099  24.391  1.00  0.00    -0.000 C 
BRANCH   5   6
ATOM      6  C   UNL     1       1.614  25.239  23.512  1.00  0.00    -0.000 C 
BRANCH   6   7
ATOM      7  C   UNL     1       2.553  24.790  22.374  1.00  0.00    -0.000 C 
BRANCH   7   8
ATOM      8  C   UNL     1       3.734  23.918  22.852  1.00  0.00    -0.000 C 
BRANCH   8   9
ATOM      9  C   UNL     1       4.723  24.703  23.730  1.00  0.00    -0.000 C 
BRANCH   9  10
ATOM     10  C   UNL     1       6.072  23.985  23.899  1.00  0.00    -0.000 C 
BRANCH  10  11
ATOM     11  C   UNL     1       6.833  24.395  25.178  1.00  0.00    -0.003 C 
ATOM     12  C   UNL     1       6.273  25.672  25.805  1.00  0.00     0.004 C 
ENDBRANCH  10  11
ENDBRANCH   9  10
ENDBRANCH   8   9
ENDBRANCH   7   8
ENDBRANCH   6   7
ENDBRANCH   5   6
ENDBRANCH   4   5
ENDBRANCH   3   4
ENDBRANCH   2   3
ENDBRANCH   1   2
BRANCH   1  13
ATOM     13  C   UNL     1       3.251  20.842  27.061  1.00  0.00     0.000 C 
BRANCH  13  14
ATOM     14  C   UNL     1       3.956  19.477  27.121  1.00  0.00     0.000 C 
BRANCH  14  15
ATOM     15  C   UNL     1       5.491  19.571  26.994  1.00  0.00     0.000 C 
BRANCH  15  16
ATOM     16  C   UNL     1       6.167  18.193  27.103  1.00  0.00     0.000 C 
BRANCH  16  17
ATOM     17  C   UNL     1       7.073  17.880  25.902  1.00  0.00     0.000 C 
BRANCH  17  18
ATOM     18  C   UNL     1       6.280  17.474  24.650  1.00  0.00     0.000 C 
BRANCH  18  19
ATOM     19  C   UNL     1       6.149  15.945  24.555  1.00  0.00     0.000 C 
BRANCH  19  20
ATOM     20  C   UNL     1       5.176  15.367  25.594  1.00  0.00     0.006 C 
BRANCH  20  21
ATOM     21  C   UNL     1       3.801  15.035  25.002  1.00  0.00     0.053 C 
BRANCH  21  22
ATOM     22  C   UNL     1       2.724  15.274  26.013  1.00  0.00     0.041 C 
ATOM     23  O   UNL     1       2.900  16.106  26.942  1.00  0.00    -0.550 OA
ATOM     24  O   UNL     1       1.546  14.539  25.961  1.00  0.00    -0.550 OA
ENDBRANCH  21  22
ENDBRANCH  20  21
ENDBRANCH  19  20
ENDBRANCH  18  19
ENDBRANCH  17  18
ENDBRANCH  16  17
ENDBRANCH  15  16
ENDBRANCH  14  15
ENDBRANCH  13  14
ENDBRANCH   1  13
TORSDOF 20
ENDMDL
MODEL 3
REMARK VINA RESULT:    -3.130      3.245      7.969
REMARK INTER + INTRA:          -7.589
REMARK INTER:                  -5.725
REMARK INTRA:                  -1.864
REMARK UNBOUND:                -0.800
REMARK SMILES CCCCCCCCCCCCCCCCCCCCCC(=O)[O-]
REMARK SMILES IDX 12 1 11 2 10 3 9 4 8 5 7 6 6 7 5 8 4 9 3 10 2 11 1 12 13 13
REMARK SMILES IDX 14 14 15 15 16 16 17 17 18 18 19 19 20 20 21 21 22 22 23 23
REMARK SMILES IDX 24 24
REMARK H PARENT
REMARK Flexibility Score: inf
ROOT
ATOM      1  C   UNL     1       3.922  24.003  25.471  1.00  0.00     0.000 C 
ENDROOT
BRANCH   1   2
ATOM      2  C   UNL     1       3.006  22.775  25.525  1.00  0.00     0.000 C 
BRANCH   2   3
ATOM      3  C   UNL     1       2.179  22.759  26.819  1.00  0.00     0.000 C 
BRANCH   3   4
ATOM      4  C   UNL     1       1.543  24.132  27.125  1.00  0.00    -0.000 C 
BRANCH   4   5
ATOM      5  C   UNL     1       0.272  24.424  26.305  1.00  0.00    -0.000 C 
BRANCH   5   6
ATOM      6  C   UNL     1       0.081  25.899  25.907  1.00  0.00    -0.000 C 
BRANCH   6   7
ATOM      7  C   UNL     1       0.709  26.295  24.557  1.00  0.00    -0.000 C 
BRANCH   7   8
ATOM      8  C   UNL     1       1.104  25.088  23.677  1.00  0.00    -0.000 C 
BRANCH   8   9
ATOM      9  C   UNL     1       2.089  25.475  22.561  1.00  0.00    -0.000 C 
BRANCH   9  10
ATOM     10  C   UNL     1       2.307  24.348  21.539  1.00  0.00    -0.000 C 
BRANCH  10  11
ATOM     11  C   UNL     1       2.454  22.953  22.182  1.00  0.00    -0.003 C 
ATOM     12  C   UNL     1       1.178  22.119  22.063  1.00  0.00     0.004 C 
ENDBRANCH  10  11
ENDBRANCH   9  10
ENDBRANCH   8   9
ENDBRANCH   7   8
ENDBRANCH   6   7
ENDBRANCH   5   6
ENDBRANCH   4   5
ENDBRANCH   3   4
ENDBRANCH   2   3
ENDBRANCH   1   2
BRANCH   1  13
ATOM     13  C   UNL     1       5.392  23.583  25.345  1.00  0.00     0.000 C 
BRANCH  13  14
ATOM     14  C   UNL     1       5.846  22.650  26.480  1.00  0.00     0.000 C 
BRANCH  14  15
ATOM     15  C   UNL     1       7.120  21.846  26.143  1.00  0.00     0.000 C 
BRANCH  15  16
ATOM     16  C   UNL     1       7.074  20.419  26.717  1.00  0.00     0.000 C 
BRANCH  16  17
ATOM     17  C   UNL     1       5.717  19.733  26.493  1.00  0.00     0.000 C 
BRANCH  17  18
ATOM     18  C   UNL     1       5.699  18.278  26.988  1.00  0.00     0.000 C 
BRANCH  18  19
ATOM     19  C   UNL     1       5.930  17.299  25.827  1.00  0.00     0.000 C 
BRANCH  19  20
ATOM     20  C   UNL     1       4.688  17.127  24.939  1.00  0.00     0.006 C 
BRANCH  20  21
ATOM     21  C   UNL     1       4.543  15.704  24.387  1.00  0.00     0.053 C 
BRANCH  21  22
ATOM     22  C   UNL     1       3.453  15.648  23.364  1.00  0.00     0.041 C 
ATOM     23  O   UNL     1       3.077  14.540  22.897  1.00  0.00    -0.550 OA
ATOM     24  O   UNL     1       2.888  16.824  22.886  1.00  0.00    -0.550 OA
ENDBRANCH  21  22
ENDBRANCH  20  21
ENDBRANCH  19  20
ENDBRANCH  18  19
ENDBRANCH  17  18
ENDBRANCH  16  17
ENDBRANCH  15  16
ENDBRANCH  14  15
ENDBRANCH  13  14
ENDBRANCH   1  13
TORSDOF 20
ENDMDL
MODEL 4
REMARK VINA RESULT:    -3.087      3.169      8.306
REMARK INTER + INTRA:          -7.497
REMARK INTER:                  -5.527
REMARK INTRA:                  -1.970
REMARK UNBOUND:                -0.800
REMARK SMILES CCCCCCCCCCCCCCCCCCCCCC(=O)[O-]
REMARK SMILES IDX 12 1 11 2 10 3 9 4 8 5 7 6 6 7 5 8 4 9 3 10 2 11 1 12 13 13
REMARK SMILES IDX 14 14 15 15 16 16 17 17 18 18 19 19 20 20 21 21 22 22 23 23
REMARK SMILES IDX 24 24
REMARK H PARENT
REMARK Flexibility Score: inf
ROOT
ATOM      1  C   UNL     1       2.942  22.343  25.167  1.00  0.00     0.000 C 
ENDROOT
BRANCH   1   2
ATOM      2  C   UNL     1       1.690  22.750  24.383  1.00  0.00     0.000 C 
BRANCH   2   3
ATOM      3  C   UNL     1       1.710  22.161  22.965  1.00  0.00     0.000 C 
BRANCH   3   4
ATOM      4  C   UNL     1       2.241  23.168  21.921  1.00  0.00    -0.000 C 
BRANCH   4   5
ATOM      5  C   UNL     1       2.579  24.551  22.508  1.00  0.00    -0.000 C 
BRANCH   5   6
ATOM      6  C   UNL     1       1.604  25.676  22.119  1.00  0.00    -0.000 C 
BRANCH   6   7
ATOM      7  C   UNL     1       1.123  26.554  23.292  1.00  0.00    -0.000 C 
BRANCH   7   8
ATOM      8  C   UNL     1       1.266  25.877  24.673  1.00  0.00    -0.000 C 
BRANCH   8   9
ATOM      9  C   UNL     1      -0.059  25.857  25.453  1.00  0.00    -0.000 C 
BRANCH   9  10
ATOM     10  C   UNL     1       0.036  25.073  26.773  1.00  0.00    -0.000 C 
BRANCH  10  11
ATOM     11  C   UNL     1      -1.054  23.991  26.928  1.00  0.00    -0.003 C 
ATOM     12  C   UNL     1      -0.466  22.595  27.125  1.00  0.00     0.004 C 
ENDBRANCH  10  11
ENDBRANCH   9  10
ENDBRANCH   8   9
ENDBRANCH   7   8
ENDBRANCH   6   7
ENDBRANCH   5   6
ENDBRANCH   4   5
ENDBRANCH   3   4
ENDBRANCH   2   3
ENDBRANCH   1   2
BRANCH   1  13
ATOM     13  C   UNL     1       3.154  23.265  26.375  1.00  0.00     0.000 C 
BRANCH  13  14
ATOM     14  C   UNL     1       4.538  23.091  27.024  1.00  0.00     0.000 C 
BRANCH  14  15
ATOM     15  C   UNL     1       5.709  23.308  26.043  1.00  0.00     0.000 C 
BRANCH  15  16
ATOM     16  C   UNL     1       6.761  22.190  26.141  1.00  0.00     0.000 C 
BRANCH  16  17
ATOM     17  C   UNL     1       6.357  21.080  27.124  1.00  0.00     0.000 C 
BRANCH  17  18
ATOM     18  C   UNL     1       6.790  19.682  26.652  1.00  0.00     0.000 C 
BRANCH  18  19
ATOM     19  C   UNL     1       5.631  18.680  26.767  1.00  0.00     0.000 C 
BRANCH  19  20
ATOM     20  C   UNL     1       5.868  17.402  25.947  1.00  0.00     0.006 C 
BRANCH  20  21
ATOM     21  C   UNL     1       4.630  16.499  25.881  1.00  0.00     0.053 C 
BRANCH  21  22
ATOM     22  C   UNL     1       4.215  16.283  24.460  1.00  0.00     0.041 C 
ATOM     23  O   UNL     1       3.785  17.245  23.771  1.00  0.00    -0.550 OA
ATOM     24  O   UNL     1       4.253  15.006  23.912  1.00  0.00    -0.550 OA
ENDBRANCH  21  22
ENDBRANCH  20  21
ENDBRANCH  19  20
ENDBRANCH  18  19
ENDBRANCH  17  18
ENDBRANCH  16  17
ENDBRANCH  15  16
ENDBRANCH  14  15
ENDBRANCH  13  14
ENDBRANCH   1  13
TORSDOF 20
ENDMDL
MODEL 5
REMARK VINA RESULT:    -3.015      3.212      8.416
REMARK INTER + INTRA:          -7.339
REMARK INTER:                  -6.702
REMARK INTRA:                  -0.637
REMARK UNBOUND:                -0.800
REMARK SMILES CCCCCCCCCCCCCCCCCCCCCC(=O)[O-]
REMARK SMILES IDX 12 1 11 2 10 3 9 4 8 5 7 6 6 7 5 8 4 9 3 10 2 11 1 12 13 13
REMARK SMILES IDX 14 14 15 15 16 16 17 17 18 18 19 19 20 20 21 21 22 22 23 23
REMARK SMILES IDX 24 24
REMARK H PARENT
REMARK Flexibility Score: inf
ROOT
ATOM      1  C   UNL     1       2.304  22.364  25.607  1.00  0.00     0.000 C 
ENDROOT
BRANCH   1   2
ATOM      2  C   UNL     1       0.780  22.499  25.515  1.00  0.00     0.000 C 
BRANCH   2   3
ATOM      3  C   UNL     1       0.148  22.597  26.911  1.00  0.00     0.000 C 
BRANCH   3   4
ATOM      4  C   UNL     1      -0.725  23.861  27.071  1.00  0.00    -0.000 C 
BRANCH   4   5
ATOM      5  C   UNL     1      -0.775  24.744  25.811  1.00  0.00    -0.000 C 
BRANCH   5   6
ATOM      6  C   UNL     1       0.301  25.843  25.745  1.00  0.00    -0.000 C 
BRANCH   6   7
ATOM      7  C   UNL     1       0.877  26.104  24.340  1.00  0.00    -0.000 C 
BRANCH   7   8
ATOM      8  C   UNL     1       2.020  25.142  23.948  1.00  0.00    -0.000 C 
BRANCH   8   9
ATOM      9  C   UNL     1       2.250  25.096  22.428  1.00  0.00    -0.000 C 
BRANCH   9  10
ATOM     10  C   UNL     1       2.294  23.663  21.873  1.00  0.00    -0.000 C 
BRANCH  10  11
ATOM     11  C   UNL     1       1.243  22.725  22.503  1.00  0.00    -0.003 C 
ATOM     12  C   UNL     1       1.123  21.398  21.755  1.00  0.00     0.004 C 
ENDBRANCH  10  11
ENDBRANCH   9  10
ENDBRANCH   8   9
ENDBRANCH   7   8
ENDBRANCH   6   7
ENDBRANCH   5   6
ENDBRANCH   4   5
ENDBRANCH   3   4
ENDBRANCH   2   3
ENDBRANCH   1   2
BRANCH   1  13
ATOM     13  C   UNL     1       2.708  21.592  26.871  1.00  0.00     0.000 C 
BRANCH  13  14
ATOM     14  C   UNL     1       3.986  20.758  26.678  1.00  0.00     0.000 C 
BRANCH  14  15
ATOM     15  C   UNL     1       3.796  19.260  26.995  1.00  0.00     0.000 C 
BRANCH  15  16
ATOM     16  C   UNL     1       5.042  18.430  26.641  1.00  0.00     0.000 C 
BRANCH  16  17
ATOM     17  C   UNL     1       4.943  16.975  27.125  1.00  0.00     0.000 C 
BRANCH  17  18
ATOM     18  C   UNL     1       3.528  16.394  26.976  1.00  0.00     0.000 C 
BRANCH  18  19
ATOM     19  C   UNL     1       3.445  15.450  25.766  1.00  0.00     0.000 C 
BRANCH  19  20
ATOM     20  C   UNL     1       4.816  15.185  25.126  1.00  0.00     0.006 C 
BRANCH  20  21
ATOM     21  C   UNL     1       4.785  15.268  23.595  1.00  0.00     0.053 C 
BRANCH  21  22
ATOM     22  C   UNL     1       3.621  16.090  23.140  1.00  0.00     0.041 C 
ATOM     23  O   UNL     1       2.843  15.651  22.252  1.00  0.00    -0.550 OA
ATOM     24  O   UNL     1       3.425  17.364  23.658  1.00  0.00    -0.550 OA
ENDBRANCH  21  22
ENDBRANCH  20  21
ENDBRANCH  19  20
ENDBRANCH  18  19
ENDBRANCH  17  18
ENDBRANCH  16  17
ENDBRANCH  15  16
ENDBRANCH  14  15
ENDBRANCH  13  14
ENDBRANCH   1  13
TORSDOF 20
ENDMDL
MODEL 6
REMARK VINA RESULT:    -2.970      4.717      9.280
REMARK INTER + INTRA:          -7.242
REMARK INTER:                  -5.790
REMARK INTRA:                  -1.452
REMARK UNBOUND:                -0.800
REMARK SMILES CCCCCCCCCCCCCCCCCCCCCC(=O)[O-]
REMARK SMILES IDX 12 1 11 2 10 3 9 4 8 5 7 6 6 7 5 8 4 9 3 10 2 11 1 12 13 13
REMARK SMILES IDX 14 14 15 15 16 16 17 17 18 18 19 19 20 20 21 21 22 22 23 23
REMARK SMILES IDX 24 24
REMARK H PARENT
REMARK Flexibility Score: inf
ROOT
ATOM      1  C   UNL     1       0.990  22.948  26.008  1.00  0.00     0.000 C 
ENDROOT
BRANCH   1   2
ATOM      2  C   UNL     1      -0.137  23.270  26.994  1.00  0.00     0.000 C 
BRANCH   2   3
ATOM      3  C   UNL     1      -0.934  24.502  26.539  1.00  0.00     0.000 C 
BRANCH   3   4
ATOM      4  C   UNL     1      -0.020  25.703  26.212  1.00  0.00    -0.000 C 
BRANCH   4   5
ATOM      5  C   UNL     1       0.524  25.694  24.771  1.00  0.00    -0.000 C 
BRANCH   5   6
ATOM      6  C   UNL     1       0.407  27.035  24.025  1.00  0.00    -0.000 C 
BRANCH   6   7
ATOM      7  C   UNL     1       1.314  27.171  22.786  1.00  0.00    -0.000 C 
BRANCH   7   8
ATOM      8  C   UNL     1       0.804  28.199  21.752  1.00  0.00    -0.000 C 
BRANCH   8   9
ATOM      9  C   UNL     1      -0.574  27.821  21.183  1.00  0.00    -0.000 C 
BRANCH   9  10
ATOM     10  C   UNL     1      -1.227  28.965  20.390  1.00  0.00    -0.000 C 
BRANCH  10  11
ATOM     11  C   UNL     1      -0.343  30.226  20.287  1.00  0.00    -0.003 C 
ATOM     12  C   UNL     1      -1.087  31.410  19.668  1.00  0.00     0.004 C 
ENDBRANCH  10  11
ENDBRANCH   9  10
ENDBRANCH   8   9
ENDBRANCH   7   8
ENDBRANCH   6   7
ENDBRANCH   5   6
ENDBRANCH   4   5
ENDBRANCH   3   4
ENDBRANCH   2   3
ENDBRANCH   1   2
BRANCH   1  13
ATOM     13  C   UNL     1       2.189  22.323  26.734  1.00  0.00     0.000 C 
BRANCH  13  14
ATOM     14  C   UNL     1       3.330  23.326  26.977  1.00  0.00     0.000 C 
BRANCH  14  15
ATOM     15  C   UNL     1       4.724  22.667  27.044  1.00  0.00     0.000 C 
BRANCH  15  16
ATOM     16  C   UNL     1       5.853  23.670  26.749  1.00  0.00     0.000 C 
BRANCH  16  17
ATOM     17  C   UNL     1       6.998  23.051  25.932  1.00  0.00     0.000 C 
BRANCH  17  18
ATOM     18  C   UNL     1       7.057  23.588  24.493  1.00  0.00     0.000 C 
BRANCH  18  19
ATOM     19  C   UNL     1       5.895  24.556  24.219  1.00  0.00     0.000 C 
BRANCH  19  20
ATOM     20  C   UNL     1       4.900  24.010  23.183  1.00  0.00     0.006 C 
BRANCH  20  21
ATOM     21  C   UNL     1       3.438  24.202  23.603  1.00  0.00     0.053 C 
BRANCH  21  22
ATOM     22  C   UNL     1       2.517  23.717  22.529  1.00  0.00     0.041 C 
ATOM     23  O   UNL     1       2.303  24.424  21.509  1.00  0.00    -0.550 OA
ATOM     24  O   UNL     1       1.851  22.507  22.680  1.00  0.00    -0.550 OA
ENDBRANCH  21  22
ENDBRANCH  20  21
ENDBRANCH  19  20
ENDBRANCH  18  19
ENDBRANCH  17  18
ENDBRANCH  16  17
ENDBRANCH  15  16
ENDBRANCH  14  15
ENDBRANCH  13  14
ENDBRANCH   1  13
TORSDOF 20
ENDMDL
MODEL 7
REMARK VINA RESULT:    -2.965      4.053      9.370
REMARK INTER + INTRA:          -7.231
REMARK INTER:                  -5.672
REMARK INTRA:                  -1.560
REMARK UNBOUND:                -0.800
REMARK SMILES CCCCCCCCCCCCCCCCCCCCCC(=O)[O-]
REMARK SMILES IDX 12 1 11 2 10 3 9 4 8 5 7 6 6 7 5 8 4 9 3 10 2 11 1 12 13 13
REMARK SMILES IDX 14 14 15 15 16 16 17 17 18 18 19 19 20 20 21 21 22 22 23 23
REMARK SMILES IDX 24 24
REMARK H PARENT
REMARK Flexibility Score: inf
ROOT
ATOM      1  C   UNL     1       2.293  23.826  25.626  1.00  0.00     0.000 C 
ENDROOT
BRANCH   1   2
ATOM      2  C   UNL     1       1.417  22.746  24.983  1.00  0.00     0.000 C 
BRANCH   2   3
ATOM      3  C   UNL     1       1.080  23.102  23.527  1.00  0.00     0.000 C 
BRANCH   3   4
ATOM      4  C   UNL     1       2.261  22.831  22.570  1.00  0.00    -0.000 C 
BRANCH   4   5
ATOM      5  C   UNL     1       2.595  24.016  21.644  1.00  0.00    -0.000 C 
BRANCH   5   6
ATOM      6  C   UNL     1       1.542  25.139  21.621  1.00  0.00    -0.000 C 
BRANCH   6   7
ATOM      7  C   UNL     1       2.036  26.503  22.143  1.00  0.00    -0.000 C 
BRANCH   7   8
ATOM      8  C   UNL     1       0.926  27.574  22.228  1.00  0.00    -0.000 C 
BRANCH   8   9
ATOM      9  C   UNL     1       0.265  27.840  20.865  1.00  0.00    -0.000 C 
BRANCH   9  10
ATOM     10  C   UNL     1      -0.948  28.779  20.963  1.00  0.00    -0.000 C 
BRANCH  10  11
ATOM     11  C   UNL     1      -0.829  30.035  20.072  1.00  0.00    -0.003 C 
ATOM     12  C   UNL     1       0.607  30.552  19.984  1.00  0.00     0.004 C 
ENDBRANCH  10  11
ENDBRANCH   9  10
ENDBRANCH   8   9
ENDBRANCH   7   8
ENDBRANCH   6   7
ENDBRANCH   5   6
ENDBRANCH   4   5
ENDBRANCH   3   4
ENDBRANCH   2   3
ENDBRANCH   1   2
BRANCH   1  13
ATOM     13  C   UNL     1       3.608  23.227  26.144  1.00  0.00     0.000 C 
BRANCH  13  14
ATOM     14  C   UNL     1       4.559  24.286  26.727  1.00  0.00     0.000 C 
BRANCH  14  15
ATOM     15  C   UNL     1       5.930  24.338  26.020  1.00  0.00     0.000 C 
BRANCH  15  16
ATOM     16  C   UNL     1       6.464  22.933  25.689  1.00  0.00     0.000 C 
BRANCH  16  17
ATOM     17  C   UNL     1       7.044  22.215  26.917  1.00  0.00     0.000 C 
BRANCH  17  18
ATOM     18  C   UNL     1       7.092  20.688  26.744  1.00  0.00     0.000 C 
BRANCH  18  19
ATOM     19  C   UNL     1       5.705  20.066  26.970  1.00  0.00     0.000 C 
BRANCH  19  20
ATOM     20  C   UNL     1       5.690  18.548  26.733  1.00  0.00     0.006 C 
BRANCH  20  21
ATOM     21  C   UNL     1       6.467  18.133  25.477  1.00  0.00     0.053 C 
BRANCH  21  22
ATOM     22  C   UNL     1       5.665  17.171  24.659  1.00  0.00     0.041 C 
ATOM     23  O   UNL     1       6.240  16.271  23.993  1.00  0.00    -0.550 OA
ATOM     24  O   UNL     1       4.283  17.302  24.590  1.00  0.00    -0.550 OA
ENDBRANCH  21  22
ENDBRANCH  20  21
ENDBRANCH  19  20
ENDBRANCH  18  19
ENDBRANCH  17  18
ENDBRANCH  16  17
ENDBRANCH  15  16
ENDBRANCH  14  15
ENDBRANCH  13  14
ENDBRANCH   1  13
TORSDOF 20
ENDMDL
MODEL 8
REMARK VINA RESULT:    -2.946      2.947      4.496
REMARK INTER + INTRA:          -7.191
REMARK INTER:                  -5.551
REMARK INTRA:                  -1.640
REMARK UNBOUND:                -0.800
REMARK SMILES CCCCCCCCCCCCCCCCCCCCCC(=O)[O-]
REMARK SMILES IDX 12 1 11 2 10 3 9 4 8 5 7 6 6 7 5 8 4 9 3 10 2 11 1 12 13 13
REMARK SMILES IDX 14 14 15 15 16 16 17 17 18 18 19 19 20 20 21 21 22 22 23 23
REMARK SMILES IDX 24 24
REMARK H PARENT
REMARK Flexibility Score: inf
ROOT
ATOM      1  C   UNL     1       3.548  23.177  25.636  1.00  0.00     0.000 C 
ENDROOT
BRANCH   1   2
ATOM      2  C   UNL     1       4.727  24.153  25.690  1.00  0.00     0.000 C 
BRANCH   2   3
ATOM      3  C   UNL     1       5.927  23.615  24.896  1.00  0.00     0.000 C 
BRANCH   3   4
ATOM      4  C   UNL     1       7.006  22.997  25.811  1.00  0.00    -0.000 C 
BRANCH   4   5
ATOM      5  C   UNL     1       6.510  21.790  26.629  1.00  0.00    -0.000 C 
BRANCH   5   6
ATOM      6  C   UNL     1       7.124  20.437  26.229  1.00  0.00    -0.000 C 
BRANCH   6   7
ATOM      7  C   UNL     1       6.382  19.200  26.771  1.00  0.00    -0.000 C 
BRANCH   7   8
ATOM      8  C   UNL     1       6.294  18.036  25.760  1.00  0.00    -0.000 C 
BRANCH   8   9
ATOM      9  C   UNL     1       4.856  17.518  25.589  1.00  0.00    -0.000 C 
BRANCH   9  10
ATOM     10  C   UNL     1       4.738  16.426  24.513  1.00  0.00    -0.000 C 
BRANCH  10  11
ATOM     11  C   UNL     1       3.284  15.981  24.244  1.00  0.00    -0.003 C 
ATOM     12  C   UNL     1       2.908  16.084  22.766  1.00  0.00     0.004 C 
ENDBRANCH  10  11
ENDBRANCH   9  10
ENDBRANCH   8   9
ENDBRANCH   7   8
ENDBRANCH   6   7
ENDBRANCH   5   6
ENDBRANCH   4   5
ENDBRANCH   3   4
ENDBRANCH   2   3
ENDBRANCH   1   2
BRANCH   1  13
ATOM     13  C   UNL     1       2.212  23.931  25.681  1.00  0.00     0.000 C 
BRANCH  13  14
ATOM     14  C   UNL     1       1.113  23.252  24.846  1.00  0.00     0.000 C 
BRANCH  14  15
ATOM     15  C   UNL     1       1.657  22.498  23.613  1.00  0.00     0.000 C 
BRANCH  15  16
ATOM     16  C   UNL     1       1.507  23.319  22.320  1.00  0.00     0.000 C 
BRANCH  16  17
ATOM     17  C   UNL     1       2.804  24.042  21.923  1.00  0.00     0.000 C 
BRANCH  17  18
ATOM     18  C   UNL     1       2.804  25.525  22.326  1.00  0.00     0.000 C 
BRANCH  18  19
ATOM     19  C   UNL     1       1.369  26.042  22.520  1.00  0.00     0.000 C 
BRANCH  19  20
ATOM     20  C   UNL     1       1.150  27.430  21.899  1.00  0.00     0.006 C 
BRANCH  20  21
ATOM     21  C   UNL     1       0.059  27.435  20.821  1.00  0.00     0.053 C 
BRANCH  21  22
ATOM     22  C   UNL     1      -0.488  28.815  20.637  1.00  0.00     0.041 C 
ATOM     23  O   UNL     1       0.292  29.797  20.520  1.00  0.00    -0.550 OA
ATOM     24  O   UNL     1      -1.862  29.025  20.648  1.00  0.00    -0.550 OA
ENDBRANCH  21  22
ENDBRANCH  20  21
ENDBRANCH  19  20
ENDBRANCH  18  19
ENDBRANCH  17  18
ENDBRANCH  16  17
ENDBRANCH  15  16
ENDBRANCH  14  15
ENDBRANCH  13  14
ENDBRANCH   1  13
TORSDOF 20
ENDMDL
MODEL 9
REMARK VINA RESULT:    -2.908      2.060      3.759
REMARK INTER + INTRA:          -7.107
REMARK INTER:                  -5.490
REMARK INTRA:                  -1.617
REMARK UNBOUND:                -0.800
REMARK SMILES CCCCCCCCCCCCCCCCCCCCCC(=O)[O-]
REMARK SMILES IDX 12 1 11 2 10 3 9 4 8 5 7 6 6 7 5 8 4 9 3 10 2 11 1 12 13 13
REMARK SMILES IDX 14 14 15 15 16 16 17 17 18 18 19 19 20 20 21 21 22 22 23 23
REMARK SMILES IDX 24 24
REMARK H PARENT
REMARK Flexibility Score: inf
ROOT
ATOM      1  C   UNL     1       4.360  23.486  25.555  1.00  0.00     0.000 C 
ENDROOT
BRANCH   1   2
ATOM      2  C   UNL     1       5.528  24.472  25.652  1.00  0.00     0.000 C 
BRANCH   2   3
ATOM      3  C   UNL     1       6.722  23.843  26.387  1.00  0.00     0.000 C 
BRANCH   3   4
ATOM      4  C   UNL     1       6.986  22.389  25.938  1.00  0.00    -0.000 C 
BRANCH   4   5
ATOM      5  C   UNL     1       7.116  21.394  27.106  1.00  0.00    -0.000 C 
BRANCH   5   6
ATOM      6  C   UNL     1       6.228  20.142  26.994  1.00  0.00    -0.000 C 
BRANCH   6   7
ATOM      7  C   UNL     1       6.994  18.809  26.889  1.00  0.00    -0.000 C 
BRANCH   7   8
ATOM      8  C   UNL     1       6.714  18.033  25.583  1.00  0.00    -0.000 C 
BRANCH   8   9
ATOM      9  C   UNL     1       5.231  17.651  25.438  1.00  0.00    -0.000 C 
BRANCH   9  10
ATOM     10  C   UNL     1       4.954  16.800  24.188  1.00  0.00    -0.000 C 
BRANCH  10  11
ATOM     11  C   UNL     1       3.551  16.155  24.180  1.00  0.00    -0.003 C 
ATOM     12  C   UNL     1       3.376  15.156  23.036  1.00  0.00     0.004 C 
ENDBRANCH  10  11
ENDBRANCH   9  10
ENDBRANCH   8   9
ENDBRANCH   7   8
ENDBRANCH   6   7
ENDBRANCH   5   6
ENDBRANCH   4   5
ENDBRANCH   3   4
ENDBRANCH   2   3
ENDBRANCH   1   2
BRANCH   1  13
ATOM     13  C   UNL     1       3.813  23.147  26.949  1.00  0.00     0.000 C 
BRANCH  13  14
ATOM     14  C   UNL     1       2.332  23.524  27.118  1.00  0.00     0.000 C 
BRANCH  14  15
ATOM     15  C   UNL     1       1.525  23.450  25.804  1.00  0.00     0.000 C 
BRANCH  15  16
ATOM     16  C   UNL     1       0.591  24.660  25.630  1.00  0.00     0.000 C 
BRANCH  16  17
ATOM     17  C   UNL     1       1.204  25.760  24.750  1.00  0.00     0.000 C 
BRANCH  17  18
ATOM     18  C   UNL     1       1.300  25.353  23.270  1.00  0.00     0.000 C 
BRANCH  18  19
ATOM     19  C   UNL     1       2.767  25.259  22.821  1.00  0.00     0.000 C 
BRANCH  19  20
ATOM     20  C   UNL     1       3.119  23.886  22.227  1.00  0.00     0.006 C 
BRANCH  20  21
ATOM     21  C   UNL     1       1.934  23.224  21.515  1.00  0.00     0.053 C 
BRANCH  21  22
ATOM     22  C   UNL     1       1.534  21.968  22.223  1.00  0.00     0.041 C 
ATOM     23  O   UNL     1       0.875  21.081  21.619  1.00  0.00    -0.550 OA
ATOM     24  O   UNL     1       1.842  21.800  23.568  1.00  0.00    -0.550 OA
ENDBRANCH  21  22
ENDBRANCH  20  21
ENDBRANCH  19  20
ENDBRANCH  18  19
ENDBRANCH  17  18
ENDBRANCH  16  17
ENDBRANCH  15  16
ENDBRANCH  14  15
ENDBRANCH  13  14
ENDBRANCH   1  13
TORSDOF 20
ENDMDL
