MODEL 1
REMARK VINA RESULT:    -4.348      0.000      0.000
REMARK INTER + INTRA:          -6.892
REMARK INTER:                  -6.127
REMARK INTRA:                  -0.765
REMARK UNBOUND:                -0.765
REMARK SMILES COc1ccc(-c2cc(=O)c3c(OC)c(OC)c(OC)c(OC)c3o2)cc1OC
REMARK SMILES IDX 7 1 8 2 9 3 10 4 11 5 24 6 25 7 21 8 18 9 15 10 12 11 6 12
REMARK SMILES IDX 3 13 27 14 4 15 26 16 5 17 2 18 1 19 28 20 29 21 22 22 23 23
REMARK SMILES IDX 13 24 14 25 19 26 20 27 16 28 17 29
REMARK H PARENT
REMARK Flexibility Score: inf
ROOT
ATOM      1  C   UNL     1     106.519 108.683 114.047  1.00  0.00     0.138 A 
ATOM      2  C   UNL     1     107.286 108.676 112.879  1.00  0.00     0.100 A 
ATOM      3  C   UNL     1     108.609 108.248 112.937  1.00  0.00     0.197 A 
ATOM      4  O   UNL     1     109.289 108.240 111.875  1.00  0.00    -0.289 OA
ATOM      5  C   UNL     1     109.158 107.831 114.172  1.00  0.00     0.115 A 
ATOM      6  C   UNL     1     108.324 107.867 115.314  1.00  0.00     0.188 A 
ATOM      7  O   UNL     1     107.063 108.277 115.191  1.00  0.00    -0.452 OA
ATOM      8  C   UNL     1     108.826 107.477 116.581  1.00  0.00     0.209 A 
ATOM      9  C   UNL     1     110.165 107.011 116.690  1.00  0.00     0.211 A 
ATOM     10  C   UNL     1     110.988 106.960 115.536  1.00  0.00     0.208 A 
ATOM     11  C   UNL     1     110.493 107.401 114.298  1.00  0.00     0.179 A 
ENDROOT
BRANCH   1  12
ATOM     12  C   UNL     1     105.106 109.127 114.037  1.00  0.00     0.021 A 
ATOM     13  C   UNL     1     102.404 109.940 113.991  1.00  0.00     0.160 A 
ATOM     14  C   UNL     1     103.161 110.097 115.162  1.00  0.00     0.161 A 
ATOM     15  C   UNL     1     103.001 109.372 112.851  1.00  0.00     0.051 A 
ATOM     16  C   UNL     1     104.510 109.689 115.181  1.00  0.00     0.062 A 
ATOM     17  C   UNL     1     104.336 108.968 112.878  1.00  0.00     0.016 A 
BRANCH  13  18
ATOM     18  O   UNL     1     101.064 110.359 114.002  1.00  0.00    -0.493 OA
ATOM     19  C   UNL     1     100.605 111.605 113.488  1.00  0.00     0.278 C 
ENDBRANCH  13  18
BRANCH  14  20
ATOM     20  O   UNL     1     102.537 110.659 116.287  1.00  0.00    -0.493 OA
ATOM     21  C   UNL     1     102.330 109.979 117.522  1.00  0.00     0.278 C 
ENDBRANCH  14  20
ENDBRANCH   1  12
BRANCH   8  22
ATOM     22  O   UNL     1     108.044 107.540 117.750  1.00  0.00    -0.490 OA
ATOM     23  C   UNL     1     107.894 108.644 118.637  1.00  0.00     0.278 C 
ENDBRANCH   8  22
BRANCH  11  24
ATOM     24  O   UNL     1     111.330 107.385 113.173  1.00  0.00    -0.492 OA
ATOM     25  C   UNL     1     112.381 108.327 112.987  1.00  0.00     0.278 C 
ENDBRANCH  11  24
BRANCH   9  26
ATOM     26  O   UNL     1     110.721 106.586 117.914  1.00  0.00    -0.490 OA
ATOM     27  C   UNL     1     111.457 107.358 118.857  1.00  0.00     0.279 C 
ENDBRANCH   9  26
BRANCH  10  28
ATOM     28  O   UNL     1     112.306 106.460 115.542  1.00  0.00    -0.490 OA
ATOM     29  C   UNL     1     112.718 105.100 115.453  1.00  0.00     0.278 C 
ENDBRANCH  10  28
TORSDOF 7
ENDMDL
MODEL 2
REMARK VINA RESULT:    -4.344      1.587      7.881
REMARK INTER + INTRA:          -6.887
REMARK INTER:                  -6.290
REMARK INTRA:                  -0.597
REMARK UNBOUND:                -0.765
REMARK SMILES COc1ccc(-c2cc(=O)c3c(OC)c(OC)c(OC)c(OC)c3o2)cc1OC
REMARK SMILES IDX 7 1 8 2 9 3 10 4 11 5 24 6 25 7 21 8 18 9 15 10 12 11 6 12
REMARK SMILES IDX 3 13 27 14 4 15 26 16 5 17 2 18 1 19 28 20 29 21 22 22 23 23
REMARK SMILES IDX 13 24 14 25 19 26 20 27 16 28 17 29
REMARK H PARENT
REMARK Flexibility Score: inf
ROOT
ATOM      1  C   UNL     1     106.376 108.842 113.622  1.00  0.00     0.138 A 
ATOM      2  C   UNL     1     105.456 109.013 112.583  1.00  0.00     0.100 A 
ATOM      3  C   UNL     1     104.176 109.471 112.876  1.00  0.00     0.197 A 
ATOM      4  O   UNL     1     103.358 109.627 111.929  1.00  0.00    -0.289 OA
ATOM      5  C   UNL     1     103.821 109.752 114.216  1.00  0.00     0.115 A 
ATOM      6  C   UNL     1     104.801 109.554 115.217  1.00  0.00     0.188 A 
ATOM      7  O   UNL     1     106.013 109.123 114.870  1.00  0.00    -0.452 OA
ATOM      8  C   UNL     1     104.495 109.803 116.578  1.00  0.00     0.209 A 
ATOM      9  C   UNL     1     103.208 110.292 116.929  1.00  0.00     0.211 A 
ATOM     10  C   UNL     1     102.237 110.507 115.916  1.00  0.00     0.208 A 
ATOM     11  C   UNL     1     102.537 110.204 114.578  1.00  0.00     0.179 A 
ENDROOT
BRANCH   1  12
ATOM     12  C   UNL     1     107.752 108.360 113.361  1.00  0.00     0.021 A 
ATOM     13  C   UNL     1     110.381 107.479 112.841  1.00  0.00     0.160 A 
ATOM     14  C   UNL     1     109.769 107.167 114.065  1.00  0.00     0.161 A 
ATOM     15  C   UNL     1     109.678 108.235 111.886  1.00  0.00     0.051 A 
ATOM     16  C   UNL     1     108.456 107.610 114.320  1.00  0.00     0.062 A 
ATOM     17  C   UNL     1     108.379 108.672 112.147  1.00  0.00     0.016 A 
BRANCH  13  18
ATOM     18  O   UNL     1     111.689 107.021 112.614  1.00  0.00    -0.493 OA
ATOM     19  C   UNL     1     112.853 107.839 112.679  1.00  0.00     0.278 C 
ENDBRANCH  13  18
BRANCH  14  20
ATOM     20  O   UNL     1     110.498 106.418 115.001  1.00  0.00    -0.493 OA
ATOM     21  C   UNL     1     110.541 106.692 116.399  1.00  0.00     0.278 C 
ENDBRANCH  14  20
ENDBRANCH   1  12
BRANCH   8  22
ATOM     22  O   UNL     1     105.426 109.576 117.610  1.00  0.00    -0.490 OA
ATOM     23  C   UNL     1     105.653 108.366 118.325  1.00  0.00     0.278 C 
ENDBRANCH   8  22
BRANCH  11  24
ATOM     24  O   UNL     1     101.556 110.381 113.592  1.00  0.00    -0.492 OA
ATOM     25  C   UNL     1     101.235 111.658 113.051  1.00  0.00     0.278 C 
ENDBRANCH  11  24
BRANCH   9  26
ATOM     26  O   UNL     1     102.845 110.583 118.259  1.00  0.00    -0.490 OA
ATOM     27  C   UNL     1     102.218 109.723 119.205  1.00  0.00     0.279 C 
ENDBRANCH   9  26
BRANCH  10  28
ATOM     28  O   UNL     1     100.957 111.042 116.166  1.00  0.00    -0.490 OA
ATOM     29  C   UNL     1     100.634 112.376 116.544  1.00  0.00     0.278 C 
ENDBRANCH  10  28
TORSDOF 7
ENDMDL
MODEL 3
REMARK VINA RESULT:    -4.263      6.315     10.127
REMARK INTER + INTRA:          -6.772
REMARK INTER:                  -6.286
REMARK INTRA:                  -0.486
REMARK UNBOUND:                -0.765
REMARK SMILES COc1ccc(-c2cc(=O)c3c(OC)c(OC)c(OC)c(OC)c3o2)cc1OC
REMARK SMILES IDX 7 1 8 2 9 3 10 4 11 5 24 6 25 7 21 8 18 9 15 10 12 11 6 12
REMARK SMILES IDX 3 13 27 14 4 15 26 16 5 17 2 18 1 19 28 20 29 21 22 22 23 23
REMARK SMILES IDX 13 24 14 25 19 26 20 27 16 28 17 29
REMARK H PARENT
REMARK Flexibility Score: inf
ROOT
ATOM      1  C   UNL     1     101.150 110.382 117.486  1.00  0.00     0.138 A 
ATOM      2  C   UNL     1     101.583 109.753 116.315  1.00  0.00     0.100 A 
ATOM      3  C   UNL     1     101.392 110.388 115.092  1.00  0.00     0.197 A 
ATOM      4  O   UNL     1     101.793 109.814 114.044  1.00  0.00    -0.289 OA
ATOM      5  C   UNL     1     100.762 111.654 115.049  1.00  0.00     0.115 A 
ATOM      6  C   UNL     1     100.348 112.230 116.273  1.00  0.00     0.188 A 
ATOM      7  O   UNL     1     100.569 111.576 117.412  1.00  0.00    -0.452 OA
ATOM      8  C   UNL     1      99.695 113.488 116.288  1.00  0.00     0.209 A 
ATOM      9  C   UNL     1      99.495 114.188 115.067  1.00  0.00     0.211 A 
ATOM     10  C   UNL     1      99.931 113.611 113.847  1.00  0.00     0.208 A 
ATOM     11  C   UNL     1     100.528 112.340 113.842  1.00  0.00     0.179 A 
ENDROOT
BRANCH   1  12
ATOM     12  C   UNL     1     101.333 109.750 118.813  1.00  0.00     0.021 A 
ATOM     13  C   UNL     1     101.648 108.517 121.331  1.00  0.00     0.160 A 
ATOM     14  C   UNL     1     102.771 109.015 120.652  1.00  0.00     0.161 A 
ATOM     15  C   UNL     1     100.375 108.632 120.745  1.00  0.00     0.051 A 
ATOM     16  C   UNL     1     102.608 109.629 119.394  1.00  0.00     0.062 A 
ATOM     17  C   UNL     1     100.223 109.239 119.498  1.00  0.00     0.016 A 
BRANCH  13  18
ATOM     18  O   UNL     1     101.841 107.913 122.584  1.00  0.00    -0.493 OA
ATOM     19  C   UNL     1     101.095 106.800 123.067  1.00  0.00     0.278 C 
ENDBRANCH  13  18
BRANCH  14  20
ATOM     20  O   UNL     1     104.030 108.878 121.257  1.00  0.00    -0.493 OA
ATOM     21  C   UNL     1     105.097 108.093 120.735  1.00  0.00     0.278 C 
ENDBRANCH  14  20
ENDBRANCH   1  12
BRANCH   8  22
ATOM     22  O   UNL     1      99.227 114.076 117.479  1.00  0.00    -0.490 OA
ATOM     23  C   UNL     1      99.973 114.831 118.427  1.00  0.00     0.278 C 
ENDBRANCH   8  22
BRANCH  11  24
ATOM     24  O   UNL     1     100.917 111.763 112.625  1.00  0.00    -0.492 OA
ATOM     25  C   UNL     1     102.134 112.103 111.970  1.00  0.00     0.278 C 
ENDBRANCH  11  24
BRANCH   9  26
ATOM     26  O   UNL     1      98.875 115.452 115.012  1.00  0.00    -0.490 OA
ATOM     27  C   UNL     1      99.460 116.727 115.263  1.00  0.00     0.279 C 
ENDBRANCH   9  26
BRANCH  10  28
ATOM     28  O   UNL     1      99.825 114.259 112.599  1.00  0.00    -0.490 OA
ATOM     29  C   UNL     1     100.655 115.295 112.085  1.00  0.00     0.278 C 
ENDBRANCH  10  28
TORSDOF 7
ENDMDL
MODEL 4
REMARK VINA RESULT:    -4.194      1.949      7.790
REMARK INTER + INTRA:          -6.676
REMARK INTER:                  -5.941
REMARK INTRA:                  -0.734
REMARK UNBOUND:                -0.765
REMARK SMILES COc1ccc(-c2cc(=O)c3c(OC)c(OC)c(OC)c(OC)c3o2)cc1OC
REMARK SMILES IDX 7 1 8 2 9 3 10 4 11 5 24 6 25 7 21 8 18 9 15 10 12 11 6 12
REMARK SMILES IDX 3 13 27 14 4 15 26 16 5 17 2 18 1 19 28 20 29 21 22 22 23 23
REMARK SMILES IDX 13 24 14 25 19 26 20 27 16 28 17 29
REMARK H PARENT
REMARK Flexibility Score: inf
ROOT
ATOM      1  C   UNL     1     108.970 108.728 113.924  1.00  0.00     0.138 A 
ATOM      2  C   UNL     1     108.172 108.824 112.780  1.00  0.00     0.100 A 
ATOM      3  C   UNL     1     106.821 109.128 112.917  1.00  0.00     0.197 A 
ATOM      4  O   UNL     1     106.114 109.218 111.877  1.00  0.00    -0.289 OA
ATOM      5  C   UNL     1     106.275 109.331 114.205  1.00  0.00     0.115 A 
ATOM      6  C   UNL     1     107.141 109.217 115.318  1.00  0.00     0.188 A 
ATOM      7  O   UNL     1     108.428 108.934 115.120  1.00  0.00    -0.452 OA
ATOM      8  C   UNL     1     106.645 109.394 116.634  1.00  0.00     0.209 A 
ATOM      9  C   UNL     1     105.276 109.727 116.827  1.00  0.00     0.211 A 
ATOM     10  C   UNL     1     104.419 109.859 115.704  1.00  0.00     0.208 A 
ATOM     11  C   UNL     1     104.914 109.628 114.410  1.00  0.00     0.179 A 
ENDROOT
BRANCH   1  12
ATOM     12  C   UNL     1     110.414 108.411 113.831  1.00  0.00     0.021 A 
ATOM     13  C   UNL     1     113.165 107.824 113.614  1.00  0.00     0.160 A 
ATOM     14  C   UNL     1     112.609 108.110 114.870  1.00  0.00     0.161 A 
ATOM     15  C   UNL     1     112.345 107.838 112.472  1.00  0.00     0.051 A 
ATOM     16  C   UNL     1     111.234 108.403 114.973  1.00  0.00     0.062 A 
ATOM     17  C   UNL     1     110.985 108.132 112.582  1.00  0.00     0.016 A 
BRANCH  13  18
ATOM     18  O   UNL     1     114.537 107.532 113.543  1.00  0.00    -0.493 OA
ATOM     19  C   UNL     1     115.322 107.627 112.359  1.00  0.00     0.278 C 
ENDBRANCH  13  18
BRANCH  14  20
ATOM     20  O   UNL     1     113.454 108.097 115.991  1.00  0.00    -0.493 OA
ATOM     21  C   UNL     1     113.166 107.425 117.213  1.00  0.00     0.278 C 
ENDBRANCH  14  20
ENDBRANCH   1  12
BRANCH   8  22
ATOM     22  O   UNL     1     107.462 109.244 117.771  1.00  0.00    -0.490 OA
ATOM     23  C   UNL     1     107.863 108.031 118.399  1.00  0.00     0.278 C 
ENDBRANCH   8  22
BRANCH  11  24
ATOM     24  O   UNL     1     104.047 109.720 113.312  1.00  0.00    -0.492 OA
ATOM     25  C   UNL     1     103.109 108.699 112.988  1.00  0.00     0.278 C 
ENDBRANCH  11  24
BRANCH   9  26
ATOM     26  O   UNL     1     104.722 109.939 118.106  1.00  0.00    -0.490 OA
ATOM     27  C   UNL     1     104.127 108.980 118.974  1.00  0.00     0.279 C 
ENDBRANCH   9  26
BRANCH  10  28
ATOM     28  O   UNL     1     103.066 110.241 115.799  1.00  0.00    -0.490 OA
ATOM     29  C   UNL     1     102.542 111.562 115.888  1.00  0.00     0.278 C 
ENDBRANCH  10  28
TORSDOF 7
ENDMDL
MODEL 5
REMARK VINA RESULT:    -4.154      2.880      4.415
REMARK INTER + INTRA:          -6.619
REMARK INTER:                  -5.897
REMARK INTRA:                  -0.722
REMARK UNBOUND:                -0.765
REMARK SMILES COc1ccc(-c2cc(=O)c3c(OC)c(OC)c(OC)c(OC)c3o2)cc1OC
REMARK SMILES IDX 7 1 8 2 9 3 10 4 11 5 24 6 25 7 21 8 18 9 15 10 12 11 6 12
REMARK SMILES IDX 3 13 27 14 4 15 26 16 5 17 2 18 1 19 28 20 29 21 22 22 23 23
REMARK SMILES IDX 13 24 14 25 19 26 20 27 16 28 17 29
REMARK H PARENT
REMARK Flexibility Score: inf
ROOT
ATOM      1  C   UNL     1     106.901 107.528 117.340  1.00  0.00     0.138 A 
ATOM      2  C   UNL     1     106.426 107.474 116.026  1.00  0.00     0.100 A 
ATOM      3  C   UNL     1     107.336 107.471 114.974  1.00  0.00     0.197 A 
ATOM      4  O   UNL     1     106.895 107.415 113.794  1.00  0.00    -0.289 OA
ATOM      5  C   UNL     1     108.723 107.525 115.244  1.00  0.00     0.115 A 
ATOM      6  C   UNL     1     109.132 107.580 116.598  1.00  0.00     0.188 A 
ATOM      7  O   UNL     1     108.212 107.570 117.561  1.00  0.00    -0.452 OA
ATOM      8  C   UNL     1     110.508 107.654 116.928  1.00  0.00     0.209 A 
ATOM      9  C   UNL     1     111.480 107.632 115.890  1.00  0.00     0.211 A 
ATOM     10  C   UNL     1     111.060 107.557 114.536  1.00  0.00     0.208 A 
ATOM     11  C   UNL     1     109.692 107.539 114.223  1.00  0.00     0.179 A 
ENDROOT
BRANCH   1  12
ATOM     12  C   UNL     1     105.974 107.531 118.495  1.00  0.00     0.021 A 
ATOM     13  C   UNL     1     104.238 107.516 120.719  1.00  0.00     0.160 A 
ATOM     14  C   UNL     1     104.193 108.581 119.805  1.00  0.00     0.161 A 
ATOM     15  C   UNL     1     105.154 106.468 120.519  1.00  0.00     0.051 A 
ATOM     16  C   UNL     1     105.063 108.583 118.696  1.00  0.00     0.062 A 
ATOM     17  C   UNL     1     106.013 106.480 119.420  1.00  0.00     0.016 A 
BRANCH  13  18
ATOM     18  O   UNL     1     103.357 107.539 121.812  1.00  0.00    -0.493 OA
ATOM     19  C   UNL     1     102.401 106.523 122.099  1.00  0.00     0.278 C 
ENDBRANCH  13  18
BRANCH  14  20
ATOM     20  O   UNL     1     103.275 109.617 120.035  1.00  0.00    -0.493 OA
ATOM     21  C   UNL     1     102.003 109.725 119.404  1.00  0.00     0.278 C 
ENDBRANCH  14  20
ENDBRANCH   1  12
BRANCH   8  22
ATOM     22  O   UNL     1     110.957 107.756 118.259  1.00  0.00    -0.490 OA
ATOM     23  C   UNL     1     111.167 108.943 119.016  1.00  0.00     0.278 C 
ENDBRANCH   8  22
BRANCH  11  24
ATOM     24  O   UNL     1     109.290 107.507 112.880  1.00  0.00    -0.492 OA
ATOM     25  C   UNL     1     109.330 108.656 112.041  1.00  0.00     0.278 C 
ENDBRANCH  11  24
BRANCH   9  26
ATOM     26  O   UNL     1     112.864 107.678 116.148  1.00  0.00    -0.490 OA
ATOM     27  C   UNL     1     113.739 106.592 116.438  1.00  0.00     0.279 C 
ENDBRANCH   9  26
BRANCH  10  28
ATOM     28  O   UNL     1     111.954 107.473 113.449  1.00  0.00    -0.490 OA
ATOM     29  C   UNL     1     112.546 106.300 112.902  1.00  0.00     0.278 C 
ENDBRANCH  10  28
TORSDOF 7
ENDMDL
MODEL 6
REMARK VINA RESULT:    -4.098      3.112      6.318
REMARK INTER + INTRA:          -6.541
REMARK INTER:                  -5.855
REMARK INTRA:                  -0.686
REMARK UNBOUND:                -0.765
REMARK SMILES COc1ccc(-c2cc(=O)c3c(OC)c(OC)c(OC)c(OC)c3o2)cc1OC
REMARK SMILES IDX 7 1 8 2 9 3 10 4 11 5 24 6 25 7 21 8 18 9 15 10 12 11 6 12
REMARK SMILES IDX 3 13 27 14 4 15 26 16 5 17 2 18 1 19 28 20 29 21 22 22 23 23
REMARK SMILES IDX 13 24 14 25 19 26 20 27 16 28 17 29
REMARK H PARENT
REMARK Flexibility Score: inf
ROOT
ATOM      1  C   UNL     1     102.976 110.064 116.953  1.00  0.00     0.138 A 
ATOM      2  C   UNL     1     102.242 110.372 115.804  1.00  0.00     0.100 A 
ATOM      3  C   UNL     1     102.917 110.683 114.628  1.00  0.00     0.197 A 
ATOM      4  O   UNL     1     102.243 110.952 113.597  1.00  0.00    -0.289 OA
ATOM      5  C   UNL     1     104.332 110.690 114.612  1.00  0.00     0.115 A 
ATOM      6  C   UNL     1     105.009 110.371 115.813  1.00  0.00     0.188 A 
ATOM      7  O   UNL     1     104.305 110.071 116.902  1.00  0.00    -0.452 OA
ATOM      8  C   UNL     1     106.426 110.378 115.859  1.00  0.00     0.209 A 
ATOM      9  C   UNL     1     107.164 110.670 114.680  1.00  0.00     0.211 A 
ATOM     10  C   UNL     1     106.476 110.969 113.476  1.00  0.00     0.208 A 
ATOM     11  C   UNL     1     105.072 111.010 113.458  1.00  0.00     0.179 A 
ENDROOT
BRANCH   1  12
ATOM     12  C   UNL     1     102.304 109.723 118.228  1.00  0.00     0.021 A 
ATOM     13  C   UNL     1     100.990 109.054 120.633  1.00  0.00     0.160 A 
ATOM     14  C   UNL     1     102.392 109.043 120.577  1.00  0.00     0.161 A 
ATOM     15  C   UNL     1     100.252 109.394 119.486  1.00  0.00     0.051 A 
ATOM     16  C   UNL     1     103.043 109.377 119.373  1.00  0.00     0.062 A 
ATOM     17  C   UNL     1     100.904 109.721 118.296  1.00  0.00     0.016 A 
BRANCH  13  18
ATOM     18  O   UNL     1     100.369 108.720 121.848  1.00  0.00    -0.493 OA
ATOM     19  C   UNL     1      99.910 107.415 122.187  1.00  0.00     0.278 C 
ENDBRANCH  13  18
BRANCH  14  20
ATOM     20  O   UNL     1     103.102 108.692 121.735  1.00  0.00    -0.493 OA
ATOM     21  C   UNL     1     103.671 107.408 121.978  1.00  0.00     0.278 C 
ENDBRANCH  14  20
ENDBRANCH   1  12
BRANCH   8  22
ATOM     22  O   UNL     1     107.139 110.112 117.044  1.00  0.00    -0.490 OA
ATOM     23  C   UNL     1     107.460 108.840 117.597  1.00  0.00     0.278 C 
ENDBRANCH   8  22
BRANCH  11  24
ATOM     24  O   UNL     1     104.404 111.348 112.272  1.00  0.00    -0.492 OA
ATOM     25  C   UNL     1     104.185 112.698 111.875  1.00  0.00     0.278 C 
ENDBRANCH  11  24
BRANCH   9  26
ATOM     26  O   UNL     1     108.573 110.672 114.650  1.00  0.00    -0.490 OA
ATOM     27  C   UNL     1     109.445 109.580 114.374  1.00  0.00     0.279 C 
ENDBRANCH   9  26
BRANCH  10  28
ATOM     28  O   UNL     1     107.126 111.214 112.249  1.00  0.00    -0.490 OA
ATOM     29  C   UNL     1     107.882 112.362 111.881  1.00  0.00     0.278 C 
ENDBRANCH  10  28
TORSDOF 7
ENDMDL
MODEL 7
REMARK VINA RESULT:    -4.091      2.074      8.589
REMARK INTER + INTRA:          -6.530
REMARK INTER:                  -5.846
REMARK INTRA:                  -0.684
REMARK UNBOUND:                -0.765
REMARK SMILES COc1ccc(-c2cc(=O)c3c(OC)c(OC)c(OC)c(OC)c3o2)cc1OC
REMARK SMILES IDX 7 1 8 2 9 3 10 4 11 5 24 6 25 7 21 8 18 9 15 10 12 11 6 12
REMARK SMILES IDX 3 13 27 14 4 15 26 16 5 17 2 18 1 19 28 20 29 21 22 22 23 23
REMARK SMILES IDX 13 24 14 25 19 26 20 27 16 28 17 29
REMARK H PARENT
REMARK Flexibility Score: inf
ROOT
ATOM      1  C   UNL     1     109.013 108.946 115.201  1.00  0.00     0.138 A 
ATOM      2  C   UNL     1     108.499 108.525 116.431  1.00  0.00     0.100 A 
ATOM      3  C   UNL     1     107.167 108.788 116.737  1.00  0.00     0.197 A 
ATOM      4  O   UNL     1     106.714 108.398 117.847  1.00  0.00    -0.289 OA
ATOM      5  C   UNL     1     106.356 109.479 115.807  1.00  0.00     0.115 A 
ATOM      6  C   UNL     1     106.944 109.877 114.583  1.00  0.00     0.188 A 
ATOM      7  O   UNL     1     108.221 109.586 114.344  1.00  0.00    -0.452 OA
ATOM      8  C   UNL     1     106.183 110.587 113.620  1.00  0.00     0.209 A 
ATOM      9  C   UNL     1     104.812 110.862 113.875  1.00  0.00     0.211 A 
ATOM     10  C   UNL     1     104.226 110.442 115.097  1.00  0.00     0.208 A 
ATOM     11  C   UNL     1     105.006 109.787 116.064  1.00  0.00     0.179 A 
ENDROOT
BRANCH   1  12
ATOM     12  C   UNL     1     110.422 108.687 114.826  1.00  0.00     0.021 A 
ATOM     13  C   UNL     1     113.120 108.218 114.148  1.00  0.00     0.160 A 
ATOM     14  C   UNL     1     112.149 107.246 113.863  1.00  0.00     0.161 A 
ATOM     15  C   UNL     1     112.739 109.417 114.776  1.00  0.00     0.051 A 
ATOM     16  C   UNL     1     110.803 107.485 114.204  1.00  0.00     0.062 A 
ATOM     17  C   UNL     1     111.404 109.645 115.113  1.00  0.00     0.016 A 
BRANCH  13  18
ATOM     18  O   UNL     1     114.453 107.953 113.793  1.00  0.00    -0.493 OA
ATOM     19  C   UNL     1     115.049 108.333 112.557  1.00  0.00     0.278 C 
ENDBRANCH  13  18
BRANCH  14  20
ATOM     20  O   UNL     1     112.560 106.056 113.244  1.00  0.00    -0.493 OA
ATOM     21  C   UNL     1     112.764 104.819 113.921  1.00  0.00     0.278 C 
ENDBRANCH  14  20
ENDBRANCH   1  12
BRANCH   8  22
ATOM     22  O   UNL     1     106.740 111.041 112.409  1.00  0.00    -0.490 OA
ATOM     23  C   UNL     1     107.408 112.275 112.169  1.00  0.00     0.278 C 
ENDBRANCH   8  22
BRANCH  11  24
ATOM     24  O   UNL     1     104.426 109.414 117.285  1.00  0.00    -0.492 OA
ATOM     25  C   UNL     1     104.111 110.358 118.303  1.00  0.00     0.278 C 
ENDBRANCH  11  24
BRANCH   9  26
ATOM     26  O   UNL     1     103.992 111.542 112.953  1.00  0.00    -0.490 OA
ATOM     27  C   UNL     1     103.225 110.989 111.888  1.00  0.00     0.279 C 
ENDBRANCH   9  26
BRANCH  10  28
ATOM     28  O   UNL     1     102.863 110.622 115.409  1.00  0.00    -0.490 OA
ATOM     29  C   UNL     1     101.772 109.783 115.046  1.00  0.00     0.278 C 
ENDBRANCH  10  28
TORSDOF 7
ENDMDL
MODEL 8
REMARK VINA RESULT:    -4.050      1.632      2.814
REMARK INTER + INTRA:          -6.472
REMARK INTER:                  -5.856
REMARK INTRA:                  -0.617
REMARK UNBOUND:                -0.765
REMARK SMILES COc1ccc(-c2cc(=O)c3c(OC)c(OC)c(OC)c(OC)c3o2)cc1OC
REMARK SMILES IDX 7 1 8 2 9 3 10 4 11 5 24 6 25 7 21 8 18 9 15 10 12 11 6 12
REMARK SMILES IDX 3 13 27 14 4 15 26 16 5 17 2 18 1 19 28 20 29 21 22 22 23 23
REMARK SMILES IDX 13 24 14 25 19 26 20 27 16 28 17 29
REMARK H PARENT
REMARK Flexibility Score: inf
ROOT
ATOM      1  C   UNL     1     105.714 109.493 115.829  1.00  0.00     0.138 A 
ATOM      2  C   UNL     1     105.932 109.647 114.458  1.00  0.00     0.100 A 
ATOM      3  C   UNL     1     107.209 109.442 113.944  1.00  0.00     0.197 A 
ATOM      4  O   UNL     1     107.390 109.579 112.704  1.00  0.00    -0.289 OA
ATOM      5  C   UNL     1     108.266 109.086 114.813  1.00  0.00     0.115 A 
ATOM      6  C   UNL     1     107.973 108.949 116.191  1.00  0.00     0.188 A 
ATOM      7  O   UNL     1     106.728 109.149 116.619  1.00  0.00    -0.452 OA
ATOM      8  C   UNL     1     108.997 108.610 117.111  1.00  0.00     0.209 A 
ATOM      9  C   UNL     1     110.315 108.370 116.634  1.00  0.00     0.211 A 
ATOM     10  C   UNL     1     110.594 108.491 115.249  1.00  0.00     0.208 A 
ATOM     11  C   UNL     1     109.582 108.879 114.357  1.00  0.00     0.179 A 
ENDROOT
BRANCH   1  12
ATOM     12  C   UNL     1     104.373 109.696 116.424  1.00  0.00     0.021 A 
ATOM     13  C   UNL     1     101.837 110.098 117.594  1.00  0.00     0.160 A 
ATOM     14  C   UNL     1     102.010 110.300 116.216  1.00  0.00     0.161 A 
ATOM     15  C   UNL     1     102.934 109.702 118.381  1.00  0.00     0.051 A 
ATOM     16  C   UNL     1     103.279 110.098 115.637  1.00  0.00     0.062 A 
ATOM     17  C   UNL     1     104.187 109.508 117.800  1.00  0.00     0.016 A 
BRANCH  13  18
ATOM     18  O   UNL     1     100.561 110.303 118.142  1.00  0.00    -0.493 OA
ATOM     19  C   UNL     1     100.055 109.621 119.286  1.00  0.00     0.278 C 
ENDBRANCH  13  18
BRANCH  14  20
ATOM     20  O   UNL     1     100.900 110.703 115.458  1.00  0.00    -0.493 OA
ATOM     21  C   UNL     1     100.766 110.506 114.054  1.00  0.00     0.278 C 
ENDBRANCH  14  20
ENDBRANCH   1  12
BRANCH   8  22
ATOM     22  O   UNL     1     108.759 108.508 118.495  1.00  0.00    -0.490 OA
ATOM     23  C   UNL     1     108.322 107.364 119.219  1.00  0.00     0.278 C 
ENDBRANCH   8  22
BRANCH  11  24
ATOM     24  O   UNL     1     109.880 109.035 112.996  1.00  0.00    -0.492 OA
ATOM     25  C   UNL     1     110.114 107.929 112.131  1.00  0.00     0.278 C 
ENDBRANCH  11  24
BRANCH   9  26
ATOM     26  O   UNL     1     111.374 108.007 117.490  1.00  0.00    -0.490 OA
ATOM     27  C   UNL     1     111.788 106.697 117.865  1.00  0.00     0.279 C 
ENDBRANCH   9  26
BRANCH  10  28
ATOM     28  O   UNL     1     111.856 108.215 114.683  1.00  0.00    -0.490 OA
ATOM     29  C   UNL     1     112.994 109.069 114.644  1.00  0.00     0.278 C 
ENDBRANCH  10  28
TORSDOF 7
ENDMDL
