MODEL 1
REMARK VINA RESULT:    -2.430      0.000      0.000
REMARK INTER + INTRA:          -2.880
REMARK INTER:                  -2.572
REMARK INTRA:                  -0.308
REMARK UNBOUND:                -0.308
REMARK SMILES C=C1CC[C@]2(C(C)C)C[C@H]12
REMARK SMILES IDX 5 1 4 2 3 3 2 4 1 5 10 6 9 7 6 8 7 9 8 10
REMARK H PARENT
REMARK Flexibility Score: inf
ROOT
ATOM      1  C   UNL     1     136.227 138.597 162.373  1.00  0.00    -0.020 C 
ATOM      2  C   UNL     1     134.879 138.206 161.741  1.00  0.00     0.012 C 
ATOM      3  C   UNL     1     134.875 136.685 161.586  1.00  0.00     0.031 C 
ATOM      4  C   UNL     1     136.226 136.246 162.038  1.00  0.00    -0.074 C 
ATOM      5  C   UNL     1     136.635 134.974 162.000  1.00  0.00     0.008 C 
ATOM      6  C   UNL     1     137.089 137.355 162.528  1.00  0.00     0.021 C 
ATOM      7  C   UNL     1     137.465 138.416 161.499  1.00  0.00     0.016 C 
ENDROOT
BRANCH   1   8
ATOM      8  C   UNL     1     136.318 139.647 163.507  1.00  0.00    -0.011 C 
ATOM      9  C   UNL     1     136.364 138.984 164.890  1.00  0.00     0.008 C 
ATOM     10  C   UNL     1     135.149 140.632 163.415  1.00  0.00     0.008 C 
ENDBRANCH   1   8
TORSDOF 1
ENDMDL
MODEL 2
REMARK VINA RESULT:    -2.204      0.811      1.441
REMARK INTER + INTRA:          -2.641
REMARK INTER:                  -3.169
REMARK INTRA:                   0.528
REMARK UNBOUND:                -0.308
REMARK SMILES C=C1CC[C@]2(C(C)C)C[C@H]12
REMARK SMILES IDX 5 1 4 2 3 3 2 4 1 5 10 6 9 7 6 8 7 9 8 10
REMARK H PARENT
REMARK Flexibility Score: inf
ROOT
ATOM      1  C   UNL     1     135.824 137.973 162.266  1.00  0.00    -0.020 C 
ATOM      2  C   UNL     1     134.877 136.998 161.544  1.00  0.00     0.012 C 
ATOM      3  C   UNL     1     135.564 135.633 161.519  1.00  0.00     0.031 C 
ATOM      4  C   UNL     1     136.904 135.862 162.133  1.00  0.00    -0.074 C 
ATOM      5  C   UNL     1     137.833 134.909 162.242  1.00  0.00     0.008 C 
ATOM      6  C   UNL     1     137.120 137.256 162.607  1.00  0.00     0.021 C 
ATOM      7  C   UNL     1     137.112 138.338 161.533  1.00  0.00     0.016 C 
ENDROOT
BRANCH   1   8
ATOM      8  C   UNL     1     135.301 138.990 163.310  1.00  0.00    -0.011 C 
ATOM      9  C   UNL     1     134.881 140.311 162.652  1.00  0.00     0.008 C 
ATOM     10  C   UNL     1     136.358 139.234 164.391  1.00  0.00     0.008 C 
ENDBRANCH   1   8
TORSDOF 1
ENDMDL
MODEL 3
REMARK VINA RESULT:    -1.687      1.192      3.877
REMARK INTER + INTRA:          -2.094
REMARK INTER:                  -2.048
REMARK INTRA:                  -0.046
REMARK UNBOUND:                -0.308
REMARK SMILES C=C1CC[C@]2(C(C)C)C[C@H]12
REMARK SMILES IDX 5 1 4 2 3 3 2 4 1 5 10 6 9 7 6 8 7 9 8 10
REMARK H PARENT
REMARK Flexibility Score: inf
ROOT
ATOM      1  C   UNL     1     135.609 137.829 162.464  1.00  0.00    -0.020 C 
ATOM      2  C   UNL     1     134.887 138.570 161.324  1.00  0.00     0.012 C 
ATOM      3  C   UNL     1     134.877 140.056 161.684  1.00  0.00     0.031 C 
ATOM      4  C   UNL     1     135.499 140.131 163.037  1.00  0.00    -0.074 C 
ATOM      5  C   UNL     1     135.621 141.270 163.725  1.00  0.00     0.008 C 
ATOM      6  C   UNL     1     135.964 138.819 163.561  1.00  0.00     0.021 C 
ATOM      7  C   UNL     1     134.882 137.772 163.805  1.00  0.00     0.016 C 
ENDROOT
BRANCH   1   8
ATOM      8  C   UNL     1     136.642 136.711 162.180  1.00  0.00    -0.011 C 
ATOM      9  C   UNL     1     137.638 137.126 161.089  1.00  0.00     0.008 C 
ATOM     10  C   UNL     1     135.928 135.412 161.798  1.00  0.00     0.008 C 
ENDBRANCH   1   8
TORSDOF 1
ENDMDL
MODEL 4
REMARK VINA RESULT:    -0.563      1.163      2.200
REMARK INTER + INTRA:          -0.904
REMARK INTER:                  -0.925
REMARK INTRA:                   0.020
REMARK UNBOUND:                -0.308
REMARK SMILES C=C1CC[C@]2(C(C)C)C[C@H]12
REMARK SMILES IDX 5 1 4 2 3 3 2 4 1 5 10 6 9 7 6 8 7 9 8 10
REMARK H PARENT
REMARK Flexibility Score: inf
ROOT
ATOM      1  C   UNL     1     135.765 138.763 162.788  1.00  0.00    -0.020 C 
ATOM      2  C   UNL     1     137.121 138.681 162.064  1.00  0.00     0.012 C 
ATOM      3  C   UNL     1     137.208 137.298 161.417  1.00  0.00     0.031 C 
ATOM      4  C   UNL     1     135.967 136.592 161.846  1.00  0.00    -0.074 C 
ATOM      5  C   UNL     1     135.698 135.323 161.527  1.00  0.00     0.008 C 
ATOM      6  C   UNL     1     135.053 137.425 162.674  1.00  0.00     0.021 C 
ATOM      7  C   UNL     1     135.599 137.882 164.023  1.00  0.00     0.016 C 
ENDROOT
BRANCH   1   8
ATOM      8  C   UNL     1     134.876 140.028 162.706  1.00  0.00    -0.011 C 
ATOM      9  C   UNL     1     134.875 140.629 161.294  1.00  0.00     0.008 C 
ATOM     10  C   UNL     1     135.332 141.065 163.737  1.00  0.00     0.008 C 
ENDBRANCH   1   8
TORSDOF 1
ENDMDL
MODEL 5
REMARK VINA RESULT:    -0.191      1.124      3.954
REMARK INTER + INTRA:          -0.510
REMARK INTER:                  -0.530
REMARK INTRA:                   0.020
REMARK UNBOUND:                -0.308
REMARK SMILES C=C1CC[C@]2(C(C)C)C[C@H]12
REMARK SMILES IDX 5 1 4 2 3 3 2 4 1 5 10 6 9 7 6 8 7 9 8 10
REMARK H PARENT
REMARK Flexibility Score: inf
ROOT
ATOM      1  C   UNL     1     136.385 138.404 162.635  1.00  0.00    -0.020 C 
ATOM      2  C   UNL     1     136.004 138.258 164.119  1.00  0.00     0.012 C 
ATOM      3  C   UNL     1     135.289 139.545 164.532  1.00  0.00     0.031 C 
ATOM      4  C   UNL     1     135.351 140.425 163.330  1.00  0.00    -0.074 C 
ATOM      5  C   UNL     1     134.878 141.675 163.312  1.00  0.00     0.008 C 
ATOM      6  C   UNL     1     135.999 139.791 162.151  1.00  0.00     0.021 C 
ATOM      7  C   UNL     1     137.471 139.426 162.310  1.00  0.00     0.016 C 
ENDROOT
BRANCH   1   8
ATOM      8  C   UNL     1     136.194 137.242 161.629  1.00  0.00    -0.011 C 
ATOM      9  C   UNL     1     134.875 136.495 161.872  1.00  0.00     0.008 C 
ATOM     10  C   UNL     1     137.383 136.280 161.695  1.00  0.00     0.008 C 
ENDBRANCH   1   8
TORSDOF 1
ENDMDL
MODEL 6
REMARK VINA RESULT:     0.194     13.361     14.849
REMARK INTER + INTRA:          -0.103
REMARK INTER:                   0.201
REMARK INTRA:                  -0.304
REMARK UNBOUND:                -0.308
REMARK SMILES C=C1CC[C@]2(C(C)C)C[C@H]12
REMARK SMILES IDX 5 1 4 2 3 3 2 4 1 5 10 6 9 7 6 8 7 9 8 10
REMARK H PARENT
REMARK Flexibility Score: inf
ROOT
ATOM      1  C   UNL     1     149.767 135.736 161.534  1.00  0.00    -0.020 C 
ATOM      2  C   UNL     1     150.161 137.221 161.629  1.00  0.00     0.012 C 
ATOM      3  C   UNL     1     151.638 137.274 162.022  1.00  0.00     0.031 C 
ATOM      4  C   UNL     1     152.034 135.852 162.230  1.00  0.00    -0.074 C 
ATOM      5  C   UNL     1     153.251 135.483 162.642  1.00  0.00     0.008 C 
ATOM      6  C   UNL     1     150.948 134.875 161.949  1.00  0.00     0.021 C 
ATOM      7  C   UNL     1     149.719 134.960 162.848  1.00  0.00     0.016 C 
ENDROOT
BRANCH   1   8
ATOM      8  C   UNL     1     148.894 135.200 160.373  1.00  0.00    -0.011 C 
ATOM      9  C   UNL     1     149.738 134.877 159.133  1.00  0.00     0.008 C 
ATOM     10  C   UNL     1     147.789 136.203 160.031  1.00  0.00     0.008 C 
ENDBRANCH   1   8
TORSDOF 1
ENDMDL
