MODEL 1
REMARK VINA RESULT:    -3.092      0.000      0.000
REMARK INTER + INTRA:          -4.811
REMARK INTER:                  -4.357
REMARK INTRA:                  -0.454
REMARK UNBOUND:                -0.454
REMARK SMILES C=CCCCCCCC(=O)[O-]
REMARK SMILES IDX 6 1 7 2 8 3 9 4 10 5 11 6 5 7 4 8 3 9 2 10 1 11
REMARK H PARENT
REMARK Flexibility Score: inf
ROOT
ATOM      1  C   UNL     1    -101.646 -28.874 -15.108  1.00  0.00     0.000 C 
ENDROOT
BRANCH   1   2
ATOM      2  C   UNL     1    -101.597 -27.965 -13.871  1.00  0.00     0.006 C 
BRANCH   2   3
ATOM      3  C   UNL     1    -100.160 -27.681 -13.414  1.00  0.00     0.053 C 
BRANCH   3   4
ATOM      4  C   UNL     1     -99.490 -28.914 -12.889  1.00  0.00     0.041 C 
ATOM      5  O   UNL     1     -99.914 -29.468 -11.841  1.00  0.00    -0.550 OA
ATOM      6  O   UNL     1     -98.377 -29.433 -13.538  1.00  0.00    -0.550 OA
ENDBRANCH   3   4
ENDBRANCH   2   3
ENDBRANCH   1   2
BRANCH   1   7
ATOM      7  C   UNL     1    -101.843 -28.052 -16.387  1.00  0.00     0.000 C 
BRANCH   7   8
ATOM      8  C   UNL     1    -103.306 -27.613 -16.542  1.00  0.00     0.004 C 
BRANCH   8   9
ATOM      9  C   UNL     1    -103.439 -26.095 -16.728  1.00  0.00     0.027 C 
BRANCH   9  10
ATOM     10  C   UNL     1    -103.870 -25.397 -15.466  1.00  0.00    -0.035 C 
ATOM     11  C   UNL     1    -104.542 -24.243 -15.494  1.00  0.00     0.004 C 
ENDBRANCH   9  10
ENDBRANCH   8   9
ENDBRANCH   7   8
ENDBRANCH   1   7
TORSDOF 7
ENDMDL
MODEL 2
REMARK VINA RESULT:    -3.052      3.525      5.888
REMARK INTER + INTRA:          -4.754
REMARK INTER:                  -4.450
REMARK INTRA:                  -0.304
REMARK UNBOUND:                -0.454
REMARK SMILES C=CCCCCCCC(=O)[O-]
REMARK SMILES IDX 6 1 7 2 8 3 9 4 10 5 11 6 5 7 4 8 3 9 2 10 1 11
REMARK H PARENT
REMARK Flexibility Score: inf
ROOT
ATOM      1  C   UNL     1    -102.170 -28.189 -16.266  1.00  0.00     0.000 C 
ENDROOT
BRANCH   1   2
ATOM      2  C   UNL     1    -102.673 -26.826 -15.767  1.00  0.00     0.006 C 
BRANCH   2   3
ATOM      3  C   UNL     1    -103.519 -26.098 -16.819  1.00  0.00     0.053 C 
BRANCH   3   4
ATOM      4  C   UNL     1    -104.609 -25.286 -16.191  1.00  0.00     0.041 C 
ATOM      5  O   UNL     1    -105.816 -25.556 -16.425  1.00  0.00    -0.550 OA
ATOM      6  O   UNL     1    -104.293 -24.208 -15.373  1.00  0.00    -0.550 OA
ENDBRANCH   3   4
ENDBRANCH   2   3
ENDBRANCH   1   2
BRANCH   1   7
ATOM      7  C   UNL     1    -101.313 -28.883 -15.201  1.00  0.00     0.000 C 
BRANCH   7   8
ATOM      8  C   UNL     1    -101.291 -28.073 -13.896  1.00  0.00     0.004 C 
BRANCH   8   9
ATOM      9  C   UNL     1     -99.873 -27.937 -13.323  1.00  0.00     0.027 C 
BRANCH   9  10
ATOM     10  C   UNL     1     -99.243 -29.271 -13.027  1.00  0.00    -0.035 C 
ATOM     11  C   UNL     1     -97.917 -29.432 -12.997  1.00  0.00     0.004 C 
ENDBRANCH   9  10
ENDBRANCH   8   9
ENDBRANCH   7   8
ENDBRANCH   1   7
TORSDOF 7
ENDMDL
MODEL 3
REMARK VINA RESULT:    -3.049      1.194      1.718
REMARK INTER + INTRA:          -4.751
REMARK INTER:                  -4.088
REMARK INTRA:                  -0.663
REMARK UNBOUND:                -0.454
REMARK SMILES C=CCCCCCCC(=O)[O-]
REMARK SMILES IDX 6 1 7 2 8 3 9 4 10 5 11 6 5 7 4 8 3 9 2 10 1 11
REMARK H PARENT
REMARK Flexibility Score: inf
ROOT
ATOM      1  C   UNL     1    -102.209 -27.970 -16.218  1.00  0.00     0.000 C 
ENDROOT
BRANCH   1   2
ATOM      2  C   UNL     1    -101.742 -27.281 -14.927  1.00  0.00     0.006 C 
BRANCH   2   3
ATOM      3  C   UNL     1    -102.110 -28.085 -13.673  1.00  0.00     0.053 C 
BRANCH   3   4
ATOM      4  C   UNL     1    -100.937 -28.255 -12.758  1.00  0.00     0.041 C 
ATOM      5  O   UNL     1    -101.116 -28.433 -11.524  1.00  0.00    -0.550 OA
ATOM      6  O   UNL     1     -99.644 -28.182 -13.261  1.00  0.00    -0.550 OA
ENDBRANCH   3   4
ENDBRANCH   2   3
ENDBRANCH   1   2
BRANCH   1   7
ATOM      7  C   UNL     1    -103.528 -27.368 -16.718  1.00  0.00     0.000 C 
BRANCH   7   8
ATOM      8  C   UNL     1    -103.487 -25.834 -16.668  1.00  0.00     0.004 C 
BRANCH   8   9
ATOM      9  C   UNL     1    -104.735 -25.243 -15.996  1.00  0.00     0.027 C 
BRANCH   9  10
ATOM     10  C   UNL     1    -104.424 -24.596 -14.674  1.00  0.00    -0.035 C 
ATOM     11  C   UNL     1    -104.558 -25.253 -13.519  1.00  0.00     0.004 C 
ENDBRANCH   9  10
ENDBRANCH   8   9
ENDBRANCH   7   8
ENDBRANCH   1   7
TORSDOF 7
ENDMDL
MODEL 4
REMARK VINA RESULT:    -3.037      2.044      3.419
REMARK INTER + INTRA:          -4.733
REMARK INTER:                  -4.208
REMARK INTRA:                  -0.525
REMARK UNBOUND:                -0.454
REMARK SMILES C=CCCCCCCC(=O)[O-]
REMARK SMILES IDX 6 1 7 2 8 3 9 4 10 5 11 6 5 7 4 8 3 9 2 10 1 11
REMARK H PARENT
REMARK Flexibility Score: inf
ROOT
ATOM      1  C   UNL     1    -100.288 -27.827 -13.341  1.00  0.00     0.000 C 
ENDROOT
BRANCH   1   2
ATOM      2  C   UNL     1     -99.832 -29.218 -12.876  1.00  0.00     0.006 C 
BRANCH   2   3
ATOM      3  C   UNL     1     -98.386 -29.523 -13.285  1.00  0.00     0.053 C 
BRANCH   3   4
ATOM      4  C   UNL     1     -97.510 -29.763 -12.093  1.00  0.00     0.041 C 
ATOM      5  O   UNL     1     -98.015 -29.854 -10.944  1.00  0.00    -0.550 OA
ATOM      6  O   UNL     1     -96.132 -29.852 -12.248  1.00  0.00    -0.550 OA
ENDBRANCH   3   4
ENDBRANCH   2   3
ENDBRANCH   1   2
BRANCH   1   7
ATOM      7  C   UNL     1    -101.743 -27.857 -13.824  1.00  0.00     0.000 C 
BRANCH   7   8
ATOM      8  C   UNL     1    -101.864 -27.286 -15.244  1.00  0.00     0.004 C 
BRANCH   8   9
ATOM      9  C   UNL     1    -102.231 -28.366 -16.273  1.00  0.00     0.027 C 
BRANCH   9  10
ATOM     10  C   UNL     1    -101.225 -29.484 -16.315  1.00  0.00    -0.035 C 
ATOM     11  C   UNL     1    -101.593 -30.767 -16.251  1.00  0.00     0.004 C 
ENDBRANCH   9  10
ENDBRANCH   8   9
ENDBRANCH   7   8
ENDBRANCH   1   7
TORSDOF 7
ENDMDL
MODEL 5
REMARK VINA RESULT:    -3.031      1.468      2.626
REMARK INTER + INTRA:          -4.726
REMARK INTER:                  -4.387
REMARK INTRA:                  -0.339
REMARK UNBOUND:                -0.454
REMARK SMILES C=CCCCCCCC(=O)[O-]
REMARK SMILES IDX 6 1 7 2 8 3 9 4 10 5 11 6 5 7 4 8 3 9 2 10 1 11
REMARK H PARENT
REMARK Flexibility Score: inf
ROOT
ATOM      1  C   UNL     1    -100.180 -27.775 -13.353  1.00  0.00     0.000 C 
ENDROOT
BRANCH   1   2
ATOM      2  C   UNL     1     -99.673 -29.147 -12.884  1.00  0.00     0.006 C 
BRANCH   2   3
ATOM      3  C   UNL     1     -98.188 -29.359 -13.205  1.00  0.00     0.053 C 
BRANCH   3   4
ATOM      4  C   UNL     1     -97.439 -29.911 -12.031  1.00  0.00     0.041 C 
ATOM      5  O   UNL     1     -96.342 -30.505 -12.201  1.00  0.00    -0.550 OA
ATOM      6  O   UNL     1     -97.969 -29.800 -10.751  1.00  0.00    -0.550 OA
ENDBRANCH   3   4
ENDBRANCH   2   3
ENDBRANCH   1   2
BRANCH   1   7
ATOM      7  C   UNL     1    -101.539 -27.900 -14.052  1.00  0.00     0.000 C 
BRANCH   7   8
ATOM      8  C   UNL     1    -101.436 -28.780 -15.306  1.00  0.00     0.004 C 
BRANCH   8   9
ATOM      9  C   UNL     1    -102.162 -28.162 -16.509  1.00  0.00     0.027 C 
BRANCH   9  10
ATOM     10  C   UNL     1    -102.761 -26.819 -16.191  1.00  0.00    -0.035 C 
ATOM     11  C   UNL     1    -103.696 -26.262 -16.965  1.00  0.00     0.004 C 
ENDBRANCH   9  10
ENDBRANCH   8   9
ENDBRANCH   7   8
ENDBRANCH   1   7
TORSDOF 7
ENDMDL
MODEL 6
REMARK VINA RESULT:    -3.029      3.152      5.789
REMARK INTER + INTRA:          -4.723
REMARK INTER:                  -4.185
REMARK INTRA:                  -0.538
REMARK UNBOUND:                -0.454
REMARK SMILES C=CCCCCCCC(=O)[O-]
REMARK SMILES IDX 6 1 7 2 8 3 9 4 10 5 11 6 5 7 4 8 3 9 2 10 1 11
REMARK H PARENT
REMARK Flexibility Score: inf
ROOT
ATOM      1  C   UNL     1    -101.686 -27.788 -13.876  1.00  0.00     0.000 C 
ENDROOT
BRANCH   1   2
ATOM      2  C   UNL     1    -101.826 -28.732 -15.079  1.00  0.00     0.006 C 
BRANCH   2   3
ATOM      3  C   UNL     1    -101.904 -27.972 -16.409  1.00  0.00     0.053 C 
BRANCH   3   4
ATOM      4  C   UNL     1    -103.229 -27.297 -16.588  1.00  0.00     0.041 C 
ATOM      5  O   UNL     1    -104.292 -27.971 -16.557  1.00  0.00    -0.550 OA
ATOM      6  O   UNL     1    -103.289 -25.929 -16.822  1.00  0.00    -0.550 OA
ENDBRANCH   3   4
ENDBRANCH   2   3
ENDBRANCH   1   2
BRANCH   1   7
ATOM      7  C   UNL     1    -100.238 -27.751 -13.371  1.00  0.00     0.000 C 
BRANCH   7   8
ATOM      8  C   UNL     1     -99.799 -29.128 -12.855  1.00  0.00     0.004 C 
BRANCH   8   9
ATOM      9  C   UNL     1     -98.302 -29.382 -13.083  1.00  0.00     0.027 C 
BRANCH   9  10
ATOM     10  C   UNL     1     -98.050 -30.581 -13.957  1.00  0.00    -0.035 C 
ATOM     11  C   UNL     1     -98.919 -30.964 -14.896  1.00  0.00     0.004 C 
ENDBRANCH   9  10
ENDBRANCH   8   9
ENDBRANCH   7   8
ENDBRANCH   1   7
TORSDOF 7
ENDMDL
MODEL 7
REMARK VINA RESULT:    -3.026      4.422      5.897
REMARK INTER + INTRA:          -4.718
REMARK INTER:                  -4.015
REMARK INTRA:                  -0.703
REMARK UNBOUND:                -0.454
REMARK SMILES C=CCCCCCCC(=O)[O-]
REMARK SMILES IDX 6 1 7 2 8 3 9 4 10 5 11 6 5 7 4 8 3 9 2 10 1 11
REMARK H PARENT
REMARK Flexibility Score: inf
ROOT
ATOM      1  C   UNL     1    -103.438 -26.125 -16.832  1.00  0.00     0.000 C 
ENDROOT
BRANCH   1   2
ATOM      2  C   UNL     1    -104.685 -25.622 -16.092  1.00  0.00     0.006 C 
BRANCH   2   3
ATOM      3  C   UNL     1    -104.398 -24.371 -15.251  1.00  0.00     0.053 C 
BRANCH   3   4
ATOM      4  C   UNL     1    -105.388 -23.280 -15.521  1.00  0.00     0.041 C 
ATOM      5  O   UNL     1    -106.364 -23.486 -16.289  1.00  0.00    -0.550 OA
ATOM      6  O   UNL     1    -105.214 -22.025 -14.952  1.00  0.00    -0.550 OA
ENDBRANCH   3   4
ENDBRANCH   2   3
ENDBRANCH   1   2
BRANCH   1   7
ATOM      7  C   UNL     1    -103.280 -27.642 -16.677  1.00  0.00     0.000 C 
BRANCH   7   8
ATOM      8  C   UNL     1    -101.874 -28.002 -16.174  1.00  0.00     0.004 C 
BRANCH   8   9
ATOM      9  C   UNL     1    -101.585 -27.407 -14.788  1.00  0.00     0.027 C 
BRANCH   9  10
ATOM     10  C   UNL     1    -102.472 -27.985 -13.719  1.00  0.00    -0.035 C 
ATOM     11  C   UNL     1    -103.243 -27.212 -12.949  1.00  0.00     0.004 C 
ENDBRANCH   9  10
ENDBRANCH   8   9
ENDBRANCH   7   8
ENDBRANCH   1   7
TORSDOF 7
ENDMDL
MODEL 8
REMARK VINA RESULT:    -3.014      1.431      2.228
REMARK INTER + INTRA:          -4.702
REMARK INTER:                  -4.245
REMARK INTRA:                  -0.457
REMARK UNBOUND:                -0.454
REMARK SMILES C=CCCCCCCC(=O)[O-]
REMARK SMILES IDX 6 1 7 2 8 3 9 4 10 5 11 6 5 7 4 8 3 9 2 10 1 11
REMARK H PARENT
REMARK Flexibility Score: inf
ROOT
ATOM      1  C   UNL     1    -101.203 -28.077 -12.639  1.00  0.00     0.000 C 
ENDROOT
BRANCH   1   2
ATOM      2  C   UNL     1     -99.810 -28.048 -13.286  1.00  0.00     0.006 C 
BRANCH   2   3
ATOM      3  C   UNL     1     -98.980 -29.290 -12.935  1.00  0.00     0.053 C 
BRANCH   3   4
ATOM      4  C   UNL     1     -98.837 -30.212 -14.106  1.00  0.00     0.041 C 
ATOM      5  O   UNL     1     -99.741 -30.270 -14.981  1.00  0.00    -0.550 OA
ATOM      6  O   UNL     1     -97.722 -31.034 -14.214  1.00  0.00    -0.550 OA
ENDBRANCH   3   4
ENDBRANCH   2   3
ENDBRANCH   1   2
BRANCH   1   7
ATOM      7  C   UNL     1    -102.306 -28.000 -13.702  1.00  0.00     0.000 C 
BRANCH   7   8
ATOM      8  C   UNL     1    -101.797 -27.308 -14.975  1.00  0.00     0.004 C 
BRANCH   8   9
ATOM      9  C   UNL     1    -102.587 -27.734 -16.221  1.00  0.00     0.027 C 
BRANCH   9  10
ATOM     10  C   UNL     1    -103.304 -26.581 -16.869  1.00  0.00    -0.035 C 
ATOM     11  C   UNL     1    -103.782 -25.558 -16.155  1.00  0.00     0.004 C 
ENDBRANCH   9  10
ENDBRANCH   8   9
ENDBRANCH   7   8
ENDBRANCH   1   7
TORSDOF 7
ENDMDL
MODEL 9
REMARK VINA RESULT:    -2.916      2.265      4.044
REMARK INTER + INTRA:          -4.563
REMARK INTER:                  -3.687
REMARK INTRA:                  -0.877
REMARK UNBOUND:                -0.454
REMARK SMILES C=CCCCCCCC(=O)[O-]
REMARK SMILES IDX 6 1 7 2 8 3 9 4 10 5 11 6 5 7 4 8 3 9 2 10 1 11
REMARK H PARENT
REMARK Flexibility Score: inf
ROOT
ATOM      1  C   UNL     1    -102.073 -28.015 -16.408  1.00  0.00     0.000 C 
ENDROOT
BRANCH   1   2
ATOM      2  C   UNL     1    -102.148 -29.516 -16.092  1.00  0.00     0.006 C 
BRANCH   2   3
ATOM      3  C   UNL     1    -100.806 -30.225 -16.318  1.00  0.00     0.053 C 
BRANCH   3   4
ATOM      4  C   UNL     1    -100.552 -31.277 -15.283  1.00  0.00     0.041 C 
ATOM      5  O   UNL     1    -101.332 -31.403 -14.303  1.00  0.00    -0.550 OA
ATOM      6  O   UNL     1     -99.434 -32.096 -15.381  1.00  0.00    -0.550 OA
ENDBRANCH   3   4
ENDBRANCH   2   3
ENDBRANCH   1   2
BRANCH   1   7
ATOM      7  C   UNL     1    -101.905 -27.189 -15.127  1.00  0.00     0.000 C 
BRANCH   7   8
ATOM      8  C   UNL     1    -102.378 -27.977 -13.898  1.00  0.00     0.004 C 
BRANCH   8   9
ATOM      9  C   UNL     1    -101.320 -28.006 -12.785  1.00  0.00     0.027 C 
BRANCH   9  10
ATOM     10  C   UNL     1     -99.918 -27.925 -13.325  1.00  0.00    -0.035 C 
ATOM     11  C   UNL     1     -99.017 -28.884 -13.092  1.00  0.00     0.004 C 
ENDBRANCH   9  10
ENDBRANCH   8   9
ENDBRANCH   7   8
ENDBRANCH   1   7
TORSDOF 7
ENDMDL
