MODEL 1
REMARK VINA RESULT:    -3.594      0.000      0.000
REMARK INTER + INTRA:          -4.714
REMARK INTER:                  -4.434
REMARK INTRA:                  -0.280
REMARK UNBOUND:                -0.280
REMARK SMILES CCCCCC(=O)[O-]
REMARK SMILES IDX 4 1 5 2 6 3 7 4 8 5 3 6 2 7 1 8
REMARK H PARENT
REMARK Flexibility Score: inf
ROOT
ATOM      1  C   UNL     1      61.043  30.391  11.547  1.00  0.00     0.006 C 
ENDROOT
BRANCH   1   2
ATOM      2  C   UNL     1      61.376  30.253  10.055  1.00  0.00     0.053 C 
BRANCH   2   3
ATOM      3  C   UNL     1      62.312  29.113   9.798  1.00  0.00     0.041 C 
ATOM      4  O   UNL     1      61.989  28.196   8.999  1.00  0.00    -0.550 OA
ATOM      5  O   UNL     1      63.557  29.081  10.414  1.00  0.00    -0.550 OA
ENDBRANCH   2   3
ENDBRANCH   1   2
BRANCH   1   6
ATOM      6  C   UNL     1      60.294  29.166  12.091  1.00  0.00     0.000 C 
BRANCH   6   7
ATOM      7  C   UNL     1      61.018  28.574  13.307  1.00  0.00    -0.003 C 
ATOM      8  C   UNL     1      62.193  29.450  13.730  1.00  0.00     0.004 C 
ENDBRANCH   6   7
ENDBRANCH   1   6
TORSDOF 4
ENDMDL
MODEL 2
REMARK VINA RESULT:    -3.556      1.371      2.024
REMARK INTER + INTRA:          -4.668
REMARK INTER:                  -4.430
REMARK INTRA:                  -0.238
REMARK UNBOUND:                -0.280
REMARK SMILES CCCCCC(=O)[O-]
REMARK SMILES IDX 4 1 5 2 6 3 7 4 8 5 3 6 2 7 1 8
REMARK H PARENT
REMARK Flexibility Score: inf
ROOT
ATOM      1  C   UNL     1      63.393  30.062  11.878  1.00  0.00     0.006 C 
ENDROOT
BRANCH   1   2
ATOM      2  C   UNL     1      63.469  29.231  10.590  1.00  0.00     0.053 C 
BRANCH   2   3
ATOM      3  C   UNL     1      62.134  29.124   9.918  1.00  0.00     0.041 C 
ATOM      4  O   UNL     1      61.820  28.076   9.297  1.00  0.00    -0.550 OA
ATOM      5  O   UNL     1      61.224  30.170  10.008  1.00  0.00    -0.550 OA
ENDBRANCH   2   3
ENDBRANCH   1   2
BRANCH   1   6
ATOM      6  C   UNL     1      63.205  29.186  13.125  1.00  0.00     0.000 C 
BRANCH   6   7
ATOM      7  C   UNL     1      61.843  29.444  13.778  1.00  0.00    -0.003 C 
ATOM      8  C   UNL     1      60.787  28.475  13.255  1.00  0.00     0.004 C 
ENDBRANCH   6   7
ENDBRANCH   1   6
TORSDOF 4
ENDMDL
MODEL 3
REMARK VINA RESULT:    -3.486      1.293      1.685
REMARK INTER + INTRA:          -4.582
REMARK INTER:                  -4.395
REMARK INTRA:                  -0.186
REMARK UNBOUND:                -0.280
REMARK SMILES CCCCCC(=O)[O-]
REMARK SMILES IDX 4 1 5 2 6 3 7 4 8 5 3 6 2 7 1 8
REMARK H PARENT
REMARK Flexibility Score: inf
ROOT
ATOM      1  C   UNL     1      61.646  30.086  11.162  1.00  0.00     0.006 C 
ENDROOT
BRANCH   1   2
ATOM      2  C   UNL     1      62.423  29.352  10.061  1.00  0.00     0.053 C 
BRANCH   2   3
ATOM      3  C   UNL     1      63.903  29.437  10.274  1.00  0.00     0.041 C 
ATOM      4  O   UNL     1      64.362  29.820  11.381  1.00  0.00    -0.550 OA
ATOM      5  O   UNL     1      64.775  29.061   9.260  1.00  0.00    -0.550 OA
ENDBRANCH   2   3
ENDBRANCH   1   2
BRANCH   1   6
ATOM      6  C   UNL     1      60.429  29.285  11.648  1.00  0.00     0.000 C 
BRANCH   6   7
ATOM      7  C   UNL     1      60.709  28.630  13.005  1.00  0.00    -0.003 C 
ATOM      8  C   UNL     1      61.786  29.390  13.774  1.00  0.00     0.004 C 
ENDBRANCH   6   7
ENDBRANCH   1   6
TORSDOF 4
ENDMDL
MODEL 4
REMARK VINA RESULT:    -3.481      2.345      3.687
REMARK INTER + INTRA:          -4.576
REMARK INTER:                  -4.412
REMARK INTRA:                  -0.164
REMARK UNBOUND:                -0.280
REMARK SMILES CCCCCC(=O)[O-]
REMARK SMILES IDX 4 1 5 2 6 3 7 4 8 5 3 6 2 7 1 8
REMARK H PARENT
REMARK Flexibility Score: inf
ROOT
ATOM      1  C   UNL     1      60.560  29.322  10.247  1.00  0.00     0.006 C 
ENDROOT
BRANCH   1   2
ATOM      2  C   UNL     1      60.645  29.970  11.636  1.00  0.00     0.053 C 
BRANCH   2   3
ATOM      3  C   UNL     1      60.536  28.954  12.731  1.00  0.00     0.041 C 
ATOM      4  O   UNL     1      61.541  28.667  13.431  1.00  0.00    -0.550 OA
ATOM      5  O   UNL     1      59.314  28.349  13.000  1.00  0.00    -0.550 OA
ENDBRANCH   2   3
ENDBRANCH   1   2
BRANCH   1   6
ATOM      6  C   UNL     1      61.842  28.559   9.883  1.00  0.00     0.000 C 
BRANCH   6   7
ATOM      7  C   UNL     1      62.901  29.506   9.305  1.00  0.00    -0.003 C 
ATOM      8  C   UNL     1      64.215  29.396  10.072  1.00  0.00     0.004 C 
ENDBRANCH   6   7
ENDBRANCH   1   6
TORSDOF 4
ENDMDL
MODEL 5
REMARK VINA RESULT:    -3.463      1.047      1.892
REMARK INTER + INTRA:          -4.553
REMARK INTER:                  -4.332
REMARK INTRA:                  -0.222
REMARK UNBOUND:                -0.280
REMARK SMILES CCCCCC(=O)[O-]
REMARK SMILES IDX 4 1 5 2 6 3 7 4 8 5 3 6 2 7 1 8
REMARK H PARENT
REMARK Flexibility Score: inf
ROOT
ATOM      1  C   UNL     1      60.075  28.987  12.375  1.00  0.00     0.006 C 
ENDROOT
BRANCH   1   2
ATOM      2  C   UNL     1      60.654  29.881  11.270  1.00  0.00     0.053 C 
BRANCH   2   3
ATOM      3  C   UNL     1      61.148  29.078  10.107  1.00  0.00     0.041 C 
ATOM      4  O   UNL     1      62.348  28.702  10.060  1.00  0.00    -0.550 OA
ATOM      5  O   UNL     1      60.274  28.716   9.089  1.00  0.00    -0.550 OA
ENDBRANCH   2   3
ENDBRANCH   1   2
BRANCH   1   6
ATOM      6  C   UNL     1      61.131  28.591  13.416  1.00  0.00     0.000 C 
BRANCH   6   7
ATOM      7  C   UNL     1      62.054  29.772  13.740  1.00  0.00    -0.003 C 
ATOM      8  C   UNL     1      63.518  29.407  13.513  1.00  0.00     0.004 C 
ENDBRANCH   6   7
ENDBRANCH   1   6
TORSDOF 4
ENDMDL
MODEL 6
REMARK VINA RESULT:    -3.408     15.394     16.347
REMARK INTER + INTRA:          -4.485
REMARK INTER:                  -4.327
REMARK INTRA:                  -0.158
REMARK UNBOUND:                -0.280
REMARK SMILES CCCCCC(=O)[O-]
REMARK SMILES IDX 4 1 5 2 6 3 7 4 8 5 3 6 2 7 1 8
REMARK H PARENT
REMARK Flexibility Score: inf
ROOT
ATOM      1  C   UNL     1      62.936  29.755  26.144  1.00  0.00     0.006 C 
ENDROOT
BRANCH   1   2
ATOM      2  C   UNL     1      63.191  29.191  27.548  1.00  0.00     0.053 C 
BRANCH   2   3
ATOM      3  C   UNL     1      62.517  30.009  28.607  1.00  0.00     0.041 C 
ATOM      4  O   UNL     1      61.420  29.633  29.094  1.00  0.00    -0.550 OA
ATOM      5  O   UNL     1      63.118  31.169  29.079  1.00  0.00    -0.550 OA
ENDBRANCH   2   3
ENDBRANCH   1   2
BRANCH   1   6
ATOM      6  C   UNL     1      61.861  28.963  25.386  1.00  0.00     0.000 C 
BRANCH   6   7
ATOM      7  C   UNL     1      61.625  27.595  26.036  1.00  0.00    -0.003 C 
ATOM      8  C   UNL     1      60.216  27.084  25.749  1.00  0.00     0.004 C 
ENDBRANCH   6   7
ENDBRANCH   1   6
TORSDOF 4
ENDMDL
MODEL 7
REMARK VINA RESULT:    -3.404      2.385      3.439
REMARK INTER + INTRA:          -4.480
REMARK INTER:                  -4.208
REMARK INTRA:                  -0.272
REMARK UNBOUND:                -0.280
REMARK SMILES CCCCCC(=O)[O-]
REMARK SMILES IDX 4 1 5 2 6 3 7 4 8 5 3 6 2 7 1 8
REMARK H PARENT
REMARK Flexibility Score: inf
ROOT
ATOM      1  C   UNL     1      62.122  29.796  14.149  1.00  0.00     0.006 C 
ENDROOT
BRANCH   1   2
ATOM      2  C   UNL     1      60.989  30.302  13.247  1.00  0.00     0.053 C 
BRANCH   2   3
ATOM      3  C   UNL     1      60.315  29.180  12.519  1.00  0.00     0.041 C 
ATOM      4  O   UNL     1      60.305  29.157  11.261  1.00  0.00    -0.550 OA
ATOM      5  O   UNL     1      59.726  28.143  13.231  1.00  0.00    -0.550 OA
ENDBRANCH   2   3
ENDBRANCH   1   2
BRANCH   1   6
ATOM      6  C   UNL     1      63.214  29.065  13.356  1.00  0.00     0.000 C 
BRANCH   6   7
ATOM      7  C   UNL     1      63.986  30.037  12.457  1.00  0.00    -0.003 C 
ATOM      8  C   UNL     1      63.899  29.622  10.992  1.00  0.00     0.004 C 
ENDBRANCH   6   7
ENDBRANCH   1   6
TORSDOF 4
ENDMDL
MODEL 8
REMARK VINA RESULT:    -3.309      1.602      2.447
REMARK INTER + INTRA:          -4.363
REMARK INTER:                  -4.219
REMARK INTRA:                  -0.145
REMARK UNBOUND:                -0.280
REMARK SMILES CCCCCC(=O)[O-]
REMARK SMILES IDX 4 1 5 2 6 3 7 4 8 5 3 6 2 7 1 8
REMARK H PARENT
REMARK Flexibility Score: inf
ROOT
ATOM      1  C   UNL     1      61.081  29.318  12.882  1.00  0.00     0.006 C 
ENDROOT
BRANCH   1   2
ATOM      2  C   UNL     1      60.934  29.549  11.372  1.00  0.00     0.053 C 
BRANCH   2   3
ATOM      3  C   UNL     1      62.058  28.925  10.603  1.00  0.00     0.041 C 
ATOM      4  O   UNL     1      63.248  29.086  10.979  1.00  0.00    -0.550 OA
ATOM      5  O   UNL     1      61.788  28.138   9.491  1.00  0.00    -0.550 OA
ENDBRANCH   2   3
ENDBRANCH   1   2
BRANCH   1   6
ATOM      6  C   UNL     1      61.554  30.579  13.619  1.00  0.00     0.000 C 
BRANCH   6   7
ATOM      7  C   UNL     1      61.097  31.848  12.890  1.00  0.00    -0.003 C 
ATOM      8  C   UNL     1      61.525  33.103  13.644  1.00  0.00     0.004 C 
ENDBRANCH   6   7
ENDBRANCH   1   6
TORSDOF 4
ENDMDL
MODEL 9
REMARK VINA RESULT:    -3.277      2.318      3.809
REMARK INTER + INTRA:          -4.323
REMARK INTER:                  -4.067
REMARK INTRA:                  -0.257
REMARK UNBOUND:                -0.280
REMARK SMILES CCCCCC(=O)[O-]
REMARK SMILES IDX 4 1 5 2 6 3 7 4 8 5 3 6 2 7 1 8
REMARK H PARENT
REMARK Flexibility Score: inf
ROOT
ATOM      1  C   UNL     1      63.329  30.203  11.645  1.00  0.00     0.006 C 
ENDROOT
BRANCH   1   2
ATOM      2  C   UNL     1      62.698  29.354  12.757  1.00  0.00     0.053 C 
BRANCH   2   3
ATOM      3  C   UNL     1      61.203  29.347  12.672  1.00  0.00     0.041 C 
ATOM      4  O   UNL     1      60.603  30.233  12.009  1.00  0.00    -0.550 OA
ATOM      5  O   UNL     1      60.475  28.343  13.296  1.00  0.00    -0.550 OA
ENDBRANCH   2   3
ENDBRANCH   1   2
BRANCH   1   6
ATOM      6  C   UNL     1      63.749  29.356  10.435  1.00  0.00     0.000 C 
BRANCH   6   7
ATOM      7  C   UNL     1      62.788  29.562   9.259  1.00  0.00    -0.003 C 
ATOM      8  C   UNL     1      61.849  28.370   9.099  1.00  0.00     0.004 C 
ENDBRANCH   6   7
ENDBRANCH   1   6
TORSDOF 4
ENDMDL
