MODEL 1
REMARK VINA RESULT:    -4.582      0.000      0.000
REMARK INTER + INTRA:          -6.369
REMARK INTER:                  -5.788
REMARK INTRA:                  -0.581
REMARK UNBOUND:                -0.581
REMARK SMILES O=C(C=Cc1ccc(O)cc1)c1ccc(O)cc1O
REMARK SMILES IDX 4 1 3 2 5 3 6 4 7 5 8 6 11 7 10 8 9 9 2 11 1 12 12 13 18 14
REMARK SMILES IDX 13 15 17 16 14 17 15 18 19 19 16 21
REMARK H PARENT 9 10 19 20 16 22
REMARK Flexibility Score: inf
ROOT
ATOM      1  C   UNL     1      27.889  27.388  26.516  1.00  0.00     0.012 C 
ATOM      2  C   UNL     1      27.534  26.292  25.827  1.00  0.00     0.053 C 
ENDROOT
BRANCH   1   3
ATOM      3  C   UNL     1      28.070  28.725  25.899  1.00  0.00    -0.025 A 
ATOM      4  C   UNL     1      27.333  29.039  24.745  1.00  0.00     0.012 A 
ATOM      5  C   UNL     1      27.478  30.283  24.123  1.00  0.00     0.047 A 
ATOM      6  C   UNL     1      28.371  31.226  24.638  1.00  0.00     0.115 A 
ATOM      7  C   UNL     1      28.980  29.677  26.404  1.00  0.00     0.012 A 
ATOM      8  C   UNL     1      29.123  30.920  25.779  1.00  0.00     0.047 A 
BRANCH   6   9
ATOM      9  O   UNL     1      28.506  32.462  24.010  1.00  0.00    -0.508 OA
ATOM     10  H   UNL     1      29.167  33.155  24.339  1.00  0.00     0.293 HD
ENDBRANCH   6   9
ENDBRANCH   1   3
BRANCH   2  11
ATOM     11  C   UNL     1      27.382  24.970  26.475  1.00  0.00     0.189 C 
ATOM     12  O   UNL     1      27.028  23.974  25.787  1.00  0.00    -0.289 OA
BRANCH  11  13
ATOM     13  C   UNL     1      27.631  24.799  27.929  1.00  0.00     0.064 A 
ATOM     14  C   UNL     1      26.618  25.074  28.876  1.00  0.00     0.130 A 
ATOM     15  C   UNL     1      28.880  24.336  28.384  1.00  0.00     0.020 A 
ATOM     16  C   UNL     1      26.869  24.890  30.243  1.00  0.00     0.093 A 
ATOM     17  C   UNL     1      29.120  24.160  29.749  1.00  0.00     0.047 A 
ATOM     18  C   UNL     1      28.118  24.435  30.681  1.00  0.00     0.119 A 
BRANCH  14  19
ATOM     19  O   UNL     1      25.372  25.543  28.461  1.00  0.00    -0.507 OA
ATOM     20  H   UNL     1      25.068  25.469  27.497  1.00  0.00     0.293 HD
ENDBRANCH  14  19
BRANCH  18  21
ATOM     21  O   UNL     1      28.373  24.251  32.038  1.00  0.00    -0.508 OA
ATOM     22  H   UNL     1      28.234  23.352  32.486  1.00  0.00     0.293 HD
ENDBRANCH  18  21
ENDBRANCH  11  13
ENDBRANCH   2  11
TORSDOF 6
ENDMDL
MODEL 2
REMARK VINA RESULT:    -3.258      6.696      8.292
REMARK INTER + INTRA:          -4.696
REMARK INTER:                  -4.083
REMARK INTRA:                  -0.613
REMARK UNBOUND:                -0.581
REMARK SMILES O=C(C=Cc1ccc(O)cc1)c1ccc(O)cc1O
REMARK SMILES IDX 4 1 3 2 5 3 6 4 7 5 8 6 11 7 10 8 9 9 2 11 1 12 12 13 18 14
REMARK SMILES IDX 13 15 17 16 14 17 15 18 19 19 16 21
REMARK H PARENT 9 10 19 20 16 22
REMARK Flexibility Score: inf
ROOT
ATOM      1  C   UNL     1      19.721  25.951  25.887  1.00  0.00     0.012 C 
ATOM      2  C   UNL     1      20.876  25.604  26.477  1.00  0.00     0.053 C 
ENDROOT
BRANCH   1   3
ATOM      3  C   UNL     1      19.248  25.376  24.604  1.00  0.00    -0.025 A 
ATOM      4  C   UNL     1      19.786  25.874  23.405  1.00  0.00     0.012 A 
ATOM      5  C   UNL     1      19.364  25.370  22.171  1.00  0.00     0.047 A 
ATOM      6  C   UNL     1      18.389  24.371  22.117  1.00  0.00     0.115 A 
ATOM      7  C   UNL     1      18.254  24.378  24.540  1.00  0.00     0.012 A 
ATOM      8  C   UNL     1      17.833  23.877  23.303  1.00  0.00     0.047 A 
BRANCH   6   9
ATOM      9  O   UNL     1      17.978  23.877  20.881  1.00  0.00    -0.508 OA
ATOM     10  H   UNL     1      18.261  24.316  20.013  1.00  0.00     0.293 HD
ENDBRANCH   6   9
ENDBRANCH   1   3
BRANCH   2  11
ATOM     11  C   UNL     1      21.324  26.214  27.750  1.00  0.00     0.189 C 
ATOM     12  O   UNL     1      20.469  26.585  28.600  1.00  0.00    -0.289 OA
BRANCH  11  13
ATOM     13  C   UNL     1      22.768  26.403  28.039  1.00  0.00     0.064 A 
ATOM     14  C   UNL     1      23.264  27.656  28.466  1.00  0.00     0.130 A 
ATOM     15  C   UNL     1      23.663  25.323  27.912  1.00  0.00     0.020 A 
ATOM     16  C   UNL     1      24.629  27.808  28.749  1.00  0.00     0.093 A 
ATOM     17  C   UNL     1      25.021  25.488  28.194  1.00  0.00     0.047 A 
ATOM     18  C   UNL     1      25.508  26.728  28.613  1.00  0.00     0.119 A 
BRANCH  14  19
ATOM     19  O   UNL     1      22.407  28.749  28.593  1.00  0.00    -0.507 OA
ATOM     20  H   UNL     1      22.030  29.029  29.490  1.00  0.00     0.293 HD
ENDBRANCH  14  19
BRANCH  18  21
ATOM     21  O   UNL     1      26.865  26.875  28.893  1.00  0.00    -0.508 OA
ATOM     22  H   UNL     1      27.412  26.112  29.277  1.00  0.00     0.293 HD
ENDBRANCH  18  21
ENDBRANCH  11  13
ENDBRANCH   2  11
TORSDOF 6
ENDMDL
MODEL 3
REMARK VINA RESULT:    -2.648      7.250      9.222
REMARK INTER + INTRA:          -3.926
REMARK INTER:                  -3.444
REMARK INTRA:                  -0.481
REMARK UNBOUND:                -0.581
REMARK SMILES O=C(C=Cc1ccc(O)cc1)c1ccc(O)cc1O
REMARK SMILES IDX 4 1 3 2 5 3 6 4 7 5 8 6 11 7 10 8 9 9 2 11 1 12 12 13 18 14
REMARK SMILES IDX 13 15 17 16 14 17 15 18 19 19 16 21
REMARK H PARENT 9 10 19 20 16 22
REMARK Flexibility Score: inf
ROOT
ATOM      1  C   UNL     1      21.028  26.163  27.488  1.00  0.00     0.012 C 
ATOM      2  C   UNL     1      20.598  26.242  26.219  1.00  0.00     0.053 C 
ENDROOT
BRANCH   1   3
ATOM      3  C   UNL     1      22.365  26.627  27.934  1.00  0.00    -0.025 A 
ATOM      4  C   UNL     1      22.534  27.984  28.255  1.00  0.00     0.012 A 
ATOM      5  C   UNL     1      23.777  28.469  28.670  1.00  0.00     0.047 A 
ATOM      6  C   UNL     1      24.873  27.607  28.760  1.00  0.00     0.115 A 
ATOM      7  C   UNL     1      23.479  25.766  28.013  1.00  0.00     0.012 A 
ATOM      8  C   UNL     1      24.722  26.255  28.428  1.00  0.00     0.047 A 
BRANCH   6   9
ATOM      9  O   UNL     1      26.107  28.102  29.175  1.00  0.00    -0.508 OA
ATOM     10  H   UNL     1      26.463  27.923  30.107  1.00  0.00     0.293 HD
ENDBRANCH   6   9
ENDBRANCH   1   3
BRANCH   2  11
ATOM     11  C   UNL     1      19.264  25.750  25.808  1.00  0.00     0.189 C 
ATOM     12  O   UNL     1      18.314  25.751  26.639  1.00  0.00    -0.289 OA
BRANCH  11  13
ATOM     13  C   UNL     1      19.027  25.247  24.431  1.00  0.00     0.064 A 
ATOM     14  C   UNL     1      17.976  24.341  24.161  1.00  0.00     0.130 A 
ATOM     15  C   UNL     1      19.836  25.689  23.367  1.00  0.00     0.020 A 
ATOM     16  C   UNL     1      17.760  23.891  22.850  1.00  0.00     0.093 A 
ATOM     17  C   UNL     1      19.612  25.232  22.066  1.00  0.00     0.047 A 
ATOM     18  C   UNL     1      18.576  24.333  21.803  1.00  0.00     0.119 A 
BRANCH  14  19
ATOM     19  O   UNL     1      17.162  23.875  25.193  1.00  0.00    -0.507 OA
ATOM     20  H   UNL     1      17.223  22.922  25.531  1.00  0.00     0.293 HD
ENDBRANCH  14  19
BRANCH  18  21
ATOM     21  O   UNL     1      18.365  23.889  20.500  1.00  0.00    -0.508 OA
ATOM     22  H   UNL     1      18.305  22.901  20.280  1.00  0.00     0.293 HD
ENDBRANCH  18  21
ENDBRANCH  11  13
ENDBRANCH   2  11
TORSDOF 6
ENDMDL
MODEL 4
REMARK VINA RESULT:    -2.568      5.906      7.730
REMARK INTER + INTRA:          -3.824
REMARK INTER:                  -3.179
REMARK INTRA:                  -0.644
REMARK UNBOUND:                -0.581
REMARK SMILES O=C(C=Cc1ccc(O)cc1)c1ccc(O)cc1O
REMARK SMILES IDX 4 1 3 2 5 3 6 4 7 5 8 6 11 7 10 8 9 9 2 11 1 12 12 13 18 14
REMARK SMILES IDX 13 15 17 16 14 17 15 18 19 19 16 21
REMARK H PARENT 9 10 19 20 16 22
REMARK Flexibility Score: inf
ROOT
ATOM      1  C   UNL     1      20.891  25.849  27.335  1.00  0.00     0.012 C 
ATOM      2  C   UNL     1      21.711  26.910  27.286  1.00  0.00     0.053 C 
ENDROOT
BRANCH   1   3
ATOM      3  C   UNL     1      20.119  25.352  26.169  1.00  0.00    -0.025 A 
ATOM      4  C   UNL     1      20.712  24.397  25.327  1.00  0.00     0.012 A 
ATOM      5  C   UNL     1      20.027  23.906  24.212  1.00  0.00     0.047 A 
ATOM      6  C   UNL     1      18.744  24.373  23.915  1.00  0.00     0.115 A 
ATOM      7  C   UNL     1      18.830  25.829  25.854  1.00  0.00     0.012 A 
ATOM      8  C   UNL     1      18.147  25.337  24.737  1.00  0.00     0.047 A 
BRANCH   6   9
ATOM      9  O   UNL     1      18.071  23.876  22.801  1.00  0.00    -0.508 OA
ATOM     10  H   UNL     1      18.441  23.104  22.259  1.00  0.00     0.293 HD
ENDBRANCH   6   9
ENDBRANCH   1   3
BRANCH   2  11
ATOM     11  C   UNL     1      22.451  27.389  28.476  1.00  0.00     0.189 C 
ATOM     12  O   UNL     1      21.830  27.981  29.401  1.00  0.00    -0.289 OA
BRANCH  11  13
ATOM     13  C   UNL     1      23.918  27.191  28.593  1.00  0.00     0.064 A 
ATOM     14  C   UNL     1      24.738  28.182  29.179  1.00  0.00     0.130 A 
ATOM     15  C   UNL     1      24.509  25.996  28.142  1.00  0.00     0.020 A 
ATOM     16  C   UNL     1      26.120  27.967  29.295  1.00  0.00     0.093 A 
ATOM     17  C   UNL     1      25.887  25.795  28.260  1.00  0.00     0.047 A 
ATOM     18  C   UNL     1      26.695  26.777  28.836  1.00  0.00     0.119 A 
BRANCH  14  19
ATOM     19  O   UNL     1      24.187  29.381  29.628  1.00  0.00    -0.507 OA
ATOM     20  H   UNL     1      24.444  29.784  30.522  1.00  0.00     0.293 HD
ENDBRANCH  14  19
BRANCH  18  21
ATOM     21  O   UNL     1      28.066  26.560  28.949  1.00  0.00    -0.508 OA
ATOM     22  H   UNL     1      28.679  27.251  29.367  1.00  0.00     0.293 HD
ENDBRANCH  18  21
ENDBRANCH  11  13
ENDBRANCH   2  11
TORSDOF 6
ENDMDL
MODEL 5
REMARK VINA RESULT:    -2.433      1.876      3.147
REMARK INTER + INTRA:          -3.654
REMARK INTER:                  -3.116
REMARK INTRA:                  -0.538
REMARK UNBOUND:                -0.581
REMARK SMILES O=C(C=Cc1ccc(O)cc1)c1ccc(O)cc1O
REMARK SMILES IDX 4 1 3 2 5 3 6 4 7 5 8 6 11 7 10 8 9 9 2 11 1 12 12 13 18 14
REMARK SMILES IDX 13 15 17 16 14 17 15 18 19 19 16 21
REMARK H PARENT 9 10 19 20 16 22
REMARK Flexibility Score: inf
ROOT
ATOM      1  C   UNL     1      27.532  27.743  26.194  1.00  0.00     0.012 C 
ATOM      2  C   UNL     1      28.172  27.188  27.235  1.00  0.00     0.053 C 
ENDROOT
BRANCH   1   3
ATOM      3  C   UNL     1      27.879  29.069  25.627  1.00  0.00    -0.025 A 
ATOM      4  C   UNL     1      28.776  29.888  26.332  1.00  0.00     0.012 A 
ATOM      5  C   UNL     1      29.125  31.150  25.842  1.00  0.00     0.047 A 
ATOM      6  C   UNL     1      28.573  31.617  24.646  1.00  0.00     0.115 A 
ATOM      7  C   UNL     1      27.314  29.554  24.429  1.00  0.00     0.012 A 
ATOM      8  C   UNL     1      27.665  30.817  23.942  1.00  0.00     0.047 A 
BRANCH   6   9
ATOM      9  O   UNL     1      28.929  32.876  24.168  1.00  0.00    -0.508 OA
ATOM     10  H   UNL     1      29.512  33.503  24.709  1.00  0.00     0.293 HD
ENDBRANCH   6   9
ENDBRANCH   1   3
BRANCH   2  11
ATOM     11  C   UNL     1      27.784  25.869  27.786  1.00  0.00     0.189 C 
ATOM     12  O   UNL     1      28.651  25.152  28.357  1.00  0.00    -0.289 OA
BRANCH  11  13
ATOM     13  C   UNL     1      26.390  25.373  27.668  1.00  0.00     0.064 A 
ATOM     14  C   UNL     1      25.351  25.941  28.442  1.00  0.00     0.130 A 
ATOM     15  C   UNL     1      26.079  24.341  26.763  1.00  0.00     0.020 A 
ATOM     16  C   UNL     1      24.038  25.468  28.303  1.00  0.00     0.093 A 
ATOM     17  C   UNL     1      24.767  23.877  26.636  1.00  0.00     0.047 A 
ATOM     18  C   UNL     1      23.744  24.437  27.404  1.00  0.00     0.119 A 
BRANCH  14  19
ATOM     19  O   UNL     1      25.625  26.958  29.355  1.00  0.00    -0.507 OA
ATOM     20  H   UNL     1      25.366  26.881  30.332  1.00  0.00     0.293 HD
ENDBRANCH  14  19
BRANCH  18  21
ATOM     21  O   UNL     1      22.442  23.964  27.263  1.00  0.00    -0.508 OA
ATOM     22  H   UNL     1      21.734  24.144  27.967  1.00  0.00     0.293 HD
ENDBRANCH  18  21
ENDBRANCH  11  13
ENDBRANCH   2  11
TORSDOF 6
ENDMDL
MODEL 6
REMARK VINA RESULT:    -2.312      5.536      7.853
REMARK INTER + INTRA:          -3.501
REMARK INTER:                  -3.824
REMARK INTRA:                   0.323
REMARK UNBOUND:                -0.581
REMARK SMILES O=C(C=Cc1ccc(O)cc1)c1ccc(O)cc1O
REMARK SMILES IDX 4 1 3 2 5 3 6 4 7 5 8 6 11 7 10 8 9 9 2 11 1 12 12 13 18 14
REMARK SMILES IDX 13 15 17 16 14 17 15 18 19 19 16 21
REMARK H PARENT 9 10 19 20 16 22
REMARK Flexibility Score: inf
ROOT
ATOM      1  C   UNL     1      23.468  26.670  28.117  1.00  0.00     0.012 C 
ATOM      2  C   UNL     1      22.531  25.726  27.935  1.00  0.00     0.053 C 
ENDROOT
BRANCH   1   3
ATOM      3  C   UNL     1      24.899  26.371  28.369  1.00  0.00    -0.025 A 
ATOM      4  C   UNL     1      25.359  25.060  28.164  1.00  0.00     0.012 A 
ATOM      5  C   UNL     1      26.697  24.729  28.397  1.00  0.00     0.047 A 
ATOM      6  C   UNL     1      27.592  25.702  28.851  1.00  0.00     0.115 A 
ATOM      7  C   UNL     1      25.805  27.343  28.841  1.00  0.00     0.012 A 
ATOM      8  C   UNL     1      27.143  27.009  29.074  1.00  0.00     0.047 A 
BRANCH   6   9
ATOM      9  O   UNL     1      28.923  25.360  29.079  1.00  0.00    -0.508 OA
ATOM     10  H   UNL     1      29.198  24.800  29.877  1.00  0.00     0.293 HD
ENDBRANCH   6   9
ENDBRANCH   1   3
BRANCH   2  11
ATOM     11  C   UNL     1      21.108  26.062  27.705  1.00  0.00     0.189 C 
ATOM     12  O   UNL     1      20.497  26.793  28.532  1.00  0.00    -0.289 OA
BRANCH  11  13
ATOM     13  C   UNL     1      20.384  25.545  26.516  1.00  0.00     0.064 A 
ATOM     14  C   UNL     1      20.900  24.463  25.767  1.00  0.00     0.130 A 
ATOM     15  C   UNL     1      19.154  26.114  26.133  1.00  0.00     0.020 A 
ATOM     16  C   UNL     1      20.191  23.979  24.657  1.00  0.00     0.093 A 
ATOM     17  C   UNL     1      18.458  25.625  25.025  1.00  0.00     0.047 A 
ATOM     18  C   UNL     1      18.973  24.558  24.284  1.00  0.00     0.119 A 
BRANCH  14  19
ATOM     19  O   UNL     1      22.120  23.883  26.112  1.00  0.00    -0.507 OA
ATOM     20  H   UNL     1      22.870  24.424  26.524  1.00  0.00     0.293 HD
ENDBRANCH  14  19
BRANCH  18  21
ATOM     21  O   UNL     1      18.266  24.082  23.183  1.00  0.00    -0.508 OA
ATOM     22  H   UNL     1      17.959  24.702  22.442  1.00  0.00     0.293 HD
ENDBRANCH  18  21
ENDBRANCH  11  13
ENDBRANCH   2  11
TORSDOF 6
ENDMDL
MODEL 7
REMARK VINA RESULT:    -2.077      4.724      6.859
REMARK INTER + INTRA:          -3.204
REMARK INTER:                  -2.561
REMARK INTRA:                  -0.642
REMARK UNBOUND:                -0.581
REMARK SMILES O=C(C=Cc1ccc(O)cc1)c1ccc(O)cc1O
REMARK SMILES IDX 4 1 3 2 5 3 6 4 7 5 8 6 11 7 10 8 9 9 2 11 1 12 12 13 18 14
REMARK SMILES IDX 13 15 17 16 14 17 15 18 19 19 16 21
REMARK H PARENT 9 10 19 20 16 22
REMARK Flexibility Score: inf
ROOT
ATOM      1  C   UNL     1      22.854  24.999  27.569  1.00  0.00     0.012 C 
ATOM      2  C   UNL     1      24.066  24.596  27.158  1.00  0.00     0.053 C 
ENDROOT
BRANCH   1   3
ATOM      3  C   UNL     1      21.631  24.910  26.735  1.00  0.00    -0.025 A 
ATOM      4  C   UNL     1      21.603  23.987  25.677  1.00  0.00     0.012 A 
ATOM      5  C   UNL     1      20.475  23.875  24.858  1.00  0.00     0.047 A 
ATOM      6  C   UNL     1      19.364  24.693  25.077  1.00  0.00     0.115 A 
ATOM      7  C   UNL     1      20.511  25.743  26.940  1.00  0.00     0.012 A 
ATOM      8  C   UNL     1      19.385  25.629  26.118  1.00  0.00     0.047 A 
BRANCH   6   9
ATOM      9  O   UNL     1      18.246  24.571  24.255  1.00  0.00    -0.508 OA
ATOM     10  H   UNL     1      18.289  24.789  23.266  1.00  0.00     0.293 HD
ENDBRANCH   6   9
ENDBRANCH   1   3
BRANCH   2  11
ATOM     11  C   UNL     1      25.269  24.718  28.012  1.00  0.00     0.189 C 
ATOM     12  O   UNL     1      25.472  23.875  28.929  1.00  0.00    -0.289 OA
BRANCH  11  13
ATOM     13  C   UNL     1      26.239  25.824  27.812  1.00  0.00     0.064 A 
ATOM     14  C   UNL     1      26.317  26.895  28.731  1.00  0.00     0.130 A 
ATOM     15  C   UNL     1      27.113  25.808  26.709  1.00  0.00     0.020 A 
ATOM     16  C   UNL     1      27.252  27.921  28.532  1.00  0.00     0.093 A 
ATOM     17  C   UNL     1      28.038  26.838  26.519  1.00  0.00     0.047 A 
ATOM     18  C   UNL     1      28.111  27.896  27.427  1.00  0.00     0.119 A 
BRANCH  14  19
ATOM     19  O   UNL     1      25.460  26.947  29.830  1.00  0.00    -0.507 OA
ATOM     20  H   UNL     1      24.536  27.359  29.765  1.00  0.00     0.293 HD
ENDBRANCH  14  19
BRANCH  18  21
ATOM     21  O   UNL     1      29.041  28.913  27.225  1.00  0.00    -0.508 OA
ATOM     22  H   UNL     1      29.853  29.015  27.822  1.00  0.00     0.293 HD
ENDBRANCH  18  21
ENDBRANCH  11  13
ENDBRANCH   2  11
TORSDOF 6
ENDMDL
MODEL 8
REMARK VINA RESULT:    -1.796      4.737      6.895
REMARK INTER + INTRA:          -2.849
REMARK INTER:                  -2.234
REMARK INTRA:                  -0.616
REMARK UNBOUND:                -0.581
REMARK SMILES O=C(C=Cc1ccc(O)cc1)c1ccc(O)cc1O
REMARK SMILES IDX 4 1 3 2 5 3 6 4 7 5 8 6 11 7 10 8 9 9 2 11 1 12 12 13 18 14
REMARK SMILES IDX 13 15 17 16 14 17 15 18 19 19 16 21
REMARK H PARENT 9 10 19 20 16 22
REMARK Flexibility Score: inf
ROOT
ATOM      1  C   UNL     1      22.887  24.792  27.638  1.00  0.00     0.012 C 
ATOM      2  C   UNL     1      24.166  24.791  27.232  1.00  0.00     0.053 C 
ENDROOT
BRANCH   1   3
ATOM      3  C   UNL     1      21.729  24.762  26.711  1.00  0.00    -0.025 A 
ATOM      4  C   UNL     1      20.648  25.625  26.956  1.00  0.00     0.012 A 
ATOM      5  C   UNL     1      19.531  25.625  26.115  1.00  0.00     0.047 A 
ATOM      6  C   UNL     1      19.473  24.754  25.024  1.00  0.00     0.115 A 
ATOM      7  C   UNL     1      21.656  23.875  25.616  1.00  0.00     0.012 A 
ATOM      8  C   UNL     1      20.537  23.877  24.777  1.00  0.00     0.047 A 
BRANCH   6   9
ATOM      9  O   UNL     1      18.355  24.764  24.193  1.00  0.00    -0.508 OA
ATOM     10  H   UNL     1      18.310  24.192  23.358  1.00  0.00     0.293 HD
ENDBRANCH   6   9
ENDBRANCH   1   3
BRANCH   2  11
ATOM     11  C   UNL     1      25.295  24.841  28.187  1.00  0.00     0.189 C 
ATOM     12  O   UNL     1      25.490  23.875  28.976  1.00  0.00    -0.289 OA
BRANCH  11  13
ATOM     13  C   UNL     1      26.201  26.016  28.237  1.00  0.00     0.064 A 
ATOM     14  C   UNL     1      27.524  25.934  27.747  1.00  0.00     0.130 A 
ATOM     15  C   UNL     1      25.742  27.242  28.756  1.00  0.00     0.020 A 
ATOM     16  C   UNL     1      28.358  27.061  27.789  1.00  0.00     0.093 A 
ATOM     17  C   UNL     1      26.582  28.358  28.795  1.00  0.00     0.047 A 
ATOM     18  C   UNL     1      27.890  28.272  28.313  1.00  0.00     0.119 A 
BRANCH  14  19
ATOM     19  O   UNL     1      28.015  24.733  27.236  1.00  0.00    -0.507 OA
ATOM     20  H   UNL     1      28.574  24.702  26.391  1.00  0.00     0.293 HD
ENDBRANCH  14  19
BRANCH  18  21
ATOM     21  O   UNL     1      28.714  29.394  28.357  1.00  0.00    -0.508 OA
ATOM     22  H   UNL     1      29.723  29.308  28.402  1.00  0.00     0.293 HD
ENDBRANCH  18  21
ENDBRANCH  11  13
ENDBRANCH   2  11
TORSDOF 6
ENDMDL
MODEL 9
REMARK VINA RESULT:    -1.731      8.551     14.567
REMARK INTER + INTRA:          -2.767
REMARK INTER:                  -2.240
REMARK INTRA:                  -0.527
REMARK UNBOUND:                -0.581
REMARK SMILES O=C(C=Cc1ccc(O)cc1)c1ccc(O)cc1O
REMARK SMILES IDX 4 1 3 2 5 3 6 4 7 5 8 6 11 7 10 8 9 9 2 11 1 12 12 13 18 14
REMARK SMILES IDX 13 15 17 16 14 17 15 18 19 19 16 21
REMARK H PARENT 9 10 19 20 16 22
REMARK Flexibility Score: inf
ROOT
ATOM      1  C   UNL     1      27.889  36.968  20.482  1.00  0.00     0.012 C 
ATOM      2  C   UNL     1      26.874  37.827  20.661  1.00  0.00     0.053 C 
ENDROOT
BRANCH   1   3
ATOM      3  C   UNL     1      28.133  35.789  21.349  1.00  0.00    -0.025 A 
ATOM      4  C   UNL     1      27.601  35.789  22.650  1.00  0.00     0.012 A 
ATOM      5  C   UNL     1      27.814  34.705  23.506  1.00  0.00     0.047 A 
ATOM      6  C   UNL     1      28.570  33.610  23.080  1.00  0.00     0.115 A 
ATOM      7  C   UNL     1      28.908  34.687  20.932  1.00  0.00     0.012 A 
ATOM      8  C   UNL     1      29.119  33.604  21.791  1.00  0.00     0.047 A 
BRANCH   6   9
ATOM      9  O   UNL     1      28.773  32.536  23.943  1.00  0.00    -0.508 OA
ATOM     10  H   UNL     1      29.181  32.663  24.861  1.00  0.00     0.293 HD
ENDBRANCH   6   9
ENDBRANCH   1   3
BRANCH   2  11
ATOM     11  C   UNL     1      26.674  39.004  19.786  1.00  0.00     0.189 C 
ATOM     12  O   UNL     1      26.070  38.869  18.686  1.00  0.00    -0.289 OA
BRANCH  11  13
ATOM     13  C   UNL     1      27.181  40.343  20.179  1.00  0.00     0.064 A 
ATOM     14  C   UNL     1      26.353  41.259  20.867  1.00  0.00     0.130 A 
ATOM     15  C   UNL     1      28.509  40.710  19.891  1.00  0.00     0.020 A 
ATOM     16  C   UNL     1      26.857  42.512  21.244  1.00  0.00     0.093 A 
ATOM     17  C   UNL     1      29.000  41.962  20.269  1.00  0.00     0.047 A 
ATOM     18  C   UNL     1      28.178  42.866  20.946  1.00  0.00     0.119 A 
BRANCH  14  19
ATOM     19  O   UNL     1      25.029  40.932  21.160  1.00  0.00    -0.507 OA
ATOM     20  H   UNL     1      24.390  41.607  21.563  1.00  0.00     0.293 HD
ENDBRANCH  14  19
BRANCH  18  21
ATOM     21  O   UNL     1      28.683  44.109  21.317  1.00  0.00    -0.508 OA
ATOM     22  H   UNL     1      29.064  44.752  20.632  1.00  0.00     0.293 HD
ENDBRANCH  18  21
ENDBRANCH  11  13
ENDBRANCH   2  11
TORSDOF 6
ENDMDL
