MODEL 1
REMARK VINA RESULT:    -1.817      0.000      0.000
REMARK INTER + INTRA:          -2.541
REMARK INTER:                  -2.189
REMARK INTRA:                  -0.352
REMARK UNBOUND:                -0.352
REMARK SMILES Oc1cc(O)c2cc(O)c(-c3ccc(O)c(O)c3)[o+]c2c1
REMARK SMILES IDX 10 1 19 2 20 3 21 4 2 5 3 6 4 7 6 8 7 9 8 10 11 11 12 12
REMARK SMILES IDX 13 13 14 14 18 15 16 16 15 17 17 19 9 21 1 23 5 25
REMARK H PARENT 15 18 17 20 9 22 1 24 5 26
REMARK Flexibility Score: inf
ROOT
ATOM      1  C   UNL     1     -14.739 -21.020  80.417  1.00  0.00     0.402 A 
ATOM      2  O   UNL     1     -14.053 -21.601  79.436  1.00  0.00    -0.202 OA
ATOM      3  C   UNL     1     -14.253 -21.335  78.150  1.00  0.00     0.368 A 
ATOM      4  C   UNL     1     -13.484 -22.001  77.190  1.00  0.00     0.162 A 
ATOM      5  C   UNL     1     -13.676 -21.745  75.832  1.00  0.00     0.128 A 
ATOM      6  C   UNL     1     -14.643 -20.817  75.427  1.00  0.00     0.093 A 
ATOM      7  C   UNL     1     -15.426 -20.138  76.368  1.00  0.00     0.136 A 
ATOM      8  C   UNL     1     -15.233 -20.394  77.751  1.00  0.00     0.125 A 
ATOM      9  C   UNL     1     -15.962 -19.751  78.765  1.00  0.00     0.078 A 
ATOM     10  C   UNL     1     -15.713 -20.052  80.107  1.00  0.00     0.223 A 
ENDROOT
BRANCH   1  11
ATOM     11  C   UNL     1     -14.429 -21.406  81.813  1.00  0.00     0.087 A 
ATOM     12  C   UNL     1     -13.331 -20.823  82.463  1.00  0.00     0.022 A 
ATOM     13  C   UNL     1     -13.007 -21.188  83.773  1.00  0.00     0.051 A 
ATOM     14  C   UNL     1     -13.765 -22.151  84.446  1.00  0.00     0.157 A 
ATOM     15  C   UNL     1     -15.177 -22.390  82.484  1.00  0.00     0.068 A 
ATOM     16  C   UNL     1     -14.853 -22.759  83.799  1.00  0.00     0.158 A 
BRANCH  14  17
ATOM     17  O   UNL     1     -13.420 -22.493  85.753  1.00  0.00    -0.504 OA
ATOM     18  H   UNL     1     -12.483 -22.785  86.003  1.00  0.00     0.293 HD
ENDBRANCH  14  17
BRANCH  16  19
ATOM     19  O   UNL     1     -15.604 -23.731  84.458  1.00  0.00    -0.504 OA
ATOM     20  H   UNL     1     -15.261 -24.676  84.579  1.00  0.00     0.293 HD
ENDBRANCH  16  19
ENDBRANCH   1  11
BRANCH  10  21
ATOM     21  O   UNL     1     -16.401 -19.378  81.115  1.00  0.00    -0.500 OA
ATOM     22  H   UNL     1     -17.360 -19.606  81.348  1.00  0.00     0.294 HD
ENDBRANCH  10  21
BRANCH   5  23
ATOM     23  O   UNL     1     -12.899 -22.417  74.892  1.00  0.00    -0.507 OA
ATOM     24  H   UNL     1     -12.959 -23.422  74.774  1.00  0.00     0.293 HD
ENDBRANCH   5  23
BRANCH   7  25
ATOM     25  O   UNL     1     -16.373 -19.231  75.884  1.00  0.00    -0.507 OA
ATOM     26  H   UNL     1     -17.226 -18.986  76.364  1.00  0.00     0.293 HD
ENDBRANCH   7  25
TORSDOF 6
ENDMDL
MODEL 2
REMARK VINA RESULT:    -1.535      2.585      6.645
REMARK INTER + INTRA:          -2.201
REMARK INTER:                  -1.853
REMARK INTRA:                  -0.347
REMARK UNBOUND:                -0.352
REMARK SMILES Oc1cc(O)c2cc(O)c(-c3ccc(O)c(O)c3)[o+]c2c1
REMARK SMILES IDX 10 1 19 2 20 3 21 4 2 5 3 6 4 7 6 8 7 9 8 10 11 11 12 12
REMARK SMILES IDX 13 13 14 14 18 15 16 16 15 17 17 19 9 21 1 23 5 25
REMARK H PARENT 15 18 17 20 9 22 1 24 5 26
REMARK Flexibility Score: inf
ROOT
ATOM      1  C   UNL     1     -14.350 -20.908  80.780  1.00  0.00     0.402 A 
ATOM      2  O   UNL     1     -14.118 -21.017  82.085  1.00  0.00    -0.202 OA
ATOM      3  C   UNL     1     -13.719 -22.144  82.663  1.00  0.00     0.368 A 
ATOM      4  C   UNL     1     -13.504 -22.161  84.045  1.00  0.00     0.162 A 
ATOM      5  C   UNL     1     -13.089 -23.332  84.679  1.00  0.00     0.128 A 
ATOM      6  C   UNL     1     -12.886 -24.497  83.930  1.00  0.00     0.093 A 
ATOM      7  C   UNL     1     -13.095 -24.506  82.545  1.00  0.00     0.136 A 
ATOM      8  C   UNL     1     -13.515 -23.316  81.896  1.00  0.00     0.125 A 
ATOM      9  C   UNL     1     -13.737 -23.229  80.511  1.00  0.00     0.078 A 
ATOM     10  C   UNL     1     -14.146 -22.020  79.942  1.00  0.00     0.223 A 
ENDROOT
BRANCH   1  11
ATOM     11  C   UNL     1     -14.800 -19.598  80.255  1.00  0.00     0.087 A 
ATOM     12  C   UNL     1     -13.847 -18.666  79.816  1.00  0.00     0.022 A 
ATOM     13  C   UNL     1     -14.248 -17.416  79.336  1.00  0.00     0.051 A 
ATOM     14  C   UNL     1     -15.602 -17.073  79.303  1.00  0.00     0.157 A 
ATOM     15  C   UNL     1     -16.161 -19.243  80.240  1.00  0.00     0.068 A 
ATOM     16  C   UNL     1     -16.565 -17.988  79.760  1.00  0.00     0.158 A 
BRANCH  14  17
ATOM     17  O   UNL     1     -15.972 -15.819  78.816  1.00  0.00    -0.504 OA
ATOM     18  H   UNL     1     -15.867 -15.568  77.840  1.00  0.00     0.293 HD
ENDBRANCH  14  17
BRANCH  16  19
ATOM     19  O   UNL     1     -17.917 -17.647  79.743  1.00  0.00    -0.504 OA
ATOM     20  H   UNL     1     -18.562 -17.997  80.441  1.00  0.00     0.293 HD
ENDBRANCH  16  19
ENDBRANCH   1  11
BRANCH  10  21
ATOM     21  O   UNL     1     -14.317 -21.919  78.561  1.00  0.00    -0.500 OA
ATOM     22  H   UNL     1     -15.217 -21.696  78.152  1.00  0.00     0.294 HD
ENDBRANCH  10  21
BRANCH   5  23
ATOM     23  O   UNL     1     -12.879 -23.328  86.056  1.00  0.00    -0.507 OA
ATOM     24  H   UNL     1     -12.821 -24.190  86.586  1.00  0.00     0.293 HD
ENDBRANCH   5  23
BRANCH   7  25
ATOM     25  O   UNL     1     -12.876 -25.709  81.869  1.00  0.00    -0.507 OA
ATOM     26  H   UNL     1     -12.960 -26.623  82.288  1.00  0.00     0.293 HD
ENDBRANCH   7  25
TORSDOF 6
ENDMDL
MODEL 3
REMARK VINA RESULT:    -1.525      1.644      7.186
REMARK INTER + INTRA:          -2.189
REMARK INTER:                  -1.837
REMARK INTRA:                  -0.352
REMARK UNBOUND:                -0.352
REMARK SMILES Oc1cc(O)c2cc(O)c(-c3ccc(O)c(O)c3)[o+]c2c1
REMARK SMILES IDX 10 1 19 2 20 3 21 4 2 5 3 6 4 7 6 8 7 9 8 10 11 11 12 12
REMARK SMILES IDX 13 13 14 14 18 15 16 16 15 17 17 19 9 21 1 23 5 25
REMARK H PARENT 15 18 17 20 9 22 1 24 5 26
REMARK Flexibility Score: inf
ROOT
ATOM      1  C   UNL     1     -14.927 -21.195  81.315  1.00  0.00     0.402 A 
ATOM      2  O   UNL     1     -15.746 -22.087  81.865  1.00  0.00    -0.202 OA
ATOM      3  C   UNL     1     -15.483 -22.712  83.007  1.00  0.00     0.368 A 
ATOM      4  C   UNL     1     -16.405 -23.637  83.505  1.00  0.00     0.162 A 
ATOM      5  C   UNL     1     -16.154 -24.311  84.700  1.00  0.00     0.128 A 
ATOM      6  C   UNL     1     -14.972 -24.059  85.407  1.00  0.00     0.093 A 
ATOM      7  C   UNL     1     -14.031 -23.138  84.930  1.00  0.00     0.136 A 
ATOM      8  C   UNL     1     -14.285 -22.449  83.715  1.00  0.00     0.125 A 
ATOM      9  C   UNL     1     -13.407 -21.499  83.168  1.00  0.00     0.078 A 
ATOM     10  C   UNL     1     -13.726 -20.857  81.968  1.00  0.00     0.223 A 
ENDROOT
BRANCH   1  11
ATOM     11  C   UNL     1     -15.327 -20.572  80.032  1.00  0.00     0.087 A 
ATOM     12  C   UNL     1     -16.224 -19.493  80.039  1.00  0.00     0.022 A 
ATOM     13  C   UNL     1     -16.632 -18.903  78.840  1.00  0.00     0.051 A 
ATOM     14  C   UNL     1     -16.165 -19.393  77.617  1.00  0.00     0.157 A 
ATOM     15  C   UNL     1     -14.875 -21.077  78.800  1.00  0.00     0.068 A 
ATOM     16  C   UNL     1     -15.285 -20.488  77.594  1.00  0.00     0.158 A 
BRANCH  14  17
ATOM     17  O   UNL     1     -16.587 -18.783  76.436  1.00  0.00    -0.504 OA
ATOM     18  H   UNL     1     -16.166 -18.995  75.540  1.00  0.00     0.293 HD
ENDBRANCH  14  17
BRANCH  16  19
ATOM     19  O   UNL     1     -14.826 -20.990  76.378  1.00  0.00    -0.504 OA
ATOM     20  H   UNL     1     -14.398 -21.906  76.309  1.00  0.00     0.293 HD
ENDBRANCH  16  19
ENDBRANCH   1  11
BRANCH  10  21
ATOM     21  O   UNL     1     -12.879 -19.877  81.451  1.00  0.00    -0.500 OA
ATOM     22  H   UNL     1     -12.842 -19.676  80.459  1.00  0.00     0.294 HD
ENDBRANCH  10  21
BRANCH   5  23
ATOM     23  O   UNL     1     -17.086 -25.228  85.180  1.00  0.00    -0.507 OA
ATOM     24  H   UNL     1     -17.159 -26.162  84.792  1.00  0.00     0.293 HD
ENDBRANCH   5  23
BRANCH   7  25
ATOM     25  O   UNL     1     -12.875 -22.945  85.690  1.00  0.00    -0.507 OA
ATOM     26  H   UNL     1     -11.939 -23.130  85.362  1.00  0.00     0.293 HD
ENDBRANCH   7  25
TORSDOF 6
ENDMDL
MODEL 4
REMARK VINA RESULT:    -1.513      1.619      3.247
REMARK INTER + INTRA:          -2.175
REMARK INTER:                  -1.826
REMARK INTRA:                  -0.349
REMARK UNBOUND:                -0.352
REMARK SMILES Oc1cc(O)c2cc(O)c(-c3ccc(O)c(O)c3)[o+]c2c1
REMARK SMILES IDX 10 1 19 2 20 3 21 4 2 5 3 6 4 7 6 8 7 9 8 10 11 11 12 12
REMARK SMILES IDX 13 13 14 14 18 15 16 16 15 17 17 19 9 21 1 23 5 25
REMARK H PARENT 15 18 17 20 9 22 1 24 5 26
REMARK Flexibility Score: inf
ROOT
ATOM      1  C   UNL     1     -14.677 -21.216  81.134  1.00  0.00     0.402 A 
ATOM      2  O   UNL     1     -15.619 -20.278  81.097  1.00  0.00    -0.202 OA
ATOM      3  C   UNL     1     -15.974 -19.644  79.985  1.00  0.00     0.368 A 
ATOM      4  C   UNL     1     -16.974 -18.668  80.047  1.00  0.00     0.162 A 
ATOM      5  C   UNL     1     -17.364 -17.984  78.896  1.00  0.00     0.128 A 
ATOM      6  C   UNL     1     -16.751 -18.274  77.671  1.00  0.00     0.093 A 
ATOM      7  C   UNL     1     -15.747 -19.246  77.582  1.00  0.00     0.136 A 
ATOM      8  C   UNL     1     -15.350 -19.947  78.751  1.00  0.00     0.125 A 
ATOM      9  C   UNL     1     -14.362 -20.945  78.754  1.00  0.00     0.078 A 
ATOM     10  C   UNL     1     -14.026 -21.595  79.945  1.00  0.00     0.223 A 
ENDROOT
BRANCH   1  11
ATOM     11  C   UNL     1     -14.365 -21.845  82.438  1.00  0.00     0.087 A 
ATOM     12  C   UNL     1     -13.323 -21.325  83.222  1.00  0.00     0.022 A 
ATOM     13  C   UNL     1     -12.997 -21.915  84.447  1.00  0.00     0.051 A 
ATOM     14  C   UNL     1     -13.694 -23.039  84.898  1.00  0.00     0.157 A 
ATOM     15  C   UNL     1     -15.051 -22.988  82.884  1.00  0.00     0.068 A 
ATOM     16  C   UNL     1     -14.724 -23.583  84.112  1.00  0.00     0.158 A 
BRANCH  14  17
ATOM     17  O   UNL     1     -13.348 -23.604  86.125  1.00  0.00    -0.504 OA
ATOM     18  H   UNL     1     -13.378 -24.604  86.284  1.00  0.00     0.293 HD
ENDBRANCH  14  17
BRANCH  16  19
ATOM     19  O   UNL     1     -15.414 -24.712  84.549  1.00  0.00    -0.504 OA
ATOM     20  H   UNL     1     -16.395 -24.673  84.797  1.00  0.00     0.293 HD
ENDBRANCH  16  19
ENDBRANCH   1  11
BRANCH  10  21
ATOM     21  O   UNL     1     -13.082 -22.622  79.940  1.00  0.00    -0.500 OA
ATOM     22  H   UNL     1     -13.351 -23.593  80.040  1.00  0.00     0.294 HD
ENDBRANCH  10  21
BRANCH   5  23
ATOM     23  O   UNL     1     -18.362 -17.016  78.978  1.00  0.00    -0.507 OA
ATOM     24  H   UNL     1     -18.142 -16.027  79.001  1.00  0.00     0.293 HD
ENDBRANCH   5  23
BRANCH   7  25
ATOM     25  O   UNL     1     -15.182 -19.476  76.324  1.00  0.00    -0.507 OA
ATOM     26  H   UNL     1     -14.901 -18.749  75.684  1.00  0.00     0.293 HD
ENDBRANCH   7  25
TORSDOF 6
ENDMDL
MODEL 5
REMARK VINA RESULT:    -1.506      3.819      6.526
REMARK INTER + INTRA:          -2.166
REMARK INTER:                  -1.814
REMARK INTRA:                  -0.352
REMARK UNBOUND:                -0.352
REMARK SMILES Oc1cc(O)c2cc(O)c(-c3ccc(O)c(O)c3)[o+]c2c1
REMARK SMILES IDX 10 1 19 2 20 3 21 4 2 5 3 6 4 7 6 8 7 9 8 10 11 11 12 12
REMARK SMILES IDX 13 13 14 14 18 15 16 16 15 17 17 19 9 21 1 23 5 25
REMARK H PARENT 15 18 17 20 9 22 1 24 5 26
REMARK Flexibility Score: inf
ROOT
ATOM      1  C   UNL     1     -16.565 -22.856  80.648  1.00  0.00     0.402 A 
ATOM      2  O   UNL     1     -15.983 -23.173  81.801  1.00  0.00    -0.202 OA
ATOM      3  C   UNL     1     -14.998 -22.463  82.341  1.00  0.00     0.368 A 
ATOM      4  C   UNL     1     -14.447 -22.879  83.557  1.00  0.00     0.162 A 
ATOM      5  C   UNL     1     -13.410 -22.155  84.146  1.00  0.00     0.128 A 
ATOM      6  C   UNL     1     -12.918 -21.006  83.516  1.00  0.00     0.093 A 
ATOM      7  C   UNL     1     -13.452 -20.569  82.297  1.00  0.00     0.136 A 
ATOM      8  C   UNL     1     -14.509 -21.301  81.697  1.00  0.00     0.125 A 
ATOM      9  C   UNL     1     -15.114 -20.931  80.485  1.00  0.00     0.078 A 
ATOM     10  C   UNL     1     -16.154 -21.701  79.957  1.00  0.00     0.223 A 
ENDROOT
BRANCH   1  11
ATOM     11  C   UNL     1     -17.647 -23.733  80.144  1.00  0.00     0.087 A 
ATOM     12  C   UNL     1     -18.953 -23.563  80.627  1.00  0.00     0.022 A 
ATOM     13  C   UNL     1     -19.986 -24.392  80.181  1.00  0.00     0.051 A 
ATOM     14  C   UNL     1     -19.727 -25.412  79.261  1.00  0.00     0.157 A 
ATOM     15  C   UNL     1     -17.384 -24.773  79.235  1.00  0.00     0.068 A 
ATOM     16  C   UNL     1     -18.419 -25.608  78.787  1.00  0.00     0.158 A 
BRANCH  14  17
ATOM     17  O   UNL     1     -20.778 -26.223  78.833  1.00  0.00    -0.504 OA
ATOM     18  H   UNL     1     -20.981 -27.115  79.267  1.00  0.00     0.293 HD
ENDBRANCH  14  17
BRANCH  16  19
ATOM     19  O   UNL     1     -18.150 -26.632  77.881  1.00  0.00    -0.504 OA
ATOM     20  H   UNL     1     -17.342 -27.233  77.983  1.00  0.00     0.293 HD
ENDBRANCH  16  19
ENDBRANCH   1  11
BRANCH  10  21
ATOM     21  O   UNL     1     -16.789 -21.306  78.779  1.00  0.00    -0.500 OA
ATOM     22  H   UNL     1     -16.556 -21.719  77.885  1.00  0.00     0.294 HD
ENDBRANCH  10  21
BRANCH   5  23
ATOM     23  O   UNL     1     -12.875 -22.585  85.358  1.00  0.00    -0.507 OA
ATOM     24  H   UNL     1     -11.881 -22.529  85.548  1.00  0.00     0.293 HD
ENDBRANCH   5  23
BRANCH   7  25
ATOM     25  O   UNL     1     -12.904 -19.415  81.731  1.00  0.00    -0.507 OA
ATOM     26  H   UNL     1     -12.027 -19.385  81.232  1.00  0.00     0.293 HD
ENDBRANCH   7  25
TORSDOF 6
ENDMDL
MODEL 6
REMARK VINA RESULT:    -1.488      3.914      6.985
REMARK INTER + INTRA:          -2.145
REMARK INTER:                  -1.803
REMARK INTRA:                  -0.342
REMARK UNBOUND:                -0.352
REMARK SMILES Oc1cc(O)c2cc(O)c(-c3ccc(O)c(O)c3)[o+]c2c1
REMARK SMILES IDX 10 1 19 2 20 3 21 4 2 5 3 6 4 7 6 8 7 9 8 10 11 11 12 12
REMARK SMILES IDX 13 13 14 14 18 15 16 16 15 17 17 19 9 21 1 23 5 25
REMARK H PARENT 15 18 17 20 9 22 1 24 5 26
REMARK Flexibility Score: inf
ROOT
ATOM      1  C   UNL     1     -16.013 -24.393  81.522  1.00  0.00     0.402 A 
ATOM      2  O   UNL     1     -15.511 -23.202  81.210  1.00  0.00    -0.202 OA
ATOM      3  C   UNL     1     -14.679 -22.531  82.000  1.00  0.00     0.368 A 
ATOM      4  C   UNL     1     -14.207 -21.282  81.586  1.00  0.00     0.162 A 
ATOM      5  C   UNL     1     -13.335 -20.553  82.397  1.00  0.00     0.128 A 
ATOM      6  C   UNL     1     -12.931 -21.076  83.631  1.00  0.00     0.093 A 
ATOM      7  C   UNL     1     -13.390 -22.324  84.068  1.00  0.00     0.136 A 
ATOM      8  C   UNL     1     -14.275 -23.069  83.245  1.00  0.00     0.125 A 
ATOM      9  C   UNL     1     -14.775 -24.334  83.596  1.00  0.00     0.078 A 
ATOM     10  C   UNL     1     -15.640 -25.010  82.731  1.00  0.00     0.223 A 
ENDROOT
BRANCH   1  11
ATOM     11  C   UNL     1     -16.938 -25.037  80.561  1.00  0.00     0.087 A 
ATOM     12  C   UNL     1     -16.428 -25.921  79.598  1.00  0.00     0.022 A 
ATOM     13  C   UNL     1     -17.280 -26.525  78.669  1.00  0.00     0.051 A 
ATOM     14  C   UNL     1     -18.648 -26.241  78.676  1.00  0.00     0.157 A 
ATOM     15  C   UNL     1     -18.312 -24.737  80.554  1.00  0.00     0.068 A 
ATOM     16  C   UNL     1     -19.169 -25.340  79.621  1.00  0.00     0.158 A 
BRANCH  14  17
ATOM     17  O   UNL     1     -19.474 -26.860  77.738  1.00  0.00    -0.504 OA
ATOM     18  H   UNL     1     -19.989 -26.332  77.044  1.00  0.00     0.293 HD
ENDBRANCH  14  17
BRANCH  16  19
ATOM     19  O   UNL     1     -20.530 -25.042  79.625  1.00  0.00    -0.504 OA
ATOM     20  H   UNL     1     -21.098 -25.163  80.455  1.00  0.00     0.293 HD
ENDBRANCH  16  19
ENDBRANCH   1  11
BRANCH  10  21
ATOM     21  O   UNL     1     -16.097 -26.288  83.055  1.00  0.00    -0.500 OA
ATOM     22  H   UNL     1     -15.825 -27.102  82.518  1.00  0.00     0.294 HD
ENDBRANCH  10  21
BRANCH   5  23
ATOM     23  O   UNL     1     -12.875 -19.311  81.967  1.00  0.00    -0.507 OA
ATOM     24  H   UNL     1     -12.099 -19.228  81.320  1.00  0.00     0.293 HD
ENDBRANCH   5  23
BRANCH   7  25
ATOM     25  O   UNL     1     -12.944 -22.775  85.314  1.00  0.00    -0.507 OA
ATOM     26  H   UNL     1     -12.316 -22.262  85.914  1.00  0.00     0.293 HD
ENDBRANCH   7  25
TORSDOF 6
ENDMDL
MODEL 7
REMARK VINA RESULT:    -1.470      1.832      6.804
REMARK INTER + INTRA:          -2.122
REMARK INTER:                  -1.773
REMARK INTRA:                  -0.349
REMARK UNBOUND:                -0.352
REMARK SMILES Oc1cc(O)c2cc(O)c(-c3ccc(O)c(O)c3)[o+]c2c1
REMARK SMILES IDX 10 1 19 2 20 3 21 4 2 5 3 6 4 7 6 8 7 9 8 10 11 11 12 12
REMARK SMILES IDX 13 13 14 14 18 15 16 16 15 17 17 19 9 21 1 23 5 25
REMARK H PARENT 15 18 17 20 9 22 1 24 5 26
REMARK Flexibility Score: inf
ROOT
ATOM      1  C   UNL     1     -13.960 -20.876  80.356  1.00  0.00     0.402 A 
ATOM      2  O   UNL     1     -14.319 -22.141  80.560  1.00  0.00    -0.202 OA
ATOM      3  C   UNL     1     -14.163 -22.765  81.722  1.00  0.00     0.368 A 
ATOM      4  C   UNL     1     -14.569 -24.098  81.839  1.00  0.00     0.162 A 
ATOM      5  C   UNL     1     -14.414 -24.780  83.046  1.00  0.00     0.128 A 
ATOM      6  C   UNL     1     -13.848 -24.127  84.147  1.00  0.00     0.093 A 
ATOM      7  C   UNL     1     -13.433 -22.793  84.057  1.00  0.00     0.136 A 
ATOM      8  C   UNL     1     -13.592 -22.095  82.831  1.00  0.00     0.125 A 
ATOM      9  C   UNL     1     -13.218 -20.753  82.652  1.00  0.00     0.078 A 
ATOM     10  C   UNL     1     -13.409 -20.131  81.415  1.00  0.00     0.223 A 
ENDROOT
BRANCH   1  11
ATOM     11  C   UNL     1     -14.177 -20.294  79.012  1.00  0.00     0.087 A 
ATOM     12  C   UNL     1     -13.143 -20.339  78.065  1.00  0.00     0.022 A 
ATOM     13  C   UNL     1     -13.318 -19.778  76.797  1.00  0.00     0.051 A 
ATOM     14  C   UNL     1     -14.521 -19.149  76.463  1.00  0.00     0.157 A 
ATOM     15  C   UNL     1     -15.379 -19.643  78.681  1.00  0.00     0.068 A 
ATOM     16  C   UNL     1     -15.557 -19.077  77.410  1.00  0.00     0.158 A 
BRANCH  14  17
ATOM     17  O   UNL     1     -14.668 -18.600  75.190  1.00  0.00    -0.504 OA
ATOM     18  H   UNL     1     -14.856 -17.615  75.047  1.00  0.00     0.293 HD
ENDBRANCH  14  17
BRANCH  16  19
ATOM     19  O   UNL     1     -16.754 -18.440  77.088  1.00  0.00    -0.504 OA
ATOM     20  H   UNL     1     -17.062 -17.608  77.578  1.00  0.00     0.293 HD
ENDBRANCH  16  19
ENDBRANCH   1  11
BRANCH  10  21
ATOM     21  O   UNL     1     -13.084 -18.784  81.252  1.00  0.00    -0.500 OA
ATOM     22  H   UNL     1     -12.308 -18.491  80.670  1.00  0.00     0.294 HD
ENDBRANCH  10  21
BRANCH   5  23
ATOM     23  O   UNL     1     -14.825 -26.107  83.142  1.00  0.00    -0.507 OA
ATOM     24  H   UNL     1     -15.168 -26.495  84.013  1.00  0.00     0.293 HD
ENDBRANCH   5  23
BRANCH   7  25
ATOM     25  O   UNL     1     -12.875 -22.213  85.199  1.00  0.00    -0.507 OA
ATOM     26  H   UNL     1     -13.187 -21.345  85.609  1.00  0.00     0.293 HD
ENDBRANCH   7  25
TORSDOF 6
ENDMDL
