MODEL 1
REMARK VINA RESULT:     5.821      0.000      0.000
REMARK INTER + INTRA:          13.646
REMARK INTER:                  15.348
REMARK INTRA:                  -1.702
REMARK UNBOUND:                -1.702
REMARK SMILES CCCCCCCCCCCCCCCCCCCCCCCCCCCCCC(=O)[O-]
REMARK SMILES IDX 16 1 17 2 18 3 19 4 20 5 21 6 22 7 23 8 24 9 25 10 26 11
REMARK SMILES IDX 27 12 28 13 29 14 30 15 31 16 32 17 15 18 14 19 13 20 12 21
REMARK SMILES IDX 11 22 10 23 9 24 8 25 7 26 6 27 5 28 4 29 3 30 2 31 1 32
REMARK H PARENT
REMARK Flexibility Score: inf
ROOT
ATOM      1  C   UNL     1       5.204 -39.125  22.376  1.00  0.00     0.000 C 
ENDROOT
BRANCH   1   2
ATOM      2  C   UNL     1       5.889 -37.925  23.066  1.00  0.00     0.000 C 
BRANCH   2   3
ATOM      3  C   UNL     1       6.121 -36.726  22.130  1.00  0.00     0.000 C 
BRANCH   3   4
ATOM      4  C   UNL     1       5.096 -35.605  22.334  1.00  0.00     0.000 C 
BRANCH   4   5
ATOM      5  C   UNL     1       5.774 -34.318  22.831  1.00  0.00     0.000 C 
BRANCH   5   6
ATOM      6  C   UNL     1       6.103 -34.355  24.335  1.00  0.00     0.000 C 
BRANCH   6   7
ATOM      7  C   UNL     1       5.224 -35.307  25.168  1.00  0.00     0.000 C 
BRANCH   7   8
ATOM      8  C   UNL     1       6.041 -36.240  26.074  1.00  0.00     0.000 C 
BRANCH   8   9
ATOM      9  C   UNL     1       5.173 -37.390  26.605  1.00  0.00     0.000 C 
BRANCH   9  10
ATOM     10  C   UNL     1       4.179 -37.863  25.535  1.00  0.00     0.000 C 
BRANCH  10  11
ATOM     11  C   UNL     1       2.802 -38.235  26.115  1.00  0.00     0.000 C 
BRANCH  11  12
ATOM     12  C   UNL     1       2.609 -37.900  27.606  1.00  0.00     0.000 C 
BRANCH  12  13
ATOM     13  C   UNL     1       1.719 -36.672  27.838  1.00  0.00     0.006 C 
BRANCH  13  14
ATOM     14  C   UNL     1       2.556 -35.463  28.272  1.00  0.00     0.053 C 
BRANCH  14  15
ATOM     15  C   UNL     1       1.778 -34.589  29.206  1.00  0.00     0.041 C 
ATOM     16  O   UNL     1       2.322 -34.128  30.244  1.00  0.00    -0.550 OA
ATOM     17  O   UNL     1       0.449 -34.285  28.930  1.00  0.00    -0.550 OA
ENDBRANCH  14  15
ENDBRANCH  13  14
ENDBRANCH  12  13
ENDBRANCH  11  12
ENDBRANCH  10  11
ENDBRANCH   9  10
ENDBRANCH   8   9
ENDBRANCH   7   8
ENDBRANCH   6   7
ENDBRANCH   5   6
ENDBRANCH   4   5
ENDBRANCH   3   4
ENDBRANCH   2   3
ENDBRANCH   1   2
BRANCH   1  18
ATOM     18  C   UNL     1       6.072 -39.720  21.250  1.00  0.00     0.000 C 
BRANCH  18  19
ATOM     19  C   UNL     1       5.741 -39.108  19.872  1.00  0.00     0.000 C 
BRANCH  19  20
ATOM     20  C   UNL     1       4.490 -38.213  19.874  1.00  0.00     0.000 C 
BRANCH  20  21
ATOM     21  C   UNL     1       3.805 -38.149  18.500  1.00  0.00     0.000 C 
BRANCH  21  22
ATOM     22  C   UNL     1       2.271 -38.223  18.595  1.00  0.00     0.000 C 
BRANCH  22  23
ATOM     23  C   UNL     1       1.569 -37.339  17.552  1.00  0.00     0.000 C 
BRANCH  23  24
ATOM     24  C   UNL     1       2.590 -36.675  16.616  1.00  0.00    -0.000 C 
BRANCH  24  25
ATOM     25  C   UNL     1       2.202 -36.793  15.133  1.00  0.00    -0.000 C 
BRANCH  25  26
ATOM     26  C   UNL     1       3.422 -36.944  14.210  1.00  0.00    -0.000 C 
BRANCH  26  27
ATOM     27  C   UNL     1       4.400 -37.991  14.764  1.00  0.00    -0.000 C 
BRANCH  27  28
ATOM     28  C   UNL     1       4.490 -39.244  13.879  1.00  0.00    -0.000 C 
BRANCH  28  29
ATOM     29  C   UNL     1       5.701 -40.127  14.219  1.00  0.00    -0.000 C 
BRANCH  29  30
ATOM     30  C   UNL     1       5.367 -41.614  14.030  1.00  0.00    -0.000 C 
BRANCH  30  31
ATOM     31  C   UNL     1       6.125 -42.516  15.017  1.00  0.00    -0.003 C 
ATOM     32  C   UNL     1       5.667 -42.324  16.463  1.00  0.00     0.004 C 
ENDBRANCH  30  31
ENDBRANCH  29  30
ENDBRANCH  28  29
ENDBRANCH  27  28
ENDBRANCH  26  27
ENDBRANCH  25  26
ENDBRANCH  24  25
ENDBRANCH  23  24
ENDBRANCH  22  23
ENDBRANCH  21  22
ENDBRANCH  20  21
ENDBRANCH  19  20
ENDBRANCH  18  19
ENDBRANCH   1  18
TORSDOF 28
ENDMDL
MODEL 2
REMARK VINA RESULT:     7.181      2.915      9.386
REMARK INTER + INTRA:          17.232
REMARK INTER:                  18.703
REMARK INTRA:                  -1.471
REMARK UNBOUND:                -1.702
REMARK SMILES CCCCCCCCCCCCCCCCCCCCCCCCCCCCCC(=O)[O-]
REMARK SMILES IDX 16 1 17 2 18 3 19 4 20 5 21 6 22 7 23 8 24 9 25 10 26 11
REMARK SMILES IDX 27 12 28 13 29 14 30 15 31 16 32 17 15 18 14 19 13 20 12 21
REMARK SMILES IDX 11 22 10 23 9 24 8 25 7 26 6 27 5 28 4 29 3 30 2 31 1 32
REMARK H PARENT
REMARK Flexibility Score: inf
ROOT
ATOM      1  C   UNL     1       3.164 -38.178  20.697  1.00  0.00     0.000 C 
ENDROOT
BRANCH   1   2
ATOM      2  C   UNL     1       2.276 -37.123  20.001  1.00  0.00     0.000 C 
BRANCH   2   3
ATOM      3  C   UNL     1       0.932 -37.681  19.502  1.00  0.00     0.000 C 
BRANCH   3   4
ATOM      4  C   UNL     1       0.889 -37.850  17.978  1.00  0.00     0.000 C 
BRANCH   4   5
ATOM      5  C   UNL     1       2.300 -38.057  17.404  1.00  0.00     0.000 C 
BRANCH   5   6
ATOM      6  C   UNL     1       2.528 -37.297  16.085  1.00  0.00     0.000 C 
BRANCH   6   7
ATOM      7  C   UNL     1       3.548 -36.147  16.167  1.00  0.00     0.000 C 
BRANCH   7   8
ATOM      8  C   UNL     1       4.043 -35.883  17.598  1.00  0.00     0.000 C 
BRANCH   8   9
ATOM      9  C   UNL     1       4.532 -34.437  17.753  1.00  0.00     0.000 C 
BRANCH   9  10
ATOM     10  C   UNL     1       5.888 -34.392  18.472  1.00  0.00     0.000 C 
BRANCH  10  11
ATOM     11  C   UNL     1       6.044 -35.496  19.533  1.00  0.00     0.000 C 
BRANCH  11  12
ATOM     12  C   UNL     1       5.941 -35.017  20.994  1.00  0.00     0.000 C 
BRANCH  12  13
ATOM     13  C   UNL     1       4.632 -35.439  21.675  1.00  0.00     0.006 C 
BRANCH  13  14
ATOM     14  C   UNL     1       4.314 -34.526  22.864  1.00  0.00     0.053 C 
BRANCH  14  15
ATOM     15  C   UNL     1       5.550 -34.253  23.665  1.00  0.00     0.041 C 
ATOM     16  O   UNL     1       6.078 -33.110  23.647  1.00  0.00    -0.550 OA
ATOM     17  O   UNL     1       6.120 -35.265  24.432  1.00  0.00    -0.550 OA
ENDBRANCH  14  15
ENDBRANCH  13  14
ENDBRANCH  12  13
ENDBRANCH  11  12
ENDBRANCH  10  11
ENDBRANCH   9  10
ENDBRANCH   8   9
ENDBRANCH   7   8
ENDBRANCH   6   7
ENDBRANCH   5   6
ENDBRANCH   4   5
ENDBRANCH   3   4
ENDBRANCH   2   3
ENDBRANCH   1   2
BRANCH   1  18
ATOM     18  C   UNL     1       4.163 -38.830  19.722  1.00  0.00     0.000 C 
BRANCH  18  19
ATOM     19  C   UNL     1       5.626 -38.462  20.053  1.00  0.00     0.000 C 
BRANCH  19  20
ATOM     20  C   UNL     1       6.013 -38.718  21.519  1.00  0.00     0.000 C 
BRANCH  20  21
ATOM     21  C   UNL     1       5.584 -40.110  22.011  1.00  0.00     0.000 C 
BRANCH  21  22
ATOM     22  C   UNL     1       5.031 -40.089  23.446  1.00  0.00     0.000 C 
BRANCH  22  23
ATOM     23  C   UNL     1       5.708 -39.029  24.329  1.00  0.00     0.000 C 
BRANCH  23  24
ATOM     24  C   UNL     1       4.804 -37.799  24.503  1.00  0.00    -0.000 C 
BRANCH  24  25
ATOM     25  C   UNL     1       4.768 -37.288  25.953  1.00  0.00    -0.000 C 
BRANCH  25  26
ATOM     26  C   UNL     1       3.909 -38.172  26.871  1.00  0.00    -0.000 C 
BRANCH  26  27
ATOM     27  C   UNL     1       2.431 -38.118  26.456  1.00  0.00    -0.000 C 
BRANCH  27  28
ATOM     28  C   UNL     1       1.571 -37.295  27.428  1.00  0.00    -0.000 C 
BRANCH  28  29
ATOM     29  C   UNL     1       2.392 -36.679  28.572  1.00  0.00    -0.000 C 
BRANCH  29  30
ATOM     30  C   UNL     1       2.325 -35.146  28.533  1.00  0.00    -0.000 C 
BRANCH  30  31
ATOM     31  C   UNL     1       1.064 -34.595  29.215  1.00  0.00    -0.003 C 
ATOM     32  C   UNL     1       1.382 -33.728  30.434  1.00  0.00     0.004 C 
ENDBRANCH  30  31
ENDBRANCH  29  30
ENDBRANCH  28  29
ENDBRANCH  27  28
ENDBRANCH  26  27
ENDBRANCH  25  26
ENDBRANCH  24  25
ENDBRANCH  23  24
ENDBRANCH  22  23
ENDBRANCH  21  22
ENDBRANCH  20  21
ENDBRANCH  19  20
ENDBRANCH  18  19
ENDBRANCH   1  18
TORSDOF 28
ENDMDL
MODEL 3
REMARK VINA RESULT:     7.579      3.249      9.549
REMARK INTER + INTRA:          18.282
REMARK INTER:                  18.036
REMARK INTRA:                   0.247
REMARK UNBOUND:                -1.702
REMARK SMILES CCCCCCCCCCCCCCCCCCCCCCCCCCCCCC(=O)[O-]
REMARK SMILES IDX 16 1 17 2 18 3 19 4 20 5 21 6 22 7 23 8 24 9 25 10 26 11
REMARK SMILES IDX 27 12 28 13 29 14 30 15 31 16 32 17 15 18 14 19 13 20 12 21
REMARK SMILES IDX 11 22 10 23 9 24 8 25 7 26 6 27 5 28 4 29 3 30 2 31 1 32
REMARK H PARENT
REMARK Flexibility Score: inf
ROOT
ATOM      1  C   UNL     1       5.398 -36.302  23.531  1.00  0.00     0.000 C 
ENDROOT
BRANCH   1   2
ATOM      2  C   UNL     1       6.026 -34.908  23.750  1.00  0.00     0.000 C 
BRANCH   2   3
ATOM      3  C   UNL     1       5.248 -33.768  23.071  1.00  0.00     0.000 C 
BRANCH   3   4
ATOM      4  C   UNL     1       3.894 -34.223  22.514  1.00  0.00     0.000 C 
BRANCH   4   5
ATOM      5  C   UNL     1       4.027 -34.708  21.062  1.00  0.00     0.000 C 
BRANCH   5   6
ATOM      6  C   UNL     1       5.307 -34.198  20.374  1.00  0.00     0.000 C 
BRANCH   6   7
ATOM      7  C   UNL     1       5.648 -34.893  19.043  1.00  0.00     0.000 C 
BRANCH   7   8
ATOM      8  C   UNL     1       4.651 -34.565  17.921  1.00  0.00     0.000 C 
BRANCH   8   9
ATOM      9  C   UNL     1       3.832 -35.804  17.535  1.00  0.00     0.000 C 
BRANCH   9  10
ATOM     10  C   UNL     1       3.935 -36.082  16.028  1.00  0.00     0.000 C 
BRANCH  10  11
ATOM     11  C   UNL     1       3.038 -37.245  15.567  1.00  0.00     0.000 C 
BRANCH  11  12
ATOM     12  C   UNL     1       1.562 -37.141  15.995  1.00  0.00     0.000 C 
BRANCH  12  13
ATOM     13  C   UNL     1       1.186 -38.129  17.108  1.00  0.00     0.006 C 
BRANCH  13  14
ATOM     14  C   UNL     1       0.495 -37.407  18.270  1.00  0.00     0.053 C 
BRANCH  14  15
ATOM     15  C   UNL     1       1.204 -37.681  19.560  1.00  0.00     0.041 C 
ATOM     16  O   UNL     1       0.675 -37.358  20.657  1.00  0.00    -0.550 OA
ATOM     17  O   UNL     1       2.453 -38.294  19.551  1.00  0.00    -0.550 OA
ENDBRANCH  14  15
ENDBRANCH  13  14
ENDBRANCH  12  13
ENDBRANCH  11  12
ENDBRANCH  10  11
ENDBRANCH   9  10
ENDBRANCH   8   9
ENDBRANCH   7   8
ENDBRANCH   6   7
ENDBRANCH   5   6
ENDBRANCH   4   5
ENDBRANCH   3   4
ENDBRANCH   2   3
ENDBRANCH   1   2
BRANCH   1  18
ATOM     18  C   UNL     1       6.125 -37.101  22.433  1.00  0.00     0.000 C 
BRANCH  18  19
ATOM     19  C   UNL     1       5.351 -37.095  21.097  1.00  0.00     0.000 C 
BRANCH  19  20
ATOM     20  C   UNL     1       5.762 -38.225  20.137  1.00  0.00     0.000 C 
BRANCH  20  21
ATOM     21  C   UNL     1       5.378 -39.617  20.662  1.00  0.00     0.000 C 
BRANCH  21  22
ATOM     22  C   UNL     1       6.024 -39.941  22.020  1.00  0.00     0.000 C 
BRANCH  22  23
ATOM     23  C   UNL     1       5.014 -40.490  23.041  1.00  0.00     0.000 C 
BRANCH  23  24
ATOM     24  C   UNL     1       5.320 -39.967  24.453  1.00  0.00    -0.000 C 
BRANCH  24  25
ATOM     25  C   UNL     1       4.282 -38.947  24.948  1.00  0.00    -0.000 C 
BRANCH  25  26
ATOM     26  C   UNL     1       4.806 -38.079  26.103  1.00  0.00    -0.000 C 
BRANCH  26  27
ATOM     27  C   UNL     1       3.798 -36.977  26.462  1.00  0.00    -0.000 C 
BRANCH  27  28
ATOM     28  C   UNL     1       2.433 -37.540  26.890  1.00  0.00    -0.000 C 
BRANCH  28  29
ATOM     29  C   UNL     1       1.946 -36.964  28.229  1.00  0.00    -0.000 C 
BRANCH  29  30
ATOM     30  C   UNL     1       1.802 -35.437  28.150  1.00  0.00    -0.000 C 
BRANCH  30  31
ATOM     31  C   UNL     1       1.849 -34.771  29.534  1.00  0.00    -0.003 C 
ATOM     32  C   UNL     1       0.835 -33.635  29.676  1.00  0.00     0.004 C 
ENDBRANCH  30  31
ENDBRANCH  29  30
ENDBRANCH  28  29
ENDBRANCH  27  28
ENDBRANCH  26  27
ENDBRANCH  25  26
ENDBRANCH  24  25
ENDBRANCH  23  24
ENDBRANCH  22  23
ENDBRANCH  21  22
ENDBRANCH  20  21
ENDBRANCH  19  20
ENDBRANCH  18  19
ENDBRANCH   1  18
TORSDOF 28
ENDMDL
MODEL 4
REMARK VINA RESULT:     7.837      3.400     10.104
REMARK INTER + INTRA:          18.962
REMARK INTER:                  18.348
REMARK INTRA:                   0.613
REMARK UNBOUND:                -1.702
REMARK SMILES CCCCCCCCCCCCCCCCCCCCCCCCCCCCCC(=O)[O-]
REMARK SMILES IDX 16 1 17 2 18 3 19 4 20 5 21 6 22 7 23 8 24 9 25 10 26 11
REMARK SMILES IDX 27 12 28 13 29 14 30 15 31 16 32 17 15 18 14 19 13 20 12 21
REMARK SMILES IDX 11 22 10 23 9 24 8 25 7 26 6 27 5 28 4 29 3 30 2 31 1 32
REMARK H PARENT
REMARK Flexibility Score: inf
ROOT
ATOM      1  C   UNL     1       5.007 -35.813  22.763  1.00  0.00     0.000 C 
ENDROOT
BRANCH   1   2
ATOM      2  C   UNL     1       4.941 -34.549  21.878  1.00  0.00     0.000 C 
BRANCH   2   3
ATOM      3  C   UNL     1       4.742 -34.854  20.383  1.00  0.00     0.000 C 
BRANCH   3   4
ATOM      4  C   UNL     1       5.950 -34.451  19.529  1.00  0.00     0.000 C 
BRANCH   4   5
ATOM      5  C   UNL     1       5.641 -34.595  18.030  1.00  0.00     0.000 C 
BRANCH   5   6
ATOM      6  C   UNL     1       4.146 -34.830  17.746  1.00  0.00     0.000 C 
BRANCH   6   7
ATOM      7  C   UNL     1       3.821 -35.271  16.307  1.00  0.00     0.000 C 
BRANCH   7   8
ATOM      8  C   UNL     1       2.322 -35.520  16.079  1.00  0.00     0.000 C 
BRANCH   8   9
ATOM      9  C   UNL     1       2.083 -36.258  14.754  1.00  0.00     0.000 C 
BRANCH   9  10
ATOM     10  C   UNL     1       3.179 -37.304  14.505  1.00  0.00     0.000 C 
BRANCH  10  11
ATOM     11  C   UNL     1       3.547 -38.104  15.767  1.00  0.00     0.000 C 
BRANCH  11  12
ATOM     12  C   UNL     1       2.623 -37.875  16.978  1.00  0.00     0.000 C 
BRANCH  12  13
ATOM     13  C   UNL     1       3.347 -38.015  18.325  1.00  0.00     0.006 C 
BRANCH  13  14
ATOM     14  C   UNL     1       2.376 -37.805  19.492  1.00  0.00     0.053 C 
BRANCH  14  15
ATOM     15  C   UNL     1       0.986 -38.199  19.101  1.00  0.00     0.041 C 
ATOM     16  O   UNL     1       0.076 -37.330  19.029  1.00  0.00    -0.550 OA
ATOM     17  O   UNL     1       0.693 -39.530  18.819  1.00  0.00    -0.550 OA
ENDBRANCH  14  15
ENDBRANCH  13  14
ENDBRANCH  12  13
ENDBRANCH  11  12
ENDBRANCH  10  11
ENDBRANCH   9  10
ENDBRANCH   8   9
ENDBRANCH   7   8
ENDBRANCH   6   7
ENDBRANCH   5   6
ENDBRANCH   4   5
ENDBRANCH   3   4
ENDBRANCH   2   3
ENDBRANCH   1   2
BRANCH   1  18
ATOM     18  C   UNL     1       6.102 -36.792  22.299  1.00  0.00     0.000 C 
BRANCH  18  19
ATOM     19  C   UNL     1       5.744 -37.478  20.962  1.00  0.00     0.000 C 
BRANCH  19  20
ATOM     20  C   UNL     1       5.923 -39.005  20.982  1.00  0.00     0.000 C 
BRANCH  20  21
ATOM     21  C   UNL     1       4.698 -39.737  21.553  1.00  0.00     0.000 C 
BRANCH  21  22
ATOM     22  C   UNL     1       4.993 -40.435  22.892  1.00  0.00     0.000 C 
BRANCH  22  23
ATOM     23  C   UNL     1       5.719 -39.520  23.891  1.00  0.00     0.000 C 
BRANCH  23  24
ATOM     24  C   UNL     1       4.803 -39.151  25.068  1.00  0.00    -0.000 C 
BRANCH  24  25
ATOM     25  C   UNL     1       5.230 -37.852  25.770  1.00  0.00    -0.000 C 
BRANCH  25  26
ATOM     26  C   UNL     1       4.041 -36.932  26.089  1.00  0.00    -0.000 C 
BRANCH  26  27
ATOM     27  C   UNL     1       2.837 -37.746  26.587  1.00  0.00    -0.000 C 
BRANCH  27  28
ATOM     28  C   UNL     1       2.305 -37.248  27.940  1.00  0.00    -0.000 C 
BRANCH  28  29
ATOM     29  C   UNL     1       1.658 -35.857  27.849  1.00  0.00    -0.000 C 
BRANCH  29  30
ATOM     30  C   UNL     1       2.334 -34.872  28.813  1.00  0.00    -0.000 C 
BRANCH  30  31
ATOM     31  C   UNL     1       1.418 -34.465  29.977  1.00  0.00    -0.003 C 
ATOM     32  C   UNL     1       0.222 -33.627  29.522  1.00  0.00     0.004 C 
ENDBRANCH  30  31
ENDBRANCH  29  30
ENDBRANCH  28  29
ENDBRANCH  27  28
ENDBRANCH  26  27
ENDBRANCH  25  26
ENDBRANCH  24  25
ENDBRANCH  23  24
ENDBRANCH  22  23
ENDBRANCH  21  22
ENDBRANCH  20  21
ENDBRANCH  19  20
ENDBRANCH  18  19
ENDBRANCH   1  18
TORSDOF 28
ENDMDL
MODEL 5
REMARK VINA RESULT:     7.900      1.679      3.344
REMARK INTER + INTRA:          19.130
REMARK INTER:                  15.983
REMARK INTRA:                   3.147
REMARK UNBOUND:                -1.702
REMARK SMILES CCCCCCCCCCCCCCCCCCCCCCCCCCCCCC(=O)[O-]
REMARK SMILES IDX 16 1 17 2 18 3 19 4 20 5 21 6 22 7 23 8 24 9 25 10 26 11
REMARK SMILES IDX 27 12 28 13 29 14 30 15 31 16 32 17 15 18 14 19 13 20 12 21
REMARK SMILES IDX 11 22 10 23 9 24 8 25 7 26 6 27 5 28 4 29 3 30 2 31 1 32
REMARK H PARENT
REMARK Flexibility Score: inf
ROOT
ATOM      1  C   UNL     1       3.742 -37.671  20.366  1.00  0.00     0.000 C 
ENDROOT
BRANCH   1   2
ATOM      2  C   UNL     1       4.844 -38.685  19.989  1.00  0.00     0.000 C 
BRANCH   2   3
ATOM      3  C   UNL     1       5.990 -38.760  21.012  1.00  0.00     0.000 C 
BRANCH   3   4
ATOM      4  C   UNL     1       5.519 -39.212  22.400  1.00  0.00     0.000 C 
BRANCH   4   5
ATOM      5  C   UNL     1       5.919 -38.195  23.479  1.00  0.00     0.000 C 
BRANCH   5   6
ATOM      6  C   UNL     1       6.124 -36.775  22.919  1.00  0.00     0.000 C 
BRANCH   6   7
ATOM      7  C   UNL     1       5.878 -35.638  23.928  1.00  0.00     0.000 C 
BRANCH   7   8
ATOM      8  C   UNL     1       5.851 -36.123  25.385  1.00  0.00     0.000 C 
BRANCH   8   9
ATOM      9  C   UNL     1       4.456 -36.635  25.769  1.00  0.00     0.000 C 
BRANCH   9  10
ATOM     10  C   UNL     1       4.553 -37.939  26.574  1.00  0.00     0.000 C 
BRANCH  10  11
ATOM     11  C   UNL     1       3.301 -38.215  27.426  1.00  0.00     0.000 C 
BRANCH  11  12
ATOM     12  C   UNL     1       2.030 -37.467  26.981  1.00  0.00     0.000 C 
BRANCH  12  13
ATOM     13  C   UNL     1       1.387 -36.648  28.109  1.00  0.00     0.006 C 
BRANCH  13  14
ATOM     14  C   UNL     1       2.034 -35.263  28.217  1.00  0.00     0.053 C 
BRANCH  14  15
ATOM     15  C   UNL     1       1.596 -34.571  29.470  1.00  0.00     0.041 C 
ATOM     16  O   UNL     1       0.407 -34.172  29.592  1.00  0.00    -0.550 OA
ATOM     17  O   UNL     1       2.503 -34.364  30.505  1.00  0.00    -0.550 OA
ENDBRANCH  14  15
ENDBRANCH  13  14
ENDBRANCH  12  13
ENDBRANCH  11  12
ENDBRANCH  10  11
ENDBRANCH   9  10
ENDBRANCH   8   9
ENDBRANCH   7   8
ENDBRANCH   6   7
ENDBRANCH   5   6
ENDBRANCH   4   5
ENDBRANCH   3   4
ENDBRANCH   2   3
ENDBRANCH   1   2
BRANCH   1  18
ATOM     18  C   UNL     1       4.236 -36.215  20.268  1.00  0.00     0.000 C 
BRANCH  18  19
ATOM     19  C   UNL     1       5.623 -36.111  19.598  1.00  0.00     0.000 C 
BRANCH  19  20
ATOM     20  C   UNL     1       6.001 -34.682  19.173  1.00  0.00     0.000 C 
BRANCH  20  21
ATOM     21  C   UNL     1       5.158 -34.172  17.993  1.00  0.00     0.000 C 
BRANCH  21  22
ATOM     22  C   UNL     1       4.000 -35.120  17.636  1.00  0.00     0.000 C 
BRANCH  22  23
ATOM     23  C   UNL     1       3.350 -34.779  16.285  1.00  0.00     0.000 C 
BRANCH  23  24
ATOM     24  C   UNL     1       2.181 -35.728  15.982  1.00  0.00    -0.000 C 
BRANCH  24  25
ATOM     25  C   UNL     1       2.238 -36.306  14.558  1.00  0.00    -0.000 C 
BRANCH  25  26
ATOM     26  C   UNL     1       3.612 -36.902  14.215  1.00  0.00    -0.000 C 
BRANCH  26  27
ATOM     27  C   UNL     1       3.697 -38.372  14.655  1.00  0.00    -0.000 C 
BRANCH  27  28
ATOM     28  C   UNL     1       3.564 -38.543  16.176  1.00  0.00    -0.000 C 
BRANCH  28  29
ATOM     29  C   UNL     1       2.292 -37.891  16.739  1.00  0.00    -0.000 C 
BRANCH  29  30
ATOM     30  C   UNL     1       2.172 -38.133  18.251  1.00  0.00    -0.000 C 
BRANCH  30  31
ATOM     31  C   UNL     1       0.749 -38.528  18.672  1.00  0.00    -0.003 C 
ATOM     32  C   UNL     1      -0.293 -37.475  18.293  1.00  0.00     0.004 C 
ENDBRANCH  30  31
ENDBRANCH  29  30
ENDBRANCH  28  29
ENDBRANCH  27  28
ENDBRANCH  26  27
ENDBRANCH  25  26
ENDBRANCH  24  25
ENDBRANCH  23  24
ENDBRANCH  22  23
ENDBRANCH  21  22
ENDBRANCH  20  21
ENDBRANCH  19  20
ENDBRANCH  18  19
ENDBRANCH   1  18
TORSDOF 28
ENDMDL
MODEL 6
REMARK VINA RESULT:     8.072      2.758      9.135
REMARK INTER + INTRA:          19.581
REMARK INTER:                  19.138
REMARK INTRA:                   0.443
REMARK UNBOUND:                -1.702
REMARK SMILES CCCCCCCCCCCCCCCCCCCCCCCCCCCCCC(=O)[O-]
REMARK SMILES IDX 16 1 17 2 18 3 19 4 20 5 21 6 22 7 23 8 24 9 25 10 26 11
REMARK SMILES IDX 27 12 28 13 29 14 30 15 31 16 32 17 15 18 14 19 13 20 12 21
REMARK SMILES IDX 11 22 10 23 9 24 8 25 7 26 6 27 5 28 4 29 3 30 2 31 1 32
REMARK H PARENT
REMARK Flexibility Score: inf
ROOT
ATOM      1  C   UNL     1       4.971 -34.721  18.071  1.00  0.00     0.000 C 
ENDROOT
BRANCH   1   2
ATOM      2  C   UNL     1       4.452 -35.622  16.929  1.00  0.00     0.000 C 
BRANCH   2   3
ATOM      3  C   UNL     1       3.082 -35.189  16.378  1.00  0.00     0.000 C 
BRANCH   3   4
ATOM      4  C   UNL     1       2.838 -35.676  14.945  1.00  0.00     0.000 C 
BRANCH   4   5
ATOM      5  C   UNL     1       2.518 -37.179  14.917  1.00  0.00     0.000 C 
BRANCH   5   6
ATOM      6  C   UNL     1       3.361 -37.990  15.918  1.00  0.00     0.000 C 
BRANCH   6   7
ATOM      7  C   UNL     1       2.652 -38.323  17.243  1.00  0.00     0.000 C 
BRANCH   7   8
ATOM      8  C   UNL     1       1.505 -37.355  17.571  1.00  0.00     0.000 C 
BRANCH   8   9
ATOM      9  C   UNL     1       0.891 -37.673  18.941  1.00  0.00     0.000 C 
BRANCH   9  10
ATOM     10  C   UNL     1       1.982 -38.021  19.963  1.00  0.00     0.000 C 
BRANCH  10  11
ATOM     11  C   UNL     1       2.096 -36.988  21.098  1.00  0.00     0.000 C 
BRANCH  11  12
ATOM     12  C   UNL     1       2.975 -35.763  20.781  1.00  0.00     0.000 C 
BRANCH  12  13
ATOM     13  C   UNL     1       3.478 -35.040  22.038  1.00  0.00     0.006 C 
BRANCH  13  14
ATOM     14  C   UNL     1       4.904 -34.517  21.834  1.00  0.00     0.053 C 
BRANCH  14  15
ATOM     15  C   UNL     1       5.585 -34.309  23.151  1.00  0.00     0.041 C 
ATOM     16  O   UNL     1       6.006 -35.296  23.811  1.00  0.00    -0.550 OA
ATOM     17  O   UNL     1       5.753 -33.022  23.652  1.00  0.00    -0.550 OA
ENDBRANCH  14  15
ENDBRANCH  13  14
ENDBRANCH  12  13
ENDBRANCH  11  12
ENDBRANCH  10  11
ENDBRANCH   9  10
ENDBRANCH   8   9
ENDBRANCH   7   8
ENDBRANCH   6   7
ENDBRANCH   5   6
ENDBRANCH   4   5
ENDBRANCH   3   4
ENDBRANCH   2   3
ENDBRANCH   1   2
BRANCH   1  18
ATOM     18  C   UNL     1       5.930 -35.474  19.014  1.00  0.00     0.000 C 
BRANCH  18  19
ATOM     19  C   UNL     1       5.453 -36.913  19.304  1.00  0.00     0.000 C 
BRANCH  19  20
ATOM     20  C   UNL     1       5.773 -37.397  20.729  1.00  0.00     0.000 C 
BRANCH  20  21
ATOM     21  C   UNL     1       5.778 -38.929  20.848  1.00  0.00     0.000 C 
BRANCH  21  22
ATOM     22  C   UNL     1       4.837 -39.444  21.950  1.00  0.00     0.000 C 
BRANCH  22  23
ATOM     23  C   UNL     1       5.593 -39.938  23.193  1.00  0.00     0.000 C 
BRANCH  23  24
ATOM     24  C   UNL     1       5.070 -39.252  24.465  1.00  0.00    -0.000 C 
BRANCH  24  25
ATOM     25  C   UNL     1       5.542 -37.794  24.592  1.00  0.00    -0.000 C 
BRANCH  25  26
ATOM     26  C   UNL     1       4.860 -37.049  25.750  1.00  0.00    -0.000 C 
BRANCH  26  27
ATOM     27  C   UNL     1       4.144 -38.033  26.688  1.00  0.00    -0.000 C 
BRANCH  27  28
ATOM     28  C   UNL     1       2.620 -38.028  26.498  1.00  0.00    -0.000 C 
BRANCH  28  29
ATOM     29  C   UNL     1       1.871 -37.451  27.710  1.00  0.00    -0.000 C 
BRANCH  29  30
ATOM     30  C   UNL     1       2.115 -35.940  27.838  1.00  0.00    -0.000 C 
BRANCH  30  31
ATOM     31  C   UNL     1       1.645 -35.382  29.190  1.00  0.00    -0.003 C 
ATOM     32  C   UNL     1       1.756 -33.859  29.270  1.00  0.00     0.004 C 
ENDBRANCH  30  31
ENDBRANCH  29  30
ENDBRANCH  28  29
ENDBRANCH  27  28
ENDBRANCH  26  27
ENDBRANCH  25  26
ENDBRANCH  24  25
ENDBRANCH  23  24
ENDBRANCH  22  23
ENDBRANCH  21  22
ENDBRANCH  20  21
ENDBRANCH  19  20
ENDBRANCH  18  19
ENDBRANCH   1  18
TORSDOF 28
ENDMDL
MODEL 7
REMARK VINA RESULT:     8.435      4.180     10.029
REMARK INTER + INTRA:          20.539
REMARK INTER:                  18.829
REMARK INTRA:                   1.710
REMARK UNBOUND:                -1.702
REMARK SMILES CCCCCCCCCCCCCCCCCCCCCCCCCCCCCC(=O)[O-]
REMARK SMILES IDX 16 1 17 2 18 3 19 4 20 5 21 6 22 7 23 8 24 9 25 10 26 11
REMARK SMILES IDX 27 12 28 13 29 14 30 15 31 16 32 17 15 18 14 19 13 20 12 21
REMARK SMILES IDX 11 22 10 23 9 24 8 25 7 26 6 27 5 28 4 29 3 30 2 31 1 32
REMARK H PARENT
REMARK Flexibility Score: inf
ROOT
ATOM      1  C   UNL     1       5.202 -37.663  20.343  1.00  0.00     0.000 C 
ENDROOT
BRANCH   1   2
ATOM      2  C   UNL     1       4.897 -36.388  19.527  1.00  0.00     0.000 C 
BRANCH   2   3
ATOM      3  C   UNL     1       5.989 -35.310  19.639  1.00  0.00     0.000 C 
BRANCH   3   4
ATOM      4  C   UNL     1       6.125 -34.747  21.059  1.00  0.00     0.000 C 
BRANCH   4   5
ATOM      5  C   UNL     1       5.167 -35.456  22.029  1.00  0.00     0.000 C 
BRANCH   5   6
ATOM      6  C   UNL     1       3.959 -34.586  22.424  1.00  0.00     0.000 C 
BRANCH   6   7
ATOM      7  C   UNL     1       2.643 -34.941  21.708  1.00  0.00     0.000 C 
BRANCH   7   8
ATOM      8  C   UNL     1       2.534 -36.432  21.355  1.00  0.00     0.000 C 
BRANCH   8   9
ATOM      9  C   UNL     1       2.211 -36.622  19.867  1.00  0.00     0.000 C 
BRANCH   9  10
ATOM     10  C   UNL     1       1.414 -37.915  19.640  1.00  0.00     0.000 C 
BRANCH  10  11
ATOM     11  C   UNL     1       0.539 -37.870  18.374  1.00  0.00     0.000 C 
BRANCH  11  12
ATOM     12  C   UNL     1       1.291 -37.531  17.073  1.00  0.00     0.000 C 
BRANCH  12  13
ATOM     13  C   UNL     1       2.789 -37.859  17.139  1.00  0.00     0.006 C 
BRANCH  13  14
ATOM     14  C   UNL     1       3.394 -37.938  15.733  1.00  0.00     0.053 C 
BRANCH  14  15
ATOM     15  C   UNL     1       2.884 -36.823  14.874  1.00  0.00     0.041 C 
ATOM     16  O   UNL     1       1.701 -36.410  15.007  1.00  0.00    -0.550 OA
ATOM     17  O   UNL     1       3.716 -36.240  13.923  1.00  0.00    -0.550 OA
ENDBRANCH  14  15
ENDBRANCH  13  14
ENDBRANCH  12  13
ENDBRANCH  11  12
ENDBRANCH  10  11
ENDBRANCH   9  10
ENDBRANCH   8   9
ENDBRANCH   7   8
ENDBRANCH   6   7
ENDBRANCH   5   6
ENDBRANCH   4   5
ENDBRANCH   3   4
ENDBRANCH   2   3
ENDBRANCH   1   2
BRANCH   1  18
ATOM     18  C   UNL     1       5.820 -38.775  19.473  1.00  0.00     0.000 C 
BRANCH  18  19
ATOM     19  C   UNL     1       6.014 -40.091  20.257  1.00  0.00     0.000 C 
BRANCH  19  20
ATOM     20  C   UNL     1       6.125 -39.895  21.779  1.00  0.00     0.000 C 
BRANCH  20  21
ATOM     21  C   UNL     1       4.791 -40.129  22.505  1.00  0.00     0.000 C 
BRANCH  21  22
ATOM     22  C   UNL     1       4.726 -39.427  23.872  1.00  0.00     0.000 C 
BRANCH  22  23
ATOM     23  C   UNL     1       5.916 -38.485  24.113  1.00  0.00     0.000 C 
BRANCH  23  24
ATOM     24  C   UNL     1       5.435 -37.076  24.491  1.00  0.00    -0.000 C 
BRANCH  24  25
ATOM     25  C   UNL     1       5.636 -36.758  25.982  1.00  0.00    -0.000 C 
BRANCH  25  26
ATOM     26  C   UNL     1       4.699 -37.568  26.892  1.00  0.00    -0.000 C 
BRANCH  26  27
ATOM     27  C   UNL     1       3.247 -37.487  26.394  1.00  0.00    -0.000 C 
BRANCH  27  28
ATOM     28  C   UNL     1       2.224 -37.775  27.503  1.00  0.00    -0.000 C 
BRANCH  28  29
ATOM     29  C   UNL     1       1.350 -36.555  27.838  1.00  0.00    -0.000 C 
BRANCH  29  30
ATOM     30  C   UNL     1       2.170 -35.472  28.554  1.00  0.00    -0.000 C 
BRANCH  30  31
ATOM     31  C   UNL     1       1.284 -34.446  29.276  1.00  0.00    -0.003 C 
ATOM     32  C   UNL     1       2.028 -33.698  30.383  1.00  0.00     0.004 C 
ENDBRANCH  30  31
ENDBRANCH  29  30
ENDBRANCH  28  29
ENDBRANCH  27  28
ENDBRANCH  26  27
ENDBRANCH  25  26
ENDBRANCH  24  25
ENDBRANCH  23  24
ENDBRANCH  22  23
ENDBRANCH  21  22
ENDBRANCH  20  21
ENDBRANCH  19  20
ENDBRANCH  18  19
ENDBRANCH   1  18
TORSDOF 28
ENDMDL
MODEL 8
REMARK VINA RESULT:     8.514      2.055      4.044
REMARK INTER + INTRA:          20.748
REMARK INTER:                  19.919
REMARK INTRA:                   0.828
REMARK UNBOUND:                -1.702
REMARK SMILES CCCCCCCCCCCCCCCCCCCCCCCCCCCCCC(=O)[O-]
REMARK SMILES IDX 16 1 17 2 18 3 19 4 20 5 21 6 22 7 23 8 24 9 25 10 26 11
REMARK SMILES IDX 27 12 28 13 29 14 30 15 31 16 32 17 15 18 14 19 13 20 12 21
REMARK SMILES IDX 11 22 10 23 9 24 8 25 7 26 6 27 5 28 4 29 3 30 2 31 1 32
REMARK H PARENT
REMARK Flexibility Score: inf
ROOT
ATOM      1  C   UNL     1       5.043 -36.674  22.779  1.00  0.00     0.000 C 
ENDROOT
BRANCH   1   2
ATOM      2  C   UNL     1       6.125 -37.332  21.895  1.00  0.00     0.000 C 
BRANCH   2   3
ATOM      3  C   UNL     1       5.603 -38.518  21.064  1.00  0.00     0.000 C 
BRANCH   3   4
ATOM      4  C   UNL     1       5.788 -39.866  21.772  1.00  0.00     0.000 C 
BRANCH   4   5
ATOM      5  C   UNL     1       4.665 -40.114  22.791  1.00  0.00     0.000 C 
BRANCH   5   6
ATOM      6  C   UNL     1       5.182 -40.679  24.127  1.00  0.00     0.000 C 
BRANCH   6   7
ATOM      7  C   UNL     1       5.275 -39.654  25.273  1.00  0.00     0.000 C 
BRANCH   7   8
ATOM      8  C   UNL     1       5.184 -38.200  24.786  1.00  0.00     0.000 C 
BRANCH   8   9
ATOM      9  C   UNL     1       5.565 -37.221  25.905  1.00  0.00     0.000 C 
BRANCH   9  10
ATOM     10  C   UNL     1       4.313 -36.593  26.533  1.00  0.00     0.000 C 
BRANCH  10  11
ATOM     11  C   UNL     1       3.034 -37.411  26.275  1.00  0.00     0.000 C 
BRANCH  11  12
ATOM     12  C   UNL     1       2.174 -37.689  27.523  1.00  0.00     0.000 C 
BRANCH  12  13
ATOM     13  C   UNL     1       1.343 -36.476  27.964  1.00  0.00     0.006 C 
BRANCH  13  14
ATOM     14  C   UNL     1       2.248 -35.343  28.460  1.00  0.00     0.053 C 
BRANCH  14  15
ATOM     15  C   UNL     1       1.512 -34.461  29.420  1.00  0.00     0.041 C 
ATOM     16  O   UNL     1       2.127 -33.896  30.363  1.00  0.00    -0.550 OA
ATOM     17  O   UNL     1       0.142 -34.263  29.274  1.00  0.00    -0.550 OA
ENDBRANCH  14  15
ENDBRANCH  13  14
ENDBRANCH  12  13
ENDBRANCH  11  12
ENDBRANCH  10  11
ENDBRANCH   9  10
ENDBRANCH   8   9
ENDBRANCH   7   8
ENDBRANCH   6   7
ENDBRANCH   5   6
ENDBRANCH   4   5
ENDBRANCH   3   4
ENDBRANCH   2   3
ENDBRANCH   1   2
BRANCH   1  18
ATOM     18  C   UNL     1       5.384 -35.211  23.121  1.00  0.00     0.000 C 
BRANCH  18  19
ATOM     19  C   UNL     1       4.409 -34.214  22.459  1.00  0.00     0.000 C 
BRANCH  19  20
ATOM     20  C   UNL     1       4.315 -34.360  20.931  1.00  0.00     0.000 C 
BRANCH  20  21
ATOM     21  C   UNL     1       5.652 -34.768  20.291  1.00  0.00     0.000 C 
BRANCH  21  22
ATOM     22  C   UNL     1       5.658 -34.598  18.763  1.00  0.00     0.000 C 
BRANCH  22  23
ATOM     23  C   UNL     1       4.418 -35.211  18.093  1.00  0.00     0.000 C 
BRANCH  23  24
ATOM     24  C   UNL     1       4.383 -36.734  18.290  1.00  0.00    -0.000 C 
BRANCH  24  25
ATOM     25  C   UNL     1       3.408 -37.169  19.397  1.00  0.00    -0.000 C 
BRANCH  25  26
ATOM     26  C   UNL     1       2.432 -38.261  18.933  1.00  0.00    -0.000 C 
BRANCH  26  27
ATOM     27  C   UNL     1       1.009 -37.699  18.793  1.00  0.00    -0.000 C 
BRANCH  27  28
ATOM     28  C   UNL     1       0.655 -37.337  17.342  1.00  0.00    -0.000 C 
BRANCH  28  29
ATOM     29  C   UNL     1       1.892 -37.240  16.435  1.00  0.00    -0.000 C 
BRANCH  29  30
ATOM     30  C   UNL     1       1.537 -36.593  15.088  1.00  0.00    -0.000 C 
BRANCH  30  31
ATOM     31  C   UNL     1       2.685 -36.686  14.071  1.00  0.00    -0.003 C 
ATOM     32  C   UNL     1       4.007 -37.111  14.711  1.00  0.00     0.004 C 
ENDBRANCH  30  31
ENDBRANCH  29  30
ENDBRANCH  28  29
ENDBRANCH  27  28
ENDBRANCH  26  27
ENDBRANCH  25  26
ENDBRANCH  24  25
ENDBRANCH  23  24
ENDBRANCH  22  23
ENDBRANCH  21  22
ENDBRANCH  20  21
ENDBRANCH  19  20
ENDBRANCH  18  19
ENDBRANCH   1  18
TORSDOF 28
ENDMDL
