MODEL 1
REMARK VINA RESULT:    -6.002      0.000      0.000
REMARK INTER + INTRA:          -8.751
REMARK INTER:                  -8.107
REMARK INTRA:                  -0.644
REMARK UNBOUND:                -0.644
REMARK SMILES COc1ccc(-c2cc(=O)c3c(OC)c(OC)c(OC)c(OC)c3o2)cc1
REMARK SMILES IDX 7 1 8 2 9 3 10 4 11 5 24 6 25 7 21 8 18 9 15 10 12 11 6 12
REMARK SMILES IDX 3 13 4 14 27 15 5 16 26 17 2 18 1 19 22 20 23 21 13 22 14 23
REMARK SMILES IDX 19 24 20 25 16 26 17 27
REMARK H PARENT
REMARK Flexibility Score: inf
ROOT
ATOM      1  C   UNL     1      17.036  24.603  32.805  1.00  0.00     0.138 A 
ATOM      2  C   UNL     1      17.925  25.582  33.272  1.00  0.00     0.100 A 
ATOM      3  C   UNL     1      17.454  26.871  33.522  1.00  0.00     0.197 A 
ATOM      4  O   UNL     1      18.262  27.741  33.945  1.00  0.00    -0.289 OA
ATOM      5  C   UNL     1      16.090  27.170  33.309  1.00  0.00     0.115 A 
ATOM      6  C   UNL     1      15.256  26.132  32.844  1.00  0.00     0.188 A 
ATOM      7  O   UNL     1      15.758  24.919  32.620  1.00  0.00    -0.452 OA
ATOM      8  C   UNL     1      13.896  26.353  32.598  1.00  0.00     0.209 A 
ATOM      9  C   UNL     1      13.330  27.628  32.854  1.00  0.00     0.211 A 
ATOM     10  C   UNL     1      14.158  28.663  33.362  1.00  0.00     0.208 A 
ATOM     11  C   UNL     1      15.543  28.451  33.525  1.00  0.00     0.179 A 
ENDROOT
BRANCH   1  12
ATOM     12  C   UNL     1      17.476  23.213  32.525  1.00  0.00     0.018 A 
ATOM     13  C   UNL     1      18.317  20.557  32.058  1.00  0.00     0.118 A 
ATOM     14  C   UNL     1      18.490  21.145  33.315  1.00  0.00     0.047 A 
ATOM     15  C   UNL     1      17.709  21.302  31.031  1.00  0.00     0.047 A 
ATOM     16  C   UNL     1      18.071  22.457  33.550  1.00  0.00     0.016 A 
ATOM     17  C   UNL     1      17.290  22.615  31.265  1.00  0.00     0.016 A 
BRANCH  13  18
ATOM     18  O   UNL     1      18.757  19.238  31.872  1.00  0.00    -0.497 OA
ATOM     19  C   UNL     1      17.910  18.094  31.916  1.00  0.00     0.278 C 
ENDBRANCH  13  18
ENDBRANCH   1  12
BRANCH   8  20
ATOM     20  O   UNL     1      13.166  25.253  32.104  1.00  0.00    -0.490 OA
ATOM     21  C   UNL     1      12.193  24.485  32.805  1.00  0.00     0.278 C 
ENDBRANCH   8  20
BRANCH  11  22
ATOM     22  O   UNL     1      16.381  29.510  33.892  1.00  0.00    -0.492 OA
ATOM     23  C   UNL     1      16.745  30.541  32.979  1.00  0.00     0.278 C 
ENDBRANCH  11  22
BRANCH   9  24
ATOM     24  O   UNL     1      11.956  27.811  32.605  1.00  0.00    -0.490 OA
ATOM     25  C   UNL     1      11.344  28.194  31.378  1.00  0.00     0.279 C 
ENDBRANCH   9  24
BRANCH  10  26
ATOM     26  O   UNL     1      13.599  29.896  33.716  1.00  0.00    -0.490 OA
ATOM     27  C   UNL     1      13.027  30.143  34.997  1.00  0.00     0.278 C 
ENDBRANCH  10  26
TORSDOF 6
ENDMDL
MODEL 2
REMARK VINA RESULT:    -5.953      2.085      2.327
REMARK INTER + INTRA:          -8.686
REMARK INTER:                  -7.969
REMARK INTRA:                  -0.717
REMARK UNBOUND:                -0.644
REMARK SMILES COc1ccc(-c2cc(=O)c3c(OC)c(OC)c(OC)c(OC)c3o2)cc1
REMARK SMILES IDX 7 1 8 2 9 3 10 4 11 5 24 6 25 7 21 8 18 9 15 10 12 11 6 12
REMARK SMILES IDX 3 13 4 14 27 15 5 16 26 17 2 18 1 19 22 20 23 21 13 22 14 23
REMARK SMILES IDX 19 24 20 25 16 26 17 27
REMARK H PARENT
REMARK Flexibility Score: inf
ROOT
ATOM      1  C   UNL     1      16.751  24.237  32.213  1.00  0.00     0.138 A 
ATOM      2  C   UNL     1      16.858  25.024  33.369  1.00  0.00     0.100 A 
ATOM      3  C   UNL     1      16.286  26.296  33.385  1.00  0.00     0.197 A 
ATOM      4  O   UNL     1      16.385  26.992  34.431  1.00  0.00    -0.289 OA
ATOM      5  C   UNL     1      15.604  26.770  32.243  1.00  0.00     0.115 A 
ATOM      6  C   UNL     1      15.533  25.918  31.121  1.00  0.00     0.188 A 
ATOM      7  O   UNL     1      16.098  24.713  31.158  1.00  0.00    -0.452 OA
ATOM      8  C   UNL     1      14.883  26.321  29.948  1.00  0.00     0.209 A 
ATOM      9  C   UNL     1      14.250  27.589  29.891  1.00  0.00     0.211 A 
ATOM     10  C   UNL     1      14.282  28.431  31.034  1.00  0.00     0.208 A 
ATOM     11  C   UNL     1      15.012  28.048  32.179  1.00  0.00     0.179 A 
ENDROOT
BRANCH   1  12
ATOM     12  C   UNL     1      17.336  22.873  32.136  1.00  0.00     0.018 A 
ATOM     13  C   UNL     1      18.449  20.279  32.055  1.00  0.00     0.118 A 
ATOM     14  C   UNL     1      18.542  21.055  33.215  1.00  0.00     0.047 A 
ATOM     15  C   UNL     1      17.785  20.803  30.931  1.00  0.00     0.047 A 
ATOM     16  C   UNL     1      17.988  22.338  33.258  1.00  0.00     0.016 A 
ATOM     17  C   UNL     1      17.230  22.085  30.974  1.00  0.00     0.016 A 
BRANCH  13  18
ATOM     18  O   UNL     1      19.025  18.999  32.061  1.00  0.00    -0.497 OA
ATOM     19  C   UNL     1      18.282  17.785  32.063  1.00  0.00     0.278 C 
ENDBRANCH  13  18
ENDBRANCH   1  12
BRANCH   8  20
ATOM     20  O   UNL     1      14.903  25.403  28.879  1.00  0.00    -0.490 OA
ATOM     21  C   UNL     1      15.662  25.502  27.678  1.00  0.00     0.278 C 
ENDBRANCH   8  20
BRANCH  11  22
ATOM     22  O   UNL     1      15.161  28.936  33.250  1.00  0.00    -0.492 OA
ATOM     23  C   UNL     1      16.026  30.066  33.185  1.00  0.00     0.278 C 
ENDBRANCH  11  22
BRANCH   9  24
ATOM     24  O   UNL     1      13.598  27.957  28.699  1.00  0.00    -0.490 OA
ATOM     25  C   UNL     1      12.250  27.685  28.331  1.00  0.00     0.279 C 
ENDBRANCH   9  24
BRANCH  10  26
ATOM     26  O   UNL     1      13.579  29.641  31.032  1.00  0.00    -0.490 OA
ATOM     27  C   UNL     1      12.242  29.754  31.510  1.00  0.00     0.278 C 
ENDBRANCH  10  26
TORSDOF 6
ENDMDL
MODEL 3
REMARK VINA RESULT:    -5.922      1.846      3.417
REMARK INTER + INTRA:          -8.643
REMARK INTER:                  -8.123
REMARK INTRA:                  -0.520
REMARK UNBOUND:                -0.644
REMARK SMILES COc1ccc(-c2cc(=O)c3c(OC)c(OC)c(OC)c(OC)c3o2)cc1
REMARK SMILES IDX 7 1 8 2 9 3 10 4 11 5 24 6 25 7 21 8 18 9 15 10 12 11 6 12
REMARK SMILES IDX 3 13 4 14 27 15 5 16 26 17 2 18 1 19 22 20 23 21 13 22 14 23
REMARK SMILES IDX 19 24 20 25 16 26 17 27
REMARK H PARENT
REMARK Flexibility Score: inf
ROOT
ATOM      1  C   UNL     1      17.037  24.113  32.888  1.00  0.00     0.138 A 
ATOM      2  C   UNL     1      15.985  24.311  33.794  1.00  0.00     0.100 A 
ATOM      3  C   UNL     1      15.558  25.609  34.075  1.00  0.00     0.197 A 
ATOM      4  O   UNL     1      14.609  25.772  34.887  1.00  0.00    -0.289 OA
ATOM      5  C   UNL     1      16.187  26.703  33.441  1.00  0.00     0.115 A 
ATOM      6  C   UNL     1      17.234  26.425  32.538  1.00  0.00     0.188 A 
ATOM      7  O   UNL     1      17.603  25.166  32.307  1.00  0.00    -0.452 OA
ATOM      8  C   UNL     1      17.913  27.457  31.878  1.00  0.00     0.209 A 
ATOM      9  C   UNL     1      17.523  28.804  32.087  1.00  0.00     0.211 A 
ATOM     10  C   UNL     1      16.441  29.085  32.962  1.00  0.00     0.208 A 
ATOM     11  C   UNL     1      15.822  28.043  33.684  1.00  0.00     0.179 A 
ENDROOT
BRANCH   1  12
ATOM     12  C   UNL     1      17.533  22.756  32.545  1.00  0.00     0.018 A 
ATOM     13  C   UNL     1      18.481  20.161  31.957  1.00  0.00     0.118 A 
ATOM     14  C   UNL     1      18.679  20.719  33.224  1.00  0.00     0.047 A 
ATOM     15  C   UNL     1      17.794  20.906  30.980  1.00  0.00     0.047 A 
ATOM     16  C   UNL     1      18.207  22.001  33.518  1.00  0.00     0.016 A 
ATOM     17  C   UNL     1      17.322  22.188  31.274  1.00  0.00     0.016 A 
BRANCH  13  18
ATOM     18  O   UNL     1      18.977  18.872  31.710  1.00  0.00    -0.497 OA
ATOM     19  C   UNL     1      18.290  17.670  32.041  1.00  0.00     0.278 C 
ENDBRANCH  13  18
ENDBRANCH   1  12
BRANCH   8  20
ATOM     20  O   UNL     1      18.964  27.065  31.025  1.00  0.00    -0.490 OA
ATOM     21  C   UNL     1      18.907  26.910  29.611  1.00  0.00     0.278 C 
ENDBRANCH   8  20
BRANCH  11  22
ATOM     22  O   UNL     1      14.852  28.333  34.650  1.00  0.00    -0.492 OA
ATOM     23  C   UNL     1      13.544  28.777  34.303  1.00  0.00     0.278 C 
ENDBRANCH  11  22
BRANCH   9  24
ATOM     24  O   UNL     1      18.222  29.816  31.399  1.00  0.00    -0.490 OA
ATOM     25  C   UNL     1      17.839  30.462  30.191  1.00  0.00     0.279 C 
ENDBRANCH   9  24
BRANCH  10  26
ATOM     26  O   UNL     1      15.977  30.397  33.103  1.00  0.00    -0.490 OA
ATOM     27  C   UNL     1      16.514  31.305  34.060  1.00  0.00     0.278 C 
ENDBRANCH  10  26
TORSDOF 6
ENDMDL
MODEL 4
REMARK VINA RESULT:    -5.908      1.627      1.887
REMARK INTER + INTRA:          -8.624
REMARK INTER:                  -8.022
REMARK INTRA:                  -0.602
REMARK UNBOUND:                -0.644
REMARK SMILES COc1ccc(-c2cc(=O)c3c(OC)c(OC)c(OC)c(OC)c3o2)cc1
REMARK SMILES IDX 7 1 8 2 9 3 10 4 11 5 24 6 25 7 21 8 18 9 15 10 12 11 6 12
REMARK SMILES IDX 3 13 4 14 27 15 5 16 26 17 2 18 1 19 22 20 23 21 13 22 14 23
REMARK SMILES IDX 19 24 20 25 16 26 17 27
REMARK H PARENT
REMARK Flexibility Score: inf
ROOT
ATOM      1  C   UNL     1      16.839  24.388  31.770  1.00  0.00     0.138 A 
ATOM      2  C   UNL     1      17.594  25.396  31.153  1.00  0.00     0.100 A 
ATOM      3  C   UNL     1      17.053  26.676  31.028  1.00  0.00     0.197 A 
ATOM      4  O   UNL     1      17.742  27.574  30.475  1.00  0.00    -0.289 OA
ATOM      5  C   UNL     1      15.759  26.939  31.528  1.00  0.00     0.115 A 
ATOM      6  C   UNL     1      15.064  25.876  32.141  1.00  0.00     0.188 A 
ATOM      7  O   UNL     1      15.626  24.673  32.234  1.00  0.00    -0.452 OA
ATOM      8  C   UNL     1      13.772  26.057  32.652  1.00  0.00     0.209 A 
ATOM      9  C   UNL     1      13.161  27.334  32.590  1.00  0.00     0.211 A 
ATOM     10  C   UNL     1      13.874  28.417  32.012  1.00  0.00     0.208 A 
ATOM     11  C   UNL     1      15.140  28.202  31.426  1.00  0.00     0.179 A 
ENDROOT
BRANCH   1  12
ATOM     12  C   UNL     1      17.362  23.008  31.937  1.00  0.00     0.018 A 
ATOM     13  C   UNL     1      18.357  20.377  32.189  1.00  0.00     0.118 A 
ATOM     14  C   UNL     1      17.788  20.808  30.987  1.00  0.00     0.047 A 
ATOM     15  C   UNL     1      18.437  21.274  33.270  1.00  0.00     0.047 A 
ATOM     16  C   UNL     1      17.299  22.111  30.858  1.00  0.00     0.016 A 
ATOM     17  C   UNL     1      17.948  22.577  33.142  1.00  0.00     0.016 A 
BRANCH  13  18
ATOM     18  O   UNL     1      18.831  19.058  32.267  1.00  0.00    -0.497 OA
ATOM     19  C   UNL     1      18.057  17.906  31.947  1.00  0.00     0.278 C 
ENDBRANCH  13  18
ENDBRANCH   1  12
BRANCH   8  20
ATOM     20  O   UNL     1      13.160  24.917  33.212  1.00  0.00    -0.490 OA
ATOM     21  C   UNL     1      12.041  24.204  32.697  1.00  0.00     0.278 C 
ENDBRANCH   8  20
BRANCH  11  22
ATOM     22  O   UNL     1      15.781  29.235  30.734  1.00  0.00    -0.492 OA
ATOM     23  C   UNL     1      15.350  29.668  29.447  1.00  0.00     0.278 C 
ENDBRANCH  11  22
BRANCH   9  24
ATOM     24  O   UNL     1      11.865  27.481  33.122  1.00  0.00    -0.490 OA
ATOM     25  C   UNL     1      10.637  27.528  32.406  1.00  0.00     0.279 C 
ENDBRANCH   9  24
BRANCH  10  26
ATOM     26  O   UNL     1      13.329  29.705  32.033  1.00  0.00    -0.490 OA
ATOM     27  C   UNL     1      13.507  30.598  33.128  1.00  0.00     0.278 C 
ENDBRANCH  10  26
TORSDOF 6
ENDMDL
MODEL 5
REMARK VINA RESULT:    -5.781      2.990      3.764
REMARK INTER + INTRA:          -8.454
REMARK INTER:                  -7.958
REMARK INTRA:                  -0.495
REMARK UNBOUND:                -0.644
REMARK SMILES COc1ccc(-c2cc(=O)c3c(OC)c(OC)c(OC)c(OC)c3o2)cc1
REMARK SMILES IDX 7 1 8 2 9 3 10 4 11 5 24 6 25 7 21 8 18 9 15 10 12 11 6 12
REMARK SMILES IDX 3 13 4 14 27 15 5 16 26 17 2 18 1 19 22 20 23 21 13 22 14 23
REMARK SMILES IDX 19 24 20 25 16 26 17 27
REMARK H PARENT
REMARK Flexibility Score: inf
ROOT
ATOM      1  C   UNL     1      16.221  24.229  31.609  1.00  0.00     0.138 A 
ATOM      2  C   UNL     1      15.665  24.953  32.674  1.00  0.00     0.100 A 
ATOM      3  C   UNL     1      14.959  26.126  32.409  1.00  0.00     0.197 A 
ATOM      4  O   UNL     1      14.461  26.765  33.374  1.00  0.00    -0.289 OA
ATOM      5  C   UNL     1      14.809  26.565  31.075  1.00  0.00     0.115 A 
ATOM      6  C   UNL     1      15.391  25.781  30.057  1.00  0.00     0.188 A 
ATOM      7  O   UNL     1      16.056  24.670  30.365  1.00  0.00    -0.452 OA
ATOM      8  C   UNL     1      15.294  26.157  28.712  1.00  0.00     0.209 A 
ATOM      9  C   UNL     1      14.569  27.321  28.354  1.00  0.00     0.211 A 
ATOM     10  C   UNL     1      13.946  28.089  29.372  1.00  0.00     0.208 A 
ATOM     11  C   UNL     1      14.122  27.747  30.730  1.00  0.00     0.179 A 
ENDROOT
BRANCH   1  12
ATOM     12  C   UNL     1      16.979  22.971  31.826  1.00  0.00     0.018 A 
ATOM     13  C   UNL     1      18.425  20.569  32.174  1.00  0.00     0.118 A 
ATOM     14  C   UNL     1      17.807  20.855  30.952  1.00  0.00     0.047 A 
ATOM     15  C   UNL     1      18.326  21.498  33.225  1.00  0.00     0.047 A 
ATOM     16  C   UNL     1      17.095  22.044  30.776  1.00  0.00     0.016 A 
ATOM     17  C   UNL     1      17.614  22.688  33.050  1.00  0.00     0.016 A 
BRANCH  13  18
ATOM     18  O   UNL     1      19.125  19.360  32.300  1.00  0.00    -0.497 OA
ATOM     19  C   UNL     1      18.538  18.072  32.144  1.00  0.00     0.278 C 
ENDBRANCH  13  18
ENDBRANCH   1  12
BRANCH   8  20
ATOM     20  O   UNL     1      15.942  25.317  27.783  1.00  0.00    -0.490 OA
ATOM     21  C   UNL     1      15.377  24.734  26.614  1.00  0.00     0.278 C 
ENDBRANCH   8  20
BRANCH  11  22
ATOM     22  O   UNL     1      13.627  28.581  31.738  1.00  0.00    -0.492 OA
ATOM     23  C   UNL     1      14.231  29.832  32.053  1.00  0.00     0.278 C 
ENDBRANCH  11  22
BRANCH   9  24
ATOM     24  O   UNL     1      14.485  27.663  26.990  1.00  0.00    -0.490 OA
ATOM     25  C   UNL     1      15.321  28.563  26.271  1.00  0.00     0.279 C 
ENDBRANCH   9  24
BRANCH  10  26
ATOM     26  O   UNL     1      13.143  29.184  29.032  1.00  0.00    -0.490 OA
ATOM     27  C   UNL     1      11.750  29.062  28.764  1.00  0.00     0.278 C 
ENDBRANCH  10  26
TORSDOF 6
ENDMDL
MODEL 6
REMARK VINA RESULT:    -5.562      1.816      3.487
REMARK INTER + INTRA:          -8.158
REMARK INTER:                  -7.443
REMARK INTRA:                  -0.715
REMARK UNBOUND:                -0.644
REMARK SMILES COc1ccc(-c2cc(=O)c3c(OC)c(OC)c(OC)c(OC)c3o2)cc1
REMARK SMILES IDX 7 1 8 2 9 3 10 4 11 5 24 6 25 7 21 8 18 9 15 10 12 11 6 12
REMARK SMILES IDX 3 13 4 14 27 15 5 16 26 17 2 18 1 19 22 20 23 21 13 22 14 23
REMARK SMILES IDX 19 24 20 25 16 26 17 27
REMARK H PARENT
REMARK Flexibility Score: inf
ROOT
ATOM      1  C   UNL     1      16.645  24.243  31.700  1.00  0.00     0.138 A 
ATOM      2  C   UNL     1      15.996  24.586  30.506  1.00  0.00     0.100 A 
ATOM      3  C   UNL     1      15.421  25.850  30.378  1.00  0.00     0.197 A 
ATOM      4  O   UNL     1      14.844  26.148  29.299  1.00  0.00    -0.289 OA
ATOM      5  C   UNL     1      15.506  26.767  31.449  1.00  0.00     0.115 A 
ATOM      6  C   UNL     1      16.180  26.352  32.616  1.00  0.00     0.188 A 
ATOM      7  O   UNL     1      16.710  25.132  32.686  1.00  0.00    -0.452 OA
ATOM      8  C   UNL     1      16.296  27.200  33.724  1.00  0.00     0.209 A 
ATOM      9  C   UNL     1      15.764  28.513  33.667  1.00  0.00     0.211 A 
ATOM     10  C   UNL     1      15.122  28.949  32.478  1.00  0.00     0.208 A 
ATOM     11  C   UNL     1      14.938  28.057  31.401  1.00  0.00     0.179 A 
ENDROOT
BRANCH   1  12
ATOM     12  C   UNL     1      17.280  22.914  31.894  1.00  0.00     0.018 A 
ATOM     13  C   UNL     1      18.490  20.380  32.197  1.00  0.00     0.118 A 
ATOM     14  C   UNL     1      17.897  20.742  30.984  1.00  0.00     0.047 A 
ATOM     15  C   UNL     1      18.487  21.298  33.263  1.00  0.00     0.047 A 
ATOM     16  C   UNL     1      17.301  21.997  30.830  1.00  0.00     0.016 A 
ATOM     17  C   UNL     1      17.892  22.554  33.110  1.00  0.00     0.016 A 
BRANCH  13  18
ATOM     18  O   UNL     1      19.072  19.107  32.301  1.00  0.00    -0.497 OA
ATOM     19  C   UNL     1      18.375  17.885  32.079  1.00  0.00     0.278 C 
ENDBRANCH  13  18
ENDBRANCH   1  12
BRANCH   8  20
ATOM     20  O   UNL     1      16.961  26.669  34.848  1.00  0.00    -0.490 OA
ATOM     21  C   UNL     1      18.356  26.724  35.125  1.00  0.00     0.278 C 
ENDBRANCH   8  20
BRANCH  11  22
ATOM     22  O   UNL     1      14.184  28.442  30.287  1.00  0.00    -0.492 OA
ATOM     23  C   UNL     1      12.767  28.578  30.340  1.00  0.00     0.278 C 
ENDBRANCH  11  22
BRANCH   9  24
ATOM     24  O   UNL     1      15.908  29.342  34.797  1.00  0.00    -0.490 OA
ATOM     25  C   UNL     1      16.995  30.208  35.100  1.00  0.00     0.279 C 
ENDBRANCH   9  24
BRANCH  10  26
ATOM     26  O   UNL     1      14.681  30.272  32.366  1.00  0.00    -0.490 OA
ATOM     27  C   UNL     1      15.501  31.316  31.850  1.00  0.00     0.278 C 
ENDBRANCH  10  26
TORSDOF 6
ENDMDL
MODEL 7
REMARK VINA RESULT:    -5.518      2.082      3.110
REMARK INTER + INTRA:          -8.098
REMARK INTER:                  -7.429
REMARK INTRA:                  -0.669
REMARK UNBOUND:                -0.644
REMARK SMILES COc1ccc(-c2cc(=O)c3c(OC)c(OC)c(OC)c(OC)c3o2)cc1
REMARK SMILES IDX 7 1 8 2 9 3 10 4 11 5 24 6 25 7 21 8 18 9 15 10 12 11 6 12
REMARK SMILES IDX 3 13 4 14 27 15 5 16 26 17 2 18 1 19 22 20 23 21 13 22 14 23
REMARK SMILES IDX 19 24 20 25 16 26 17 27
REMARK H PARENT
REMARK Flexibility Score: inf
ROOT
ATOM      1  C   UNL     1      16.104  24.506  31.484  1.00  0.00     0.138 A 
ATOM      2  C   UNL     1      16.087  24.941  30.150  1.00  0.00     0.100 A 
ATOM      3  C   UNL     1      15.338  26.066  29.807  1.00  0.00     0.197 A 
ATOM      4  O   UNL     1      15.334  26.449  28.607  1.00  0.00    -0.289 OA
ATOM      5  C   UNL     1      14.614  26.754  30.805  1.00  0.00     0.115 A 
ATOM      6  C   UNL     1      14.685  26.261  32.125  1.00  0.00     0.188 A 
ATOM      7  O   UNL     1      15.414  25.181  32.398  1.00  0.00    -0.452 OA
ATOM      8  C   UNL     1      13.986  26.882  33.167  1.00  0.00     0.209 A 
ATOM      9  C   UNL     1      13.223  28.049  32.909  1.00  0.00     0.211 A 
ATOM     10  C   UNL     1      13.184  28.573  31.590  1.00  0.00     0.208 A 
ATOM     11  C   UNL     1      13.823  27.890  30.534  1.00  0.00     0.179 A 
ENDROOT
BRANCH   1  12
ATOM     12  C   UNL     1      16.886  23.318  31.911  1.00  0.00     0.018 A 
ATOM     13  C   UNL     1      18.387  21.046  32.661  1.00  0.00     0.118 A 
ATOM     14  C   UNL     1      17.965  21.213  31.339  1.00  0.00     0.047 A 
ATOM     15  C   UNL     1      18.062  22.030  33.613  1.00  0.00     0.047 A 
ATOM     16  C   UNL     1      17.226  22.338  30.964  1.00  0.00     0.016 A 
ATOM     17  C   UNL     1      17.323  23.156  33.240  1.00  0.00     0.016 A 
BRANCH  13  18
ATOM     18  O   UNL     1      19.124  19.897  32.987  1.00  0.00    -0.497 OA
ATOM     19  C   UNL     1      18.961  18.632  32.353  1.00  0.00     0.278 C 
ENDBRANCH  13  18
ENDBRANCH   1  12
BRANCH   8  20
ATOM     20  O   UNL     1      14.103  26.284  34.438  1.00  0.00    -0.490 OA
ATOM     21  C   UNL     1      13.144  25.454  35.086  1.00  0.00     0.278 C 
ENDBRANCH   8  20
BRANCH  11  22
ATOM     22  O   UNL     1      13.669  28.328  29.214  1.00  0.00    -0.492 OA
ATOM     23  C   UNL     1      12.482  28.080  28.466  1.00  0.00     0.278 C 
ENDBRANCH  11  22
BRANCH   9  24
ATOM     24  O   UNL     1      12.541  28.653  33.983  1.00  0.00    -0.490 OA
ATOM     25  C   UNL     1      13.064  29.582  34.925  1.00  0.00     0.279 C 
ENDBRANCH   9  24
BRANCH  10  26
ATOM     26  O   UNL     1      12.520  29.779  31.335  1.00  0.00    -0.490 OA
ATOM     27  C   UNL     1      13.209  31.011  31.145  1.00  0.00     0.278 C 
ENDBRANCH  10  26
TORSDOF 6
ENDMDL
MODEL 8
REMARK VINA RESULT:    -5.200      3.486      5.464
REMARK INTER + INTRA:          -7.669
REMARK INTER:                  -7.064
REMARK INTRA:                  -0.605
REMARK UNBOUND:                -0.644
REMARK SMILES COc1ccc(-c2cc(=O)c3c(OC)c(OC)c(OC)c(OC)c3o2)cc1
REMARK SMILES IDX 7 1 8 2 9 3 10 4 11 5 24 6 25 7 21 8 18 9 15 10 12 11 6 12
REMARK SMILES IDX 3 13 4 14 27 15 5 16 26 17 2 18 1 19 22 20 23 21 13 22 14 23
REMARK SMILES IDX 19 24 20 25 16 26 17 27
REMARK H PARENT
REMARK Flexibility Score: inf
ROOT
ATOM      1  C   UNL     1      13.899  25.829  31.150  1.00  0.00     0.138 A 
ATOM      2  C   UNL     1      12.833  26.259  31.954  1.00  0.00     0.100 A 
ATOM      3  C   UNL     1      11.830  27.052  31.396  1.00  0.00     0.197 A 
ATOM      4  O   UNL     1      10.877  27.428  32.128  1.00  0.00    -0.289 OA
ATOM      5  C   UNL     1      11.898  27.405  30.030  1.00  0.00     0.115 A 
ATOM      6  C   UNL     1      12.997  26.930  29.284  1.00  0.00     0.188 A 
ATOM      7  O   UNL     1      13.928  26.177  29.867  1.00  0.00    -0.452 OA
ATOM      8  C   UNL     1      13.140  27.246  27.927  1.00  0.00     0.209 A 
ATOM      9  C   UNL     1      12.149  28.024  27.276  1.00  0.00     0.211 A 
ATOM     10  C   UNL     1      11.020  28.468  28.013  1.00  0.00     0.208 A 
ATOM     11  C   UNL     1      10.932  28.213  29.398  1.00  0.00     0.179 A 
ENDROOT
BRANCH   1  12
ATOM     12  C   UNL     1      14.993  24.980  31.685  1.00  0.00     0.018 A 
ATOM     13  C   UNL     1      17.031  23.336  32.742  1.00  0.00     0.118 A 
ATOM     14  C   UNL     1      15.813  23.475  33.414  1.00  0.00     0.047 A 
ATOM     15  C   UNL     1      17.226  24.017  31.527  1.00  0.00     0.047 A 
ATOM     16  C   UNL     1      14.801  24.285  32.890  1.00  0.00     0.016 A 
ATOM     17  C   UNL     1      16.215  24.827  31.003  1.00  0.00     0.016 A 
BRANCH  13  18
ATOM     18  O   UNL     1      18.016  22.514  33.311  1.00  0.00    -0.497 OA
ATOM     19  C   UNL     1      18.375  21.228  32.814  1.00  0.00     0.278 C 
ENDBRANCH  13  18
ENDBRANCH   1  12
BRANCH   8  20
ATOM     20  O   UNL     1      14.293  26.746  27.290  1.00  0.00    -0.490 OA
ATOM     21  C   UNL     1      14.396  25.557  26.513  1.00  0.00     0.278 C 
ENDBRANCH   8  20
BRANCH  11  22
ATOM     22  O   UNL     1       9.892  28.769  30.153  1.00  0.00    -0.492 OA
ATOM     23  C   UNL     1       9.937  30.108  30.637  1.00  0.00     0.278 C 
ENDBRANCH  11  22
BRANCH   9  24
ATOM     24  O   UNL     1      12.321  28.315  25.908  1.00  0.00    -0.490 OA
ATOM     25  C   UNL     1      13.112  29.350  25.338  1.00  0.00     0.279 C 
ENDBRANCH   9  24
BRANCH  10  26
ATOM     26  O   UNL     1       9.984  29.149  27.366  1.00  0.00    -0.490 OA
ATOM     27  C   UNL     1      10.041  30.544  27.081  1.00  0.00     0.278 C 
ENDBRANCH  10  26
TORSDOF 6
ENDMDL
