MODEL 1
REMARK VINA RESULT:    -6.440      0.000      0.000
REMARK INTER + INTRA:         -12.492
REMARK INTER:                 -11.711
REMARK INTRA:                  -0.781
REMARK UNBOUND:                -0.781
REMARK SMILES CCCCCCCCCCCCCC[C@@H](C)C(=O)[O-]
REMARK SMILES IDX 9 1 10 2 11 3 12 4 13 5 14 6 15 7 16 8 17 9 18 10 19 11 8 12
REMARK SMILES IDX 7 13 6 14 5 15 4 16 3 17 2 18 1 19
REMARK H PARENT
REMARK Flexibility Score: inf
ROOT
ATOM      1  C   UNL     1      94.492 123.186 124.073  1.00  0.00     0.000 C 
ENDROOT
BRANCH   1   2
ATOM      2  C   UNL     1      95.820 123.696 123.493  1.00  0.00     0.000 C 
BRANCH   2   3
ATOM      3  C   UNL     1      96.490 124.752 124.385  1.00  0.00     0.000 C 
BRANCH   3   4
ATOM      4  C   UNL     1      96.899 124.150 125.735  1.00  0.00     0.000 C 
BRANCH   4   5
ATOM      5  C   UNL     1      97.608 125.194 126.611  1.00  0.00     0.001 C 
BRANCH   5   6
ATOM      6  C   UNL     1      98.793 125.874 125.900  1.00  0.00     0.009 C 
BRANCH   6   7
ATOM      7  C   UNL     1      98.707 127.417 125.816  1.00  0.00     0.032 C 
ATOM      8  C   UNL     1      97.939 128.026 126.996  1.00  0.00     0.014 C 
BRANCH   7   9
ATOM      9  C   UNL     1     100.095 127.992 125.765  1.00  0.00     0.044 C 
ATOM     10  O   UNL     1     101.092 127.232 125.643  1.00  0.00    -0.550 OA
ATOM     11  O   UNL     1     100.291 129.365 125.865  1.00  0.00    -0.550 OA
ENDBRANCH   7   9
ENDBRANCH   6   7
ENDBRANCH   5   6
ENDBRANCH   4   5
ENDBRANCH   3   4
ENDBRANCH   2   3
ENDBRANCH   1   2
BRANCH   1  12
ATOM     12  C   UNL     1      93.571 122.582 123.003  1.00  0.00     0.000 C 
BRANCH  12  13
ATOM     13  C   UNL     1      94.296 121.481 122.214  1.00  0.00    -0.000 C 
BRANCH  13  14
ATOM     14  C   UNL     1      93.677 121.226 120.827  1.00  0.00    -0.000 C 
BRANCH  14  15
ATOM     15  C   UNL     1      94.669 121.261 119.649  1.00  0.00    -0.000 C 
BRANCH  15  16
ATOM     16  C   UNL     1      93.990 121.038 118.287  1.00  0.00    -0.000 C 
BRANCH  16  17
ATOM     17  C   UNL     1      92.602 121.699 118.195  1.00  0.00    -0.000 C 
BRANCH  17  18
ATOM     18  C   UNL     1      92.325 122.455 116.884  1.00  0.00    -0.003 C 
ATOM     19  C   UNL     1      92.725 123.929 116.945  1.00  0.00     0.004 C 
ENDBRANCH  17  18
ENDBRANCH  16  17
ENDBRANCH  15  16
ENDBRANCH  14  15
ENDBRANCH  13  14
ENDBRANCH  12  13
ENDBRANCH   1  12
TORSDOF 14
ENDMDL
MODEL 2
REMARK VINA RESULT:    -6.290      1.345      1.848
REMARK INTER + INTRA:         -12.218
REMARK INTER:                 -11.622
REMARK INTRA:                  -0.596
REMARK UNBOUND:                -0.781
REMARK SMILES CCCCCCCCCCCCCC[C@@H](C)C(=O)[O-]
REMARK SMILES IDX 9 1 10 2 11 3 12 4 13 5 14 6 15 7 16 8 17 9 18 10 19 11 8 12
REMARK SMILES IDX 7 13 6 14 5 15 4 16 3 17 2 18 1 19
REMARK H PARENT
REMARK Flexibility Score: inf
ROOT
ATOM      1  C   UNL     1      95.707 123.259 123.403  1.00  0.00     0.000 C 
ENDROOT
BRANCH   1   2
ATOM      2  C   UNL     1      95.608 124.025 124.732  1.00  0.00     0.000 C 
BRANCH   2   3
ATOM      3  C   UNL     1      96.979 124.268 125.379  1.00  0.00     0.000 C 
BRANCH   3   4
ATOM      4  C   UNL     1      97.469 125.695 125.106  1.00  0.00     0.000 C 
BRANCH   4   5
ATOM      5  C   UNL     1      98.163 126.286 126.343  1.00  0.00     0.001 C 
BRANCH   5   6
ATOM      6  C   UNL     1      98.126 127.825 126.378  1.00  0.00     0.009 C 
BRANCH   6   7
ATOM      7  C   UNL     1      97.605 128.436 127.701  1.00  0.00     0.032 C 
ATOM      8  C   UNL     1      97.197 127.366 128.721  1.00  0.00     0.014 C 
BRANCH   7   9
ATOM      9  C   UNL     1      98.667 129.321 128.294  1.00  0.00     0.044 C 
ATOM     10  O   UNL     1      98.670 129.565 129.530  1.00  0.00    -0.550 OA
ATOM     11  O   UNL     1      99.643 129.888 127.483  1.00  0.00    -0.550 OA
ENDBRANCH   7   9
ENDBRANCH   6   7
ENDBRANCH   5   6
ENDBRANCH   4   5
ENDBRANCH   3   4
ENDBRANCH   2   3
ENDBRANCH   1   2
BRANCH   1  12
ATOM     12  C   UNL     1      94.348 122.732 122.920  1.00  0.00     0.000 C 
BRANCH  12  13
ATOM     13  C   UNL     1      94.495 121.345 122.276  1.00  0.00    -0.000 C 
BRANCH  13  14
ATOM     14  C   UNL     1      93.848 121.256 120.881  1.00  0.00    -0.000 C 
BRANCH  14  15
ATOM     15  C   UNL     1      94.830 121.038 119.715  1.00  0.00    -0.000 C 
BRANCH  15  16
ATOM     16  C   UNL     1      94.145 121.077 118.339  1.00  0.00    -0.000 C 
BRANCH  16  17
ATOM     17  C   UNL     1      92.750 121.728 118.383  1.00  0.00    -0.000 C 
BRANCH  17  18
ATOM     18  C   UNL     1      92.286 122.367 117.063  1.00  0.00    -0.003 C 
ATOM     19  C   UNL     1      92.666 123.842 116.944  1.00  0.00     0.004 C 
ENDBRANCH  17  18
ENDBRANCH  16  17
ENDBRANCH  15  16
ENDBRANCH  14  15
ENDBRANCH  13  14
ENDBRANCH  12  13
ENDBRANCH   1  12
TORSDOF 14
ENDMDL
MODEL 3
REMARK VINA RESULT:    -6.258      1.181      2.025
REMARK INTER + INTRA:         -12.161
REMARK INTER:                 -11.429
REMARK INTRA:                  -0.732
REMARK UNBOUND:                -0.781
REMARK SMILES CCCCCCCCCCCCCC[C@@H](C)C(=O)[O-]
REMARK SMILES IDX 9 1 10 2 11 3 12 4 13 5 14 6 15 7 16 8 17 9 18 10 19 11 8 12
REMARK SMILES IDX 7 13 6 14 5 15 4 16 3 17 2 18 1 19
REMARK H PARENT
REMARK Flexibility Score: inf
ROOT
ATOM      1  C   UNL     1      95.609 123.995 123.965  1.00  0.00     0.000 C 
ENDROOT
BRANCH   1   2
ATOM      2  C   UNL     1      96.441 123.920 125.254  1.00  0.00     0.000 C 
BRANCH   2   3
ATOM      3  C   UNL     1      97.326 125.158 125.461  1.00  0.00     0.000 C 
BRANCH   3   4
ATOM      4  C   UNL     1      98.444 124.871 126.470  1.00  0.00     0.000 C 
BRANCH   4   5
ATOM      5  C   UNL     1      99.360 126.093 126.640  1.00  0.00     0.001 C 
BRANCH   5   6
ATOM      6  C   UNL     1      99.094 127.196 125.599  1.00  0.00     0.009 C 
BRANCH   6   7
ATOM      7  C   UNL     1     100.122 128.351 125.593  1.00  0.00     0.032 C 
ATOM      8  C   UNL     1     100.915 128.437 126.903  1.00  0.00     0.014 C 
BRANCH   7   9
ATOM      9  C   UNL     1     101.070 128.170 124.440  1.00  0.00     0.044 C 
ATOM     10  O   UNL     1     101.296 129.124 123.649  1.00  0.00    -0.550 OA
ATOM     11  O   UNL     1     101.694 126.945 124.228  1.00  0.00    -0.550 OA
ENDBRANCH   7   9
ENDBRANCH   6   7
ENDBRANCH   5   6
ENDBRANCH   4   5
ENDBRANCH   3   4
ENDBRANCH   2   3
ENDBRANCH   1   2
BRANCH   1  12
ATOM     12  C   UNL     1      96.025 122.942 122.928  1.00  0.00     0.000 C 
BRANCH  12  13
ATOM     13  C   UNL     1      94.993 121.806 122.855  1.00  0.00    -0.000 C 
BRANCH  13  14
ATOM     14  C   UNL     1      93.614 122.275 122.354  1.00  0.00    -0.000 C 
BRANCH  14  15
ATOM     15  C   UNL     1      93.140 121.632 121.037  1.00  0.00    -0.000 C 
BRANCH  15  16
ATOM     16  C   UNL     1      94.300 121.113 120.172  1.00  0.00    -0.000 C 
BRANCH  16  17
ATOM     17  C   UNL     1      93.957 121.074 118.671  1.00  0.00    -0.000 C 
BRANCH  17  18
ATOM     18  C   UNL     1      92.609 121.711 118.293  1.00  0.00    -0.003 C 
ATOM     19  C   UNL     1      92.386 121.795 116.784  1.00  0.00     0.004 C 
ENDBRANCH  17  18
ENDBRANCH  16  17
ENDBRANCH  15  16
ENDBRANCH  14  15
ENDBRANCH  13  14
ENDBRANCH  12  13
ENDBRANCH   1  12
TORSDOF 14
ENDMDL
MODEL 4
REMARK VINA RESULT:    -5.922      1.367      2.349
REMARK INTER + INTRA:         -11.550
REMARK INTER:                 -10.882
REMARK INTRA:                  -0.668
REMARK UNBOUND:                -0.781
REMARK SMILES CCCCCCCCCCCCCC[C@@H](C)C(=O)[O-]
REMARK SMILES IDX 9 1 10 2 11 3 12 4 13 5 14 6 15 7 16 8 17 9 18 10 19 11 8 12
REMARK SMILES IDX 7 13 6 14 5 15 4 16 3 17 2 18 1 19
REMARK H PARENT
REMARK Flexibility Score: inf
ROOT
ATOM      1  C   UNL     1      96.448 124.289 124.397  1.00  0.00     0.000 C 
ENDROOT
BRANCH   1   2
ATOM      2  C   UNL     1      96.912 124.076 125.846  1.00  0.00     0.000 C 
BRANCH   2   3
ATOM      3  C   UNL     1      97.938 125.124 126.300  1.00  0.00     0.000 C 
BRANCH   3   4
ATOM      4  C   UNL     1      97.961 126.321 125.342  1.00  0.00     0.000 C 
BRANCH   4   5
ATOM      5  C   UNL     1      97.939 127.647 126.116  1.00  0.00     0.001 C 
BRANCH   5   6
ATOM      6  C   UNL     1      99.317 128.332 126.180  1.00  0.00     0.009 C 
BRANCH   6   7
ATOM      7  C   UNL     1      99.516 129.290 127.378  1.00  0.00     0.032 C 
ATOM      8  C   UNL     1      99.489 128.558 128.726  1.00  0.00     0.014 C 
BRANCH   7   9
ATOM      9  C   UNL     1     100.824 130.017 127.224  1.00  0.00     0.044 C 
ATOM     10  O   UNL     1     101.223 130.369 126.082  1.00  0.00    -0.550 OA
ATOM     11  O   UNL     1     101.610 130.294 128.338  1.00  0.00    -0.550 OA
ENDBRANCH   7   9
ENDBRANCH   6   7
ENDBRANCH   5   6
ENDBRANCH   4   5
ENDBRANCH   3   4
ENDBRANCH   2   3
ENDBRANCH   1   2
BRANCH   1  12
ATOM     12  C   UNL     1      95.070 123.670 124.118  1.00  0.00     0.000 C 
BRANCH  12  13
ATOM     13  C   UNL     1      95.161 122.600 123.021  1.00  0.00    -0.000 C 
BRANCH  13  14
ATOM     14  C   UNL     1      93.834 122.395 122.266  1.00  0.00    -0.000 C 
BRANCH  14  15
ATOM     15  C   UNL     1      93.799 121.181 121.318  1.00  0.00    -0.000 C 
BRANCH  15  16
ATOM     16  C   UNL     1      94.876 121.244 120.223  1.00  0.00    -0.000 C 
BRANCH  16  17
ATOM     17  C   UNL     1      94.284 121.383 118.808  1.00  0.00    -0.000 C 
BRANCH  17  18
ATOM     18  C   UNL     1      92.764 121.616 118.756  1.00  0.00    -0.003 C 
ATOM     19  C   UNL     1      92.278 122.105 117.393  1.00  0.00     0.004 C 
ENDBRANCH  17  18
ENDBRANCH  16  17
ENDBRANCH  15  16
ENDBRANCH  14  15
ENDBRANCH  13  14
ENDBRANCH  12  13
ENDBRANCH   1  12
TORSDOF 14
ENDMDL
MODEL 5
REMARK VINA RESULT:    -5.758      4.036      9.653
REMARK INTER + INTRA:         -11.252
REMARK INTER:                  -9.833
REMARK INTRA:                  -1.419
REMARK UNBOUND:                -0.781
REMARK SMILES CCCCCCCCCCCCCC[C@@H](C)C(=O)[O-]
REMARK SMILES IDX 9 1 10 2 11 3 12 4 13 5 14 6 15 7 16 8 17 9 18 10 19 11 8 12
REMARK SMILES IDX 7 13 6 14 5 15 4 16 3 17 2 18 1 19
REMARK H PARENT
REMARK Flexibility Score: inf
ROOT
ATOM      1  C   UNL     1      98.475 126.975 125.443  1.00  0.00     0.000 C 
ENDROOT
BRANCH   1   2
ATOM      2  C   UNL     1      97.399 125.972 124.999  1.00  0.00     0.000 C 
BRANCH   2   3
ATOM      3  C   UNL     1      97.332 124.735 125.906  1.00  0.00     0.000 C 
BRANCH   3   4
ATOM      4  C   UNL     1      96.983 123.479 125.098  1.00  0.00     0.000 C 
BRANCH   4   5
ATOM      5  C   UNL     1      95.903 123.783 124.048  1.00  0.00     0.001 C 
BRANCH   5   6
ATOM      6  C   UNL     1      95.853 122.742 122.914  1.00  0.00     0.009 C 
BRANCH   6   7
ATOM      7  C   UNL     1      94.553 121.906 122.851  1.00  0.00     0.032 C 
ATOM      8  C   UNL     1      93.367 122.615 123.518  1.00  0.00     0.014 C 
BRANCH   7   9
ATOM      9  C   UNL     1      94.221 121.607 121.415  1.00  0.00     0.044 C 
ATOM     10  O   UNL     1      95.130 121.265 120.613  1.00  0.00    -0.550 OA
ATOM     11  O   UNL     1      92.912 121.718 120.958  1.00  0.00    -0.550 OA
ENDBRANCH   7   9
ENDBRANCH   6   7
ENDBRANCH   5   6
ENDBRANCH   4   5
ENDBRANCH   3   4
ENDBRANCH   2   3
ENDBRANCH   1   2
BRANCH   1  12
ATOM     12  C   UNL     1      99.591 126.320 126.270  1.00  0.00     0.000 C 
BRANCH  12  13
ATOM     13  C   UNL     1     100.964 126.562 125.626  1.00  0.00    -0.000 C 
BRANCH  13  14
ATOM     14  C   UNL     1     100.942 127.667 124.553  1.00  0.00    -0.000 C 
BRANCH  14  15
ATOM     15  C   UNL     1     101.992 128.779 124.735  1.00  0.00    -0.000 C 
BRANCH  15  16
ATOM     16  C   UNL     1     101.416 130.045 125.392  1.00  0.00    -0.000 C 
BRANCH  16  17
ATOM     17  C   UNL     1     101.329 129.937 126.926  1.00  0.00    -0.000 C 
BRANCH  17  18
ATOM     18  C   UNL     1      99.901 129.863 127.495  1.00  0.00    -0.003 C 
ATOM     19  C   UNL     1      99.837 129.201 128.870  1.00  0.00     0.004 C 
ENDBRANCH  17  18
ENDBRANCH  16  17
ENDBRANCH  15  16
ENDBRANCH  14  15
ENDBRANCH  13  14
ENDBRANCH  12  13
ENDBRANCH   1  12
TORSDOF 14
ENDMDL
MODEL 6
REMARK VINA RESULT:    -5.718      4.260      9.434
REMARK INTER + INTRA:         -11.179
REMARK INTER:                  -9.486
REMARK INTRA:                  -1.693
REMARK UNBOUND:                -0.781
REMARK SMILES CCCCCCCCCCCCCC[C@@H](C)C(=O)[O-]
REMARK SMILES IDX 9 1 10 2 11 3 12 4 13 5 14 6 15 7 16 8 17 9 18 10 19 11 8 12
REMARK SMILES IDX 7 13 6 14 5 15 4 16 3 17 2 18 1 19
REMARK H PARENT
REMARK Flexibility Score: inf
ROOT
ATOM      1  C   UNL     1      98.228 127.817 126.779  1.00  0.00     0.000 C 
ENDROOT
BRANCH   1   2
ATOM      2  C   UNL     1      98.034 126.600 125.861  1.00  0.00     0.000 C 
BRANCH   2   3
ATOM      3  C   UNL     1      98.261 125.266 126.589  1.00  0.00     0.000 C 
BRANCH   3   4
ATOM      4  C   UNL     1      97.354 124.169 126.020  1.00  0.00     0.000 C 
BRANCH   4   5
ATOM      5  C   UNL     1      96.654 124.643 124.737  1.00  0.00     0.001 C 
BRANCH   5   6
ATOM      6  C   UNL     1      95.367 123.857 124.425  1.00  0.00     0.009 C 
BRANCH   6   7
ATOM      7  C   UNL     1      95.370 123.109 123.071  1.00  0.00     0.032 C 
ATOM      8  C   UNL     1      96.499 122.075 122.974  1.00  0.00     0.014 C 
BRANCH   7   9
ATOM      9  C   UNL     1      94.044 122.429 122.873  1.00  0.00     0.044 C 
ATOM     10  O   UNL     1      93.129 122.564 123.728  1.00  0.00    -0.550 OA
ATOM     11  O   UNL     1      93.820 121.636 121.753  1.00  0.00    -0.550 OA
ENDBRANCH   7   9
ENDBRANCH   6   7
ENDBRANCH   5   6
ENDBRANCH   4   5
ENDBRANCH   3   4
ENDBRANCH   2   3
ENDBRANCH   1   2
BRANCH   1  12
ATOM     12  C   UNL     1      98.904 127.454 128.109  1.00  0.00     0.000 C 
BRANCH  12  13
ATOM     13  C   UNL     1      99.860 128.568 128.560  1.00  0.00    -0.000 C 
BRANCH  13  14
ATOM     14  C   UNL     1      99.928 129.744 127.568  1.00  0.00    -0.000 C 
BRANCH  14  15
ATOM     15  C   UNL     1     101.310 129.990 126.935  1.00  0.00    -0.000 C 
BRANCH  15  16
ATOM     16  C   UNL     1     101.255 130.117 125.404  1.00  0.00    -0.000 C 
BRANCH  16  17
ATOM     17  C   UNL     1     102.076 129.032 124.683  1.00  0.00    -0.000 C 
BRANCH  17  18
ATOM     18  C   UNL     1     101.314 127.729 124.382  1.00  0.00    -0.003 C 
ATOM     19  C   UNL     1     101.665 126.593 125.341  1.00  0.00     0.004 C 
ENDBRANCH  17  18
ENDBRANCH  16  17
ENDBRANCH  15  16
ENDBRANCH  14  15
ENDBRANCH  13  14
ENDBRANCH  12  13
ENDBRANCH   1  12
TORSDOF 14
ENDMDL
MODEL 7
REMARK VINA RESULT:    -5.706      4.102      9.561
REMARK INTER + INTRA:         -11.157
REMARK INTER:                  -9.918
REMARK INTRA:                  -1.239
REMARK UNBOUND:                -0.781
REMARK SMILES CCCCCCCCCCCCCC[C@@H](C)C(=O)[O-]
REMARK SMILES IDX 9 1 10 2 11 3 12 4 13 5 14 6 15 7 16 8 17 9 18 10 19 11 8 12
REMARK SMILES IDX 7 13 6 14 5 15 4 16 3 17 2 18 1 19
REMARK H PARENT
REMARK Flexibility Score: inf
ROOT
ATOM      1  C   UNL     1      98.879 125.480 126.549  1.00  0.00     0.000 C 
ENDROOT
BRANCH   1   2
ATOM      2  C   UNL     1      98.000 124.220 126.566  1.00  0.00     0.000 C 
BRANCH   2   3
ATOM      3  C   UNL     1      96.810 124.315 125.600  1.00  0.00     0.000 C 
BRANCH   3   4
ATOM      4  C   UNL     1      96.766 123.103 124.662  1.00  0.00     0.000 C 
BRANCH   4   5
ATOM      5  C   UNL     1      96.038 123.446 123.353  1.00  0.00     0.001 C 
BRANCH   5   6
ATOM      6  C   UNL     1      95.829 122.222 122.440  1.00  0.00     0.009 C 
BRANCH   6   7
ATOM      7  C   UNL     1      94.396 121.641 122.444  1.00  0.00     0.032 C 
ATOM      8  C   UNL     1      93.397 122.548 123.174  1.00  0.00     0.014 C 
BRANCH   7   9
ATOM      9  C   UNL     1      93.941 121.424 121.028  1.00  0.00     0.044 C 
ATOM     10  O   UNL     1      92.743 121.644 120.706  1.00  0.00    -0.550 OA
ATOM     11  O   UNL     1      94.833 120.967 120.064  1.00  0.00    -0.550 OA
ENDBRANCH   7   9
ENDBRANCH   6   7
ENDBRANCH   5   6
ENDBRANCH   4   5
ENDBRANCH   3   4
ENDBRANCH   2   3
ENDBRANCH   1   2
BRANCH   1  12
ATOM     12  C   UNL     1      98.294 126.599 125.675  1.00  0.00     0.000 C 
BRANCH  12  13
ATOM     13  C   UNL     1      98.249 127.928 126.443  1.00  0.00    -0.000 C 
BRANCH  13  14
ATOM     14  C   UNL     1      99.411 128.088 127.441  1.00  0.00    -0.000 C 
BRANCH  14  15
ATOM     15  C   UNL     1      99.734 129.539 127.846  1.00  0.00    -0.000 C 
BRANCH  15  16
ATOM     16  C   UNL     1     100.580 130.279 126.797  1.00  0.00    -0.000 C 
BRANCH  16  17
ATOM     17  C   UNL     1     101.667 129.388 126.167  1.00  0.00    -0.000 C 
BRANCH  17  18
ATOM     18  C   UNL     1     101.649 129.325 124.630  1.00  0.00    -0.003 C 
ATOM     19  C   UNL     1     101.267 127.948 124.090  1.00  0.00     0.004 C 
ENDBRANCH  17  18
ENDBRANCH  16  17
ENDBRANCH  15  16
ENDBRANCH  14  15
ENDBRANCH  13  14
ENDBRANCH  12  13
ENDBRANCH   1  12
TORSDOF 14
ENDMDL
MODEL 8
REMARK VINA RESULT:    -5.484      3.976      9.593
REMARK INTER + INTRA:         -10.753
REMARK INTER:                  -8.984
REMARK INTRA:                  -1.769
REMARK UNBOUND:                -0.781
REMARK SMILES CCCCCCCCCCCCCC[C@@H](C)C(=O)[O-]
REMARK SMILES IDX 9 1 10 2 11 3 12 4 13 5 14 6 15 7 16 8 17 9 18 10 19 11 8 12
REMARK SMILES IDX 7 13 6 14 5 15 4 16 3 17 2 18 1 19
REMARK H PARENT
REMARK Flexibility Score: inf
ROOT
ATOM      1  C   UNL     1      98.610 127.190 125.616  1.00  0.00     0.000 C 
ENDROOT
BRANCH   1   2
ATOM      2  C   UNL     1      97.601 126.141 125.123  1.00  0.00     0.000 C 
BRANCH   2   3
ATOM      3  C   UNL     1      97.690 124.821 125.902  1.00  0.00     0.000 C 
BRANCH   3   4
ATOM      4  C   UNL     1      96.510 123.902 125.563  1.00  0.00     0.000 C 
BRANCH   4   5
ATOM      5  C   UNL     1      96.039 124.122 124.117  1.00  0.00     0.001 C 
BRANCH   5   6
ATOM      6  C   UNL     1      95.990 122.821 123.294  1.00  0.00     0.009 C 
BRANCH   6   7
ATOM      7  C   UNL     1      94.585 122.189 123.155  1.00  0.00     0.032 C 
ATOM      8  C   UNL     1      93.466 123.146 123.583  1.00  0.00     0.014 C 
BRANCH   7   9
ATOM      9  C   UNL     1      94.368 121.763 121.729  1.00  0.00     0.044 C 
ATOM     10  O   UNL     1      95.354 121.557 120.972  1.00  0.00    -0.550 OA
ATOM     11  O   UNL     1      93.079 121.608 121.230  1.00  0.00    -0.550 OA
ENDBRANCH   7   9
ENDBRANCH   6   7
ENDBRANCH   5   6
ENDBRANCH   4   5
ENDBRANCH   3   4
ENDBRANCH   2   3
ENDBRANCH   1   2
BRANCH   1  12
ATOM     12  C   UNL     1      99.829 126.560 126.305  1.00  0.00     0.000 C 
BRANCH  12  13
ATOM     13  C   UNL     1     100.686 127.635 126.992  1.00  0.00    -0.000 C 
BRANCH  13  14
ATOM     14  C   UNL     1     100.122 129.057 126.820  1.00  0.00    -0.000 C 
BRANCH  14  15
ATOM     15  C   UNL     1      99.701 129.758 128.126  1.00  0.00    -0.000 C 
BRANCH  15  16
ATOM     16  C   UNL     1      98.214 129.556 128.461  1.00  0.00    -0.000 C 
BRANCH  16  17
ATOM     17  C   UNL     1      97.980 128.442 129.499  1.00  0.00    -0.000 C 
BRANCH  17  18
ATOM     18  C   UNL     1      97.082 127.286 129.023  1.00  0.00    -0.003 C 
ATOM     19  C   UNL     1      97.622 125.909 129.405  1.00  0.00     0.004 C 
ENDBRANCH  17  18
ENDBRANCH  16  17
ENDBRANCH  15  16
ENDBRANCH  14  15
ENDBRANCH  13  14
ENDBRANCH  12  13
ENDBRANCH   1  12
TORSDOF 14
ENDMDL
MODEL 9
REMARK VINA RESULT:    -5.465      4.201     10.252
REMARK INTER + INTRA:         -10.718
REMARK INTER:                  -9.594
REMARK INTRA:                  -1.124
REMARK UNBOUND:                -0.781
REMARK SMILES CCCCCCCCCCCCCC[C@@H](C)C(=O)[O-]
REMARK SMILES IDX 9 1 10 2 11 3 12 4 13 5 14 6 15 7 16 8 17 9 18 10 19 11 8 12
REMARK SMILES IDX 7 13 6 14 5 15 4 16 3 17 2 18 1 19
REMARK H PARENT
REMARK Flexibility Score: inf
ROOT
ATOM      1  C   UNL     1      98.287 127.945 126.279  1.00  0.00     0.000 C 
ENDROOT
BRANCH   1   2
ATOM      2  C   UNL     1      98.104 126.619 125.525  1.00  0.00     0.000 C 
BRANCH   2   3
ATOM      3  C   UNL     1      98.129 125.398 126.457  1.00  0.00     0.000 C 
BRANCH   3   4
ATOM      4  C   UNL     1      97.214 124.286 125.931  1.00  0.00     0.000 C 
BRANCH   4   5
ATOM      5  C   UNL     1      96.534 124.707 124.619  1.00  0.00     0.001 C 
BRANCH   5   6
ATOM      6  C   UNL     1      95.308 123.843 124.270  1.00  0.00     0.009 C 
BRANCH   6   7
ATOM      7  C   UNL     1      95.431 123.033 122.958  1.00  0.00     0.032 C 
ATOM      8  C   UNL     1      96.554 121.991 123.015  1.00  0.00     0.014 C 
BRANCH   7   9
ATOM      9  C   UNL     1      94.123 122.351 122.669  1.00  0.00     0.044 C 
ATOM     10  O   UNL     1      93.201 122.356 123.528  1.00  0.00    -0.550 OA
ATOM     11  O   UNL     1      93.924 121.696 121.458  1.00  0.00    -0.550 OA
ENDBRANCH   7   9
ENDBRANCH   6   7
ENDBRANCH   5   6
ENDBRANCH   4   5
ENDBRANCH   3   4
ENDBRANCH   2   3
ENDBRANCH   1   2
BRANCH   1  12
ATOM     12  C   UNL     1      99.754 128.397 126.335  1.00  0.00     0.000 C 
BRANCH  12  13
ATOM     13  C   UNL     1      99.911 129.640 127.224  1.00  0.00    -0.000 C 
BRANCH  13  14
ATOM     14  C   UNL     1     100.871 129.417 128.408  1.00  0.00    -0.000 C 
BRANCH  14  15
ATOM     15  C   UNL     1     100.232 129.546 129.804  1.00  0.00    -0.000 C 
BRANCH  15  16
ATOM     16  C   UNL     1      98.881 128.822 129.914  1.00  0.00    -0.000 C 
BRANCH  16  17
ATOM     17  C   UNL     1      97.959 129.432 130.986  1.00  0.00    -0.000 C 
BRANCH  17  18
ATOM     18  C   UNL     1      96.907 130.421 130.455  1.00  0.00    -0.003 C 
ATOM     19  C   UNL     1      96.701 130.326 128.944  1.00  0.00     0.004 C 
ENDBRANCH  17  18
ENDBRANCH  16  17
ENDBRANCH  15  16
ENDBRANCH  14  15
ENDBRANCH  13  14
ENDBRANCH  12  13
ENDBRANCH   1  12
TORSDOF 14
ENDMDL
