MODEL 1
REMARK VINA RESULT:    -3.510      0.000      0.000
REMARK INTER + INTRA:          -9.462
REMARK INTER:                  -6.383
REMARK INTRA:                  -3.079
REMARK UNBOUND:                -3.079
REMARK SMILES CCCCCCCCCCCCCC[C@H](C)C(=O)[O-]
REMARK SMILES IDX 9 1 10 2 11 3 12 4 13 5 14 6 15 7 16 8 17 9 18 10 19 11 8 12
REMARK SMILES IDX 7 13 6 14 5 15 4 16 3 17 2 18 1 19
REMARK H PARENT
REMARK Flexibility Score: inf
ROOT
ATOM      1  C   UNL     1      23.029  13.933 -18.030  1.00  0.00     0.000 C 
ENDROOT
BRANCH   1   2
ATOM      2  C   UNL     1      21.769  13.053 -18.021  1.00  0.00     0.000 C 
BRANCH   2   3
ATOM      3  C   UNL     1      21.295  12.687 -19.440  1.00  0.00     0.000 C 
BRANCH   3   4
ATOM      4  C   UNL     1      19.846  13.128 -19.705  1.00  0.00     0.000 C 
BRANCH   4   5
ATOM      5  C   UNL     1      19.120  13.586 -18.427  1.00  0.00     0.001 C 
BRANCH   5   6
ATOM      6  C   UNL     1      17.898  12.699 -18.101  1.00  0.00     0.009 C 
BRANCH   6   7
ATOM      7  C   UNL     1      18.096  11.803 -16.856  1.00  0.00     0.032 C 
ATOM      8  C   UNL     1      19.007  12.451 -15.805  1.00  0.00     0.014 C 
BRANCH   7   9
ATOM      9  C   UNL     1      18.667  10.476 -17.270  1.00  0.00     0.044 C 
ATOM     10  O   UNL     1      18.484  10.046 -18.440  1.00  0.00    -0.550 OA
ATOM     11  O   UNL     1      19.405   9.716 -16.370  1.00  0.00    -0.550 OA
ENDBRANCH   7   9
ENDBRANCH   6   7
ENDBRANCH   5   6
ENDBRANCH   4   5
ENDBRANCH   3   4
ENDBRANCH   2   3
ENDBRANCH   1   2
BRANCH   1  12
ATOM     12  C   UNL     1      22.864  15.210 -17.185  1.00  0.00     0.000 C 
BRANCH  12  13
ATOM     13  C   UNL     1      21.579  15.197 -16.340  1.00  0.00    -0.000 C 
BRANCH  13  14
ATOM     14  C   UNL     1      20.675  16.409 -16.614  1.00  0.00    -0.000 C 
BRANCH  14  15
ATOM     15  C   UNL     1      21.099  17.131 -17.899  1.00  0.00    -0.000 C 
BRANCH  15  16
ATOM     16  C   UNL     1      20.014  17.012 -18.980  1.00  0.00    -0.000 C 
BRANCH  16  17
ATOM     17  C   UNL     1      20.571  16.549 -20.339  1.00  0.00    -0.000 C 
BRANCH  17  18
ATOM     18  C   UNL     1      22.099  16.666 -20.486  1.00  0.00    -0.003 C 
ATOM     19  C   UNL     1      22.703  15.564 -21.356  1.00  0.00     0.004 C 
ENDBRANCH  17  18
ENDBRANCH  16  17
ENDBRANCH  15  16
ENDBRANCH  14  15
ENDBRANCH  13  14
ENDBRANCH  12  13
ENDBRANCH   1  12
TORSDOF 14
ENDMDL
MODEL 2
REMARK VINA RESULT:    -3.392      2.101      4.273
REMARK INTER + INTRA:          -9.248
REMARK INTER:                  -6.925
REMARK INTRA:                  -2.323
REMARK UNBOUND:                -3.079
REMARK SMILES CCCCCCCCCCCCCC[C@H](C)C(=O)[O-]
REMARK SMILES IDX 9 1 10 2 11 3 12 4 13 5 14 6 15 7 16 8 17 9 18 10 19 11 8 12
REMARK SMILES IDX 7 13 6 14 5 15 4 16 3 17 2 18 1 19
REMARK H PARENT
REMARK Flexibility Score: inf
ROOT
ATOM      1  C   UNL     1      18.911  12.998 -19.623  1.00  0.00     0.000 C 
ENDROOT
BRANCH   1   2
ATOM      2  C   UNL     1      18.205  13.095 -18.260  1.00  0.00     0.000 C 
BRANCH   2   3
ATOM      3  C   UNL     1      17.598  11.752 -17.814  1.00  0.00     0.000 C 
BRANCH   3   4
ATOM      4  C   UNL     1      18.293  11.181 -16.567  1.00  0.00     0.000 C 
BRANCH   4   5
ATOM      5  C   UNL     1      19.397  10.166 -16.914  1.00  0.00     0.001 C 
BRANCH   5   6
ATOM      6  C   UNL     1      19.125   8.776 -16.299  1.00  0.00     0.009 C 
BRANCH   6   7
ATOM      7  C   UNL     1      20.020   7.655 -16.877  1.00  0.00     0.032 C 
ATOM      8  C   UNL     1      20.992   8.172 -17.946  1.00  0.00     0.014 C 
BRANCH   7   9
ATOM      9  C   UNL     1      19.159   6.569 -17.461  1.00  0.00     0.044 C 
ATOM     10  O   UNL     1      18.229   6.860 -18.260  1.00  0.00    -0.550 OA
ATOM     11  O   UNL     1      19.386   5.238 -17.130  1.00  0.00    -0.550 OA
ENDBRANCH   7   9
ENDBRANCH   6   7
ENDBRANCH   5   6
ENDBRANCH   4   5
ENDBRANCH   3   4
ENDBRANCH   2   3
ENDBRANCH   1   2
BRANCH   1  12
ATOM     12  C   UNL     1      20.391  13.415 -19.553  1.00  0.00     0.000 C 
BRANCH  12  13
ATOM     13  C   UNL     1      21.337  12.212 -19.411  1.00  0.00    -0.000 C 
BRANCH  13  14
ATOM     14  C   UNL     1      22.053  12.175 -18.052  1.00  0.00    -0.000 C 
BRANCH  14  15
ATOM     15  C   UNL     1      22.032  13.555 -17.383  1.00  0.00    -0.000 C 
BRANCH  15  16
ATOM     16  C   UNL     1      21.182  13.532 -16.104  1.00  0.00    -0.000 C 
BRANCH  16  17
ATOM     17  C   UNL     1      20.393  14.837 -15.886  1.00  0.00    -0.000 C 
BRANCH  17  18
ATOM     18  C   UNL     1      20.930  16.056 -16.658  1.00  0.00    -0.003 C 
ATOM     19  C   UNL     1      19.946  16.586 -17.700  1.00  0.00     0.004 C 
ENDBRANCH  17  18
ENDBRANCH  16  17
ENDBRANCH  15  16
ENDBRANCH  14  15
ENDBRANCH  13  14
ENDBRANCH  12  13
ENDBRANCH   1  12
TORSDOF 14
ENDMDL
MODEL 3
REMARK VINA RESULT:    -3.380      2.357      5.671
REMARK INTER + INTRA:          -9.226
REMARK INTER:                  -6.565
REMARK INTRA:                  -2.661
REMARK UNBOUND:                -3.079
REMARK SMILES CCCCCCCCCCCCCC[C@H](C)C(=O)[O-]
REMARK SMILES IDX 9 1 10 2 11 3 12 4 13 5 14 6 15 7 16 8 17 9 18 10 19 11 8 12
REMARK SMILES IDX 7 13 6 14 5 15 4 16 3 17 2 18 1 19
REMARK H PARENT
REMARK Flexibility Score: inf
ROOT
ATOM      1  C   UNL     1      20.467  12.681 -16.665  1.00  0.00     0.000 C 
ENDROOT
BRANCH   1   2
ATOM      2  C   UNL     1      21.316  13.921 -16.340  1.00  0.00     0.000 C 
BRANCH   2   3
ATOM      3  C   UNL     1      20.456  15.155 -16.008  1.00  0.00     0.000 C 
BRANCH   3   4
ATOM      4  C   UNL     1      20.764  16.348 -16.928  1.00  0.00     0.000 C 
BRANCH   4   5
ATOM      5  C   UNL     1      19.673  16.579 -17.988  1.00  0.00     0.001 C 
BRANCH   5   6
ATOM      6  C   UNL     1      20.161  16.234 -19.412  1.00  0.00     0.009 C 
BRANCH   6   7
ATOM      7  C   UNL     1      19.969  14.747 -19.790  1.00  0.00     0.032 C 
ATOM      8  C   UNL     1      21.298  14.033 -20.067  1.00  0.00     0.014 C 
BRANCH   7   9
ATOM      9  C   UNL     1      19.079  14.642 -20.998  1.00  0.00     0.044 C 
ATOM     10  O   UNL     1      18.484  15.662 -21.436  1.00  0.00    -0.550 OA
ATOM     11  O   UNL     1      18.909  13.421 -21.642  1.00  0.00    -0.550 OA
ENDBRANCH   7   9
ENDBRANCH   6   7
ENDBRANCH   5   6
ENDBRANCH   4   5
ENDBRANCH   3   4
ENDBRANCH   2   3
ENDBRANCH   1   2
BRANCH   1  12
ATOM     12  C   UNL     1      19.250  12.538 -15.733  1.00  0.00     0.000 C 
BRANCH  12  13
ATOM     13  C   UNL     1      17.982  12.092 -16.482  1.00  0.00    -0.000 C 
BRANCH  13  14
ATOM     14  C   UNL     1      17.985  12.513 -17.959  1.00  0.00    -0.000 C 
BRANCH  14  15
ATOM     15  C   UNL     1      17.670  11.321 -18.871  1.00  0.00    -0.000 C 
BRANCH  15  16
ATOM     16  C   UNL     1      18.960  10.628 -19.335  1.00  0.00    -0.000 C 
BRANCH  16  17
ATOM     17  C   UNL     1      19.119   9.210 -18.755  1.00  0.00    -0.000 C 
BRANCH  17  18
ATOM     18  C   UNL     1      20.092   9.102 -17.566  1.00  0.00    -0.003 C 
ATOM     19  C   UNL     1      19.416   8.625 -16.281  1.00  0.00     0.004 C 
ENDBRANCH  17  18
ENDBRANCH  16  17
ENDBRANCH  15  16
ENDBRANCH  14  15
ENDBRANCH  13  14
ENDBRANCH  12  13
ENDBRANCH   1  12
TORSDOF 14
ENDMDL
MODEL 4
REMARK VINA RESULT:    -3.329      1.791      3.063
REMARK INTER + INTRA:          -9.133
REMARK INTER:                  -6.934
REMARK INTRA:                  -2.199
REMARK UNBOUND:                -3.079
REMARK SMILES CCCCCCCCCCCCCC[C@H](C)C(=O)[O-]
REMARK SMILES IDX 9 1 10 2 11 3 12 4 13 5 14 6 15 7 16 8 17 9 18 10 19 11 8 12
REMARK SMILES IDX 7 13 6 14 5 15 4 16 3 17 2 18 1 19
REMARK H PARENT
REMARK Flexibility Score: inf
ROOT
ATOM      1  C   UNL     1      20.718  13.244 -19.039  1.00  0.00     0.000 C 
ENDROOT
BRANCH   1   2
ATOM      2  C   UNL     1      19.517  12.296 -18.888  1.00  0.00     0.000 C 
BRANCH   2   3
ATOM      3  C   UNL     1      18.410  12.882 -17.992  1.00  0.00     0.000 C 
BRANCH   3   4
ATOM      4  C   UNL     1      18.094  11.982 -16.787  1.00  0.00     0.000 C 
BRANCH   4   5
ATOM      5  C   UNL     1      19.220  10.978 -16.483  1.00  0.00     0.001 C 
BRANCH   5   6
ATOM      6  C   UNL     1      18.784   9.518 -16.740  1.00  0.00     0.009 C 
BRANCH   6   7
ATOM      7  C   UNL     1      19.966   8.528 -16.854  1.00  0.00     0.032 C 
ATOM      8  C   UNL     1      20.999   8.964 -17.901  1.00  0.00     0.014 C 
BRANCH   7   9
ATOM      9  C   UNL     1      19.449   7.158 -17.196  1.00  0.00     0.044 C 
ATOM     10  O   UNL     1      18.219   6.977 -17.395  1.00  0.00    -0.550 OA
ATOM     11  O   UNL     1      20.325   6.082 -17.300  1.00  0.00    -0.550 OA
ENDBRANCH   7   9
ENDBRANCH   6   7
ENDBRANCH   5   6
ENDBRANCH   4   5
ENDBRANCH   3   4
ENDBRANCH   2   3
ENDBRANCH   1   2
BRANCH   1  12
ATOM     12  C   UNL     1      21.940  12.785 -18.223  1.00  0.00     0.000 C 
BRANCH  12  13
ATOM     13  C   UNL     1      21.903  13.289 -16.770  1.00  0.00    -0.000 C 
BRANCH  13  14
ATOM     14  C   UNL     1      22.060  14.814 -16.666  1.00  0.00    -0.000 C 
BRANCH  14  15
ATOM     15  C   UNL     1      20.759  15.469 -16.185  1.00  0.00    -0.000 C 
BRANCH  15  16
ATOM     16  C   UNL     1      20.263  16.512 -17.197  1.00  0.00    -0.000 C 
BRANCH  16  17
ATOM     17  C   UNL     1      21.377  17.012 -18.136  1.00  0.00    -0.000 C 
BRANCH  17  18
ATOM     18  C   UNL     1      21.061  16.886 -19.638  1.00  0.00    -0.003 C 
ATOM     19  C   UNL     1      19.563  16.808 -19.931  1.00  0.00     0.004 C 
ENDBRANCH  17  18
ENDBRANCH  16  17
ENDBRANCH  15  16
ENDBRANCH  14  15
ENDBRANCH  13  14
ENDBRANCH  12  13
ENDBRANCH   1  12
TORSDOF 14
ENDMDL
MODEL 5
REMARK VINA RESULT:    -3.327      1.542      3.524
REMARK INTER + INTRA:          -9.130
REMARK INTER:                  -6.671
REMARK INTRA:                  -2.459
REMARK UNBOUND:                -3.079
REMARK SMILES CCCCCCCCCCCCCC[C@H](C)C(=O)[O-]
REMARK SMILES IDX 9 1 10 2 11 3 12 4 13 5 14 6 15 7 16 8 17 9 18 10 19 11 8 12
REMARK SMILES IDX 7 13 6 14 5 15 4 16 3 17 2 18 1 19
REMARK H PARENT
REMARK Flexibility Score: inf
ROOT
ATOM      1  C   UNL     1      20.046  13.860 -19.828  1.00  0.00     0.000 C 
ENDROOT
BRANCH   1   2
ATOM      2  C   UNL     1      18.883  13.026 -19.266  1.00  0.00     0.000 C 
BRANCH   2   3
ATOM      3  C   UNL     1      18.462  13.476 -17.855  1.00  0.00     0.000 C 
BRANCH   3   4
ATOM      4  C   UNL     1      18.059  12.294 -16.959  1.00  0.00     0.000 C 
BRANCH   4   5
ATOM      5  C   UNL     1      19.273  11.559 -16.363  1.00  0.00     0.001 C 
BRANCH   5   6
ATOM      6  C   UNL     1      19.221  10.038 -16.628  1.00  0.00     0.009 C 
BRANCH   6   7
ATOM      7  C   UNL     1      19.864   9.621 -17.972  1.00  0.00     0.032 C 
ATOM      8  C   UNL     1      18.820   9.236 -19.028  1.00  0.00     0.014 C 
BRANCH   7   9
ATOM      9  C   UNL     1      20.804   8.469 -17.748  1.00  0.00     0.044 C 
ATOM     10  O   UNL     1      21.970   8.502 -18.223  1.00  0.00    -0.550 OA
ATOM     11  O   UNL     1      20.396   7.361 -17.013  1.00  0.00    -0.550 OA
ENDBRANCH   7   9
ENDBRANCH   6   7
ENDBRANCH   5   6
ENDBRANCH   4   5
ENDBRANCH   3   4
ENDBRANCH   2   3
ENDBRANCH   1   2
BRANCH   1  12
ATOM     12  C   UNL     1      19.570  15.161 -20.499  1.00  0.00     0.000 C 
BRANCH  12  13
ATOM     13  C   UNL     1      20.324  16.400 -19.988  1.00  0.00    -0.000 C 
BRANCH  13  14
ATOM     14  C   UNL     1      19.854  16.848 -18.595  1.00  0.00    -0.000 C 
BRANCH  14  15
ATOM     15  C   UNL     1      21.014  16.827 -17.591  1.00  0.00    -0.000 C 
BRANCH  15  16
ATOM     16  C   UNL     1      20.600  16.128 -16.288  1.00  0.00    -0.000 C 
BRANCH  16  17
ATOM     17  C   UNL     1      21.247  14.741 -16.120  1.00  0.00    -0.000 C 
BRANCH  17  18
ATOM     18  C   UNL     1      22.407  14.446 -17.090  1.00  0.00    -0.003 C 
ATOM     19  C   UNL     1      22.537  12.963 -17.434  1.00  0.00     0.004 C 
ENDBRANCH  17  18
ENDBRANCH  16  17
ENDBRANCH  15  16
ENDBRANCH  14  15
ENDBRANCH  13  14
ENDBRANCH  12  13
ENDBRANCH   1  12
TORSDOF 14
ENDMDL
MODEL 6
REMARK VINA RESULT:    -3.322      3.237      6.032
REMARK INTER + INTRA:          -9.121
REMARK INTER:                  -6.479
REMARK INTRA:                  -2.641
REMARK UNBOUND:                -3.079
REMARK SMILES CCCCCCCCCCCCCC[C@H](C)C(=O)[O-]
REMARK SMILES IDX 9 1 10 2 11 3 12 4 13 5 14 6 15 7 16 8 17 9 18 10 19 11 8 12
REMARK SMILES IDX 7 13 6 14 5 15 4 16 3 17 2 18 1 19
REMARK H PARENT
REMARK Flexibility Score: inf
ROOT
ATOM      1  C   UNL     1      21.716  14.537 -16.378  1.00  0.00     0.000 C 
ENDROOT
BRANCH   1   2
ATOM      2  C   UNL     1      20.299  15.054 -16.082  1.00  0.00     0.000 C 
BRANCH   2   3
ATOM      3  C   UNL     1      19.877  16.194 -17.029  1.00  0.00     0.000 C 
BRANCH   3   4
ATOM      4  C   UNL     1      21.078  17.008 -17.537  1.00  0.00     0.000 C 
BRANCH   4   5
ATOM      5  C   UNL     1      21.100  17.141 -19.070  1.00  0.00     0.001 C 
BRANCH   5   6
ATOM      6  C   UNL     1      19.722  16.843 -19.701  1.00  0.00     0.009 C 
BRANCH   6   7
ATOM      7  C   UNL     1      19.727  16.872 -21.247  1.00  0.00     0.032 C 
ATOM      8  C   UNL     1      21.146  16.892 -21.829  1.00  0.00     0.014 C 
BRANCH   7   9
ATOM      9  C   UNL     1      18.965  18.072 -21.735  1.00  0.00     0.044 C 
ATOM     10  O   UNL     1      19.386  18.731 -22.723  1.00  0.00    -0.550 OA
ATOM     11  O   UNL     1      17.788  18.461 -21.105  1.00  0.00    -0.550 OA
ENDBRANCH   7   9
ENDBRANCH   6   7
ENDBRANCH   5   6
ENDBRANCH   4   5
ENDBRANCH   3   4
ENDBRANCH   2   3
ENDBRANCH   1   2
BRANCH   1  12
ATOM     12  C   UNL     1      21.733  13.048 -16.766  1.00  0.00     0.000 C 
BRANCH  12  13
ATOM     13  C   UNL     1      22.177  12.821 -18.221  1.00  0.00    -0.000 C 
BRANCH  13  14
ATOM     14  C   UNL     1      21.218  13.453 -19.241  1.00  0.00    -0.000 C 
BRANCH  14  15
ATOM     15  C   UNL     1      19.983  12.570 -19.455  1.00  0.00    -0.000 C 
BRANCH  15  16
ATOM     16  C   UNL     1      18.707  13.290 -18.994  1.00  0.00    -0.000 C 
BRANCH  16  17
ATOM     17  C   UNL     1      17.757  12.375 -18.199  1.00  0.00    -0.000 C 
BRANCH  17  18
ATOM     18  C   UNL     1      18.200  12.082 -16.753  1.00  0.00    -0.003 C 
ATOM     19  C   UNL     1      18.829  10.700 -16.587  1.00  0.00     0.004 C 
ENDBRANCH  17  18
ENDBRANCH  16  17
ENDBRANCH  15  16
ENDBRANCH  14  15
ENDBRANCH  13  14
ENDBRANCH  12  13
ENDBRANCH   1  12
TORSDOF 14
ENDMDL
MODEL 7
REMARK VINA RESULT:    -3.258      2.208      4.133
REMARK INTER + INTRA:          -9.004
REMARK INTER:                  -6.904
REMARK INTRA:                  -2.100
REMARK UNBOUND:                -3.079
REMARK SMILES CCCCCCCCCCCCCC[C@H](C)C(=O)[O-]
REMARK SMILES IDX 9 1 10 2 11 3 12 4 13 5 14 6 15 7 16 8 17 9 18 10 19 11 8 12
REMARK SMILES IDX 7 13 6 14 5 15 4 16 3 17 2 18 1 19
REMARK H PARENT
REMARK Flexibility Score: inf
ROOT
ATOM      1  C   UNL     1      20.629  15.860 -20.042  1.00  0.00     0.000 C 
ENDROOT
BRANCH   1   2
ATOM      2  C   UNL     1      19.867  16.539 -18.892  1.00  0.00     0.000 C 
BRANCH   2   3
ATOM      3  C   UNL     1      20.810  17.131 -17.828  1.00  0.00     0.000 C 
BRANCH   3   4
ATOM      4  C   UNL     1      20.587  16.512 -16.438  1.00  0.00     0.000 C 
BRANCH   4   5
ATOM      5  C   UNL     1      21.169  15.092 -16.320  1.00  0.00     0.001 C 
BRANCH   5   6
ATOM      6  C   UNL     1      20.201  14.123 -15.606  1.00  0.00     0.009 C 
BRANCH   6   7
ATOM      7  C   UNL     1      20.014  12.777 -16.345  1.00  0.00     0.032 C 
ATOM      8  C   UNL     1      20.996  12.605 -17.511  1.00  0.00     0.014 C 
BRANCH   7   9
ATOM      9  C   UNL     1      18.603  12.669 -16.853  1.00  0.00     0.044 C 
ATOM     10  O   UNL     1      18.195  13.447 -17.757  1.00  0.00    -0.550 OA
ATOM     11  O   UNL     1      17.741  11.709 -16.336  1.00  0.00    -0.550 OA
ENDBRANCH   7   9
ENDBRANCH   6   7
ENDBRANCH   5   6
ENDBRANCH   4   5
ENDBRANCH   3   4
ENDBRANCH   2   3
ENDBRANCH   1   2
BRANCH   1  12
ATOM     12  C   UNL     1      22.091  16.335 -20.143  1.00  0.00     0.000 C 
BRANCH  12  13
ATOM     13  C   UNL     1      22.454  16.831 -21.553  1.00  0.00    -0.000 C 
BRANCH  13  14
ATOM     14  C   UNL     1      21.261  16.795 -22.521  1.00  0.00    -0.000 C 
BRANCH  14  15
ATOM     15  C   UNL     1      21.030  18.169 -23.160  1.00  0.00    -0.000 C 
BRANCH  15  16
ATOM     16  C   UNL     1      19.540  18.541 -23.139  1.00  0.00    -0.000 C 
BRANCH  16  17
ATOM     17  C   UNL     1      19.021  18.853 -21.722  1.00  0.00    -0.000 C 
BRANCH  17  18
ATOM     18  C   UNL     1      17.624  18.287 -21.405  1.00  0.00    -0.003 C 
ATOM     19  C   UNL     1      17.367  16.928 -22.055  1.00  0.00     0.004 C 
ENDBRANCH  17  18
ENDBRANCH  16  17
ENDBRANCH  15  16
ENDBRANCH  14  15
ENDBRANCH  13  14
ENDBRANCH  12  13
ENDBRANCH   1  12
TORSDOF 14
ENDMDL
MODEL 8
REMARK VINA RESULT:    -3.232      2.997      6.100
REMARK INTER + INTRA:          -8.957
REMARK INTER:                  -6.442
REMARK INTRA:                  -2.515
REMARK UNBOUND:                -3.079
REMARK SMILES CCCCCCCCCCCCCC[C@H](C)C(=O)[O-]
REMARK SMILES IDX 9 1 10 2 11 3 12 4 13 5 14 6 15 7 16 8 17 9 18 10 19 11 8 12
REMARK SMILES IDX 7 13 6 14 5 15 4 16 3 17 2 18 1 19
REMARK H PARENT
REMARK Flexibility Score: inf
ROOT
ATOM      1  C   UNL     1      22.336  13.310 -17.890  1.00  0.00     0.000 C 
ENDROOT
BRANCH   1   2
ATOM      2  C   UNL     1      22.528  14.732 -17.339  1.00  0.00     0.000 C 
BRANCH   2   3
ATOM      3  C   UNL     1      21.594  15.036 -16.152  1.00  0.00     0.000 C 
BRANCH   3   4
ATOM      4  C   UNL     1      20.638  16.204 -16.444  1.00  0.00     0.000 C 
BRANCH   4   5
ATOM      5  C   UNL     1      20.948  16.907 -17.778  1.00  0.00     0.001 C 
BRANCH   5   6
ATOM      6  C   UNL     1      19.767  16.822 -18.769  1.00  0.00     0.009 C 
BRANCH   6   7
ATOM      7  C   UNL     1      20.203  16.611 -20.238  1.00  0.00     0.032 C 
ATOM      8  C   UNL     1      21.721  16.736 -20.424  1.00  0.00     0.014 C 
BRANCH   7   9
ATOM      9  C   UNL     1      19.502  17.603 -21.123  1.00  0.00     0.044 C 
ATOM     10  O   UNL     1      18.315  17.944 -20.876  1.00  0.00    -0.550 OA
ATOM     11  O   UNL     1      20.159  18.157 -22.216  1.00  0.00    -0.550 OA
ENDBRANCH   7   9
ENDBRANCH   6   7
ENDBRANCH   5   6
ENDBRANCH   4   5
ENDBRANCH   3   4
ENDBRANCH   2   3
ENDBRANCH   1   2
BRANCH   1  12
ATOM     12  C   UNL     1      21.477  13.283 -19.168  1.00  0.00     0.000 C 
BRANCH  12  13
ATOM     13  C   UNL     1      20.165  12.502 -18.981  1.00  0.00    -0.000 C 
BRANCH  13  14
ATOM     14  C   UNL     1      19.114  13.289 -18.183  1.00  0.00    -0.000 C 
BRANCH  14  15
ATOM     15  C   UNL     1      18.595  12.466 -16.997  1.00  0.00    -0.000 C 
BRANCH  15  16
ATOM     16  C   UNL     1      19.547  11.303 -16.678  1.00  0.00    -0.000 C 
BRANCH  16  17
ATOM     17  C   UNL     1      18.824   9.946 -16.587  1.00  0.00    -0.000 C 
BRANCH  17  18
ATOM     18  C   UNL     1      19.367   8.858 -17.532  1.00  0.00    -0.003 C 
ATOM     19  C   UNL     1      20.827   9.082 -17.926  1.00  0.00     0.004 C 
ENDBRANCH  17  18
ENDBRANCH  16  17
ENDBRANCH  15  16
ENDBRANCH  14  15
ENDBRANCH  13  14
ENDBRANCH  12  13
ENDBRANCH   1  12
TORSDOF 14
ENDMDL
MODEL 9
REMARK VINA RESULT:    -3.199      1.328      3.101
REMARK INTER + INTRA:          -8.896
REMARK INTER:                  -6.442
REMARK INTRA:                  -2.454
REMARK UNBOUND:                -3.079
REMARK SMILES CCCCCCCCCCCCCC[C@H](C)C(=O)[O-]
REMARK SMILES IDX 9 1 10 2 11 3 12 4 13 5 14 6 15 7 16 8 17 9 18 10 19 11 8 12
REMARK SMILES IDX 7 13 6 14 5 15 4 16 3 17 2 18 1 19
REMARK H PARENT
REMARK Flexibility Score: inf
ROOT
ATOM      1  C   UNL     1      20.397  16.197 -16.366  1.00  0.00     0.000 C 
ENDROOT
BRANCH   1   2
ATOM      2  C   UNL     1      20.998  14.815 -16.061  1.00  0.00     0.000 C 
BRANCH   2   3
ATOM      3  C   UNL     1      19.919  13.733 -15.862  1.00  0.00     0.000 C 
BRANCH   3   4
ATOM      4  C   UNL     1      18.809  13.812 -16.923  1.00  0.00     0.000 C 
BRANCH   4   5
ATOM      5  C   UNL     1      18.163  12.445 -17.210  1.00  0.00     0.001 C 
BRANCH   5   6
ATOM      6  C   UNL     1      18.875  11.296 -16.463  1.00  0.00     0.009 C 
BRANCH   6   7
ATOM      7  C   UNL     1      18.992   9.995 -17.292  1.00  0.00     0.032 C 
ATOM      8  C   UNL     1      19.432   8.795 -16.444  1.00  0.00     0.014 C 
BRANCH   7   9
ATOM      9  C   UNL     1      19.964  10.199 -18.421  1.00  0.00     0.044 C 
ATOM     10  O   UNL     1      19.557  10.201 -19.613  1.00  0.00    -0.550 OA
ATOM     11  O   UNL     1      21.315  10.392 -18.159  1.00  0.00    -0.550 OA
ENDBRANCH   7   9
ENDBRANCH   6   7
ENDBRANCH   5   6
ENDBRANCH   4   5
ENDBRANCH   3   4
ENDBRANCH   2   3
ENDBRANCH   1   2
BRANCH   1  12
ATOM     12  C   UNL     1      21.045  16.865 -17.592  1.00  0.00     0.000 C 
BRANCH  12  13
ATOM     13  C   UNL     1      20.207  16.691 -18.870  1.00  0.00    -0.000 C 
BRANCH  13  14
ATOM     14  C   UNL     1      21.034  16.176 -20.058  1.00  0.00    -0.000 C 
BRANCH  14  15
ATOM     15  C   UNL     1      20.474  14.849 -20.584  1.00  0.00    -0.000 C 
BRANCH  15  16
ATOM     16  C   UNL     1      20.909  13.677 -19.690  1.00  0.00    -0.000 C 
BRANCH  16  17
ATOM     17  C   UNL     1      22.416  13.375 -19.791  1.00  0.00    -0.000 C 
BRANCH  17  18
ATOM     18  C   UNL     1      23.185  13.465 -18.460  1.00  0.00    -0.003 C 
ATOM     19  C   UNL     1      24.034  14.730 -18.343  1.00  0.00     0.004 C 
ENDBRANCH  17  18
ENDBRANCH  16  17
ENDBRANCH  15  16
ENDBRANCH  14  15
ENDBRANCH  13  14
ENDBRANCH  12  13
ENDBRANCH   1  12
TORSDOF 14
ENDMDL
