MODEL 1
REMARK VINA RESULT:    -2.650      0.000      0.000
REMARK INTER + INTRA:          -3.164
REMARK INTER:                  -3.115
REMARK INTRA:                  -0.050
REMARK UNBOUND:                -0.050
REMARK SMILES O=C([O-])CCC(=O)[O-]
REMARK SMILES IDX 4 1 2 2 1 3 3 4 5 5 6 6 7 7 8 8
REMARK H PARENT
REMARK Flexibility Score: inf
ROOT
ATOM      1  C   UNL     1      88.165  80.992  18.919  1.00  0.00     0.059 C 
ENDROOT
BRANCH   1   2
ATOM      2  C   UNL     1      89.483  81.696  18.999  1.00  0.00     0.042 C 
ATOM      3  O   UNL     1      89.630  82.678  19.773  1.00  0.00    -0.550 OA
ATOM      4  O   UNL     1      90.562  81.237  18.255  1.00  0.00    -0.550 OA
ENDBRANCH   1   2
BRANCH   1   5
ATOM      5  C   UNL     1      87.105  81.748  19.722  1.00  0.00     0.059 C 
BRANCH   5   6
ATOM      6  C   UNL     1      85.778  81.677  19.035  1.00  0.00     0.042 C 
ATOM      7  O   UNL     1      84.813  82.373  19.447  1.00  0.00    -0.550 OA
ATOM      8  O   UNL     1      85.620  80.879  17.908  1.00  0.00    -0.550 OA
ENDBRANCH   5   6
ENDBRANCH   1   5
TORSDOF 3
ENDMDL
MODEL 2
REMARK VINA RESULT:    -2.535      1.068      4.200
REMARK INTER + INTRA:          -3.029
REMARK INTER:                  -2.994
REMARK INTRA:                  -0.035
REMARK UNBOUND:                -0.050
REMARK SMILES O=C([O-])CCC(=O)[O-]
REMARK SMILES IDX 4 1 2 2 1 3 3 4 5 5 6 6 7 7 8 8
REMARK H PARENT
REMARK Flexibility Score: inf
ROOT
ATOM      1  C   UNL     1      86.848  81.656  18.644  1.00  0.00     0.059 C 
ENDROOT
BRANCH   1   2
ATOM      2  C   UNL     1      85.411  81.436  18.994  1.00  0.00     0.042 C 
ATOM      3  O   UNL     1      84.970  81.797  20.117  1.00  0.00    -0.550 OA
ATOM      4  O   UNL     1      84.546  80.877  18.062  1.00  0.00    -0.550 OA
ENDBRANCH   1   2
BRANCH   1   5
ATOM      5  C   UNL     1      87.613  82.211  19.846  1.00  0.00     0.059 C 
BRANCH   5   6
ATOM      6  C   UNL     1      88.973  82.679  19.432  1.00  0.00     0.042 C 
ATOM      7  O   UNL     1      89.822  81.855  19.003  1.00  0.00    -0.550 OA
ATOM      8  O   UNL     1      89.285  84.032  19.474  1.00  0.00    -0.550 OA
ENDBRANCH   5   6
ENDBRANCH   1   5
TORSDOF 3
ENDMDL
MODEL 3
REMARK VINA RESULT:    -1.370     19.198     20.558
REMARK INTER + INTRA:          -1.660
REMARK INTER:                  -1.738
REMARK INTRA:                   0.079
REMARK UNBOUND:                -0.050
REMARK SMILES O=C([O-])CCC(=O)[O-]
REMARK SMILES IDX 4 1 2 2 1 3 3 4 5 5 6 6 7 7 8 8
REMARK H PARENT
REMARK Flexibility Score: inf
ROOT
ATOM      1  C   UNL     1      99.396  97.136  10.856  1.00  0.00     0.059 C 
ENDROOT
BRANCH   1   2
ATOM      2  C   UNL     1     100.843  97.139  10.477  1.00  0.00     0.042 C 
ATOM      3  O   UNL     1     101.460  98.229  10.346  1.00  0.00    -0.550 OA
ATOM      4  O   UNL     1     101.523  95.939  10.318  1.00  0.00    -0.550 OA
ENDBRANCH   1   2
BRANCH   1   5
ATOM      5  C   UNL     1      98.736  95.821  10.438  1.00  0.00     0.059 C 
BRANCH   5   6
ATOM      6  C   UNL     1      98.863  94.802  11.527  1.00  0.00     0.042 C 
ATOM      7  O   UNL     1      99.386  93.682  11.289  1.00  0.00    -0.550 OA
ATOM      8  O   UNL     1      98.447  95.108  12.817  1.00  0.00    -0.550 OA
ENDBRANCH   5   6
ENDBRANCH   1   5
TORSDOF 3
ENDMDL
MODEL 4
REMARK VINA RESULT:    -1.332     22.322     23.685
REMARK INTER + INTRA:          -1.616
REMARK INTER:                  -1.577
REMARK INTRA:                  -0.039
REMARK UNBOUND:                -0.050
REMARK SMILES O=C([O-])CCC(=O)[O-]
REMARK SMILES IDX 4 1 2 2 1 3 3 4 5 5 6 6 7 7 8 8
REMARK H PARENT
REMARK Flexibility Score: inf
ROOT
ATOM      1  C   UNL     1     101.042  99.380  10.758  1.00  0.00     0.059 C 
ENDROOT
BRANCH   1   2
ATOM      2  C   UNL     1     101.525 100.578  10.003  1.00  0.00     0.042 C 
ATOM      3  O   UNL     1     100.787 101.123   9.140  1.00  0.00    -0.550 OA
ATOM      4  O   UNL     1     102.770 101.123  10.288  1.00  0.00    -0.550 OA
ENDBRANCH   1   2
BRANCH   1   5
ATOM      5  C   UNL     1     101.759  98.118  10.275  1.00  0.00     0.059 C 
BRANCH   5   6
ATOM      6  C   UNL     1     100.881  96.919  10.446  1.00  0.00     0.042 C 
ATOM      7  O   UNL     1     101.382  95.763  10.451  1.00  0.00    -0.550 OA
ATOM      8  O   UNL     1      99.517  97.080  10.650  1.00  0.00    -0.550 OA
ENDBRANCH   5   6
ENDBRANCH   1   5
TORSDOF 3
ENDMDL
MODEL 5
REMARK VINA RESULT:    -1.313     19.300     20.644
REMARK INTER + INTRA:          -1.593
REMARK INTER:                  -1.671
REMARK INTRA:                   0.078
REMARK UNBOUND:                -0.050
REMARK SMILES O=C([O-])CCC(=O)[O-]
REMARK SMILES IDX 4 1 2 2 1 3 3 4 5 5 6 6 7 7 8 8
REMARK H PARENT
REMARK Flexibility Score: inf
ROOT
ATOM      1  C   UNL     1      99.442  97.206  10.860  1.00  0.00     0.059 C 
ENDROOT
BRANCH   1   2
ATOM      2  C   UNL     1     100.887  97.214  10.472  1.00  0.00     0.042 C 
ATOM      3  O   UNL     1     101.510  96.128  10.330  1.00  0.00    -0.550 OA
ATOM      4  O   UNL     1     101.533  98.417  10.220  1.00  0.00    -0.550 OA
ENDBRANCH   1   2
BRANCH   1   5
ATOM      5  C   UNL     1      98.776  95.902  10.419  1.00  0.00     0.059 C 
BRANCH   5   6
ATOM      6  C   UNL     1      98.903  94.861  11.487  1.00  0.00     0.042 C 
ATOM      7  O   UNL     1      98.440  95.075  12.637  1.00  0.00    -0.550 OA
ATOM      8  O   UNL     1      99.490  93.636  11.196  1.00  0.00    -0.550 OA
ENDBRANCH   5   6
ENDBRANCH   1   5
TORSDOF 3
ENDMDL
MODEL 6
REMARK VINA RESULT:    -1.304     19.312     20.853
REMARK INTER + INTRA:          -1.583
REMARK INTER:                  -1.655
REMARK INTRA:                   0.072
REMARK UNBOUND:                -0.050
REMARK SMILES O=C([O-])CCC(=O)[O-]
REMARK SMILES IDX 4 1 2 2 1 3 3 4 5 5 6 6 7 7 8 8
REMARK H PARENT
REMARK Flexibility Score: inf
ROOT
ATOM      1  C   UNL     1      98.780  95.916  10.416  1.00  0.00     0.059 C 
ENDROOT
BRANCH   1   2
ATOM      2  C   UNL     1      98.902  94.875  11.483  1.00  0.00     0.042 C 
ATOM      3  O   UNL     1      98.453  95.096  12.638  1.00  0.00    -0.550 OA
ATOM      4  O   UNL     1      99.468  93.641  11.189  1.00  0.00    -0.550 OA
ENDBRANCH   1   2
BRANCH   1   5
ATOM      5  C   UNL     1      99.455  97.216  10.856  1.00  0.00     0.059 C 
BRANCH   5   6
ATOM      6  C   UNL     1     100.897  97.218  10.459  1.00  0.00     0.042 C 
ATOM      7  O   UNL     1     101.521  96.132  10.334  1.00  0.00    -0.550 OA
ATOM      8  O   UNL     1     101.539  98.418  10.180  1.00  0.00    -0.550 OA
ENDBRANCH   5   6
ENDBRANCH   1   5
TORSDOF 3
ENDMDL
MODEL 7
REMARK VINA RESULT:    -1.272     22.316     23.767
REMARK INTER + INTRA:          -1.545
REMARK INTER:                  -1.507
REMARK INTRA:                  -0.038
REMARK UNBOUND:                -0.050
REMARK SMILES O=C([O-])CCC(=O)[O-]
REMARK SMILES IDX 4 1 2 2 1 3 3 4 5 5 6 6 7 7 8 8
REMARK H PARENT
REMARK Flexibility Score: inf
ROOT
ATOM      1  C   UNL     1     101.736  98.117  10.328  1.00  0.00     0.059 C 
ENDROOT
BRANCH   1   2
ATOM      2  C   UNL     1     100.834  96.929  10.448  1.00  0.00     0.042 C 
ATOM      3  O   UNL     1     101.312  95.764  10.400  1.00  0.00    -0.550 OA
ATOM      4  O   UNL     1      99.474  97.108  10.661  1.00  0.00    -0.550 OA
ENDBRANCH   1   2
BRANCH   1   5
ATOM      5  C   UNL     1     100.998  99.393  10.736  1.00  0.00     0.059 C 
BRANCH   5   6
ATOM      6  C   UNL     1     101.541 100.572   9.993  1.00  0.00     0.042 C 
ATOM      7  O   UNL     1     100.855 101.125   9.094  1.00  0.00    -0.550 OA
ATOM      8  O   UNL     1     102.786 101.092  10.328  1.00  0.00    -0.550 OA
ENDBRANCH   5   6
ENDBRANCH   1   5
TORSDOF 3
ENDMDL
MODEL 8
REMARK VINA RESULT:    -1.031     19.773     21.125
REMARK INTER + INTRA:          -1.262
REMARK INTER:                  -1.224
REMARK INTRA:                  -0.038
REMARK UNBOUND:                -0.050
REMARK SMILES O=C([O-])CCC(=O)[O-]
REMARK SMILES IDX 4 1 2 2 1 3 3 4 5 5 6 6 7 7 8 8
REMARK H PARENT
REMARK Flexibility Score: inf
ROOT
ATOM      1  C   UNL     1     100.597  96.647  10.435  1.00  0.00     0.059 C 
ENDROOT
BRANCH   1   2
ATOM      2  C   UNL     1     100.916  98.108  10.382  1.00  0.00     0.042 C 
ATOM      3  O   UNL     1     102.056  98.494  10.013  1.00  0.00    -0.550 OA
ATOM      4  O   UNL     1      99.939  99.045  10.694  1.00  0.00    -0.550 OA
ENDBRANCH   1   2
BRANCH   1   5
ATOM      5  C   UNL     1      99.121  96.433  10.776  1.00  0.00     0.059 C 
BRANCH   5   6
ATOM      6  C   UNL     1      98.938  95.154  11.530  1.00  0.00     0.042 C 
ATOM      7  O   UNL     1      99.361  94.070  11.051  1.00  0.00    -0.550 OA
ATOM      8  O   UNL     1      98.343  95.167  12.786  1.00  0.00    -0.550 OA
ENDBRANCH   5   6
ENDBRANCH   1   5
TORSDOF 3
ENDMDL
MODEL 9
REMARK VINA RESULT:    -0.964     19.762     21.277
REMARK INTER + INTRA:          -1.182
REMARK INTER:                  -1.146
REMARK INTRA:                  -0.037
REMARK UNBOUND:                -0.050
REMARK SMILES O=C([O-])CCC(=O)[O-]
REMARK SMILES IDX 4 1 2 2 1 3 3 4 5 5 6 6 7 7 8 8
REMARK H PARENT
REMARK Flexibility Score: inf
ROOT
ATOM      1  C   UNL     1      99.185  96.393  10.799  1.00  0.00     0.059 C 
ENDROOT
BRANCH   1   2
ATOM      2  C   UNL     1      98.983  95.116  11.551  1.00  0.00     0.042 C 
ATOM      3  O   UNL     1      98.359  95.117  12.645  1.00  0.00    -0.550 OA
ATOM      4  O   UNL     1      99.440  93.916  11.020  1.00  0.00    -0.550 OA
ENDBRANCH   1   2
BRANCH   1   5
ATOM      5  C   UNL     1     100.669  96.608  10.498  1.00  0.00     0.059 C 
BRANCH   5   6
ATOM      6  C   UNL     1     100.981  98.069  10.416  1.00  0.00     0.042 C 
ATOM      7  O   UNL     1     102.122  98.453  10.047  1.00  0.00    -0.550 OA
ATOM      8  O   UNL     1      99.997  99.007  10.700  1.00  0.00    -0.550 OA
ENDBRANCH   5   6
ENDBRANCH   1   5
TORSDOF 3
ENDMDL
