MODEL 1
REMARK VINA RESULT:    -8.451      0.000      0.000
REMARK INTER + INTRA:         -10.597
REMARK INTER:                 -10.180
REMARK INTRA:                  -0.416
REMARK UNBOUND:                -0.416
REMARK SMILES O=c1c(O)c(-c2ccc(O)cc2O)oc2cc(O)cc(O)c12
REMARK SMILES IDX 5 1 3 2 2 3 1 4 22 5 20 6 19 7 17 8 16 9 15 10 14 11 6 12
REMARK SMILES IDX 8 13 7 14 9 15 11 16 12 17 10 18 13 20 4 22 21 24 18 26
REMARK H PARENT 10 19 13 21 4 23 21 25 18 27
REMARK Flexibility Score: inf
ROOT
ATOM      1  C   UNL     1     -45.227 -11.259  11.874  1.00  0.00     0.184 A 
ATOM      2  C   UNL     1     -45.276 -10.200  12.793  1.00  0.00     0.208 A 
ATOM      3  C   UNL     1     -44.224  -9.271  12.818  1.00  0.00     0.238 A 
ATOM      4  O   UNL     1     -44.238  -8.368  13.695  1.00  0.00    -0.285 OA
ATOM      5  C   UNL     1     -43.164  -9.383  11.886  1.00  0.00     0.111 A 
ATOM      6  C   UNL     1     -42.067  -8.474  11.791  1.00  0.00     0.134 A 
ATOM      7  C   UNL     1     -41.021  -8.744  10.899  1.00  0.00     0.093 A 
ATOM      8  C   UNL     1     -41.062  -9.854  10.055  1.00  0.00     0.123 A 
ATOM      9  C   UNL     1     -42.155 -10.719  10.101  1.00  0.00     0.094 A 
ATOM     10  C   UNL     1     -43.195 -10.498  11.007  1.00  0.00     0.146 A 
ATOM     11  O   UNL     1     -44.207 -11.358  11.032  1.00  0.00    -0.451 OA
ENDROOT
BRANCH   1  12
ATOM     12  C   UNL     1     -46.298 -12.275  11.800  1.00  0.00     0.063 A 
ATOM     13  C   UNL     1     -48.394 -13.014  10.817  1.00  0.00     0.047 A 
ATOM     14  C   UNL     1     -47.368 -12.071  10.915  1.00  0.00     0.020 A 
ATOM     15  C   UNL     1     -48.356 -14.180  11.592  1.00  0.00     0.119 A 
ATOM     16  C   UNL     1     -47.283 -14.400  12.459  1.00  0.00     0.093 A 
ATOM     17  C   UNL     1     -46.245 -13.462  12.560  1.00  0.00     0.130 A 
BRANCH  15  18
ATOM     18  O   UNL     1     -49.375 -15.125  11.505  1.00  0.00    -0.508 OA
ATOM     19  H   UNL     1     -49.410 -15.924  12.128  1.00  0.00     0.293 HD
ENDBRANCH  15  18
BRANCH  17  20
ATOM     20  O   UNL     1     -45.155 -13.718  13.393  1.00  0.00    -0.507 OA
ATOM     21  H   UNL     1     -44.220 -13.408  13.155  1.00  0.00     0.293 HD
ENDBRANCH  17  20
ENDBRANCH   1  12
BRANCH   2  22
ATOM     22  O   UNL     1     -46.370 -10.071  13.655  1.00  0.00    -0.502 OA
ATOM     23  H   UNL     1     -46.863 -10.872  14.030  1.00  0.00     0.293 HD
ENDBRANCH   2  22
BRANCH   6  24
ATOM     24  O   UNL     1     -41.967  -7.287  12.524  1.00  0.00    -0.507 OA
ATOM     25  H   UNL     1     -41.116  -6.762  12.661  1.00  0.00     0.293 HD
ENDBRANCH   6  24
BRANCH   8  26
ATOM     26  O   UNL     1     -40.012 -10.081   9.169  1.00  0.00    -0.508 OA
ATOM     27  H   UNL     1     -39.113  -9.626   9.285  1.00  0.00     0.293 HD
ENDBRANCH   8  26
TORSDOF 6
ENDMDL
MODEL 2
REMARK VINA RESULT:    -7.717      1.651      6.629
REMARK INTER + INTRA:          -9.712
REMARK INTER:                  -9.446
REMARK INTRA:                  -0.265
REMARK UNBOUND:                -0.416
REMARK SMILES O=c1c(O)c(-c2ccc(O)cc2O)oc2cc(O)cc(O)c12
REMARK SMILES IDX 5 1 3 2 2 3 1 4 22 5 20 6 19 7 17 8 16 9 15 10 14 11 6 12
REMARK SMILES IDX 8 13 7 14 9 15 11 16 12 17 10 18 13 20 4 22 21 24 18 26
REMARK H PARENT 10 19 13 21 4 23 21 25 18 27
REMARK Flexibility Score: inf
ROOT
ATOM      1  C   UNL     1     -44.870 -11.322  12.475  1.00  0.00     0.184 A 
ATOM      2  C   UNL     1     -45.059 -11.343  13.866  1.00  0.00     0.208 A 
ATOM      3  C   UNL     1     -46.191 -11.987  14.389  1.00  0.00     0.238 A 
ATOM      4  O   UNL     1     -46.393 -11.937  15.631  1.00  0.00    -0.285 OA
ATOM      5  C   UNL     1     -47.090 -12.650  13.518  1.00  0.00     0.111 A 
ATOM      6  C   UNL     1     -48.247 -13.372  13.941  1.00  0.00     0.134 A 
ATOM      7  C   UNL     1     -49.121 -13.898  12.982  1.00  0.00     0.093 A 
ATOM      8  C   UNL     1     -48.849 -13.784  11.618  1.00  0.00     0.123 A 
ATOM      9  C   UNL     1     -47.694 -13.127  11.195  1.00  0.00     0.094 A 
ATOM     10  C   UNL     1     -46.822 -12.559  12.126  1.00  0.00     0.146 A 
ATOM     11  O   UNL     1     -45.744 -11.924  11.679  1.00  0.00    -0.451 OA
ENDROOT
BRANCH   1  12
ATOM     12  C   UNL     1     -43.704 -10.655  11.859  1.00  0.00     0.063 A 
ATOM     13  C   UNL     1     -41.690 -10.822  10.508  1.00  0.00     0.047 A 
ATOM     14  C   UNL     1     -42.800 -11.422  11.108  1.00  0.00     0.020 A 
ATOM     15  C   UNL     1     -41.478  -9.444  10.639  1.00  0.00     0.119 A 
ATOM     16  C   UNL     1     -42.386  -8.669  11.366  1.00  0.00     0.093 A 
ATOM     17  C   UNL     1     -43.506  -9.262  11.967  1.00  0.00     0.130 A 
BRANCH  15  18
ATOM     18  O   UNL     1     -40.374  -8.836  10.048  1.00  0.00    -0.508 OA
ATOM     19  H   UNL     1     -39.531  -8.641  10.577  1.00  0.00     0.293 HD
ENDBRANCH  15  18
BRANCH  17  20
ATOM     20  O   UNL     1     -44.430  -8.470  12.649  1.00  0.00    -0.507 OA
ATOM     21  H   UNL     1     -44.944  -7.732  12.181  1.00  0.00     0.293 HD
ENDBRANCH  17  20
ENDBRANCH   1  12
BRANCH   2  22
ATOM     22  O   UNL     1     -44.119 -10.742  14.709  1.00  0.00    -0.502 OA
ATOM     23  H   UNL     1     -43.503 -11.280  15.306  1.00  0.00     0.293 HD
ENDBRANCH   2  22
BRANCH   6  24
ATOM     24  O   UNL     1     -48.568 -13.623  15.278  1.00  0.00    -0.507 OA
ATOM     25  H   UNL     1     -47.900 -13.693  16.030  1.00  0.00     0.293 HD
ENDBRANCH   6  24
BRANCH   8  26
ATOM     26  O   UNL     1     -49.733 -14.335  10.694  1.00  0.00    -0.508 OA
ATOM     27  H   UNL     1     -49.915 -13.888   9.802  1.00  0.00     0.293 HD
ENDBRANCH   8  26
TORSDOF 6
ENDMDL
MODEL 3
REMARK VINA RESULT:    -7.187      3.663      5.868
REMARK INTER + INTRA:          -9.074
REMARK INTER:                  -8.770
REMARK INTRA:                  -0.304
REMARK UNBOUND:                -0.416
REMARK SMILES O=c1c(O)c(-c2ccc(O)cc2O)oc2cc(O)cc(O)c12
REMARK SMILES IDX 5 1 3 2 2 3 1 4 22 5 20 6 19 7 17 8 16 9 15 10 14 11 6 12
REMARK SMILES IDX 8 13 7 14 9 15 11 16 12 17 10 18 13 20 4 22 21 24 18 26
REMARK H PARENT 10 19 13 21 4 23 21 25 18 27
REMARK Flexibility Score: inf
ROOT
ATOM      1  C   UNL     1     -48.865 -13.659  14.285  1.00  0.00     0.184 A 
ATOM      2  C   UNL     1     -48.562 -14.236  13.043  1.00  0.00     0.208 A 
ATOM      3  C   UNL     1     -47.335 -13.932  12.432  1.00  0.00     0.238 A 
ATOM      4  O   UNL     1     -47.102 -14.393  11.284  1.00  0.00    -0.285 OA
ATOM      5  C   UNL     1     -46.405 -13.097  13.098  1.00  0.00     0.111 A 
ATOM      6  C   UNL     1     -45.113 -12.756  12.594  1.00  0.00     0.134 A 
ATOM      7  C   UNL     1     -44.320 -11.836  13.292  1.00  0.00     0.093 A 
ATOM      8  C   UNL     1     -44.742 -11.296  14.506  1.00  0.00     0.123 A 
ATOM      9  C   UNL     1     -45.979 -11.664  15.035  1.00  0.00     0.094 A 
ATOM     10  C   UNL     1     -46.810 -12.549  14.344  1.00  0.00     0.146 A 
ATOM     11  O   UNL     1     -47.988 -12.856  14.874  1.00  0.00    -0.451 OA
ENDROOT
BRANCH   1  12
ATOM     12  C   UNL     1     -50.141 -13.933  14.979  1.00  0.00     0.063 A 
ATOM     13  C   UNL     1     -52.571 -13.887  14.949  1.00  0.00     0.047 A 
ATOM     14  C   UNL     1     -51.347 -13.636  14.325  1.00  0.00     0.020 A 
ATOM     15  C   UNL     1     -52.605 -14.451  16.230  1.00  0.00     0.119 A 
ATOM     16  C   UNL     1     -51.409 -14.770  16.879  1.00  0.00     0.093 A 
ATOM     17  C   UNL     1     -50.176 -14.527  16.257  1.00  0.00     0.130 A 
BRANCH  15  18
ATOM     18  O   UNL     1     -53.820 -14.703  16.864  1.00  0.00    -0.508 OA
ATOM     19  H   UNL     1     -54.587 -15.153  16.378  1.00  0.00     0.293 HD
ENDBRANCH  15  18
BRANCH  17  20
ATOM     20  O   UNL     1     -48.991 -14.896  16.896  1.00  0.00    -0.507 OA
ATOM     21  H   UNL     1     -48.995 -15.354  17.800  1.00  0.00     0.293 HD
ENDBRANCH  17  20
ENDBRANCH   1  12
BRANCH   2  22
ATOM     22  O   UNL     1     -49.467 -15.114  12.439  1.00  0.00    -0.502 OA
ATOM     23  H   UNL     1     -49.944 -15.843  12.956  1.00  0.00     0.293 HD
ENDBRANCH   2  22
BRANCH   6  24
ATOM     24  O   UNL     1     -44.555 -13.304  11.436  1.00  0.00    -0.507 OA
ATOM     25  H   UNL     1     -43.819 -13.994  11.419  1.00  0.00     0.293 HD
ENDBRANCH   6  24
BRANCH   8  26
ATOM     26  O   UNL     1     -43.919 -10.398  15.181  1.00  0.00    -0.508 OA
ATOM     27  H   UNL     1     -44.125  -9.405  15.205  1.00  0.00     0.293 HD
ENDBRANCH   8  26
TORSDOF 6
ENDMDL
MODEL 4
REMARK VINA RESULT:    -7.092      2.195      7.265
REMARK INTER + INTRA:          -8.960
REMARK INTER:                  -8.851
REMARK INTRA:                  -0.109
REMARK UNBOUND:                -0.416
REMARK SMILES O=c1c(O)c(-c2ccc(O)cc2O)oc2cc(O)cc(O)c12
REMARK SMILES IDX 5 1 3 2 2 3 1 4 22 5 20 6 19 7 17 8 16 9 15 10 14 11 6 12
REMARK SMILES IDX 8 13 7 14 9 15 11 16 12 17 10 18 13 20 4 22 21 24 18 26
REMARK H PARENT 10 19 13 21 4 23 21 25 18 27
REMARK Flexibility Score: inf
ROOT
ATOM      1  C   UNL     1     -46.000 -11.712  12.367  1.00  0.00     0.184 A 
ATOM      2  C   UNL     1     -46.643 -12.457  11.367  1.00  0.00     0.208 A 
ATOM      3  C   UNL     1     -47.749 -13.249  11.714  1.00  0.00     0.238 A 
ATOM      4  O   UNL     1     -48.274 -13.972  10.827  1.00  0.00    -0.285 OA
ATOM      5  C   UNL     1     -48.230 -13.244  13.046  1.00  0.00     0.111 A 
ATOM      6  C   UNL     1     -49.369 -13.974  13.501  1.00  0.00     0.134 A 
ATOM      7  C   UNL     1     -49.688 -13.975  14.865  1.00  0.00     0.093 A 
ATOM      8  C   UNL     1     -48.951 -13.223  15.779  1.00  0.00     0.123 A 
ATOM      9  C   UNL     1     -47.869 -12.462  15.337  1.00  0.00     0.094 A 
ATOM     10  C   UNL     1     -47.502 -12.470  13.989  1.00  0.00     0.146 A 
ATOM     11  O   UNL     1     -46.452 -11.748  13.614  1.00  0.00    -0.451 OA
ENDROOT
BRANCH   1  12
ATOM     12  C   UNL     1     -44.827 -10.864  12.071  1.00  0.00     0.063 A 
ATOM     13  C   UNL     1     -42.690 -10.595  10.943  1.00  0.00     0.047 A 
ATOM     14  C   UNL     1     -43.810 -11.372  11.248  1.00  0.00     0.020 A 
ATOM     15  C   UNL     1     -42.579  -9.293  11.447  1.00  0.00     0.119 A 
ATOM     16  C   UNL     1     -43.597  -8.771  12.249  1.00  0.00     0.093 A 
ATOM     17  C   UNL     1     -44.728  -9.542  12.555  1.00  0.00     0.130 A 
BRANCH  15  18
ATOM     18  O   UNL     1     -41.465  -8.510  11.153  1.00  0.00    -0.508 OA
ATOM     19  H   UNL     1     -41.452  -7.515  11.349  1.00  0.00     0.293 HD
ENDBRANCH  15  18
BRANCH  17  20
ATOM     20  O   UNL     1     -45.760  -8.992  13.316  1.00  0.00    -0.507 OA
ATOM     21  H   UNL     1     -45.690  -8.906  14.324  1.00  0.00     0.293 HD
ENDBRANCH  17  20
ENDBRANCH   1  12
BRANCH   2  22
ATOM     22  O   UNL     1     -46.193 -12.390  10.045  1.00  0.00    -0.502 OA
ATOM     23  H   UNL     1     -45.391 -12.914   9.717  1.00  0.00     0.293 HD
ENDBRANCH   2  22
BRANCH   6  24
ATOM     24  O   UNL     1     -50.228 -14.689  12.662  1.00  0.00    -0.507 OA
ATOM     25  H   UNL     1     -51.179 -14.428  12.451  1.00  0.00     0.293 HD
ENDBRANCH   6  24
BRANCH   8  26
ATOM     26  O   UNL     1     -49.309 -13.234  17.125  1.00  0.00    -0.508 OA
ATOM     27  H   UNL     1     -49.222 -14.072  17.689  1.00  0.00     0.293 HD
ENDBRANCH   8  26
TORSDOF 6
ENDMDL
MODEL 5
REMARK VINA RESULT:    -7.088      2.977      7.336
REMARK INTER + INTRA:          -8.954
REMARK INTER:                  -8.585
REMARK INTRA:                  -0.369
REMARK UNBOUND:                -0.416
REMARK SMILES O=c1c(O)c(-c2ccc(O)cc2O)oc2cc(O)cc(O)c12
REMARK SMILES IDX 5 1 3 2 2 3 1 4 22 5 20 6 19 7 17 8 16 9 15 10 14 11 6 12
REMARK SMILES IDX 8 13 7 14 9 15 11 16 12 17 10 18 13 20 4 22 21 24 18 26
REMARK H PARENT 10 19 13 21 4 23 21 25 18 27
REMARK Flexibility Score: inf
ROOT
ATOM      1  C   UNL     1     -46.816 -12.030  13.715  1.00  0.00     0.184 A 
ATOM      2  C   UNL     1     -46.797 -12.101  15.117  1.00  0.00     0.208 A 
ATOM      3  C   UNL     1     -47.938 -12.564  15.790  1.00  0.00     0.238 A 
ATOM      4  O   UNL     1     -47.941 -12.554  17.049  1.00  0.00    -0.285 OA
ATOM      5  C   UNL     1     -49.064 -13.003  15.050  1.00  0.00     0.111 A 
ATOM      6  C   UNL     1     -50.258 -13.532  15.626  1.00  0.00     0.134 A 
ATOM      7  C   UNL     1     -51.347 -13.835  14.799  1.00  0.00     0.093 A 
ATOM      8  C   UNL     1     -51.264 -13.690  13.415  1.00  0.00     0.123 A 
ATOM      9  C   UNL     1     -50.083 -13.224  12.837  1.00  0.00     0.094 A 
ATOM     10  C   UNL     1     -48.993 -12.877  13.637  1.00  0.00     0.146 A 
ATOM     11  O   UNL     1     -47.895 -12.419  13.047  1.00  0.00    -0.451 OA
ENDROOT
BRANCH   1  12
ATOM     12  C   UNL     1     -45.652 -11.545  12.946  1.00  0.00     0.063 A 
ATOM     13  C   UNL     1     -44.147  -9.720  12.386  1.00  0.00     0.047 A 
ATOM     14  C   UNL     1     -45.247 -10.209  13.094  1.00  0.00     0.020 A 
ATOM     15  C   UNL     1     -43.428 -10.564  11.531  1.00  0.00     0.119 A 
ATOM     16  C   UNL     1     -43.811 -11.901  11.394  1.00  0.00     0.093 A 
ATOM     17  C   UNL     1     -44.910 -12.403  12.106  1.00  0.00     0.130 A 
BRANCH  15  18
ATOM     18  O   UNL     1     -42.332 -10.086  10.816  1.00  0.00    -0.508 OA
ATOM     19  H   UNL     1     -42.438  -9.385  10.092  1.00  0.00     0.293 HD
ENDBRANCH  15  18
BRANCH  17  20
ATOM     20  O   UNL     1     -45.251 -13.751  11.998  1.00  0.00    -0.507 OA
ATOM     21  H   UNL     1     -45.775 -14.227  12.724  1.00  0.00     0.293 HD
ENDBRANCH  17  20
ENDBRANCH   1  12
BRANCH   2  22
ATOM     22  O   UNL     1     -45.648 -11.729  15.820  1.00  0.00    -0.502 OA
ATOM     23  H   UNL     1     -45.531 -11.918  16.808  1.00  0.00     0.293 HD
ENDBRANCH   2  22
BRANCH   6  24
ATOM     24  O   UNL     1     -50.418 -13.801  16.988  1.00  0.00    -0.507 OA
ATOM     25  H   UNL     1     -50.796 -14.656  17.368  1.00  0.00     0.293 HD
ENDBRANCH   6  24
BRANCH   8  26
ATOM     26  O   UNL     1     -52.362 -14.018  12.623  1.00  0.00    -0.508 OA
ATOM     27  H   UNL     1     -52.453 -14.934  12.198  1.00  0.00     0.293 HD
ENDBRANCH   8  26
TORSDOF 6
ENDMDL
MODEL 6
REMARK VINA RESULT:    -7.071      2.078      4.029
REMARK INTER + INTRA:          -8.934
REMARK INTER:                  -8.536
REMARK INTRA:                  -0.397
REMARK UNBOUND:                -0.416
REMARK SMILES O=c1c(O)c(-c2ccc(O)cc2O)oc2cc(O)cc(O)c12
REMARK SMILES IDX 5 1 3 2 2 3 1 4 22 5 20 6 19 7 17 8 16 9 15 10 14 11 6 12
REMARK SMILES IDX 8 13 7 14 9 15 11 16 12 17 10 18 13 20 4 22 21 24 18 26
REMARK H PARENT 10 19 13 21 4 23 21 25 18 27
REMARK Flexibility Score: inf
ROOT
ATOM      1  C   UNL     1     -47.784 -12.493  11.839  1.00  0.00     0.184 A 
ATOM      2  C   UNL     1     -47.145 -12.847  10.641  1.00  0.00     0.208 A 
ATOM      3  C   UNL     1     -45.859 -12.348  10.383  1.00  0.00     0.238 A 
ATOM      4  O   UNL     1     -45.322 -12.610   9.274  1.00  0.00    -0.285 OA
ATOM      5  C   UNL     1     -45.207 -11.545  11.350  1.00  0.00     0.111 A 
ATOM      6  C   UNL     1     -43.886 -11.020  11.214  1.00  0.00     0.134 A 
ATOM      7  C   UNL     1     -43.385 -10.150  12.190  1.00  0.00     0.093 A 
ATOM      8  C   UNL     1     -44.129  -9.838  13.328  1.00  0.00     0.123 A 
ATOM      9  C   UNL     1     -45.399 -10.388  13.498  1.00  0.00     0.094 A 
ATOM     10  C   UNL     1     -45.942 -11.228  12.523  1.00  0.00     0.146 A 
ATOM     11  O   UNL     1     -47.163 -11.714  12.715  1.00  0.00    -0.451 OA
ENDROOT
BRANCH   1  12
ATOM     12  C   UNL     1     -49.140 -12.978  12.169  1.00  0.00     0.063 A 
ATOM     13  C   UNL     1     -51.528 -12.940  11.712  1.00  0.00     0.047 A 
ATOM     14  C   UNL     1     -50.233 -12.498  11.430  1.00  0.00     0.020 A 
ATOM     15  C   UNL     1     -51.745 -13.879  12.728  1.00  0.00     0.119 A 
ATOM     16  C   UNL     1     -50.660 -14.379  13.453  1.00  0.00     0.093 A 
ATOM     17  C   UNL     1     -49.356 -13.945  13.173  1.00  0.00     0.130 A 
BRANCH  15  18
ATOM     18  O   UNL     1     -53.032 -14.324  13.021  1.00  0.00    -0.508 OA
ATOM     19  H   UNL     1     -53.398 -15.181  12.623  1.00  0.00     0.293 HD
ENDBRANCH  15  18
BRANCH  17  20
ATOM     20  O   UNL     1     -48.278 -14.489  13.871  1.00  0.00    -0.507 OA
ATOM     21  H   UNL     1     -47.353 -14.549  13.460  1.00  0.00     0.293 HD
ENDBRANCH  17  20
ENDBRANCH   1  12
BRANCH   2  22
ATOM     22  O   UNL     1     -47.781 -13.700   9.734  1.00  0.00    -0.502 OA
ATOM     23  H   UNL     1     -47.781 -13.530   8.736  1.00  0.00     0.293 HD
ENDBRANCH   2  22
BRANCH   6  24
ATOM     24  O   UNL     1     -43.022 -11.337  10.162  1.00  0.00    -0.507 OA
ATOM     25  H   UNL     1     -42.447 -12.165  10.115  1.00  0.00     0.293 HD
ENDBRANCH   6  24
BRANCH   8  26
ATOM     26  O   UNL     1     -43.590  -8.983  14.286  1.00  0.00    -0.508 OA
ATOM     27  H   UNL     1     -43.809  -7.993  14.296  1.00  0.00     0.293 HD
ENDBRANCH   8  26
TORSDOF 6
ENDMDL
MODEL 7
REMARK VINA RESULT:    -6.803      1.974      7.096
REMARK INTER + INTRA:          -8.612
REMARK INTER:                  -8.461
REMARK INTRA:                  -0.151
REMARK UNBOUND:                -0.416
REMARK SMILES O=c1c(O)c(-c2ccc(O)cc2O)oc2cc(O)cc(O)c12
REMARK SMILES IDX 5 1 3 2 2 3 1 4 22 5 20 6 19 7 17 8 16 9 15 10 14 11 6 12
REMARK SMILES IDX 8 13 7 14 9 15 11 16 12 17 10 18 13 20 4 22 21 24 18 26
REMARK H PARENT 10 19 13 21 4 23 21 25 18 27
REMARK Flexibility Score: inf
ROOT
ATOM      1  C   UNL     1     -44.619 -10.266  12.827  1.00  0.00     0.184 A 
ATOM      2  C   UNL     1     -44.508 -11.212  11.798  1.00  0.00     0.208 A 
ATOM      3  C   UNL     1     -45.404 -12.292  11.765  1.00  0.00     0.238 A 
ATOM      4  O   UNL     1     -45.252 -13.176  10.882  1.00  0.00    -0.285 OA
ATOM      5  C   UNL     1     -46.435 -12.380  12.732  1.00  0.00     0.111 A 
ATOM      6  C   UNL     1     -47.427 -13.407  12.770  1.00  0.00     0.134 A 
ATOM      7  C   UNL     1     -48.334 -13.451  13.836  1.00  0.00     0.093 A 
ATOM      8  C   UNL     1     -48.328 -12.472  14.829  1.00  0.00     0.123 A 
ATOM      9  C   UNL     1     -47.399 -11.434  14.773  1.00  0.00     0.094 A 
ATOM     10  C   UNL     1     -46.456 -11.383  13.743  1.00  0.00     0.146 A 
ATOM     11  O   UNL     1     -45.575 -10.389  13.739  1.00  0.00    -0.451 OA
ENDROOT
BRANCH   1  12
ATOM     12  C   UNL     1     -43.703  -9.110  12.924  1.00  0.00     0.063 A 
ATOM     13  C   UNL     1     -42.611  -7.230  11.837  1.00  0.00     0.047 A 
ATOM     14  C   UNL     1     -43.467  -8.333  11.779  1.00  0.00     0.020 A 
ATOM     15  C   UNL     1     -41.991  -6.882  13.043  1.00  0.00     0.119 A 
ATOM     16  C   UNL     1     -42.239  -7.638  14.193  1.00  0.00     0.093 A 
ATOM     17  C   UNL     1     -43.101  -8.743  14.146  1.00  0.00     0.130 A 
BRANCH  15  18
ATOM     18  O   UNL     1     -41.133  -5.788  13.112  1.00  0.00    -0.508 OA
ATOM     19  H   UNL     1     -41.345  -4.985  13.694  1.00  0.00     0.293 HD
ENDBRANCH  15  18
BRANCH  17  20
ATOM     20  O   UNL     1     -43.378  -9.459  15.311  1.00  0.00    -0.507 OA
ATOM     21  H   UNL     1     -42.652  -9.683  15.982  1.00  0.00     0.293 HD
ENDBRANCH  17  20
ENDBRANCH   1  12
BRANCH   2  22
ATOM     22  O   UNL     1     -43.526 -11.063  10.813  1.00  0.00    -0.502 OA
ATOM     23  H   UNL     1     -43.712 -11.222   9.831  1.00  0.00     0.293 HD
ENDBRANCH   2  22
BRANCH   6  24
ATOM     24  O   UNL     1     -47.581 -14.385  11.783  1.00  0.00    -0.507 OA
ATOM     25  H   UNL     1     -46.914 -14.578  11.051  1.00  0.00     0.293 HD
ENDBRANCH   6  24
BRANCH   8  26
ATOM     26  O   UNL     1     -49.257 -12.539  15.865  1.00  0.00    -0.508 OA
ATOM     27  H   UNL     1     -50.200 -12.879  15.709  1.00  0.00     0.293 HD
ENDBRANCH   8  26
TORSDOF 6
ENDMDL
MODEL 8
REMARK VINA RESULT:    -6.764      1.963      6.708
REMARK INTER + INTRA:          -8.564
REMARK INTER:                  -8.335
REMARK INTRA:                  -0.228
REMARK UNBOUND:                -0.416
REMARK SMILES O=c1c(O)c(-c2ccc(O)cc2O)oc2cc(O)cc(O)c12
REMARK SMILES IDX 5 1 3 2 2 3 1 4 22 5 20 6 19 7 17 8 16 9 15 10 14 11 6 12
REMARK SMILES IDX 8 13 7 14 9 15 11 16 12 17 10 18 13 20 4 22 21 24 18 26
REMARK H PARENT 10 19 13 21 4 23 21 25 18 27
REMARK Flexibility Score: inf
ROOT
ATOM      1  C   UNL     1     -44.208 -11.229  11.612  1.00  0.00     0.184 A 
ATOM      2  C   UNL     1     -45.156 -12.005  10.928  1.00  0.00     0.208 A 
ATOM      3  C   UNL     1     -46.257 -12.514  11.634  1.00  0.00     0.238 A 
ATOM      4  O   UNL     1     -47.063 -13.270  11.031  1.00  0.00    -0.285 OA
ATOM      5  C   UNL     1     -46.424 -12.194  13.004  1.00  0.00     0.111 A 
ATOM      6  C   UNL     1     -47.525 -12.618  13.808  1.00  0.00     0.134 A 
ATOM      7  C   UNL     1     -47.530 -12.329  15.179  1.00  0.00     0.093 A 
ATOM      8  C   UNL     1     -46.510 -11.577  15.761  1.00  0.00     0.123 A 
ATOM      9  C   UNL     1     -45.457 -11.111  14.974  1.00  0.00     0.094 A 
ATOM     10  C   UNL     1     -45.404 -11.416  13.612  1.00  0.00     0.146 A 
ATOM     11  O   UNL     1     -44.372 -10.970  12.903  1.00  0.00    -0.451 OA
ENDROOT
BRANCH   1  12
ATOM     12  C   UNL     1     -43.023 -10.670  10.930  1.00  0.00     0.063 A 
ATOM     13  C   UNL     1     -41.076 -11.030   9.519  1.00  0.00     0.047 A 
ATOM     14  C   UNL     1     -42.202 -11.527  10.181  1.00  0.00     0.020 A 
ATOM     15  C   UNL     1     -40.765  -9.666   9.586  1.00  0.00     0.119 A 
ATOM     16  C   UNL     1     -41.590  -8.802  10.312  1.00  0.00     0.093 A 
ATOM     17  C   UNL     1     -42.725  -9.291  10.975  1.00  0.00     0.130 A 
BRANCH  15  18
ATOM     18  O   UNL     1     -39.644  -9.160   8.933  1.00  0.00    -0.508 OA
ATOM     19  H   UNL     1     -39.544  -9.224   7.926  1.00  0.00     0.293 HD
ENDBRANCH  15  18
BRANCH  17  20
ATOM     20  O   UNL     1     -43.567  -8.410  11.654  1.00  0.00    -0.507 OA
ATOM     21  H   UNL     1     -44.139  -8.716  12.433  1.00  0.00     0.293 HD
ENDBRANCH  17  20
ENDBRANCH   1  12
BRANCH   2  22
ATOM     22  O   UNL     1     -45.005 -12.247   9.559  1.00  0.00    -0.502 OA
ATOM     23  H   UNL     1     -45.675 -12.787   9.026  1.00  0.00     0.293 HD
ENDBRANCH   2  22
BRANCH   6  24
ATOM     24  O   UNL     1     -48.641 -13.298  13.313  1.00  0.00    -0.507 OA
ATOM     25  H   UNL     1     -49.551 -12.888  13.166  1.00  0.00     0.293 HD
ENDBRANCH   6  24
BRANCH   8  26
ATOM     26  O   UNL     1     -46.559 -11.294  17.124  1.00  0.00    -0.508 OA
ATOM     27  H   UNL     1     -46.788 -10.367  17.464  1.00  0.00     0.293 HD
ENDBRANCH   8  26
TORSDOF 6
ENDMDL
MODEL 9
REMARK VINA RESULT:    -5.991      2.846      7.881
REMARK INTER + INTRA:          -7.633
REMARK INTER:                  -7.219
REMARK INTRA:                  -0.414
REMARK UNBOUND:                -0.416
REMARK SMILES O=c1c(O)c(-c2ccc(O)cc2O)oc2cc(O)cc(O)c12
REMARK SMILES IDX 5 1 3 2 2 3 1 4 22 5 20 6 19 7 17 8 16 9 15 10 14 11 6 12
REMARK SMILES IDX 8 13 7 14 9 15 11 16 12 17 10 18 13 20 4 22 21 24 18 26
REMARK H PARENT 10 19 13 21 4 23 21 25 18 27
REMARK Flexibility Score: inf
ROOT
ATOM      1  C   UNL     1     -47.628 -12.702  12.519  1.00  0.00     0.184 A 
ATOM      2  C   UNL     1     -48.581 -12.755  11.490  1.00  0.00     0.208 A 
ATOM      3  C   UNL     1     -49.881 -13.193  11.789  1.00  0.00     0.238 A 
ATOM      4  O   UNL     1     -50.709 -13.309  10.848  1.00  0.00    -0.285 OA
ATOM      5  C   UNL     1     -50.225 -13.520  13.123  1.00  0.00     0.111 A 
ATOM      6  C   UNL     1     -51.523 -13.934  13.549  1.00  0.00     0.134 A 
ATOM      7  C   UNL     1     -51.719 -14.334  14.877  1.00  0.00     0.093 A 
ATOM      8  C   UNL     1     -50.683 -14.274  15.809  1.00  0.00     0.123 A 
ATOM      9  C   UNL     1     -49.424 -13.820  15.416  1.00  0.00     0.094 A 
ATOM     10  C   UNL     1     -49.187 -13.450  14.090  1.00  0.00     0.146 A 
ATOM     11  O   UNL     1     -47.968 -13.043  13.755  1.00  0.00    -0.451 OA
ENDROOT
BRANCH   1  12
ATOM     12  C   UNL     1     -46.241 -12.257  12.270  1.00  0.00     0.063 A 
ATOM     13  C   UNL     1     -44.036 -12.738  11.366  1.00  0.00     0.047 A 
ATOM     14  C   UNL     1     -45.353 -13.129  11.622  1.00  0.00     0.020 A 
ATOM     15  C   UNL     1     -43.595 -11.464  11.744  1.00  0.00     0.119 A 
ATOM     16  C   UNL     1     -44.479 -10.581  12.371  1.00  0.00     0.093 A 
ATOM     17  C   UNL     1     -45.804 -10.963  12.626  1.00  0.00     0.130 A 
BRANCH  15  18
ATOM     18  O   UNL     1     -42.283 -11.064  11.498  1.00  0.00    -0.508 OA
ATOM     19  H   UNL     1     -41.594 -11.709  11.127  1.00  0.00     0.293 HD
ENDBRANCH  15  18
BRANCH  17  20
ATOM     20  O   UNL     1     -46.690 -10.055  13.207  1.00  0.00    -0.507 OA
ATOM     21  H   UNL     1     -46.647  -9.064  12.998  1.00  0.00     0.293 HD
ENDBRANCH  17  20
ENDBRANCH   1  12
BRANCH   2  22
ATOM     22  O   UNL     1     -48.236 -12.358  10.195  1.00  0.00    -0.502 OA
ATOM     23  H   UNL     1     -48.668 -11.565   9.736  1.00  0.00     0.293 HD
ENDBRANCH   2  22
BRANCH   6  24
ATOM     24  O   UNL     1     -52.651 -13.948  12.724  1.00  0.00    -0.507 OA
ATOM     25  H   UNL     1     -52.919 -14.712  12.123  1.00  0.00     0.293 HD
ENDBRANCH   6  24
BRANCH   8  26
ATOM     26  O   UNL     1     -50.920 -14.663  17.125  1.00  0.00    -0.508 OA
ATOM     27  H   UNL     1     -50.338 -15.353  17.586  1.00  0.00     0.293 HD
ENDBRANCH   8  26
TORSDOF 6
ENDMDL
