MODEL 1
REMARK VINA RESULT:    -2.343      0.000      0.000
REMARK INTER + INTRA:          -2.343
REMARK INTER:                  -2.343
REMARK INTRA:                   0.000
REMARK UNBOUND:                 0.000
REMARK SMILES CC(=O)[O-]
REMARK SMILES IDX 1 1 2 2 3 3 4 4
REMARK H PARENT
REMARK Flexibility Score: inf
ROOT
ATOM      1  C   UNL     1      60.915  28.176  24.749  1.00  0.00     0.063 C 
ATOM      2  C   UNL     1      60.379  27.079  25.606  1.00  0.00     0.038 C 
ATOM      3  O   UNL     1      60.907  26.835  26.723  1.00  0.00    -0.550 OA
ATOM      4  O   UNL     1      59.263  26.359  25.200  1.00  0.00    -0.550 OA
ENDROOT
TORSDOF 0
ENDMDL
MODEL 2
REMARK VINA RESULT:    -2.309     12.830     13.471
REMARK INTER + INTRA:          -2.309
REMARK INTER:                  -2.309
REMARK INTRA:                   0.000
REMARK UNBOUND:                 0.000
REMARK SMILES CC(=O)[O-]
REMARK SMILES IDX 1 1 2 2 3 3 4 4
REMARK H PARENT
REMARK Flexibility Score: inf
ROOT
ATOM      1  C   UNL     1      61.108  28.632  12.999  1.00  0.00     0.063 C 
ATOM      2  C   UNL     1      59.825  28.519  12.247  1.00  0.00     0.038 C 
ATOM      3  O   UNL     1      59.734  28.982  11.079  1.00  0.00    -0.550 OA
ATOM      4  O   UNL     1      58.743  27.855  12.810  1.00  0.00    -0.550 OA
ENDROOT
TORSDOF 0
ENDMDL
MODEL 3
REMARK VINA RESULT:    -2.205      3.325      3.616
REMARK INTER + INTRA:          -2.205
REMARK INTER:                  -2.205
REMARK INTRA:                   0.000
REMARK UNBOUND:                 0.000
REMARK SMILES CC(=O)[O-]
REMARK SMILES IDX 1 1 2 2 3 3 4 4
REMARK H PARENT
REMARK Flexibility Score: inf
ROOT
ATOM      1  C   UNL     1      61.884  26.922  28.021  1.00  0.00     0.063 C 
ATOM      2  C   UNL     1      60.697  27.511  28.705  1.00  0.00     0.038 C 
ATOM      3  O   UNL     1      59.774  26.763  29.124  1.00  0.00    -0.550 OA
ATOM      4  O   UNL     1      60.631  28.879  28.932  1.00  0.00    -0.550 OA
ENDROOT
TORSDOF 0
ENDMDL
MODEL 4
REMARK VINA RESULT:    -2.196     15.305     15.815
REMARK INTER + INTRA:          -2.196
REMARK INTER:                  -2.196
REMARK INTRA:                   0.000
REMARK UNBOUND:                 0.000
REMARK SMILES CC(=O)[O-]
REMARK SMILES IDX 1 1 2 2 3 3 4 4
REMARK H PARENT
REMARK Flexibility Score: inf
ROOT
ATOM      1  C   UNL     1      62.579  28.898  10.448  1.00  0.00     0.063 C 
ATOM      2  C   UNL     1      61.261  28.490   9.884  1.00  0.00     0.038 C 
ATOM      3  O   UNL     1      61.210  27.737   8.875  1.00  0.00    -0.550 OA
ATOM      4  O   UNL     1      60.084  28.894  10.500  1.00  0.00    -0.550 OA
ENDROOT
TORSDOF 0
ENDMDL
MODEL 5
REMARK VINA RESULT:    -2.186     15.493     15.942
REMARK INTER + INTRA:          -2.186
REMARK INTER:                  -2.186
REMARK INTRA:                   0.000
REMARK UNBOUND:                 0.000
REMARK SMILES CC(=O)[O-]
REMARK SMILES IDX 1 1 2 2 3 3 4 4
REMARK H PARENT
REMARK Flexibility Score: inf
ROOT
ATOM      1  C   UNL     1      60.389  29.592  10.336  1.00  0.00     0.063 C 
ATOM      2  C   UNL     1      61.418  28.630   9.849  1.00  0.00     0.038 C 
ATOM      3  O   UNL     1      61.140  27.822   8.922  1.00  0.00    -0.550 OA
ATOM      4  O   UNL     1      62.703  28.656  10.376  1.00  0.00    -0.550 OA
ENDROOT
TORSDOF 0
ENDMDL
MODEL 6
REMARK VINA RESULT:    -2.180     14.594     14.954
REMARK INTER + INTRA:          -2.180
REMARK INTER:                  -2.180
REMARK INTRA:                   0.000
REMARK UNBOUND:                 0.000
REMARK SMILES CC(=O)[O-]
REMARK SMILES IDX 1 1 2 2 3 3 4 4
REMARK H PARENT
REMARK Flexibility Score: inf
ROOT
ATOM      1  C   UNL     1      60.126  28.590  12.239  1.00  0.00     0.063 C 
ATOM      2  C   UNL     1      60.455  28.960  10.833  1.00  0.00     0.038 C 
ATOM      3  O   UNL     1      59.994  30.022  10.335  1.00  0.00    -0.550 OA
ATOM      4  O   UNL     1      61.315  28.166  10.086  1.00  0.00    -0.550 OA
ENDROOT
TORSDOF 0
ENDMDL
MODEL 7
REMARK VINA RESULT:    -2.162      1.642      1.979
REMARK INTER + INTRA:          -2.162
REMARK INTER:                  -2.162
REMARK INTRA:                   0.000
REMARK UNBOUND:                 0.000
REMARK SMILES CC(=O)[O-]
REMARK SMILES IDX 1 1 2 2 3 3 4 4
REMARK H PARENT
REMARK Flexibility Score: inf
ROOT
ATOM      1  C   UNL     1      60.349  27.329  25.313  1.00  0.00     0.063 C 
ATOM      2  C   UNL     1      61.127  27.002  26.542  1.00  0.00     0.038 C 
ATOM      3  O   UNL     1      60.566  27.020  27.670  1.00  0.00    -0.550 OA
ATOM      4  O   UNL     1      62.459  26.621  26.443  1.00  0.00    -0.550 OA
ENDROOT
TORSDOF 0
ENDMDL
MODEL 8
REMARK VINA RESULT:    -2.148     15.590     16.131
REMARK INTER + INTRA:          -2.148
REMARK INTER:                  -2.148
REMARK INTRA:                   0.000
REMARK UNBOUND:                 0.000
REMARK SMILES CC(=O)[O-]
REMARK SMILES IDX 1 1 2 2 3 3 4 4
REMARK H PARENT
REMARK Flexibility Score: inf
ROOT
ATOM      1  C   UNL     1      63.656  28.988   9.245  1.00  0.00     0.063 C 
ATOM      2  C   UNL     1      62.279  28.634   9.695  1.00  0.00     0.038 C 
ATOM      3  O   UNL     1      61.845  29.060  10.798  1.00  0.00    -0.550 OA
ATOM      4  O   UNL     1      61.451  27.879   8.875  1.00  0.00    -0.550 OA
ENDROOT
TORSDOF 0
ENDMDL
MODEL 9
REMARK VINA RESULT:     0.106      3.124      3.383
REMARK INTER + INTRA:           0.106
REMARK INTER:                   0.106
REMARK INTRA:                   0.000
REMARK UNBOUND:                 0.000
REMARK SMILES CC(=O)[O-]
REMARK SMILES IDX 1 1 2 2 3 3 4 4
REMARK H PARENT
REMARK Flexibility Score: inf
ROOT
ATOM      1  C   UNL     1      61.011  28.865  29.052  1.00  0.00     0.063 C 
ATOM      2  C   UNL     1      60.766  27.460  28.618  1.00  0.00     0.038 C 
ATOM      3  O   UNL     1      61.567  26.893  27.828  1.00  0.00    -0.550 OA
ATOM      4  O   UNL     1      59.684  26.753  29.125  1.00  0.00    -0.550 OA
ENDROOT
TORSDOF 0
ENDMDL
