MODEL 1
REMARK VINA RESULT:    -4.451      0.000      0.000
REMARK INTER + INTRA:          -6.105
REMARK INTER:                  -6.012
REMARK INTRA:                  -0.093
REMARK UNBOUND:                -0.093
REMARK SMILES [NH3+]CCCC[C@@H]([NH3+])C(=O)[O-]
REMARK SMILES IDX 4 1 3 2 2 3 1 4 5 8 6 9 7 10 8 14 9 15 10 16
REMARK H PARENT 1 5 1 6 1 7 7 11 7 12 7 13
REMARK Flexibility Score: inf
ROOT
ATOM      1  C   UNL     1      -5.827   1.980  -0.027  1.00  0.00     0.012 C 
ENDROOT
BRANCH   1   2
ATOM      2  C   UNL     1      -6.400   3.132  -0.867  1.00  0.00     0.061 C 
BRANCH   2   3
ATOM      3  C   UNL     1      -6.920   4.292  -0.003  1.00  0.00     0.258 C 
BRANCH   3   4
ATOM      4  N   UNL     1      -5.847   5.199   0.408  1.00  0.00    -0.358 N 
ATOM      5  H   UNL     1      -5.386   5.623  -0.429  1.00  0.00     0.344 HD
ATOM      6  H   UNL     1      -6.257   5.972   0.983  1.00  0.00     0.344 HD
ATOM      7  H   UNL     1      -5.140   4.690   0.987  1.00  0.00     0.344 HD
ENDBRANCH   3   4
ENDBRANCH   2   3
ENDBRANCH   1   2
BRANCH   1   8
ATOM      8  C   UNL     1      -6.417   0.632  -0.468  1.00  0.00     0.072 C 
BRANCH   8   9
ATOM      9  C   UNL     1      -5.891  -0.553   0.373  1.00  0.00     0.227 C 
BRANCH   9  10
ATOM     10  N   UNL     1      -6.988  -1.322   0.977  1.00  0.00    -0.350 N 
ATOM     11  H   UNL     1      -7.054  -2.274   0.548  1.00  0.00     0.345 HD
ATOM     12  H   UNL     1      -7.895  -0.819   0.848  1.00  0.00     0.345 HD
ATOM     13  H   UNL     1      -6.828  -1.422   2.007  1.00  0.00     0.345 HD
ENDBRANCH   9  10
BRANCH   9  14
ATOM     14  C   UNL     1      -5.050  -1.450  -0.495  1.00  0.00     0.099 C 
ATOM     15  O   UNL     1      -4.149  -0.961  -1.225  1.00  0.00    -0.544 OA
ATOM     16  O   UNL     1      -5.277  -2.821  -0.513  1.00  0.00    -0.544 OA
ENDBRANCH   9  14
ENDBRANCH   8   9
ENDBRANCH   1   8
TORSDOF 7
ENDMDL
MODEL 2
REMARK VINA RESULT:    -4.391      1.606      1.784
REMARK INTER + INTRA:          -6.024
REMARK INTER:                  -5.913
REMARK INTRA:                  -0.110
REMARK UNBOUND:                -0.093
REMARK SMILES [NH3+]CCCC[C@@H]([NH3+])C(=O)[O-]
REMARK SMILES IDX 4 1 3 2 2 3 1 4 5 8 6 9 7 10 8 14 9 15 10 16
REMARK H PARENT 1 5 1 6 1 7 7 11 7 12 7 13
REMARK Flexibility Score: inf
ROOT
ATOM      1  C   UNL     1      -5.743   1.509  -0.096  1.00  0.00     0.012 C 
ENDROOT
BRANCH   1   2
ATOM      2  C   UNL     1      -6.854   2.545  -0.329  1.00  0.00     0.061 C 
BRANCH   2   3
ATOM      3  C   UNL     1      -6.371   3.758  -1.140  1.00  0.00     0.258 C 
BRANCH   3   4
ATOM      4  N   UNL     1      -5.859   4.828  -0.281  1.00  0.00    -0.358 N 
ATOM      5  H   UNL     1      -6.627   5.487  -0.021  1.00  0.00     0.344 HD
ATOM      6  H   UNL     1      -5.477   4.406   0.597  1.00  0.00     0.344 HD
ATOM      7  H   UNL     1      -5.090   5.348  -0.764  1.00  0.00     0.344 HD
ENDBRANCH   3   4
ENDBRANCH   2   3
ENDBRANCH   1   2
BRANCH   1   8
ATOM      8  C   UNL     1      -6.332   0.099   0.069  1.00  0.00     0.072 C 
BRANCH   8   9
ATOM      9  C   UNL     1      -5.592  -0.959  -0.780  1.00  0.00     0.227 C 
BRANCH   9  10
ATOM     10  N   UNL     1      -4.424  -0.388  -1.464  1.00  0.00    -0.350 N 
ATOM     11  H   UNL     1      -4.001  -1.083  -2.122  1.00  0.00     0.345 HD
ATOM     12  H   UNL     1      -3.707  -0.090  -0.765  1.00  0.00     0.345 HD
ATOM     13  H   UNL     1      -4.708   0.463  -2.004  1.00  0.00     0.345 HD
ENDBRANCH   9  10
BRANCH   9  14
ATOM     14  C   UNL     1      -5.165  -2.101   0.103  1.00  0.00     0.099 C 
ATOM     15  O   UNL     1      -5.112  -3.271  -0.358  1.00  0.00    -0.544 OA
ATOM     16  O   UNL     1      -4.848  -1.874   1.437  1.00  0.00    -0.544 OA
ENDBRANCH   9  14
ENDBRANCH   8   9
ENDBRANCH   1   8
TORSDOF 7
ENDMDL
MODEL 3
REMARK VINA RESULT:    -4.304      1.727      2.322
REMARK INTER + INTRA:          -5.906
REMARK INTER:                  -5.500
REMARK INTRA:                  -0.406
REMARK UNBOUND:                -0.093
REMARK SMILES [NH3+]CCCC[C@@H]([NH3+])C(=O)[O-]
REMARK SMILES IDX 4 1 3 2 2 3 1 4 5 8 6 9 7 10 8 14 9 15 10 16
REMARK H PARENT 1 5 1 6 1 7 7 11 7 12 7 13
REMARK Flexibility Score: inf
ROOT
ATOM      1  C   UNL     1      -7.399   0.386   0.765  1.00  0.00     0.012 C 
ENDROOT
BRANCH   1   2
ATOM      2  C   UNL     1      -6.599   1.443   1.540  1.00  0.00     0.061 C 
BRANCH   2   3
ATOM      3  C   UNL     1      -6.022   2.536   0.625  1.00  0.00     0.258 C 
BRANCH   3   4
ATOM      4  N   UNL     1      -5.289   1.975  -0.512  1.00  0.00    -0.358 N 
ATOM      5  H   UNL     1      -4.494   1.384  -0.178  1.00  0.00     0.344 HD
ATOM      6  H   UNL     1      -5.936   1.370  -1.069  1.00  0.00     0.344 HD
ATOM      7  H   UNL     1      -4.931   2.740  -1.130  1.00  0.00     0.344 HD
ENDBRANCH   3   4
ENDBRANCH   2   3
ENDBRANCH   1   2
BRANCH   1   8
ATOM      8  C   UNL     1      -6.892  -1.029   1.082  1.00  0.00     0.072 C 
BRANCH   8   9
ATOM      9  C   UNL     1      -5.349  -1.121   1.097  1.00  0.00     0.227 C 
BRANCH   9  10
ATOM     10  N   UNL     1      -4.859  -1.876   2.258  1.00  0.00    -0.350 N 
ATOM     11  H   UNL     1      -5.101  -2.890   2.171  1.00  0.00     0.345 HD
ATOM     12  H   UNL     1      -5.273  -1.493   3.138  1.00  0.00     0.345 HD
ATOM     13  H   UNL     1      -3.819  -1.779   2.332  1.00  0.00     0.345 HD
ENDBRANCH   9  10
BRANCH   9  14
ATOM     14  C   UNL     1      -4.874  -1.768  -0.177  1.00  0.00     0.099 C 
ATOM     15  O   UNL     1      -5.069  -2.995  -0.374  1.00  0.00    -0.544 OA
ATOM     16  O   UNL     1      -4.196  -1.019  -1.132  1.00  0.00    -0.544 OA
ENDBRANCH   9  14
ENDBRANCH   8   9
ENDBRANCH   1   8
TORSDOF 7
ENDMDL
MODEL 4
REMARK VINA RESULT:    -4.209      1.759      2.130
REMARK INTER + INTRA:          -5.779
REMARK INTER:                  -5.631
REMARK INTRA:                  -0.148
REMARK UNBOUND:                -0.093
REMARK SMILES [NH3+]CCCC[C@@H]([NH3+])C(=O)[O-]
REMARK SMILES IDX 4 1 3 2 2 3 1 4 5 8 6 9 7 10 8 14 9 15 10 16
REMARK H PARENT 1 5 1 6 1 7 7 11 7 12 7 13
REMARK Flexibility Score: inf
ROOT
ATOM      1  C   UNL     1      -6.516   2.310   1.599  1.00  0.00     0.012 C 
ENDROOT
BRANCH   1   2
ATOM      2  C   UNL     1      -7.470   3.492   1.364  1.00  0.00     0.061 C 
BRANCH   2   3
ATOM      3  C   UNL     1      -6.760   4.853   1.463  1.00  0.00     0.258 C 
BRANCH   3   4
ATOM      4  N   UNL     1      -5.843   5.080   0.345  1.00  0.00    -0.358 N 
ATOM      5  H   UNL     1      -5.732   6.104   0.166  1.00  0.00     0.344 HD
ATOM      6  H   UNL     1      -4.905   4.686   0.589  1.00  0.00     0.344 HD
ATOM      7  H   UNL     1      -6.193   4.602  -0.517  1.00  0.00     0.344 HD
ENDBRANCH   3   4
ENDBRANCH   2   3
ENDBRANCH   1   2
BRANCH   1   8
ATOM      8  C   UNL     1      -6.959   1.079   0.794  1.00  0.00     0.072 C 
BRANCH   8   9
ATOM      9  C   UNL     1      -6.093   0.847  -0.465  1.00  0.00     0.227 C 
BRANCH   9  10
ATOM     10  N   UNL     1      -5.006   1.830  -0.567  1.00  0.00    -0.350 N 
ATOM     11  H   UNL     1      -4.607   1.844  -1.534  1.00  0.00     0.345 HD
ATOM     12  H   UNL     1      -4.251   1.606   0.119  1.00  0.00     0.345 HD
ATOM     13  H   UNL     1      -5.368   2.785  -0.333  1.00  0.00     0.345 HD
ENDBRANCH   9  10
BRANCH   9  14
ATOM     14  C   UNL     1      -5.525  -0.547  -0.432  1.00  0.00     0.099 C 
ATOM     15  O   UNL     1      -6.094  -1.447   0.240  1.00  0.00    -0.544 OA
ATOM     16  O   UNL     1      -4.357  -0.844  -1.124  1.00  0.00    -0.544 OA
ENDBRANCH   9  14
ENDBRANCH   8   9
ENDBRANCH   1   8
TORSDOF 7
ENDMDL
MODEL 5
REMARK VINA RESULT:    -4.178      3.151      5.473
REMARK INTER + INTRA:          -5.737
REMARK INTER:                  -5.654
REMARK INTRA:                  -0.083
REMARK UNBOUND:                -0.093
REMARK SMILES [NH3+]CCCC[C@@H]([NH3+])C(=O)[O-]
REMARK SMILES IDX 4 1 3 2 2 3 1 4 5 8 6 9 7 10 8 14 9 15 10 16
REMARK H PARENT 1 5 1 6 1 7 7 11 7 12 7 13
REMARK Flexibility Score: inf
ROOT
ATOM      1  C   UNL     1      -6.365   1.064   0.160  1.00  0.00     0.012 C 
ENDROOT
BRANCH   1   2
ATOM      2  C   UNL     1      -5.690  -0.151  -0.494  1.00  0.00     0.061 C 
BRANCH   2   3
ATOM      3  C   UNL     1      -5.689  -1.389   0.418  1.00  0.00     0.258 C 
BRANCH   3   4
ATOM      4  N   UNL     1      -4.494  -2.213   0.229  1.00  0.00    -0.358 N 
ATOM      5  H   UNL     1      -4.703  -3.020  -0.402  1.00  0.00     0.344 HD
ATOM      6  H   UNL     1      -3.747  -1.632  -0.217  1.00  0.00     0.344 HD
ATOM      7  H   UNL     1      -4.141  -2.561   1.150  1.00  0.00     0.344 HD
ENDBRANCH   3   4
ENDBRANCH   2   3
ENDBRANCH   1   2
BRANCH   1   8
ATOM      8  C   UNL     1      -5.924   2.370  -0.520  1.00  0.00     0.072 C 
BRANCH   8   9
ATOM      9  C   UNL     1      -6.696   3.604   0.002  1.00  0.00     0.227 C 
BRANCH   9  10
ATOM     10  N   UNL     1      -5.876   4.822  -0.055  1.00  0.00    -0.350 N 
ATOM     11  H   UNL     1      -4.863   4.584  -0.159  1.00  0.00     0.345 HD
ATOM     12  H   UNL     1      -6.014   5.390   0.811  1.00  0.00     0.345 HD
ATOM     13  H   UNL     1      -6.173   5.412  -0.867  1.00  0.00     0.345 HD
ENDBRANCH   9  10
BRANCH   9  14
ATOM     14  C   UNL     1      -7.951   3.789  -0.807  1.00  0.00     0.099 C 
ATOM     15  O   UNL     1      -8.872   4.537  -0.386  1.00  0.00    -0.544 OA
ATOM     16  O   UNL     1      -8.112   3.118  -2.014  1.00  0.00    -0.544 OA
ENDBRANCH   9  14
ENDBRANCH   8   9
ENDBRANCH   1   8
TORSDOF 7
ENDMDL
MODEL 6
REMARK VINA RESULT:    -4.105      2.959      4.498
REMARK INTER + INTRA:          -5.638
REMARK INTER:                  -5.106
REMARK INTRA:                  -0.532
REMARK UNBOUND:                -0.093
REMARK SMILES [NH3+]CCCC[C@@H]([NH3+])C(=O)[O-]
REMARK SMILES IDX 4 1 3 2 2 3 1 4 5 8 6 9 7 10 8 14 9 15 10 16
REMARK H PARENT 1 5 1 6 1 7 7 11 7 12 7 13
REMARK Flexibility Score: inf
ROOT
ATOM      1  C   UNL     1      -6.394  -1.272   0.445  1.00  0.00     0.012 C 
ENDROOT
BRANCH   1   2
ATOM      2  C   UNL     1      -5.957  -1.061   1.903  1.00  0.00     0.061 C 
BRANCH   2   3
ATOM      3  C   UNL     1      -7.137  -1.109   2.887  1.00  0.00     0.258 C 
BRANCH   3   4
ATOM      4  N   UNL     1      -7.571   0.228   3.296  1.00  0.00    -0.358 N 
ATOM      5  H   UNL     1      -8.611   0.308   3.242  1.00  0.00     0.344 HD
ATOM      6  H   UNL     1      -7.280   0.391   4.288  1.00  0.00     0.344 HD
ATOM      7  H   UNL     1      -7.124   0.957   2.693  1.00  0.00     0.344 HD
ENDBRANCH   3   4
ENDBRANCH   2   3
ENDBRANCH   1   2
BRANCH   1   8
ATOM      8  C   UNL     1      -5.855  -0.152  -0.458  1.00  0.00     0.072 C 
BRANCH   8   9
ATOM      9  C   UNL     1      -6.121   1.258   0.117  1.00  0.00     0.227 C 
BRANCH   9  10
ATOM     10  N   UNL     1      -5.175   2.249  -0.412  1.00  0.00    -0.350 N 
ATOM     11  H   UNL     1      -5.260   2.326  -1.452  1.00  0.00     0.345 HD
ATOM     12  H   UNL     1      -4.196   1.983  -0.161  1.00  0.00     0.345 HD
ATOM     13  H   UNL     1      -5.365   3.186   0.016  1.00  0.00     0.345 HD
ENDBRANCH   9  10
BRANCH   9  14
ATOM     14  C   UNL     1      -7.533   1.671  -0.203  1.00  0.00     0.099 C 
ATOM     15  O   UNL     1      -7.790   2.261  -1.284  1.00  0.00    -0.544 OA
ATOM     16  O   UNL     1      -8.557   1.423   0.703  1.00  0.00    -0.544 OA
ENDBRANCH   9  14
ENDBRANCH   8   9
ENDBRANCH   1   8
TORSDOF 7
ENDMDL
MODEL 7
REMARK VINA RESULT:    -3.908      4.119      5.109
REMARK INTER + INTRA:          -5.371
REMARK INTER:                  -5.273
REMARK INTRA:                  -0.098
REMARK UNBOUND:                -0.093
REMARK SMILES [NH3+]CCCC[C@@H]([NH3+])C(=O)[O-]
REMARK SMILES IDX 4 1 3 2 2 3 1 4 5 8 6 9 7 10 8 14 9 15 10 16
REMARK H PARENT 1 5 1 6 1 7 7 11 7 12 7 13
REMARK Flexibility Score: inf
ROOT
ATOM      1  C   UNL     1      -5.698   3.024   2.116  1.00  0.00     0.012 C 
ENDROOT
BRANCH   1   2
ATOM      2  C   UNL     1      -5.842   1.998   3.251  1.00  0.00     0.061 C 
BRANCH   2   3
ATOM      3  C   UNL     1      -5.452   2.575   4.622  1.00  0.00     0.258 C 
BRANCH   3   4
ATOM      4  N   UNL     1      -4.504   3.685   4.505  1.00  0.00    -0.358 N 
ATOM      5  H   UNL     1      -4.944   4.491   4.006  1.00  0.00     0.344 HD
ATOM      6  H   UNL     1      -4.232   4.002   5.465  1.00  0.00     0.344 HD
ATOM      7  H   UNL     1      -3.642   3.378   3.999  1.00  0.00     0.344 HD
ENDBRANCH   3   4
ENDBRANCH   2   3
ENDBRANCH   1   2
BRANCH   1   8
ATOM      8  C   UNL     1      -6.977   3.088   1.268  1.00  0.00     0.072 C 
BRANCH   8   9
ATOM      9  C   UNL     1      -6.980   4.279   0.282  1.00  0.00     0.227 C 
BRANCH   9  10
ATOM     10  N   UNL     1      -5.828   5.165   0.496  1.00  0.00    -0.350 N 
ATOM     11  H   UNL     1      -4.946   4.716   0.158  1.00  0.00     0.345 HD
ATOM     12  H   UNL     1      -5.735   5.397   1.511  1.00  0.00     0.345 HD
ATOM     13  H   UNL     1      -5.972   6.065  -0.019  1.00  0.00     0.345 HD
ENDBRANCH   9  10
BRANCH   9  14
ATOM     14  C   UNL     1      -6.975   3.760  -1.131  1.00  0.00     0.099 C 
ATOM     15  O   UNL     1      -7.862   2.951  -1.511  1.00  0.00    -0.544 OA
ATOM     16  O   UNL     1      -5.980   4.152  -2.017  1.00  0.00    -0.544 OA
ENDBRANCH   9  14
ENDBRANCH   8   9
ENDBRANCH   1   8
TORSDOF 7
ENDMDL
MODEL 8
REMARK VINA RESULT:    -3.902      2.780      5.000
REMARK INTER + INTRA:          -5.364
REMARK INTER:                  -5.169
REMARK INTRA:                  -0.194
REMARK UNBOUND:                -0.093
REMARK SMILES [NH3+]CCCC[C@@H]([NH3+])C(=O)[O-]
REMARK SMILES IDX 4 1 3 2 2 3 1 4 5 8 6 9 7 10 8 14 9 15 10 16
REMARK H PARENT 1 5 1 6 1 7 7 11 7 12 7 13
REMARK Flexibility Score: inf
ROOT
ATOM      1  C   UNL     1      -6.556   1.940   2.046  1.00  0.00     0.012 C 
ENDROOT
BRANCH   1   2
ATOM      2  C   UNL     1      -6.578   0.421   1.820  1.00  0.00     0.061 C 
BRANCH   2   3
ATOM      3  C   UNL     1      -6.268   0.035   0.365  1.00  0.00     0.258 C 
BRANCH   3   4
ATOM      4  N   UNL     1      -6.056  -1.405   0.208  1.00  0.00    -0.358 N 
ATOM      5  H   UNL     1      -5.540  -1.604  -0.678  1.00  0.00     0.344 HD
ATOM      6  H   UNL     1      -5.479  -1.752   1.009  1.00  0.00     0.344 HD
ATOM      7  H   UNL     1      -6.971  -1.912   0.211  1.00  0.00     0.344 HD
ENDBRANCH   3   4
ENDBRANCH   2   3
ENDBRANCH   1   2
BRANCH   1   8
ATOM      8  C   UNL     1      -5.769   2.650   0.933  1.00  0.00     0.072 C 
BRANCH   8   9
ATOM      9  C   UNL     1      -6.534   3.852   0.336  1.00  0.00     0.227 C 
BRANCH   9  10
ATOM     10  N   UNL     1      -5.814   5.116   0.547  1.00  0.00    -0.350 N 
ATOM     11  H   UNL     1      -4.914   5.124   0.014  1.00  0.00     0.345 HD
ATOM     12  H   UNL     1      -5.618   5.253   1.564  1.00  0.00     0.345 HD
ATOM     13  H   UNL     1      -6.406   5.919   0.231  1.00  0.00     0.345 HD
ENDBRANCH   9  10
BRANCH   9  14
ATOM     14  C   UNL     1      -6.755   3.625  -1.136  1.00  0.00     0.099 C 
ATOM     15  O   UNL     1      -5.993   4.164  -1.981  1.00  0.00    -0.544 OA
ATOM     16  O   UNL     1      -7.813   2.837  -1.572  1.00  0.00    -0.544 OA
ENDBRANCH   9  14
ENDBRANCH   8   9
ENDBRANCH   1   8
TORSDOF 7
ENDMDL
MODEL 9
REMARK VINA RESULT:    -3.862      2.763      3.139
REMARK INTER + INTRA:          -5.310
REMARK INTER:                  -4.838
REMARK INTRA:                  -0.472
REMARK UNBOUND:                -0.093
REMARK SMILES [NH3+]CCCC[C@@H]([NH3+])C(=O)[O-]
REMARK SMILES IDX 4 1 3 2 2 3 1 4 5 8 6 9 7 10 8 14 9 15 10 16
REMARK H PARENT 1 5 1 6 1 7 7 11 7 12 7 13
REMARK Flexibility Score: inf
ROOT
ATOM      1  C   UNL     1      -5.606   3.176   2.129  1.00  0.00     0.012 C 
ENDROOT
BRANCH   1   2
ATOM      2  C   UNL     1      -6.698   4.237   2.335  1.00  0.00     0.061 C 
BRANCH   2   3
ATOM      3  C   UNL     1      -6.840   5.181   1.129  1.00  0.00     0.258 C 
BRANCH   3   4
ATOM      4  N   UNL     1      -5.930   4.825   0.039  1.00  0.00    -0.358 N 
ATOM      5  H   UNL     1      -5.505   3.886   0.209  1.00  0.00     0.344 HD
ATOM      6  H   UNL     1      -6.471   4.783  -0.856  1.00  0.00     0.344 HD
ATOM      7  H   UNL     1      -5.178   5.546  -0.059  1.00  0.00     0.344 HD
ENDBRANCH   3   4
ENDBRANCH   2   3
ENDBRANCH   1   2
BRANCH   1   8
ATOM      8  C   UNL     1      -6.179   1.760   2.288  1.00  0.00     0.072 C 
BRANCH   8   9
ATOM      9  C   UNL     1      -6.300   1.011   0.941  1.00  0.00     0.227 C 
BRANCH   9  10
ATOM     10  N   UNL     1      -6.258  -0.447   1.123  1.00  0.00    -0.350 N 
ATOM     11  H   UNL     1      -5.303  -0.820   0.914  1.00  0.00     0.345 HD
ATOM     12  H   UNL     1      -6.956  -0.908   0.498  1.00  0.00     0.345 HD
ATOM     13  H   UNL     1      -6.511  -0.689   2.109  1.00  0.00     0.345 HD
ENDBRANCH   9  10
BRANCH   9  14
ATOM     14  C   UNL     1      -7.583   1.408   0.260  1.00  0.00     0.099 C 
ATOM     15  O   UNL     1      -7.554   2.105  -0.787  1.00  0.00    -0.544 OA
ATOM     16  O   UNL     1      -8.807   1.027   0.796  1.00  0.00    -0.544 OA
ENDBRANCH   9  14
ENDBRANCH   8   9
ENDBRANCH   1   8
TORSDOF 7
ENDMDL
