MODEL 1
REMARK VINA RESULT:    -6.399      0.000      0.000
REMARK INTER + INTRA:          -8.048
REMARK INTER:                  -7.709
REMARK INTRA:                  -0.339
REMARK UNBOUND:                -0.339
REMARK SMILES O=c1c(O)c(-c2ccc(O)cc2O)oc2cc(O)cc(O)c12
REMARK SMILES IDX 5 1 3 2 2 3 1 4 22 5 20 6 19 7 17 8 16 9 15 10 14 11 6 12
REMARK SMILES IDX 8 13 7 14 9 15 11 16 12 17 10 18 13 20 4 22 21 24 18 26
REMARK H PARENT 10 19 13 21 4 23 21 25 18 27
REMARK Flexibility Score: inf
ROOT
ATOM      1  C   UNL     1      -0.363  -3.740  -4.377  1.00  0.00     0.184 A 
ATOM      2  C   UNL     1      -1.754  -3.612  -4.256  1.00  0.00     0.208 A 
ATOM      3  C   UNL     1      -2.314  -2.328  -4.167  1.00  0.00     0.238 A 
ATOM      4  O   UNL     1      -3.559  -2.221  -4.005  1.00  0.00    -0.285 OA
ATOM      5  C   UNL     1      -1.475  -1.189  -4.218  1.00  0.00     0.111 A 
ATOM      6  C   UNL     1      -1.937   0.161  -4.178  1.00  0.00     0.134 A 
ATOM      7  C   UNL     1      -1.008   1.207  -4.104  1.00  0.00     0.093 A 
ATOM      8  C   UNL     1       0.365   0.955  -4.134  1.00  0.00     0.123 A 
ATOM      9  C   UNL     1       0.826  -0.357  -4.233  1.00  0.00     0.094 A 
ATOM     10  C   UNL     1      -0.076  -1.424  -4.272  1.00  0.00     0.146 A 
ATOM     11  O   UNL     1       0.406  -2.658  -4.356  1.00  0.00    -0.451 OA
ENDROOT
BRANCH   1  12
ATOM     12  C   UNL     1       0.289  -5.062  -4.491  1.00  0.00     0.063 A 
ATOM     13  C   UNL     1       1.409  -6.713  -5.881  1.00  0.00     0.047 A 
ATOM     14  C   UNL     1       0.792  -5.467  -5.737  1.00  0.00     0.020 A 
ATOM     15  C   UNL     1       1.518  -7.574  -4.783  1.00  0.00     0.119 A 
ATOM     16  C   UNL     1       0.999  -7.188  -3.544  1.00  0.00     0.093 A 
ATOM     17  C   UNL     1       0.373  -5.942  -3.393  1.00  0.00     0.130 A 
BRANCH  15  18
ATOM     18  O   UNL     1       2.135  -8.817  -4.914  1.00  0.00    -0.508 OA
ATOM     19  H   UNL     1       2.513  -9.306  -4.111  1.00  0.00     0.293 HD
ENDBRANCH  15  18
BRANCH  17  20
ATOM     20  O   UNL     1      -0.184  -5.591  -2.163  1.00  0.00    -0.507 OA
ATOM     21  H   UNL     1       0.047  -4.717  -1.705  1.00  0.00     0.293 HD
ENDBRANCH  17  20
ENDBRANCH   1  12
BRANCH   2  22
ATOM     22  O   UNL     1      -2.558  -4.754  -4.190  1.00  0.00    -0.502 OA
ATOM     23  H   UNL     1      -3.456  -4.814  -4.655  1.00  0.00     0.293 HD
ENDBRANCH   2  22
BRANCH   6  24
ATOM     24  O   UNL     1      -3.285   0.526  -4.235  1.00  0.00    -0.507 OA
ATOM     25  H   UNL     1      -4.010   0.141  -3.649  1.00  0.00     0.293 HD
ENDBRANCH   6  24
BRANCH   8  26
ATOM     26  O   UNL     1       1.282   2.002  -4.076  1.00  0.00    -0.508 OA
ATOM     27  H   UNL     1       1.125   2.872  -4.572  1.00  0.00     0.293 HD
ENDBRANCH   8  26
TORSDOF 6
ENDMDL
MODEL 2
REMARK VINA RESULT:    -5.619      2.078      6.952
REMARK INTER + INTRA:          -7.107
REMARK INTER:                  -6.695
REMARK INTRA:                  -0.412
REMARK UNBOUND:                -0.339
REMARK SMILES O=c1c(O)c(-c2ccc(O)cc2O)oc2cc(O)cc(O)c12
REMARK SMILES IDX 5 1 3 2 2 3 1 4 22 5 20 6 19 7 17 8 16 9 15 10 14 11 6 12
REMARK SMILES IDX 8 13 7 14 9 15 11 16 12 17 10 18 13 20 4 22 21 24 18 26
REMARK H PARENT 10 19 13 21 4 23 21 25 18 27
REMARK Flexibility Score: inf
ROOT
ATOM      1  C   UNL     1      -0.276   0.256  -4.268  1.00  0.00     0.184 A 
ATOM      2  C   UNL     1      -1.513  -0.222  -4.725  1.00  0.00     0.208 A 
ATOM      3  C   UNL     1      -1.698  -1.606  -4.865  1.00  0.00     0.238 A 
ATOM      4  O   UNL     1      -2.793  -2.027  -5.326  1.00  0.00    -0.285 OA
ATOM      5  C   UNL     1      -0.648  -2.494  -4.528  1.00  0.00     0.111 A 
ATOM      6  C   UNL     1      -0.738  -3.917  -4.592  1.00  0.00     0.134 A 
ATOM      7  C   UNL     1       0.405  -4.692  -4.361  1.00  0.00     0.093 A 
ATOM      8  C   UNL     1       1.619  -4.099  -4.004  1.00  0.00     0.123 A 
ATOM      9  C   UNL     1       1.701  -2.714  -3.882  1.00  0.00     0.094 A 
ATOM     10  C   UNL     1       0.587  -1.911  -4.141  1.00  0.00     0.146 A 
ATOM     11  O   UNL     1       0.713  -0.595  -4.023  1.00  0.00    -0.451 OA
ENDROOT
BRANCH   1  12
ATOM     12  C   UNL     1      -0.021   1.701  -4.083  1.00  0.00     0.063 A 
ATOM     13  C   UNL     1       0.771   3.805  -5.009  1.00  0.00     0.047 A 
ATOM     14  C   UNL     1       0.513   2.439  -5.150  1.00  0.00     0.020 A 
ATOM     15  C   UNL     1       0.512   4.446  -3.791  1.00  0.00     0.119 A 
ATOM     16  C   UNL     1       0.002   3.713  -2.715  1.00  0.00     0.093 A 
ATOM     17  C   UNL     1      -0.255   2.341  -2.848  1.00  0.00     0.130 A 
BRANCH  15  18
ATOM     18  O   UNL     1       0.761   5.809  -3.639  1.00  0.00    -0.508 OA
ATOM     19  H   UNL     1       0.750   6.440  -4.431  1.00  0.00     0.293 HD
ENDBRANCH  15  18
BRANCH  17  20
ATOM     20  O   UNL     1      -0.717   1.612  -1.752  1.00  0.00    -0.507 OA
ATOM     21  H   UNL     1      -0.094   1.312  -1.012  1.00  0.00     0.293 HD
ENDBRANCH  17  20
ENDBRANCH   1  12
BRANCH   2  22
ATOM     22  O   UNL     1      -2.528   0.678  -5.067  1.00  0.00    -0.502 OA
ATOM     23  H   UNL     1      -2.343   1.543  -5.560  1.00  0.00     0.293 HD
ENDBRANCH   2  22
BRANCH   6  24
ATOM     24  O   UNL     1      -1.923  -4.613  -4.850  1.00  0.00    -0.507 OA
ATOM     25  H   UNL     1      -2.044  -5.286  -5.592  1.00  0.00     0.293 HD
ENDBRANCH   6  24
BRANCH   8  26
ATOM     26  O   UNL     1       2.747  -4.879  -3.760  1.00  0.00    -0.508 OA
ATOM     27  H   UNL     1       3.631  -4.691  -4.218  1.00  0.00     0.293 HD
ENDBRANCH   8  26
TORSDOF 6
ENDMDL
MODEL 3
REMARK VINA RESULT:    -5.618      1.678      6.865
REMARK INTER + INTRA:          -7.106
REMARK INTER:                  -6.762
REMARK INTRA:                  -0.344
REMARK UNBOUND:                -0.339
REMARK SMILES O=c1c(O)c(-c2ccc(O)cc2O)oc2cc(O)cc(O)c12
REMARK SMILES IDX 5 1 3 2 2 3 1 4 22 5 20 6 19 7 17 8 16 9 15 10 14 11 6 12
REMARK SMILES IDX 8 13 7 14 9 15 11 16 12 17 10 18 13 20 4 22 21 24 18 26
REMARK H PARENT 10 19 13 21 4 23 21 25 18 27
REMARK Flexibility Score: inf
ROOT
ATOM      1  C   UNL     1       0.166  -4.703  -4.877  1.00  0.00     0.184 A 
ATOM      2  C   UNL     1       0.075  -5.757  -3.956  1.00  0.00     0.208 A 
ATOM      3  C   UNL     1       0.841  -6.914  -4.168  1.00  0.00     0.238 A 
ATOM      4  O   UNL     1       0.716  -7.878  -3.368  1.00  0.00    -0.285 OA
ATOM      5  C   UNL     1       1.702  -6.992  -5.290  1.00  0.00     0.111 A 
ATOM      6  C   UNL     1       2.555  -8.098  -5.582  1.00  0.00     0.134 A 
ATOM      7  C   UNL     1       3.265  -8.123  -6.789  1.00  0.00     0.093 A 
ATOM      8  C   UNL     1       3.204  -7.051  -7.684  1.00  0.00     0.123 A 
ATOM      9  C   UNL     1       2.420  -5.941  -7.380  1.00  0.00     0.094 A 
ATOM     10  C   UNL     1       1.671  -5.903  -6.201  1.00  0.00     0.146 A 
ATOM     11  O   UNL     1       0.929  -4.829  -5.955  1.00  0.00    -0.451 OA
ENDROOT
BRANCH   1  12
ATOM     12  C   UNL     1      -0.603  -3.451  -4.704  1.00  0.00     0.063 A 
ATOM     13  C   UNL     1      -0.629  -1.098  -4.093  1.00  0.00     0.047 A 
ATOM     14  C   UNL     1       0.067  -2.296  -4.272  1.00  0.00     0.020 A 
ATOM     15  C   UNL     1      -2.008  -1.045  -4.329  1.00  0.00     0.119 A 
ATOM     16  C   UNL     1      -2.688  -2.197  -4.736  1.00  0.00     0.093 A 
ATOM     17  C   UNL     1      -1.997  -3.405  -4.913  1.00  0.00     0.130 A 
BRANCH  15  18
ATOM     18  O   UNL     1      -2.713   0.145  -4.158  1.00  0.00    -0.508 OA
ATOM     19  H   UNL     1      -3.406   0.248  -3.425  1.00  0.00     0.293 HD
ENDBRANCH  15  18
BRANCH  17  20
ATOM     20  O   UNL     1      -2.695  -4.558  -5.272  1.00  0.00    -0.507 OA
ATOM     21  H   UNL     1      -2.641  -5.405  -4.721  1.00  0.00     0.293 HD
ENDBRANCH  17  20
ENDBRANCH   1  12
BRANCH   2  22
ATOM     22  O   UNL     1      -0.796  -5.661  -2.866  1.00  0.00    -0.502 OA
ATOM     23  H   UNL     1      -0.522  -5.924  -1.927  1.00  0.00     0.293 HD
ENDBRANCH   2  22
BRANCH   6  24
ATOM     24  O   UNL     1       2.759  -9.176  -4.716  1.00  0.00    -0.507 OA
ATOM     25  H   UNL     1       3.111 -10.079  -4.995  1.00  0.00     0.293 HD
ENDBRANCH   6  24
BRANCH   8  26
ATOM     26  O   UNL     1       3.927  -7.077  -8.874  1.00  0.00    -0.508 OA
ATOM     27  H   UNL     1       4.676  -6.419  -9.054  1.00  0.00     0.293 HD
ENDBRANCH   8  26
TORSDOF 6
ENDMDL
MODEL 4
REMARK VINA RESULT:    -5.576      1.646      6.702
REMARK INTER + INTRA:          -7.057
REMARK INTER:                  -6.646
REMARK INTRA:                  -0.411
REMARK UNBOUND:                -0.339
REMARK SMILES O=c1c(O)c(-c2ccc(O)cc2O)oc2cc(O)cc(O)c12
REMARK SMILES IDX 5 1 3 2 2 3 1 4 22 5 20 6 19 7 17 8 16 9 15 10 14 11 6 12
REMARK SMILES IDX 8 13 7 14 9 15 11 16 12 17 10 18 13 20 4 22 21 24 18 26
REMARK H PARENT 10 19 13 21 4 23 21 25 18 27
REMARK Flexibility Score: inf
ROOT
ATOM      1  C   UNL     1       0.118  -1.747  -3.578  1.00  0.00     0.184 A 
ATOM      2  C   UNL     1      -0.200  -2.046  -2.244  1.00  0.00     0.208 A 
ATOM      3  C   UNL     1      -0.201  -3.386  -1.829  1.00  0.00     0.238 A 
ATOM      4  O   UNL     1      -0.538  -3.652  -0.645  1.00  0.00    -0.285 OA
ATOM      5  C   UNL     1       0.133  -4.408  -2.749  1.00  0.00     0.111 A 
ATOM      6  C   UNL     1       0.204  -5.797  -2.428  1.00  0.00     0.134 A 
ATOM      7  C   UNL     1       0.416  -6.733  -3.448  1.00  0.00     0.093 A 
ATOM      8  C   UNL     1       0.625  -6.324  -4.768  1.00  0.00     0.123 A 
ATOM      9  C   UNL     1       0.617  -4.967  -5.082  1.00  0.00     0.094 A 
ATOM     10  C   UNL     1       0.372  -4.012  -4.091  1.00  0.00     0.146 A 
ATOM     11  O   UNL     1       0.362  -2.730  -4.436  1.00  0.00    -0.451 OA
ENDROOT
BRANCH   1  12
ATOM     12  C   UNL     1       0.152  -0.355  -4.076  1.00  0.00     0.063 A 
ATOM     13  C   UNL     1       1.412   1.694  -4.427  1.00  0.00     0.047 A 
ATOM     14  C   UNL     1       1.346   0.375  -3.971  1.00  0.00     0.020 A 
ATOM     15  C   UNL     1       0.280   2.304  -4.980  1.00  0.00     0.119 A 
ATOM     16  C   UNL     1      -0.920   1.591  -5.067  1.00  0.00     0.093 A 
ATOM     17  C   UNL     1      -0.996   0.269  -4.606  1.00  0.00     0.130 A 
BRANCH  15  18
ATOM     18  O   UNL     1       0.334   3.618  -5.442  1.00  0.00    -0.508 OA
ATOM     19  H   UNL     1      -0.477   4.070  -5.846  1.00  0.00     0.293 HD
ENDBRANCH  15  18
BRANCH  17  20
ATOM     20  O   UNL     1      -2.211  -0.414  -4.654  1.00  0.00    -0.507 OA
ATOM     21  H   UNL     1      -2.835  -0.334  -5.448  1.00  0.00     0.293 HD
ENDBRANCH  17  20
ENDBRANCH   1  12
BRANCH   2  22
ATOM     22  O   UNL     1      -0.543  -1.018  -1.361  1.00  0.00    -0.502 OA
ATOM     23  H   UNL     1      -1.096  -0.218  -1.646  1.00  0.00     0.293 HD
ENDBRANCH   2  22
BRANCH   6  24
ATOM     24  O   UNL     1       0.100  -6.304  -1.129  1.00  0.00    -0.507 OA
ATOM     25  H   UNL     1       0.763  -6.933  -0.702  1.00  0.00     0.293 HD
ENDBRANCH   6  24
BRANCH   8  26
ATOM     26  O   UNL     1       0.852  -7.261  -5.774  1.00  0.00    -0.508 OA
ATOM     27  H   UNL     1       0.659  -7.052  -6.747  1.00  0.00     0.293 HD
ENDBRANCH   8  26
TORSDOF 6
ENDMDL
MODEL 5
REMARK VINA RESULT:    -5.463      1.316      2.926
REMARK INTER + INTRA:          -6.919
REMARK INTER:                  -6.519
REMARK INTRA:                  -0.400
REMARK UNBOUND:                -0.339
REMARK SMILES O=c1c(O)c(-c2ccc(O)cc2O)oc2cc(O)cc(O)c12
REMARK SMILES IDX 5 1 3 2 2 3 1 4 22 5 20 6 19 7 17 8 16 9 15 10 14 11 6 12
REMARK SMILES IDX 8 13 7 14 9 15 11 16 12 17 10 18 13 20 4 22 21 24 18 26
REMARK H PARENT 10 19 13 21 4 23 21 25 18 27
REMARK Flexibility Score: inf
ROOT
ATOM      1  C   UNL     1       0.867  -3.139  -4.185  1.00  0.00     0.184 A 
ATOM      2  C   UNL     1       1.853  -2.223  -3.791  1.00  0.00     0.208 A 
ATOM      3  C   UNL     1       1.522  -0.862  -3.706  1.00  0.00     0.238 A 
ATOM      4  O   UNL     1       2.426  -0.037  -3.404  1.00  0.00    -0.285 OA
ATOM      5  C   UNL     1       0.203  -0.438  -3.999  1.00  0.00     0.111 A 
ATOM      6  C   UNL     1      -0.255   0.910  -3.906  1.00  0.00     0.134 A 
ATOM      7  C   UNL     1      -1.544   1.234  -4.345  1.00  0.00     0.093 A 
ATOM      8  C   UNL     1      -2.415   0.246  -4.813  1.00  0.00     0.123 A 
ATOM      9  C   UNL     1      -1.997  -1.082  -4.852  1.00  0.00     0.094 A 
ATOM     10  C   UNL     1      -0.704  -1.431  -4.454  1.00  0.00     0.146 A 
ATOM     11  O   UNL     1      -0.344  -2.707  -4.518  1.00  0.00    -0.451 OA
ENDROOT
BRANCH   1  12
ATOM     12  C   UNL     1       1.145  -4.588  -4.279  1.00  0.00     0.063 A 
ATOM     13  C   UNL     1       2.257  -6.419  -5.430  1.00  0.00     0.047 A 
ATOM     14  C   UNL     1       1.977  -5.055  -5.308  1.00  0.00     0.020 A 
ATOM     15  C   UNL     1       1.695  -7.334  -4.533  1.00  0.00     0.119 A 
ATOM     16  C   UNL     1       0.846  -6.880  -3.518  1.00  0.00     0.093 A 
ATOM     17  C   UNL     1       0.556  -5.514  -3.393  1.00  0.00     0.130 A 
BRANCH  15  18
ATOM     18  O   UNL     1       1.969  -8.696  -4.641  1.00  0.00    -0.508 OA
ATOM     19  H   UNL     1       1.511  -9.274  -5.337  1.00  0.00     0.293 HD
ENDBRANCH  15  18
BRANCH  17  20
ATOM     20  O   UNL     1      -0.331  -5.081  -2.408  1.00  0.00    -0.507 OA
ATOM     21  H   UNL     1      -1.160  -4.546  -2.637  1.00  0.00     0.293 HD
ENDBRANCH  17  20
ENDBRANCH   1  12
BRANCH   2  22
ATOM     22  O   UNL     1       3.153  -2.666  -3.525  1.00  0.00    -0.502 OA
ATOM     23  H   UNL     1       3.850  -2.074  -3.089  1.00  0.00     0.293 HD
ENDBRANCH   2  22
BRANCH   6  24
ATOM     24  O   UNL     1       0.503   1.956  -3.369  1.00  0.00    -0.507 OA
ATOM     25  H   UNL     1       1.495   1.916  -3.194  1.00  0.00     0.293 HD
ENDBRANCH   6  24
BRANCH   8  26
ATOM     26  O   UNL     1      -3.702   0.575  -5.233  1.00  0.00    -0.508 OA
ATOM     27  H   UNL     1      -3.943   0.621  -6.216  1.00  0.00     0.293 HD
ENDBRANCH   8  26
TORSDOF 6
ENDMDL
MODEL 6
REMARK VINA RESULT:    -5.351      2.540      5.059
REMARK INTER + INTRA:          -6.785
REMARK INTER:                  -6.371
REMARK INTRA:                  -0.414
REMARK UNBOUND:                -0.339
REMARK SMILES O=c1c(O)c(-c2ccc(O)cc2O)oc2cc(O)cc(O)c12
REMARK SMILES IDX 5 1 3 2 2 3 1 4 22 5 20 6 19 7 17 8 16 9 15 10 14 11 6 12
REMARK SMILES IDX 8 13 7 14 9 15 11 16 12 17 10 18 13 20 4 22 21 24 18 26
REMARK H PARENT 10 19 13 21 4 23 21 25 18 27
REMARK Flexibility Score: inf
ROOT
ATOM      1  C   UNL     1      -0.254   0.407  -3.744  1.00  0.00     0.184 A 
ATOM      2  C   UNL     1       0.054   0.774  -2.426  1.00  0.00     0.208 A 
ATOM      3  C   UNL     1       0.416   2.103  -2.157  1.00  0.00     0.238 A 
ATOM      4  O   UNL     1       0.743   2.415  -0.981  1.00  0.00    -0.285 OA
ATOM      5  C   UNL     1       0.447   3.051  -3.208  1.00  0.00     0.111 A 
ATOM      6  C   UNL     1       0.760   4.433  -3.044  1.00  0.00     0.134 A 
ATOM      7  C   UNL     1       0.889   5.251  -4.174  1.00  0.00     0.093 A 
ATOM      8  C   UNL     1       0.652   4.751  -5.457  1.00  0.00     0.123 A 
ATOM      9  C   UNL     1       0.287   3.417  -5.622  1.00  0.00     0.094 A 
ATOM     10  C   UNL     1       0.187   2.567  -4.517  1.00  0.00     0.146 A 
ATOM     11  O   UNL     1      -0.152   1.300  -4.721  1.00  0.00    -0.451 OA
ENDROOT
BRANCH   1  12
ATOM     12  C   UNL     1      -0.658  -0.972  -4.092  1.00  0.00     0.063 A 
ATOM     13  C   UNL     1      -0.033  -3.298  -4.425  1.00  0.00     0.047 A 
ATOM     14  C   UNL     1       0.313  -1.985  -4.095  1.00  0.00     0.020 A 
ATOM     15  C   UNL     1      -1.353  -3.611  -4.771  1.00  0.00     0.119 A 
ATOM     16  C   UNL     1      -2.322  -2.604  -4.793  1.00  0.00     0.093 A 
ATOM     17  C   UNL     1      -1.981  -1.283  -4.469  1.00  0.00     0.130 A 
BRANCH  15  18
ATOM     18  O   UNL     1      -1.711  -4.918  -5.097  1.00  0.00    -0.508 OA
ATOM     19  H   UNL     1      -1.223  -5.714  -4.704  1.00  0.00     0.293 HD
ENDBRANCH  15  18
BRANCH  17  20
ATOM     20  O   UNL     1      -2.948  -0.279  -4.543  1.00  0.00    -0.507 OA
ATOM     21  H   UNL     1      -3.244   0.235  -3.723  1.00  0.00     0.293 HD
ENDBRANCH  17  20
ENDBRANCH   1  12
BRANCH   2  22
ATOM     22  O   UNL     1       0.032  -0.186  -1.409  1.00  0.00    -0.502 OA
ATOM     23  H   UNL     1       0.833  -0.769  -1.195  1.00  0.00     0.293 HD
ENDBRANCH   2  22
BRANCH   6  24
ATOM     24  O   UNL     1       0.927   5.054  -1.802  1.00  0.00    -0.507 OA
ATOM     25  H   UNL     1       1.523   4.711  -1.064  1.00  0.00     0.293 HD
ENDBRANCH   6  24
BRANCH   8  26
ATOM     26  O   UNL     1       0.766   5.576  -6.574  1.00  0.00    -0.508 OA
ATOM     27  H   UNL     1       1.407   6.360  -6.590  1.00  0.00     0.293 HD
ENDBRANCH   8  26
TORSDOF 6
ENDMDL
MODEL 7
REMARK VINA RESULT:    -5.328      2.290      7.338
REMARK INTER + INTRA:          -6.757
REMARK INTER:                  -6.334
REMARK INTRA:                  -0.423
REMARK UNBOUND:                -0.339
REMARK SMILES O=c1c(O)c(-c2ccc(O)cc2O)oc2cc(O)cc(O)c12
REMARK SMILES IDX 5 1 3 2 2 3 1 4 22 5 20 6 19 7 17 8 16 9 15 10 14 11 6 12
REMARK SMILES IDX 8 13 7 14 9 15 11 16 12 17 10 18 13 20 4 22 21 24 18 26
REMARK H PARENT 10 19 13 21 4 23 21 25 18 27
REMARK Flexibility Score: inf
ROOT
ATOM      1  C   UNL     1       0.117   0.290  -3.991  1.00  0.00     0.184 A 
ATOM      2  C   UNL     1       1.246  -0.542  -3.999  1.00  0.00     0.208 A 
ATOM      3  C   UNL     1       1.065  -1.933  -4.047  1.00  0.00     0.238 A 
ATOM      4  O   UNL     1       2.081  -2.677  -4.001  1.00  0.00    -0.285 OA
ATOM      5  C   UNL     1      -0.243  -2.471  -4.104  1.00  0.00     0.111 A 
ATOM      6  C   UNL     1      -0.544  -3.864  -4.196  1.00  0.00     0.134 A 
ATOM      7  C   UNL     1      -1.875  -4.290  -4.114  1.00  0.00     0.093 A 
ATOM      8  C   UNL     1      -2.921  -3.370  -4.008  1.00  0.00     0.123 A 
ATOM      9  C   UNL     1      -2.642  -2.006  -3.976  1.00  0.00     0.094 A 
ATOM     10  C   UNL     1      -1.321  -1.551  -4.020  1.00  0.00     0.146 A 
ATOM     11  O   UNL     1      -1.099  -0.243  -3.977  1.00  0.00    -0.451 OA
ENDROOT
BRANCH   1  12
ATOM     12  C   UNL     1       0.237   1.764  -3.957  1.00  0.00     0.063 A 
ATOM     13  C   UNL     1       0.778   3.830  -5.118  1.00  0.00     0.047 A 
ATOM     14  C   UNL     1       0.648   2.439  -5.117  1.00  0.00     0.020 A 
ATOM     15  C   UNL     1       0.512   4.562  -3.955  1.00  0.00     0.119 A 
ATOM     16  C   UNL     1       0.125   3.895  -2.788  1.00  0.00     0.093 A 
ATOM     17  C   UNL     1      -0.002   2.498  -2.777  1.00  0.00     0.130 A 
BRANCH  15  18
ATOM     18  O   UNL     1       0.634   5.950  -3.945  1.00  0.00    -0.508 OA
ATOM     19  H   UNL     1      -0.181   6.553  -3.956  1.00  0.00     0.293 HD
ENDBRANCH  15  18
BRANCH  17  20
ATOM     20  O   UNL     1      -0.341   1.842  -1.594  1.00  0.00    -0.507 OA
ATOM     21  H   UNL     1      -0.017   2.170  -0.692  1.00  0.00     0.293 HD
ENDBRANCH  17  20
ENDBRANCH   1  12
BRANCH   2  22
ATOM     22  O   UNL     1       2.526   0.016  -3.925  1.00  0.00    -0.502 OA
ATOM     23  H   UNL     1       2.681   0.992  -3.706  1.00  0.00     0.293 HD
ENDBRANCH   2  22
BRANCH   6  24
ATOM     24  O   UNL     1       0.419  -4.858  -4.395  1.00  0.00    -0.507 OA
ATOM     25  H   UNL     1       1.334  -4.865  -3.970  1.00  0.00     0.293 HD
ENDBRANCH   6  24
BRANCH   8  26
ATOM     26  O   UNL     1      -4.244  -3.802  -3.943  1.00  0.00    -0.508 OA
ATOM     27  H   UNL     1      -4.528  -4.547  -3.317  1.00  0.00     0.293 HD
ENDBRANCH   8  26
TORSDOF 6
ENDMDL
MODEL 8
REMARK VINA RESULT:    -5.271      2.638      2.959
REMARK INTER + INTRA:          -6.689
REMARK INTER:                  -6.332
REMARK INTRA:                  -0.357
REMARK UNBOUND:                -0.339
REMARK SMILES O=c1c(O)c(-c2ccc(O)cc2O)oc2cc(O)cc(O)c12
REMARK SMILES IDX 5 1 3 2 2 3 1 4 22 5 20 6 19 7 17 8 16 9 15 10 14 11 6 12
REMARK SMILES IDX 8 13 7 14 9 15 11 16 12 17 10 18 13 20 4 22 21 24 18 26
REMARK H PARENT 10 19 13 21 4 23 21 25 18 27
REMARK Flexibility Score: inf
ROOT
ATOM      1  C   UNL     1       0.374  -4.768  -3.584  1.00  0.00     0.184 A 
ATOM      2  C   UNL     1      -0.898  -4.460  -4.090  1.00  0.00     0.208 A 
ATOM      3  C   UNL     1      -1.696  -3.531  -3.406  1.00  0.00     0.238 A 
ATOM      4  O   UNL     1      -2.857  -3.298  -3.836  1.00  0.00    -0.285 OA
ATOM      5  C   UNL     1      -1.204  -2.910  -2.233  1.00  0.00     0.111 A 
ATOM      6  C   UNL     1      -1.910  -1.923  -1.481  1.00  0.00     0.134 A 
ATOM      7  C   UNL     1      -1.382  -1.473  -0.265  1.00  0.00     0.093 A 
ATOM      8  C   UNL     1      -0.142  -1.925   0.194  1.00  0.00     0.123 A 
ATOM      9  C   UNL     1       0.582  -2.843  -0.562  1.00  0.00     0.094 A 
ATOM     10  C   UNL     1       0.064  -3.339  -1.762  1.00  0.00     0.146 A 
ATOM     11  O   UNL     1       0.783  -4.221  -2.446  1.00  0.00    -0.451 OA
ENDROOT
BRANCH   1  12
ATOM     12  C   UNL     1       1.271  -5.726  -4.265  1.00  0.00     0.063 A 
ATOM     13  C   UNL     1       3.136  -6.110  -5.776  1.00  0.00     0.047 A 
ATOM     14  C   UNL     1       2.274  -5.233  -5.113  1.00  0.00     0.020 A 
ATOM     15  C   UNL     1       2.995  -7.493  -5.611  1.00  0.00     0.119 A 
ATOM     16  C   UNL     1       1.983  -7.994  -4.786  1.00  0.00     0.093 A 
ATOM     17  C   UNL     1       1.110  -7.120  -4.121  1.00  0.00     0.130 A 
BRANCH  15  18
ATOM     18  O   UNL     1       3.850  -8.378  -6.264  1.00  0.00    -0.508 OA
ATOM     19  H   UNL     1       3.556  -8.885  -7.091  1.00  0.00     0.293 HD
ENDBRANCH  15  18
BRANCH  17  20
ATOM     20  O   UNL     1       0.075  -7.634  -3.341  1.00  0.00    -0.507 OA
ATOM     21  H   UNL     1      -0.871  -7.707  -3.694  1.00  0.00     0.293 HD
ENDBRANCH  17  20
ENDBRANCH   1  12
BRANCH   2  22
ATOM     22  O   UNL     1      -1.366  -5.102  -5.241  1.00  0.00    -0.502 OA
ATOM     23  H   UNL     1      -1.796  -6.019  -5.215  1.00  0.00     0.293 HD
ENDBRANCH   2  22
BRANCH   6  24
ATOM     24  O   UNL     1      -3.112  -1.339  -1.894  1.00  0.00    -0.507 OA
ATOM     25  H   UNL     1      -3.291  -0.346  -1.913  1.00  0.00     0.293 HD
ENDBRANCH   6  24
BRANCH   8  26
ATOM     26  O   UNL     1       0.383  -1.459   1.398  1.00  0.00    -0.508 OA
ATOM     27  H   UNL     1       1.376  -1.500   1.594  1.00  0.00     0.293 HD
ENDBRANCH   8  26
TORSDOF 6
ENDMDL
MODEL 9
REMARK VINA RESULT:    -5.259      2.120      4.112
REMARK INTER + INTRA:          -6.674
REMARK INTER:                  -6.262
REMARK INTRA:                  -0.411
REMARK UNBOUND:                -0.339
REMARK SMILES O=c1c(O)c(-c2ccc(O)cc2O)oc2cc(O)cc(O)c12
REMARK SMILES IDX 5 1 3 2 2 3 1 4 22 5 20 6 19 7 17 8 16 9 15 10 14 11 6 12
REMARK SMILES IDX 8 13 7 14 9 15 11 16 12 17 10 18 13 20 4 22 21 24 18 26
REMARK H PARENT 10 19 13 21 4 23 21 25 18 27
REMARK Flexibility Score: inf
ROOT
ATOM      1  C   UNL     1       1.331  -5.369  -4.828  1.00  0.00     0.184 A 
ATOM      2  C   UNL     1       2.105  -4.240  -4.523  1.00  0.00     0.208 A 
ATOM      3  C   UNL     1       1.467  -3.090  -4.032  1.00  0.00     0.238 A 
ATOM      4  O   UNL     1       2.159  -2.062  -3.809  1.00  0.00    -0.285 OA
ATOM      5  C   UNL     1       0.064  -3.093  -3.837  1.00  0.00     0.111 A 
ATOM      6  C   UNL     1      -0.683  -1.998  -3.307  1.00  0.00     0.134 A 
ATOM      7  C   UNL     1      -2.081  -2.065  -3.280  1.00  0.00     0.093 A 
ATOM      8  C   UNL     1      -2.757  -3.212  -3.704  1.00  0.00     0.123 A 
ATOM      9  C   UNL     1      -2.033  -4.309  -4.168  1.00  0.00     0.094 A 
ATOM     10  C   UNL     1      -0.638  -4.259  -4.241  1.00  0.00     0.146 A 
ATOM     11  O   UNL     1       0.011  -5.322  -4.699  1.00  0.00    -0.451 OA
ENDROOT
BRANCH   1  12
ATOM     12  C   UNL     1       1.943  -6.617  -5.334  1.00  0.00     0.063 A 
ATOM     13  C   UNL     1       2.981  -8.763  -4.855  1.00  0.00     0.047 A 
ATOM     14  C   UNL     1       2.393  -7.575  -4.413  1.00  0.00     0.020 A 
ATOM     15  C   UNL     1       3.140  -9.000  -6.226  1.00  0.00     0.119 A 
ATOM     16  C   UNL     1       2.716  -8.040  -7.150  1.00  0.00     0.093 A 
ATOM     17  C   UNL     1       2.130  -6.843  -6.713  1.00  0.00     0.130 A 
BRANCH  15  18
ATOM     18  O   UNL     1       3.721 -10.182  -6.681  1.00  0.00    -0.508 OA
ATOM     19  H   UNL     1       3.945 -10.939  -6.045  1.00  0.00     0.293 HD
ENDBRANCH  15  18
BRANCH  17  20
ATOM     20  O   UNL     1       1.756  -5.873  -7.644  1.00  0.00    -0.507 OA
ATOM     21  H   UNL     1       2.424  -5.208  -8.015  1.00  0.00     0.293 HD
ENDBRANCH  17  20
ENDBRANCH   1  12
BRANCH   2  22
ATOM     22  O   UNL     1       3.486  -4.258  -4.741  1.00  0.00    -0.502 OA
ATOM     23  H   UNL     1       4.133  -3.724  -4.173  1.00  0.00     0.293 HD
ENDBRANCH   2  22
BRANCH   6  24
ATOM     24  O   UNL     1      -0.103  -0.843  -2.773  1.00  0.00    -0.507 OA
ATOM     25  H   UNL     1       0.071   0.004  -3.292  1.00  0.00     0.293 HD
ENDBRANCH   6  24
BRANCH   8  26
ATOM     26  O   UNL     1      -4.147  -3.276  -3.659  1.00  0.00    -0.508 OA
ATOM     27  H   UNL     1      -4.703  -2.495  -3.331  1.00  0.00     0.293 HD
ENDBRANCH   8  26
TORSDOF 6
ENDMDL
