MODEL 1
REMARK VINA RESULT:    -4.185      0.000      0.000
REMARK INTER + INTRA:         -10.296
REMARK INTER:                  -7.611
REMARK INTRA:                  -2.686
REMARK UNBOUND:                -2.686
REMARK SMILES CCCCCCCCCCCCCCCC(=O)[O-]
REMARK SMILES IDX 9 1 10 2 11 3 12 4 13 5 14 6 15 7 16 8 17 9 18 10 8 11 7 12
REMARK SMILES IDX 6 13 5 14 4 15 3 16 2 17 1 18
REMARK H PARENT
REMARK Flexibility Score: inf
ROOT
ATOM      1  C   UNL     1      55.417  40.240  48.034  1.00  0.00     0.000 C 
ENDROOT
BRANCH   1   2
ATOM      2  C   UNL     1      55.702  39.751  49.467  1.00  0.00     0.000 C 
BRANCH   2   3
ATOM      3  C   UNL     1      54.884  38.505  49.848  1.00  0.00     0.000 C 
BRANCH   3   4
ATOM      4  C   UNL     1      53.754  38.823  50.841  1.00  0.00     0.000 C 
BRANCH   4   5
ATOM      5  C   UNL     1      53.623  40.331  51.121  1.00  0.00     0.000 C 
BRANCH   5   6
ATOM      6  C   UNL     1      52.217  40.722  51.603  1.00  0.00     0.006 C 
BRANCH   6   7
ATOM      7  C   UNL     1      52.177  42.112  52.251  1.00  0.00     0.053 C 
BRANCH   7   8
ATOM      8  C   UNL     1      53.239  42.230  53.298  1.00  0.00     0.041 C 
ATOM      9  O   UNL     1      54.108  43.138  53.220  1.00  0.00    -0.550 OA
ATOM     10  O   UNL     1      53.299  41.307  54.334  1.00  0.00    -0.550 OA
ENDBRANCH   7   8
ENDBRANCH   6   7
ENDBRANCH   5   6
ENDBRANCH   4   5
ENDBRANCH   3   4
ENDBRANCH   2   3
ENDBRANCH   1   2
BRANCH   1  11
ATOM     11  C   UNL     1      54.536  39.302  47.188  1.00  0.00     0.000 C 
BRANCH  11  12
ATOM     12  C   UNL     1      53.283  39.995  46.633  1.00  0.00    -0.000 C 
BRANCH  12  13
ATOM     13  C   UNL     1      52.254  40.243  47.746  1.00  0.00    -0.000 C 
BRANCH  13  14
ATOM     14  C   UNL     1      51.888  41.730  47.901  1.00  0.00    -0.000 C 
BRANCH  14  15
ATOM     15  C   UNL     1      52.653  42.689  46.968  1.00  0.00    -0.000 C 
BRANCH  15  16
ATOM     16  C   UNL     1      53.682  43.602  47.666  1.00  0.00    -0.000 C 
BRANCH  16  17
ATOM     17  C   UNL     1      53.604  43.606  49.202  1.00  0.00    -0.003 C 
ATOM     18  C   UNL     1      54.978  43.557  49.869  1.00  0.00     0.004 C 
ENDBRANCH  16  17
ENDBRANCH  15  16
ENDBRANCH  14  15
ENDBRANCH  13  14
ENDBRANCH  12  13
ENDBRANCH  11  12
ENDBRANCH   1  11
TORSDOF 14
ENDMDL
MODEL 2
REMARK VINA RESULT:    -4.124      1.474      3.923
REMARK INTER + INTRA:         -10.185
REMARK INTER:                  -8.011
REMARK INTRA:                  -2.173
REMARK UNBOUND:                -2.686
REMARK SMILES CCCCCCCCCCCCCCCC(=O)[O-]
REMARK SMILES IDX 9 1 10 2 11 3 12 4 13 5 14 6 15 7 16 8 17 9 18 10 8 11 7 12
REMARK SMILES IDX 6 13 5 14 4 15 3 16 2 17 1 18
REMARK H PARENT
REMARK Flexibility Score: inf
ROOT
ATOM      1  C   UNL     1      51.844  41.922  47.457  1.00  0.00     0.000 C 
ENDROOT
BRANCH   1   2
ATOM      2  C   UNL     1      52.407  40.522  47.766  1.00  0.00     0.000 C 
BRANCH   2   3
ATOM      3  C   UNL     1      53.486  40.077  46.763  1.00  0.00     0.000 C 
BRANCH   3   4
ATOM      4  C   UNL     1      54.571  39.204  47.415  1.00  0.00     0.000 C 
BRANCH   4   5
ATOM      5  C   UNL     1      55.295  39.925  48.565  1.00  0.00     0.000 C 
BRANCH   5   6
ATOM      6  C   UNL     1      55.946  38.948  49.558  1.00  0.00     0.006 C 
BRANCH   6   7
ATOM      7  C   UNL     1      54.915  38.158  50.374  1.00  0.00     0.053 C 
BRANCH   7   8
ATOM      8  C   UNL     1      54.091  39.086  51.211  1.00  0.00     0.041 C 
ATOM      9  O   UNL     1      52.858  39.214  50.987  1.00  0.00    -0.550 OA
ATOM     10  O   UNL     1      54.693  39.844  52.207  1.00  0.00    -0.550 OA
ENDBRANCH   7   8
ENDBRANCH   6   7
ENDBRANCH   5   6
ENDBRANCH   4   5
ENDBRANCH   3   4
ENDBRANCH   2   3
ENDBRANCH   1   2
BRANCH   1  11
ATOM     11  C   UNL     1      52.846  42.903  46.822  1.00  0.00     0.000 C 
BRANCH  11  12
ATOM     12  C   UNL     1      52.388  44.366  46.904  1.00  0.00    -0.000 C 
BRANCH  12  13
ATOM     13  C   UNL     1      53.211  45.141  47.945  1.00  0.00    -0.000 C 
BRANCH  13  14
ATOM     14  C   UNL     1      54.460  44.373  48.411  1.00  0.00    -0.000 C 
BRANCH  14  15
ATOM     15  C   UNL     1      54.557  44.152  49.934  1.00  0.00    -0.000 C 
BRANCH  15  16
ATOM     16  C   UNL     1      53.913  42.850  50.450  1.00  0.00    -0.000 C 
BRANCH  16  17
ATOM     17  C   UNL     1      52.482  43.008  50.992  1.00  0.00    -0.003 C 
ATOM     18  C   UNL     1      52.294  42.377  52.371  1.00  0.00     0.004 C 
ENDBRANCH  16  17
ENDBRANCH  15  16
ENDBRANCH  14  15
ENDBRANCH  13  14
ENDBRANCH  12  13
ENDBRANCH  11  12
ENDBRANCH   1  11
TORSDOF 14
ENDMDL
MODEL 3
REMARK VINA RESULT:    -4.085      1.055      1.618
REMARK INTER + INTRA:         -10.114
REMARK INTER:                  -7.684
REMARK INTRA:                  -2.430
REMARK UNBOUND:                -2.686
REMARK SMILES CCCCCCCCCCCCCCCC(=O)[O-]
REMARK SMILES IDX 9 1 10 2 11 3 12 4 13 5 14 6 15 7 16 8 17 9 18 10 8 11 7 12
REMARK SMILES IDX 6 13 5 14 4 15 3 16 2 17 1 18
REMARK H PARENT
REMARK Flexibility Score: inf
ROOT
ATOM      1  C   UNL     1      55.183  40.083  49.764  1.00  0.00     0.000 C 
ENDROOT
BRANCH   1   2
ATOM      2  C   UNL     1      54.659  38.718  50.249  1.00  0.00     0.000 C 
BRANCH   2   3
ATOM      3  C   UNL     1      53.360  38.833  51.066  1.00  0.00     0.000 C 
BRANCH   3   4
ATOM      4  C   UNL     1      52.273  39.637  50.334  1.00  0.00     0.000 C 
BRANCH   4   5
ATOM      5  C   UNL     1      51.709  40.782  51.193  1.00  0.00     0.000 C 
BRANCH   5   6
ATOM      6  C   UNL     1      52.548  41.042  52.455  1.00  0.00     0.006 C 
BRANCH   6   7
ATOM      7  C   UNL     1      52.869  42.528  52.658  1.00  0.00     0.053 C 
BRANCH   7   8
ATOM      8  C   UNL     1      54.283  42.697  53.118  1.00  0.00     0.041 C 
ATOM      9  O   UNL     1      55.160  41.854  52.794  1.00  0.00    -0.550 OA
ATOM     10  O   UNL     1      54.622  43.760  53.946  1.00  0.00    -0.550 OA
ENDBRANCH   7   8
ENDBRANCH   6   7
ENDBRANCH   5   6
ENDBRANCH   4   5
ENDBRANCH   3   4
ENDBRANCH   2   3
ENDBRANCH   1   2
BRANCH   1  11
ATOM     11  C   UNL     1      55.296  40.233  48.236  1.00  0.00     0.000 C 
BRANCH  11  12
ATOM     12  C   UNL     1      54.532  39.144  47.469  1.00  0.00    -0.000 C 
BRANCH  12  13
ATOM     13  C   UNL     1      53.368  39.749  46.670  1.00  0.00    -0.000 C 
BRANCH  13  14
ATOM     14  C   UNL     1      53.382  41.288  46.667  1.00  0.00    -0.000 C 
BRANCH  14  15
ATOM     15  C   UNL     1      52.195  41.951  47.395  1.00  0.00    -0.000 C 
BRANCH  15  16
ATOM     16  C   UNL     1      52.488  43.341  47.995  1.00  0.00    -0.000 C 
BRANCH  16  17
ATOM     17  C   UNL     1      53.420  43.332  49.219  1.00  0.00    -0.003 C 
ATOM     18  C   UNL     1      54.377  44.524  49.248  1.00  0.00     0.004 C 
ENDBRANCH  16  17
ENDBRANCH  15  16
ENDBRANCH  14  15
ENDBRANCH  13  14
ENDBRANCH  12  13
ENDBRANCH  11  12
ENDBRANCH   1  11
TORSDOF 14
ENDMDL
MODEL 4
REMARK VINA RESULT:    -4.042      2.167      4.562
REMARK INTER + INTRA:         -10.036
REMARK INTER:                  -7.904
REMARK INTRA:                  -2.131
REMARK UNBOUND:                -2.686
REMARK SMILES CCCCCCCCCCCCCCCC(=O)[O-]
REMARK SMILES IDX 9 1 10 2 11 3 12 4 13 5 14 6 15 7 16 8 17 9 18 10 8 11 7 12
REMARK SMILES IDX 6 13 5 14 4 15 3 16 2 17 1 18
REMARK H PARENT
REMARK Flexibility Score: inf
ROOT
ATOM      1  C   UNL     1      52.790  42.415  46.585  1.00  0.00     0.000 C 
ENDROOT
BRANCH   1   2
ATOM      2  C   UNL     1      51.873  41.798  47.658  1.00  0.00     0.000 C 
BRANCH   2   3
ATOM      3  C   UNL     1      52.239  40.342  47.993  1.00  0.00     0.000 C 
BRANCH   3   4
ATOM      4  C   UNL     1      53.207  39.728  46.968  1.00  0.00     0.000 C 
BRANCH   4   5
ATOM      5  C   UNL     1      54.538  39.289  47.603  1.00  0.00     0.000 C 
BRANCH   5   6
ATOM      6  C   UNL     1      54.612  39.618  49.103  1.00  0.00     0.006 C 
BRANCH   6   7
ATOM      7  C   UNL     1      54.916  38.387  49.966  1.00  0.00     0.053 C 
BRANCH   7   8
ATOM      8  C   UNL     1      56.309  38.459  50.506  1.00  0.00     0.041 C 
ATOM      9  O   UNL     1      57.251  38.868  49.776  1.00  0.00    -0.550 OA
ATOM     10  O   UNL     1      56.577  38.029  51.799  1.00  0.00    -0.550 OA
ENDBRANCH   7   8
ENDBRANCH   6   7
ENDBRANCH   5   6
ENDBRANCH   4   5
ENDBRANCH   3   4
ENDBRANCH   2   3
ENDBRANCH   1   2
BRANCH   1  11
ATOM     11  C   UNL     1      53.606  43.636  47.048  1.00  0.00     0.000 C 
BRANCH  11  12
ATOM     12  C   UNL     1      53.037  44.293  48.314  1.00  0.00    -0.000 C 
BRANCH  12  13
ATOM     13  C   UNL     1      54.099  44.365  49.420  1.00  0.00    -0.000 C 
BRANCH  13  14
ATOM     14  C   UNL     1      53.998  43.202  50.423  1.00  0.00    -0.000 C 
BRANCH  14  15
ATOM     15  C   UNL     1      52.590  42.965  51.004  1.00  0.00    -0.000 C 
BRANCH  15  16
ATOM     16  C   UNL     1      52.357  41.564  51.607  1.00  0.00    -0.000 C 
BRANCH  16  17
ATOM     17  C   UNL     1      52.925  41.367  53.022  1.00  0.00    -0.003 C 
ATOM     18  C   UNL     1      54.166  40.474  53.047  1.00  0.00     0.004 C 
ENDBRANCH  16  17
ENDBRANCH  15  16
ENDBRANCH  14  15
ENDBRANCH  13  14
ENDBRANCH  12  13
ENDBRANCH  11  12
ENDBRANCH   1  11
TORSDOF 14
ENDMDL
MODEL 5
REMARK VINA RESULT:    -4.033      2.305      4.443
REMARK INTER + INTRA:         -10.020
REMARK INTER:                  -7.924
REMARK INTRA:                  -2.096
REMARK UNBOUND:                -2.686
REMARK SMILES CCCCCCCCCCCCCCCC(=O)[O-]
REMARK SMILES IDX 9 1 10 2 11 3 12 4 13 5 14 6 15 7 16 8 17 9 18 10 8 11 7 12
REMARK SMILES IDX 6 13 5 14 4 15 3 16 2 17 1 18
REMARK H PARENT
REMARK Flexibility Score: inf
ROOT
ATOM      1  C   UNL     1      51.887  41.826  47.725  1.00  0.00     0.000 C 
ENDROOT
BRANCH   1   2
ATOM      2  C   UNL     1      52.313  40.358  47.921  1.00  0.00     0.000 C 
BRANCH   2   3
ATOM      3  C   UNL     1      53.310  39.877  46.852  1.00  0.00     0.000 C 
BRANCH   3   4
ATOM      4  C   UNL     1      54.552  39.207  47.464  1.00  0.00     0.000 C 
BRANCH   4   5
ATOM      5  C   UNL     1      54.743  39.566  48.948  1.00  0.00     0.000 C 
BRANCH   5   6
ATOM      6  C   UNL     1      54.829  38.324  49.850  1.00  0.00     0.006 C 
BRANCH   6   7
ATOM      7  C   UNL     1      55.443  38.629  51.223  1.00  0.00     0.053 C 
BRANCH   7   8
ATOM      8  C   UNL     1      56.842  38.103  51.296  1.00  0.00     0.041 C 
ATOM      9  O   UNL     1      57.351  37.813  52.411  1.00  0.00    -0.550 OA
ATOM     10  O   UNL     1      57.600  37.978  50.139  1.00  0.00    -0.550 OA
ENDBRANCH   7   8
ENDBRANCH   6   7
ENDBRANCH   5   6
ENDBRANCH   4   5
ENDBRANCH   3   4
ENDBRANCH   2   3
ENDBRANCH   1   2
BRANCH   1  11
ATOM     11  C   UNL     1      52.937  42.725  47.047  1.00  0.00     0.000 C 
BRANCH  11  12
ATOM     12  C   UNL     1      53.083  44.094  47.727  1.00  0.00    -0.000 C 
BRANCH  12  13
ATOM     13  C   UNL     1      53.119  43.946  49.256  1.00  0.00    -0.000 C 
BRANCH  13  14
ATOM     14  C   UNL     1      54.450  43.366  49.769  1.00  0.00    -0.000 C 
BRANCH  14  15
ATOM     15  C   UNL     1      54.322  42.414  50.974  1.00  0.00    -0.000 C 
BRANCH  15  16
ATOM     16  C   UNL     1      53.335  42.870  52.068  1.00  0.00    -0.000 C 
BRANCH  16  17
ATOM     17  C   UNL     1      52.094  41.977  52.231  1.00  0.00    -0.003 C 
ATOM     18  C   UNL     1      52.238  40.623  51.535  1.00  0.00     0.004 C 
ENDBRANCH  16  17
ENDBRANCH  15  16
ENDBRANCH  14  15
ENDBRANCH  13  14
ENDBRANCH  12  13
ENDBRANCH  11  12
ENDBRANCH   1  11
TORSDOF 14
ENDMDL
MODEL 6
REMARK VINA RESULT:    -3.997      2.009      4.438
REMARK INTER + INTRA:          -9.953
REMARK INTER:                  -7.574
REMARK INTRA:                  -2.379
REMARK UNBOUND:                -2.686
REMARK SMILES CCCCCCCCCCCCCCCC(=O)[O-]
REMARK SMILES IDX 9 1 10 2 11 3 12 4 13 5 14 6 15 7 16 8 17 9 18 10 8 11 7 12
REMARK SMILES IDX 6 13 5 14 4 15 3 16 2 17 1 18
REMARK H PARENT
REMARK Flexibility Score: inf
ROOT
ATOM      1  C   UNL     1      55.009  40.780  48.153  1.00  0.00     0.000 C 
ENDROOT
BRANCH   1   2
ATOM      2  C   UNL     1      54.151  39.903  47.221  1.00  0.00     0.000 C 
BRANCH   2   3
ATOM      3  C   UNL     1      52.643  40.171  47.368  1.00  0.00     0.000 C 
BRANCH   3   4
ATOM      4  C   UNL     1      52.348  41.499  48.085  1.00  0.00     0.000 C 
BRANCH   4   5
ATOM      5  C   UNL     1      51.834  42.586  47.125  1.00  0.00     0.000 C 
BRANCH   5   6
ATOM      6  C   UNL     1      52.758  43.813  47.073  1.00  0.00     0.006 C 
BRANCH   6   7
ATOM      7  C   UNL     1      53.161  44.311  48.467  1.00  0.00     0.053 C 
BRANCH   7   8
ATOM      8  C   UNL     1      54.626  44.617  48.507  1.00  0.00     0.041 C 
ATOM      9  O   UNL     1      55.153  45.051  49.566  1.00  0.00    -0.550 OA
ATOM     10  O   UNL     1      55.399  44.469  47.363  1.00  0.00    -0.550 OA
ENDBRANCH   7   8
ENDBRANCH   6   7
ENDBRANCH   5   6
ENDBRANCH   4   5
ENDBRANCH   3   4
ENDBRANCH   2   3
ENDBRANCH   1   2
BRANCH   1  11
ATOM     11  C   UNL     1      55.818  40.009  49.212  1.00  0.00     0.000 C 
BRANCH  11  12
ATOM     12  C   UNL     1      55.347  38.558  49.388  1.00  0.00    -0.000 C 
BRANCH  12  13
ATOM     13  C   UNL     1      54.696  38.356  50.764  1.00  0.00    -0.000 C 
BRANCH  13  14
ATOM     14  C   UNL     1      53.272  38.934  50.843  1.00  0.00    -0.000 C 
BRANCH  14  15
ATOM     15  C   UNL     1      53.067  40.013  51.926  1.00  0.00    -0.000 C 
BRANCH  15  16
ATOM     16  C   UNL     1      51.917  41.004  51.654  1.00  0.00    -0.000 C 
BRANCH  16  17
ATOM     17  C   UNL     1      52.322  42.487  51.679  1.00  0.00    -0.003 C 
ATOM     18  C   UNL     1      53.836  42.690  51.748  1.00  0.00     0.004 C 
ENDBRANCH  16  17
ENDBRANCH  15  16
ENDBRANCH  14  15
ENDBRANCH  13  14
ENDBRANCH  12  13
ENDBRANCH  11  12
ENDBRANCH   1  11
TORSDOF 14
ENDMDL
MODEL 7
REMARK VINA RESULT:    -3.954      2.369      4.303
REMARK INTER + INTRA:          -9.876
REMARK INTER:                  -7.480
REMARK INTRA:                  -2.396
REMARK UNBOUND:                -2.686
REMARK SMILES CCCCCCCCCCCCCCCC(=O)[O-]
REMARK SMILES IDX 9 1 10 2 11 3 12 4 13 5 14 6 15 7 16 8 17 9 18 10 8 11 7 12
REMARK SMILES IDX 6 13 5 14 4 15 3 16 2 17 1 18
REMARK H PARENT
REMARK Flexibility Score: inf
ROOT
ATOM      1  C   UNL     1      53.883  43.284  50.246  1.00  0.00     0.000 C 
ENDROOT
BRANCH   1   2
ATOM      2  C   UNL     1      52.590  42.999  51.034  1.00  0.00     0.000 C 
BRANCH   2   3
ATOM      3  C   UNL     1      52.426  41.512  51.396  1.00  0.00     0.000 C 
BRANCH   3   4
ATOM      4  C   UNL     1      53.679  40.684  51.068  1.00  0.00     0.000 C 
BRANCH   4   5
ATOM      5  C   UNL     1      53.379  39.179  50.959  1.00  0.00     0.000 C 
BRANCH   5   6
ATOM      6  C   UNL     1      54.644  38.341  50.714  1.00  0.00     0.006 C 
BRANCH   6   7
ATOM      7  C   UNL     1      55.936  39.127  50.973  1.00  0.00     0.053 C 
BRANCH   7   8
ATOM      8  C   UNL     1      57.051  38.194  51.327  1.00  0.00     0.041 C 
ATOM      9  O   UNL     1      57.264  37.891  52.531  1.00  0.00    -0.550 OA
ATOM     10  O   UNL     1      57.885  37.699  50.334  1.00  0.00    -0.550 OA
ENDBRANCH   7   8
ENDBRANCH   6   7
ENDBRANCH   5   6
ENDBRANCH   4   5
ENDBRANCH   3   4
ENDBRANCH   2   3
ENDBRANCH   1   2
BRANCH   1  11
ATOM     11  C   UNL     1      53.810  44.486  49.287  1.00  0.00     0.000 C 
BRANCH  11  12
ATOM     12  C   UNL     1      53.796  44.073  47.808  1.00  0.00    -0.000 C 
BRANCH  12  13
ATOM     13  C   UNL     1      52.359  43.858  47.312  1.00  0.00    -0.000 C 
BRANCH  13  14
ATOM     14  C   UNL     1      52.131  42.451  46.732  1.00  0.00    -0.000 C 
BRANCH  14  15
ATOM     15  C   UNL     1      52.037  41.323  47.779  1.00  0.00    -0.000 C 
BRANCH  15  16
ATOM     16  C   UNL     1      52.813  40.037  47.429  1.00  0.00    -0.000 C 
BRANCH  16  17
ATOM     17  C   UNL     1      54.168  40.268  46.740  1.00  0.00    -0.003 C 
ATOM     18  C   UNL     1      55.259  40.724  47.708  1.00  0.00     0.004 C 
ENDBRANCH  16  17
ENDBRANCH  15  16
ENDBRANCH  14  15
ENDBRANCH  13  14
ENDBRANCH  12  13
ENDBRANCH  11  12
ENDBRANCH   1  11
TORSDOF 14
ENDMDL
MODEL 8
REMARK VINA RESULT:    -3.922      1.157      2.672
REMARK INTER + INTRA:          -9.817
REMARK INTER:                  -7.288
REMARK INTRA:                  -2.529
REMARK UNBOUND:                -2.686
REMARK SMILES CCCCCCCCCCCCCCCC(=O)[O-]
REMARK SMILES IDX 9 1 10 2 11 3 12 4 13 5 14 6 15 7 16 8 17 9 18 10 8 11 7 12
REMARK SMILES IDX 6 13 5 14 4 15 3 16 2 17 1 18
REMARK H PARENT
REMARK Flexibility Score: inf
ROOT
ATOM      1  C   UNL     1      56.461  40.968  49.631  1.00  0.00     0.000 C 
ENDROOT
BRANCH   1   2
ATOM      2  C   UNL     1      57.203  39.619  49.570  1.00  0.00     0.000 C 
BRANCH   2   3
ATOM      3  C   UNL     1      56.389  38.460  50.170  1.00  0.00     0.000 C 
BRANCH   3   4
ATOM      4  C   UNL     1      54.910  38.499  49.748  1.00  0.00     0.000 C 
BRANCH   4   5
ATOM      5  C   UNL     1      53.953  38.371  50.945  1.00  0.00     0.000 C 
BRANCH   5   6
ATOM      6  C   UNL     1      53.359  39.722  51.373  1.00  0.00     0.006 C 
BRANCH   6   7
ATOM      7  C   UNL     1      54.158  40.391  52.500  1.00  0.00     0.053 C 
BRANCH   7   8
ATOM      8  C   UNL     1      53.266  41.269  53.321  1.00  0.00     0.041 C 
ATOM      9  O   UNL     1      53.439  41.360  54.565  1.00  0.00    -0.550 OA
ATOM     10  O   UNL     1      52.215  41.948  52.720  1.00  0.00    -0.550 OA
ENDBRANCH   7   8
ENDBRANCH   6   7
ENDBRANCH   5   6
ENDBRANCH   4   5
ENDBRANCH   3   4
ENDBRANCH   2   3
ENDBRANCH   1   2
BRANCH   1  11
ATOM     11  C   UNL     1      56.345  41.710  48.288  1.00  0.00     0.000 C 
BRANCH  11  12
ATOM     12  C   UNL     1      55.351  42.880  48.332  1.00  0.00    -0.000 C 
BRANCH  12  13
ATOM     13  C   UNL     1      54.589  42.902  49.666  1.00  0.00    -0.000 C 
BRANCH  13  14
ATOM     14  C   UNL     1      53.062  42.963  49.480  1.00  0.00    -0.000 C 
BRANCH  14  15
ATOM     15  C   UNL     1      52.588  43.074  48.017  1.00  0.00    -0.000 C 
BRANCH  15  16
ATOM     16  C   UNL     1      51.836  41.842  47.477  1.00  0.00    -0.000 C 
BRANCH  16  17
ATOM     17  C   UNL     1      52.480  40.489  47.822  1.00  0.00    -0.003 C 
ATOM     18  C   UNL     1      53.415  39.977  46.725  1.00  0.00     0.004 C 
ENDBRANCH  16  17
ENDBRANCH  15  16
ENDBRANCH  14  15
ENDBRANCH  13  14
ENDBRANCH  12  13
ENDBRANCH  11  12
ENDBRANCH   1  11
TORSDOF 14
ENDMDL
MODEL 9
REMARK VINA RESULT:    -3.898      1.661      3.368
REMARK INTER + INTRA:          -9.773
REMARK INTER:                  -7.550
REMARK INTRA:                  -2.223
REMARK UNBOUND:                -2.686
REMARK SMILES CCCCCCCCCCCCCCCC(=O)[O-]
REMARK SMILES IDX 9 1 10 2 11 3 12 4 13 5 14 6 15 7 16 8 17 9 18 10 8 11 7 12
REMARK SMILES IDX 6 13 5 14 4 15 3 16 2 17 1 18
REMARK H PARENT
REMARK Flexibility Score: inf
ROOT
ATOM      1  C   UNL     1      53.531  38.940  50.831  1.00  0.00     0.000 C 
ENDROOT
BRANCH   1   2
ATOM      2  C   UNL     1      52.610  40.085  50.367  1.00  0.00     0.000 C 
BRANCH   2   3
ATOM      3  C   UNL     1      51.805  40.710  51.519  1.00  0.00     0.000 C 
BRANCH   3   4
ATOM      4  C   UNL     1      52.157  42.189  51.749  1.00  0.00     0.000 C 
BRANCH   4   5
ATOM      5  C   UNL     1      52.877  42.817  50.543  1.00  0.00     0.000 C 
BRANCH   5   6
ATOM      6  C   UNL     1      54.227  43.446  50.923  1.00  0.00     0.006 C 
BRANCH   6   7
ATOM      7  C   UNL     1      55.350  43.077  49.945  1.00  0.00     0.053 C 
BRANCH   7   8
ATOM      8  C   UNL     1      56.464  42.387  50.667  1.00  0.00     0.041 C 
ATOM      9  O   UNL     1      57.662  42.667  50.399  1.00  0.00    -0.550 OA
ATOM     10  O   UNL     1      56.181  41.399  51.602  1.00  0.00    -0.550 OA
ENDBRANCH   7   8
ENDBRANCH   6   7
ENDBRANCH   5   6
ENDBRANCH   4   5
ENDBRANCH   3   4
ENDBRANCH   2   3
ENDBRANCH   1   2
BRANCH   1  11
ATOM     11  C   UNL     1      54.674  38.588  49.861  1.00  0.00     0.000 C 
BRANCH  11  12
ATOM     12  C   UNL     1      54.896  39.658  48.783  1.00  0.00    -0.000 C 
BRANCH  12  13
ATOM     13  C   UNL     1      54.535  39.118  47.391  1.00  0.00    -0.000 C 
BRANCH  13  14
ATOM     14  C   UNL     1      53.426  39.935  46.702  1.00  0.00    -0.000 C 
BRANCH  14  15
ATOM     15  C   UNL     1      53.424  41.440  47.037  1.00  0.00    -0.000 C 
BRANCH  15  16
ATOM     16  C   UNL     1      52.027  42.076  47.186  1.00  0.00    -0.000 C 
BRANCH  16  17
ATOM     17  C   UNL     1      51.872  43.455  46.524  1.00  0.00    -0.003 C 
ATOM     18  C   UNL     1      52.692  44.544  47.216  1.00  0.00     0.004 C 
ENDBRANCH  16  17
ENDBRANCH  15  16
ENDBRANCH  14  15
ENDBRANCH  13  14
ENDBRANCH  12  13
ENDBRANCH  11  12
ENDBRANCH   1  11
TORSDOF 14
ENDMDL
