MODEL 1
REMARK VINA RESULT:    -8.667      0.000      0.000
REMARK INTER + INTRA:         -15.948
REMARK INTER:                 -14.240
REMARK INTRA:                  -1.709
REMARK UNBOUND:                -1.709
REMARK SMILES COc1ccc([C@H]2CC(=O)c3c(O)cc(O[C@H]4O[C@H](CO[C@@H]5O[C@H](C)[C@@H](O)[C@@H](O)[C@H]5O)[C@H](O)[C@@H](O)[C@@H]4O)cc3O2)cc1O
REMARK SMILES IDX 19 1 32 2 34 3 36 4 17 5 18 6 20 7 21 8 22 9 25 10 24 11
REMARK SMILES IDX 26 12 23 13 28 14 30 15 27 16 29 18 31 20 33 22 35 24 16 26
REMARK SMILES IDX 15 27 14 28 38 29 12 30 39 31 11 32 40 33 9 34 7 35 10 36
REMARK SMILES IDX 8 37 13 38 6 40 41 41 5 42 42 43 4 44 3 45 43 46 2 48 1 49
REMARK SMILES IDX 37 50
REMARK H PARENT 27 17 29 19 31 21 33 23 35 25 13 39 43 47 37 51
REMARK Flexibility Score: inf
ROOT
ATOM      1  C   UNL     1       3.727  -0.490 -26.239  1.00  0.00     0.180 C 
ATOM      2  C   UNL     1       5.219  -0.304 -26.734  1.00  0.00     0.177 C 
ATOM      3  C   UNL     1       5.942   0.951 -26.161  1.00  0.00     0.180 C 
ATOM      4  C   UNL     1       5.497   1.264 -24.721  1.00  0.00     0.214 C 
ATOM      5  C   UNL     1       3.962   1.269 -24.675  1.00  0.00     0.339 C 
ATOM      6  O   UNL     1       3.495  -0.056 -24.901  1.00  0.00    -0.332 OA
ENDROOT
BRANCH   1   7
ATOM      7  C   UNL     1       3.108  -1.908 -26.383  1.00  0.00     0.198 C 
BRANCH   7   8
ATOM      8  O   UNL     1       3.994  -2.932 -25.984  1.00  0.00    -0.347 OA
BRANCH   8   9
ATOM      9  C   UNL     1       3.782  -3.390 -24.652  1.00  0.00     0.281 C 
ATOM     10  C   UNL     1       0.820  -3.124 -22.507  1.00  0.00     0.041 C 
ATOM     11  C   UNL     1       2.207  -3.584 -22.950  1.00  0.00     0.150 C 
ATOM     12  C   UNL     1       3.246  -3.328 -21.824  1.00  0.00     0.174 C 
ATOM     13  O   UNL     1       2.550  -2.896 -24.147  1.00  0.00    -0.344 OA
ATOM     14  C   UNL     1       4.698  -3.614 -22.297  1.00  0.00     0.179 C 
ATOM     15  C   UNL     1       4.944  -3.029 -23.701  1.00  0.00     0.202 C 
BRANCH  12  16
ATOM     16  O   UNL     1       2.955  -4.163 -20.732  1.00  0.00    -0.388 OA
ATOM     17  H   UNL     1       2.976  -5.099 -21.048  1.00  0.00     0.211 HD
ENDBRANCH  12  16
BRANCH  14  18
ATOM     18  O   UNL     1       5.021  -4.982 -22.252  1.00  0.00    -0.387 OA
ATOM     19  H   UNL     1       4.815  -5.374 -23.151  1.00  0.00     0.211 HD
ENDBRANCH  14  18
BRANCH  15  20
ATOM     20  O   UNL     1       6.150  -3.530 -24.207  1.00  0.00    -0.385 OA
ATOM     21  H   UNL     1       6.353  -4.381 -23.740  1.00  0.00     0.211 HD
ENDBRANCH  15  20
ENDBRANCH   8   9
ENDBRANCH   7   8
ENDBRANCH   1   7
BRANCH   2  22
ATOM     22  O   UNL     1       6.035  -1.419 -26.440  1.00  0.00    -0.387 OA
ATOM     23  H   UNL     1       5.443  -2.184 -26.199  1.00  0.00     0.211 HD
ENDBRANCH   2  22
BRANCH   3  24
ATOM     24  O   UNL     1       5.738   2.082 -26.995  1.00  0.00    -0.387 OA
ATOM     25  H   UNL     1       6.103   2.854 -26.503  1.00  0.00     0.211 HD
ENDBRANCH   3  24
BRANCH   5  26
ATOM     26  O   UNL     1       3.454   2.194 -25.659  1.00  0.00    -0.462 OA
BRANCH  26  27
ATOM     27  C   UNL     1       2.786   3.395 -25.355  1.00  0.00     0.130 A 
ATOM     28  C   UNL     1       1.391   3.486 -25.289  1.00  0.00     0.093 A 
ATOM     29  C   UNL     1       3.558   4.519 -25.088  1.00  0.00     0.094 A 
ATOM     30  C   UNL     1       0.763   4.691 -24.938  1.00  0.00     0.133 A 
ATOM     31  C   UNL     1       2.959   5.732 -24.764  1.00  0.00     0.138 A 
ATOM     32  C   UNL     1       1.557   5.834 -24.670  1.00  0.00     0.102 A 
ATOM     33  O   UNL     1       3.771   6.857 -24.582  1.00  0.00    -0.484 OA
ATOM     34  C   UNL     1       1.003   7.165 -24.332  1.00  0.00     0.174 C 
ATOM     35  C   UNL     1       3.280   8.129 -24.145  1.00  0.00     0.211 C 
ATOM     36  O   UNL     1      -0.101   7.305 -23.749  1.00  0.00    -0.294 OA
ATOM     37  C   UNL     1       1.838   8.360 -24.633  1.00  0.00     0.131 C 
BRANCH  30  38
ATOM     38  O   UNL     1      -0.623   4.703 -24.915  1.00  0.00    -0.507 OA
ATOM     39  H   UNL     1      -1.207   4.873 -25.722  1.00  0.00     0.293 HD
ENDBRANCH  30  38
BRANCH  35  40
ATOM     40  C   UNL     1       4.180   9.236 -24.641  1.00  0.00    -0.003 A 
ATOM     41  C   UNL     1       4.395  10.380 -23.862  1.00  0.00     0.057 A 
ATOM     42  C   UNL     1       4.742   9.173 -25.925  1.00  0.00     0.011 A 
ATOM     43  C   UNL     1       5.200  11.426 -24.339  1.00  0.00     0.158 A 
ATOM     44  C   UNL     1       5.522  10.213 -26.418  1.00  0.00     0.051 A 
ATOM     45  C   UNL     1       5.770  11.326 -25.624  1.00  0.00     0.160 A 
BRANCH  43  46
ATOM     46  O   UNL     1       5.403  12.556 -23.545  1.00  0.00    -0.504 OA
ATOM     47  H   UNL     1       6.299  13.030 -23.498  1.00  0.00     0.293 HD
ENDBRANCH  43  46
BRANCH  45  48
ATOM     48  O   UNL     1       6.575  12.353 -26.122  1.00  0.00    -0.493 OA
ATOM     49  C   UNL     1       7.654  12.072 -27.015  1.00  0.00     0.278 C 
ENDBRANCH  45  48
ENDBRANCH  35  40
ENDBRANCH  26  27
ENDBRANCH   5  26
BRANCH   4  50
ATOM     50  O   UNL     1       5.999   0.277 -23.855  1.00  0.00    -0.384 OA
ATOM     51  H   UNL     1       6.780   0.671 -23.392  1.00  0.00     0.211 HD
ENDBRANCH   4  50
TORSDOF 15
ENDMDL
MODEL 2
REMARK VINA RESULT:    -8.598      1.429      2.497
REMARK INTER + INTRA:         -15.836
REMARK INTER:                 -14.281
REMARK INTRA:                  -1.556
REMARK UNBOUND:                -1.709
REMARK SMILES COc1ccc([C@H]2CC(=O)c3c(O)cc(O[C@H]4O[C@H](CO[C@@H]5O[C@H](C)[C@@H](O)[C@@H](O)[C@H]5O)[C@H](O)[C@@H](O)[C@@H]4O)cc3O2)cc1O
REMARK SMILES IDX 19 1 32 2 34 3 36 4 17 5 18 6 20 7 21 8 22 9 25 10 24 11
REMARK SMILES IDX 26 12 23 13 28 14 30 15 27 16 29 18 31 20 33 22 35 24 16 26
REMARK SMILES IDX 15 27 14 28 38 29 12 30 39 31 11 32 40 33 9 34 7 35 10 36
REMARK SMILES IDX 8 37 13 38 6 40 41 41 5 42 42 43 4 44 3 45 43 46 2 48 1 49
REMARK SMILES IDX 37 50
REMARK H PARENT 27 17 29 19 31 21 33 23 35 25 13 39 43 47 37 51
REMARK Flexibility Score: inf
ROOT
ATOM      1  C   UNL     1       4.921   0.516 -23.230  1.00  0.00     0.180 C 
ATOM      2  C   UNL     1       4.301  -0.326 -24.419  1.00  0.00     0.177 C 
ATOM      3  C   UNL     1       3.869   0.517 -25.655  1.00  0.00     0.180 C 
ATOM      4  C   UNL     1       4.798   1.722 -25.884  1.00  0.00     0.214 C 
ATOM      5  C   UNL     1       4.957   2.475 -24.554  1.00  0.00     0.339 C 
ATOM      6  O   UNL     1       5.678   1.649 -23.647  1.00  0.00    -0.332 OA
ENDROOT
BRANCH   1   7
ATOM      7  C   UNL     1       5.777  -0.259 -22.189  1.00  0.00     0.198 C 
BRANCH   7   8
ATOM      8  O   UNL     1       4.997  -0.831 -21.161  1.00  0.00    -0.347 OA
BRANCH   8   9
ATOM      9  C   UNL     1       4.625  -2.184 -21.404  1.00  0.00     0.281 C 
ATOM     10  C   UNL     1       6.008  -4.623 -23.767  1.00  0.00     0.041 C 
ATOM     11  C   UNL     1       5.161  -4.102 -22.609  1.00  0.00     0.150 C 
ATOM     12  C   UNL     1       3.677  -4.520 -22.794  1.00  0.00     0.174 C 
ATOM     13  O   UNL     1       5.304  -2.688 -22.546  1.00  0.00    -0.344 OA
ATOM     14  C   UNL     1       2.751  -3.861 -21.736  1.00  0.00     0.179 C 
ATOM     15  C   UNL     1       3.100  -2.371 -21.552  1.00  0.00     0.202 C 
BRANCH  12  16
ATOM     16  O   UNL     1       3.575  -5.916 -22.675  1.00  0.00    -0.388 OA
ATOM     17  H   UNL     1       4.473  -6.272 -22.466  1.00  0.00     0.211 HD
ENDBRANCH  12  16
BRANCH  14  18
ATOM     18  O   UNL     1       2.765  -4.543 -20.506  1.00  0.00    -0.387 OA
ATOM     19  H   UNL     1       3.290  -3.989 -19.856  1.00  0.00     0.211 HD
ENDBRANCH  14  18
BRANCH  15  20
ATOM     20  O   UNL     1       2.445  -1.879 -20.415  1.00  0.00    -0.385 OA
ATOM     21  H   UNL     1       2.957  -1.102 -20.073  1.00  0.00     0.211 HD
ENDBRANCH  15  20
ENDBRANCH   8   9
ENDBRANCH   7   8
ENDBRANCH   1   7
BRANCH   2  22
ATOM     22  O   UNL     1       5.175  -1.330 -24.890  1.00  0.00    -0.387 OA
ATOM     23  H   UNL     1       5.994  -0.889 -25.248  1.00  0.00     0.211 HD
ENDBRANCH   2  22
BRANCH   3  24
ATOM     24  O   UNL     1       2.523   0.952 -25.529  1.00  0.00    -0.387 OA
ATOM     25  H   UNL     1       1.968   0.138 -25.553  1.00  0.00     0.211 HD
ENDBRANCH   3  24
BRANCH   5  26
ATOM     26  O   UNL     1       3.656   2.829 -24.043  1.00  0.00    -0.462 OA
BRANCH  26  27
ATOM     27  C   UNL     1       3.051   4.090 -24.204  1.00  0.00     0.130 A 
ATOM     28  C   UNL     1       1.700   4.240 -24.540  1.00  0.00     0.093 A 
ATOM     29  C   UNL     1       3.834   5.218 -23.995  1.00  0.00     0.094 A 
ATOM     30  C   UNL     1       1.123   5.515 -24.649  1.00  0.00     0.133 A 
ATOM     31  C   UNL     1       3.291   6.493 -24.122  1.00  0.00     0.138 A 
ATOM     32  C   UNL     1       1.928   6.661 -24.436  1.00  0.00     0.102 A 
ATOM     33  O   UNL     1       4.134   7.601 -23.981  1.00  0.00    -0.484 OA
ATOM     34  C   UNL     1       1.437   8.052 -24.564  1.00  0.00     0.174 C 
ATOM     35  C   UNL     1       3.672   8.956 -23.987  1.00  0.00     0.211 C 
ATOM     36  O   UNL     1       0.240   8.365 -24.348  1.00  0.00    -0.294 OA
ATOM     37  C   UNL     1       2.432   9.112 -24.885  1.00  0.00     0.131 C 
BRANCH  30  38
ATOM     38  O   UNL     1      -0.216   5.578 -25.004  1.00  0.00    -0.507 OA
ATOM     39  H   UNL     1      -0.829   6.350 -24.783  1.00  0.00     0.293 HD
ENDBRANCH  30  38
BRANCH  35  40
ATOM     40  C   UNL     1       4.772   9.881 -24.453  1.00  0.00    -0.003 A 
ATOM     41  C   UNL     1       4.914  11.157 -23.891  1.00  0.00     0.057 A 
ATOM     42  C   UNL     1       5.608   9.512 -25.517  1.00  0.00     0.011 A 
ATOM     43  C   UNL     1       5.910  12.031 -24.351  1.00  0.00     0.158 A 
ATOM     44  C   UNL     1       6.584  10.378 -25.997  1.00  0.00     0.051 A 
ATOM     45  C   UNL     1       6.752  11.624 -25.406  1.00  0.00     0.160 A 
BRANCH  43  46
ATOM     46  O   UNL     1       6.036  13.296 -23.775  1.00  0.00    -0.504 OA
ATOM     47  H   UNL     1       5.543  13.556 -22.926  1.00  0.00     0.293 HD
ENDBRANCH  43  46
BRANCH  45  48
ATOM     48  O   UNL     1       7.751  12.475 -25.882  1.00  0.00    -0.493 OA
ATOM     49  C   UNL     1       7.505  13.354 -26.980  1.00  0.00     0.278 C 
ENDBRANCH  45  48
ENDBRANCH  35  40
ENDBRANCH  26  27
ENDBRANCH   5  26
BRANCH   4  50
ATOM     50  O   UNL     1       6.051   1.264 -26.328  1.00  0.00    -0.384 OA
ATOM     51  H   UNL     1       5.919   0.340 -26.659  1.00  0.00     0.211 HD
ENDBRANCH   4  50
TORSDOF 15
ENDMDL
MODEL 3
REMARK VINA RESULT:    -8.488      1.673      2.600
REMARK INTER + INTRA:         -15.654
REMARK INTER:                 -13.971
REMARK INTRA:                  -1.683
REMARK UNBOUND:                -1.709
REMARK SMILES COc1ccc([C@H]2CC(=O)c3c(O)cc(O[C@H]4O[C@H](CO[C@@H]5O[C@H](C)[C@@H](O)[C@@H](O)[C@H]5O)[C@H](O)[C@@H](O)[C@@H]4O)cc3O2)cc1O
REMARK SMILES IDX 19 1 32 2 34 3 36 4 17 5 18 6 20 7 21 8 22 9 25 10 24 11
REMARK SMILES IDX 26 12 23 13 28 14 30 15 27 16 29 18 31 20 33 22 35 24 16 26
REMARK SMILES IDX 15 27 14 28 38 29 12 30 39 31 11 32 40 33 9 34 7 35 10 36
REMARK SMILES IDX 8 37 13 38 6 40 41 41 5 42 42 43 4 44 3 45 43 46 2 48 1 49
REMARK SMILES IDX 37 50
REMARK H PARENT 27 17 29 19 31 21 33 23 35 25 13 39 43 47 37 51
REMARK Flexibility Score: inf
ROOT
ATOM      1  C   UNL     1       4.592   0.968 -24.088  1.00  0.00     0.180 C 
ATOM      2  C   UNL     1       5.910   0.853 -23.216  1.00  0.00     0.177 C 
ATOM      3  C   UNL     1       5.996   1.863 -22.034  1.00  0.00     0.180 C 
ATOM      4  C   UNL     1       4.614   2.151 -21.421  1.00  0.00     0.214 C 
ATOM      5  C   UNL     1       3.639   2.498 -22.557  1.00  0.00     0.339 C 
ATOM      6  O   UNL     1       3.431   1.334 -23.348  1.00  0.00    -0.332 OA
ENDROOT
BRANCH   1   7
ATOM      7  C   UNL     1       4.219  -0.259 -24.966  1.00  0.00     0.198 C 
BRANCH   7   8
ATOM      8  O   UNL     1       3.025  -0.886 -24.547  1.00  0.00    -0.347 OA
BRANCH   8   9
ATOM      9  C   UNL     1       3.233  -2.045 -23.747  1.00  0.00     0.281 C 
ATOM     10  C   UNL     1       6.167  -4.227 -23.467  1.00  0.00     0.041 C 
ATOM     11  C   UNL     1       4.795  -3.653 -23.122  1.00  0.00     0.150 C 
ATOM     12  C   UNL     1       3.739  -4.790 -23.041  1.00  0.00     0.174 C 
ATOM     13  O   UNL     1       4.449  -2.685 -24.105  1.00  0.00    -0.344 OA
ATOM     14  C   UNL     1       2.299  -4.235 -22.870  1.00  0.00     0.179 C 
ATOM     15  C   UNL     1       2.055  -3.040 -23.813  1.00  0.00     0.202 C 
BRANCH  12  16
ATOM     16  O   UNL     1       4.037  -5.617 -21.945  1.00  0.00    -0.388 OA
ATOM     17  H   UNL     1       4.401  -6.467 -22.293  1.00  0.00     0.211 HD
ENDBRANCH  12  16
BRANCH  14  18
ATOM     18  O   UNL     1       2.004  -3.899 -21.537  1.00  0.00    -0.387 OA
ATOM     19  H   UNL     1       1.019  -4.021 -21.401  1.00  0.00     0.211 HD
ENDBRANCH  14  18
BRANCH  15  20
ATOM     20  O   UNL     1       0.864  -2.398 -23.448  1.00  0.00    -0.385 OA
ATOM     21  H   UNL     1       0.829  -2.349 -22.458  1.00  0.00     0.211 HD
ENDBRANCH  15  20
ENDBRANCH   8   9
ENDBRANCH   7   8
ENDBRANCH   1   7
BRANCH   2  22
ATOM     22  O   UNL     1       6.092  -0.437 -22.670  1.00  0.00    -0.387 OA
ATOM     23  H   UNL     1       6.903  -0.420 -22.092  1.00  0.00     0.211 HD
ENDBRANCH   2  22
BRANCH   3  24
ATOM     24  O   UNL     1       6.614   3.074 -22.443  1.00  0.00    -0.387 OA
ATOM     25  H   UNL     1       6.039   3.451 -23.149  1.00  0.00     0.211 HD
ENDBRANCH   3  24
BRANCH   5  26
ATOM     26  O   UNL     1       4.174   3.589 -23.334  1.00  0.00    -0.462 OA
BRANCH  26  27
ATOM     27  C   UNL     1       3.446   4.734 -23.706  1.00  0.00     0.130 A 
ATOM     28  C   UNL     1       2.117   4.674 -24.142  1.00  0.00     0.093 A 
ATOM     29  C   UNL     1       4.078   5.968 -23.609  1.00  0.00     0.094 A 
ATOM     30  C   UNL     1       1.410   5.843 -24.462  1.00  0.00     0.133 A 
ATOM     31  C   UNL     1       3.406   7.139 -23.945  1.00  0.00     0.138 A 
ATOM     32  C   UNL     1       2.061   7.097 -24.362  1.00  0.00     0.102 A 
ATOM     33  O   UNL     1       4.106   8.350 -23.909  1.00  0.00    -0.484 OA
ATOM     34  C   UNL     1       1.428   8.389 -24.712  1.00  0.00     0.174 C 
ATOM     35  C   UNL     1       3.496   9.626 -24.132  1.00  0.00     0.211 C 
ATOM     36  O   UNL     1       0.190   8.579 -24.616  1.00  0.00    -0.294 OA
ATOM     37  C   UNL     1       2.320   9.511 -25.117  1.00  0.00     0.131 C 
BRANCH  30  38
ATOM     38  O   UNL     1       0.103   5.695 -24.904  1.00  0.00    -0.507 OA
ATOM     39  H   UNL     1      -0.197   5.003 -25.576  1.00  0.00     0.293 HD
ENDBRANCH  30  38
BRANCH  35  40
ATOM     40  C   UNL     1       4.517  10.610 -24.654  1.00  0.00    -0.003 A 
ATOM     41  C   UNL     1       4.867  11.739 -23.902  1.00  0.00     0.057 A 
ATOM     42  C   UNL     1       5.061  10.454 -25.938  1.00  0.00     0.011 A 
ATOM     43  C   UNL     1       5.786  12.673 -24.404  1.00  0.00     0.158 A 
ATOM     44  C   UNL     1       5.955  11.385 -26.455  1.00  0.00     0.051 A 
ATOM     45  C   UNL     1       6.335  12.479 -25.687  1.00  0.00     0.160 A 
BRANCH  43  46
ATOM     46  O   UNL     1       6.122  13.789 -23.636  1.00  0.00    -0.504 OA
ATOM     47  H   UNL     1       5.860  14.731 -23.908  1.00  0.00     0.293 HD
ENDBRANCH  43  46
BRANCH  45  48
ATOM     48  O   UNL     1       7.251  13.394 -26.210  1.00  0.00    -0.493 OA
ATOM     49  C   UNL     1       8.271  12.974 -27.118  1.00  0.00     0.278 C 
ENDBRANCH  45  48
ENDBRANCH  35  40
ENDBRANCH  26  27
ENDBRANCH   5  26
BRANCH   4  50
ATOM     50  O   UNL     1       4.164   1.011 -20.734  1.00  0.00    -0.384 OA
ATOM     51  H   UNL     1       3.625   1.331 -19.968  1.00  0.00     0.211 HD
ENDBRANCH   4  50
TORSDOF 15
ENDMDL
MODEL 4
REMARK VINA RESULT:    -8.448      1.159      1.717
REMARK INTER + INTRA:         -15.590
REMARK INTER:                 -14.649
REMARK INTRA:                  -0.941
REMARK UNBOUND:                -1.709
REMARK SMILES COc1ccc([C@H]2CC(=O)c3c(O)cc(O[C@H]4O[C@H](CO[C@@H]5O[C@H](C)[C@@H](O)[C@@H](O)[C@H]5O)[C@H](O)[C@@H](O)[C@@H]4O)cc3O2)cc1O
REMARK SMILES IDX 19 1 32 2 34 3 36 4 17 5 18 6 20 7 21 8 22 9 25 10 24 11
REMARK SMILES IDX 26 12 23 13 28 14 30 15 27 16 29 18 31 20 33 22 35 24 16 26
REMARK SMILES IDX 15 27 14 28 38 29 12 30 39 31 11 32 40 33 9 34 7 35 10 36
REMARK SMILES IDX 8 37 13 38 6 40 41 41 5 42 42 43 4 44 3 45 43 46 2 48 1 49
REMARK SMILES IDX 37 50
REMARK H PARENT 27 17 29 19 31 21 33 23 35 25 13 39 43 47 37 51
REMARK Flexibility Score: inf
ROOT
ATOM      1  C   UNL     1       4.625   0.243 -24.120  1.00  0.00     0.180 C 
ATOM      2  C   UNL     1       4.592  -0.886 -25.230  1.00  0.00     0.177 C 
ATOM      3  C   UNL     1       4.543  -0.357 -26.694  1.00  0.00     0.180 C 
ATOM      4  C   UNL     1       5.335   0.952 -26.860  1.00  0.00     0.214 C 
ATOM      5  C   UNL     1       4.901   1.929 -25.756  1.00  0.00     0.339 C 
ATOM      6  O   UNL     1       5.336   1.418 -24.500  1.00  0.00    -0.332 OA
ENDROOT
BRANCH   1   7
ATOM      7  C   UNL     1       5.127  -0.170 -22.709  1.00  0.00     0.198 C 
BRANCH   7   8
ATOM      8  O   UNL     1       4.134  -0.821 -21.946  1.00  0.00    -0.347 OA
BRANCH   8   9
ATOM      9  C   UNL     1       3.898  -2.169 -22.337  1.00  0.00     0.281 C 
ATOM     10  C   UNL     1       0.978  -4.315 -21.773  1.00  0.00     0.041 C 
ATOM     11  C   UNL     1       2.324  -3.884 -22.351  1.00  0.00     0.150 C 
ATOM     12  C   UNL     1       3.386  -4.995 -22.133  1.00  0.00     0.174 C 
ATOM     13  O   UNL     1       2.709  -2.661 -21.734  1.00  0.00    -0.344 OA
ATOM     14  C   UNL     1       4.810  -4.528 -22.543  1.00  0.00     0.179 C 
ATOM     15  C   UNL     1       5.089  -3.102 -22.030  1.00  0.00     0.202 C 
BRANCH  12  16
ATOM     16  O   UNL     1       3.041  -6.119 -22.903  1.00  0.00    -0.388 OA
ATOM     17  H   UNL     1       2.952  -6.892 -22.293  1.00  0.00     0.211 HD
ENDBRANCH  12  16
BRANCH  14  18
ATOM     18  O   UNL     1       5.030  -4.622 -23.929  1.00  0.00    -0.387 OA
ATOM     19  H   UNL     1       4.462  -3.928 -24.376  1.00  0.00     0.211 HD
ENDBRANCH  14  18
BRANCH  15  20
ATOM     20  O   UNL     1       6.251  -2.610 -22.638  1.00  0.00    -0.385 OA
ATOM     21  H   UNL     1       6.932  -3.331 -22.636  1.00  0.00     0.211 HD
ENDBRANCH  15  20
ENDBRANCH   8   9
ENDBRANCH   7   8
ENDBRANCH   1   7
BRANCH   2  22
ATOM     22  O   UNL     1       5.695  -1.765 -25.147  1.00  0.00    -0.387 OA
ATOM     23  H   UNL     1       5.393  -2.604 -24.703  1.00  0.00     0.211 HD
ENDBRANCH   2  22
BRANCH   3  24
ATOM     24  O   UNL     1       3.201  -0.176 -27.125  1.00  0.00    -0.387 OA
ATOM     25  H   UNL     1       3.037   0.795 -27.109  1.00  0.00     0.211 HD
ENDBRANCH   3  24
BRANCH   5  26
ATOM     26  O   UNL     1       3.470   2.102 -25.801  1.00  0.00    -0.462 OA
BRANCH  26  27
ATOM     27  C   UNL     1       2.800   3.292 -25.461  1.00  0.00     0.130 A 
ATOM     28  C   UNL     1       1.405   3.374 -25.381  1.00  0.00     0.093 A 
ATOM     29  C   UNL     1       3.569   4.412 -25.174  1.00  0.00     0.094 A 
ATOM     30  C   UNL     1       0.775   4.568 -24.995  1.00  0.00     0.133 A 
ATOM     31  C   UNL     1       2.967   5.614 -24.814  1.00  0.00     0.138 A 
ATOM     32  C   UNL     1       1.565   5.707 -24.706  1.00  0.00     0.102 A 
ATOM     33  O   UNL     1       3.776   6.738 -24.612  1.00  0.00    -0.484 OA
ATOM     34  C   UNL     1       1.008   7.026 -24.330  1.00  0.00     0.174 C 
ATOM     35  C   UNL     1       3.282   7.996 -24.140  1.00  0.00     0.211 C 
ATOM     36  O   UNL     1      -0.091   7.147 -23.735  1.00  0.00    -0.294 OA
ATOM     37  C   UNL     1       1.836   8.233 -24.609  1.00  0.00     0.131 C 
BRANCH  30  38
ATOM     38  O   UNL     1      -0.612   4.572 -24.959  1.00  0.00    -0.507 OA
ATOM     39  H   UNL     1      -1.196   3.878 -25.404  1.00  0.00     0.293 HD
ENDBRANCH  30  38
BRANCH  35  40
ATOM     40  C   UNL     1       4.173   9.120 -24.616  1.00  0.00    -0.003 A 
ATOM     41  C   UNL     1       4.385  10.249 -23.813  1.00  0.00     0.057 A 
ATOM     42  C   UNL     1       4.728   9.089 -25.904  1.00  0.00     0.011 A 
ATOM     43  C   UNL     1       5.181  11.309 -24.271  1.00  0.00     0.158 A 
ATOM     44  C   UNL     1       5.500  10.144 -26.378  1.00  0.00     0.051 A 
ATOM     45  C   UNL     1       5.745  11.241 -25.561  1.00  0.00     0.160 A 
BRANCH  43  46
ATOM     46  O   UNL     1       5.381  12.423 -23.455  1.00  0.00    -0.504 OA
ATOM     47  H   UNL     1       6.278  12.627 -23.027  1.00  0.00     0.293 HD
ENDBRANCH  43  46
BRANCH  45  48
ATOM     48  O   UNL     1       6.541  12.283 -26.041  1.00  0.00    -0.493 OA
ATOM     49  C   UNL     1       7.845  12.029 -26.567  1.00  0.00     0.278 C 
ENDBRANCH  45  48
ENDBRANCH  35  40
ENDBRANCH  26  27
ENDBRANCH   5  26
BRANCH   4  50
ATOM     50  O   UNL     1       6.709   0.680 -26.746  1.00  0.00    -0.384 OA
ATOM     51  H   UNL     1       6.792  -0.227 -26.358  1.00  0.00     0.211 HD
ENDBRANCH   4  50
TORSDOF 15
ENDMDL
MODEL 5
REMARK VINA RESULT:    -7.783      2.091     11.164
REMARK INTER + INTRA:         -14.496
REMARK INTER:                 -12.475
REMARK INTRA:                  -2.021
REMARK UNBOUND:                -1.709
REMARK SMILES COc1ccc([C@H]2CC(=O)c3c(O)cc(O[C@H]4O[C@H](CO[C@@H]5O[C@H](C)[C@@H](O)[C@@H](O)[C@H]5O)[C@H](O)[C@@H](O)[C@@H]4O)cc3O2)cc1O
REMARK SMILES IDX 19 1 32 2 34 3 36 4 17 5 18 6 20 7 21 8 22 9 25 10 24 11
REMARK SMILES IDX 26 12 23 13 28 14 30 15 27 16 29 18 31 20 33 22 35 24 16 26
REMARK SMILES IDX 15 27 14 28 38 29 12 30 39 31 11 32 40 33 9 34 7 35 10 36
REMARK SMILES IDX 8 37 13 38 6 40 41 41 5 42 42 43 4 44 3 45 43 46 2 48 1 49
REMARK SMILES IDX 37 50
REMARK H PARENT 27 17 29 19 31 21 33 23 35 25 13 39 43 47 37 51
REMARK Flexibility Score: inf
ROOT
ATOM      1  C   UNL     1       2.993   7.704 -26.267  1.00  0.00     0.180 C 
ATOM      2  C   UNL     1       2.124   8.046 -24.988  1.00  0.00     0.177 C 
ATOM      3  C   UNL     1       1.782   6.822 -24.089  1.00  0.00     0.180 C 
ATOM      4  C   UNL     1       2.920   5.786 -24.069  1.00  0.00     0.214 C 
ATOM      5  C   UNL     1       3.331   5.486 -25.519  1.00  0.00     0.339 C 
ATOM      6  O   UNL     1       3.933   6.651 -26.071  1.00  0.00    -0.332 OA
ENDROOT
BRANCH   1   7
ATOM      7  C   UNL     1       3.747   8.883 -26.943  1.00  0.00     0.198 C 
BRANCH   7   8
ATOM      8  O   UNL     1       5.135   8.864 -26.682  1.00  0.00    -0.347 OA
BRANCH   8   9
ATOM      9  C   UNL     1       5.582   9.936 -25.859  1.00  0.00     0.281 C 
ATOM     10  C   UNL     1       7.333  13.029 -26.758  1.00  0.00     0.041 C 
ATOM     11  C   UNL     1       6.580  12.038 -25.875  1.00  0.00     0.150 C 
ATOM     12  C   UNL     1       7.363  11.785 -24.557  1.00  0.00     0.174 C 
ATOM     13  O   UNL     1       6.386  10.836 -26.609  1.00  0.00    -0.344 OA
ATOM     14  C   UNL     1       6.725  10.650 -23.710  1.00  0.00     0.179 C 
ATOM     15  C   UNL     1       6.333   9.454 -24.600  1.00  0.00     0.202 C 
BRANCH  12  16
ATOM     16  O   UNL     1       7.374  12.966 -23.795  1.00  0.00    -0.388 OA
ATOM     17  H   UNL     1       6.693  12.876 -23.084  1.00  0.00     0.211 HD
ENDBRANCH  12  16
BRANCH  14  18
ATOM     18  O   UNL     1       5.632  11.096 -22.947  1.00  0.00    -0.387 OA
ATOM     19  H   UNL     1       5.026  10.312 -22.794  1.00  0.00     0.211 HD
ENDBRANCH  14  18
BRANCH  15  20
ATOM     20  O   UNL     1       5.525   8.577 -23.866  1.00  0.00    -0.385 OA
ATOM     21  H   UNL     1       5.862   7.654 -24.006  1.00  0.00     0.211 HD
ENDBRANCH  15  20
ENDBRANCH   8   9
ENDBRANCH   7   8
ENDBRANCH   1   7
BRANCH   2  22
ATOM     22  O   UNL     1       2.734   9.012 -24.156  1.00  0.00    -0.387 OA
ATOM     23  H   UNL     1       2.054   9.704 -23.931  1.00  0.00     0.211 HD
ENDBRANCH   2  22
BRANCH   3  24
ATOM     24  O   UNL     1       0.568   6.211 -24.501  1.00  0.00    -0.387 OA
ATOM     25  H   UNL     1       0.732   5.859 -25.406  1.00  0.00     0.211 HD
ENDBRANCH   3  24
BRANCH   5  26
ATOM     26  O   UNL     1       2.173   5.070 -26.272  1.00  0.00    -0.462 OA
BRANCH  26  27
ATOM     27  C   UNL     1       1.673   3.754 -26.303  1.00  0.00     0.130 A 
ATOM     28  C   UNL     1       0.312   3.469 -26.467  1.00  0.00     0.093 A 
ATOM     29  C   UNL     1       2.583   2.710 -26.191  1.00  0.00     0.094 A 
ATOM     30  C   UNL     1      -0.142   2.143 -26.538  1.00  0.00     0.133 A 
ATOM     31  C   UNL     1       2.153   1.387 -26.232  1.00  0.00     0.138 A 
ATOM     32  C   UNL     1       0.790   1.083 -26.420  1.00  0.00     0.102 A 
ATOM     33  O   UNL     1       3.092   0.368 -26.034  1.00  0.00    -0.484 OA
ATOM     34  C   UNL     1       0.420  -0.350 -26.440  1.00  0.00     0.174 C 
ATOM     35  C   UNL     1       2.789  -1.025 -26.158  1.00  0.00     0.211 C 
ATOM     36  O   UNL     1      -0.586  -0.777 -27.059  1.00  0.00    -0.294 OA
ATOM     37  C   UNL     1       1.331  -1.311 -25.757  1.00  0.00     0.131 C 
BRANCH  30  38
ATOM     38  O   UNL     1      -1.507   1.946 -26.681  1.00  0.00    -0.507 OA
ATOM     39  H   UNL     1      -2.154   1.850 -25.911  1.00  0.00     0.293 HD
ENDBRANCH  30  38
BRANCH  35  40
ATOM     40  C   UNL     1       3.732  -1.843 -25.307  1.00  0.00    -0.003 A 
ATOM     41  C   UNL     1       3.785  -1.653 -23.920  1.00  0.00     0.057 A 
ATOM     42  C   UNL     1       4.631  -2.740 -25.903  1.00  0.00     0.011 A 
ATOM     43  C   UNL     1       4.688  -2.384 -23.134  1.00  0.00     0.158 A 
ATOM     44  C   UNL     1       5.546  -3.454 -25.138  1.00  0.00     0.051 A 
ATOM     45  C   UNL     1       5.564  -3.296 -23.758  1.00  0.00     0.160 A 
BRANCH  43  46
ATOM     46  O   UNL     1       4.722  -2.180 -21.754  1.00  0.00    -0.504 OA
ATOM     47  H   UNL     1       3.915  -2.347 -21.162  1.00  0.00     0.293 HD
ENDBRANCH  43  46
BRANCH  45  48
ATOM     48  O   UNL     1       6.472  -4.036 -22.999  1.00  0.00    -0.493 OA
ATOM     49  C   UNL     1       7.652  -4.581 -23.591  1.00  0.00     0.278 C 
ENDBRANCH  45  48
ENDBRANCH  35  40
ENDBRANCH  26  27
ENDBRANCH   5  26
BRANCH   4  50
ATOM     50  O   UNL     1       4.013   6.311 -23.360  1.00  0.00    -0.384 OA
ATOM     51  H   UNL     1       4.324   5.602 -22.744  1.00  0.00     0.211 HD
ENDBRANCH   4  50
TORSDOF 15
ENDMDL
MODEL 6
REMARK VINA RESULT:    -7.489      2.537      8.722
REMARK INTER + INTRA:         -14.014
REMARK INTER:                 -11.416
REMARK INTRA:                  -2.598
REMARK UNBOUND:                -1.709
REMARK SMILES COc1ccc([C@H]2CC(=O)c3c(O)cc(O[C@H]4O[C@H](CO[C@@H]5O[C@H](C)[C@@H](O)[C@@H](O)[C@H]5O)[C@H](O)[C@@H](O)[C@@H]4O)cc3O2)cc1O
REMARK SMILES IDX 19 1 32 2 34 3 36 4 17 5 18 6 20 7 21 8 22 9 25 10 24 11
REMARK SMILES IDX 26 12 23 13 28 14 30 15 27 16 29 18 31 20 33 22 35 24 16 26
REMARK SMILES IDX 15 27 14 28 38 29 12 30 39 31 11 32 40 33 9 34 7 35 10 36
REMARK SMILES IDX 8 37 13 38 6 40 41 41 5 42 42 43 4 44 3 45 43 46 2 48 1 49
REMARK SMILES IDX 37 50
REMARK H PARENT 27 17 29 19 31 21 33 23 35 25 13 39 43 47 37 51
REMARK Flexibility Score: inf
ROOT
ATOM      1  C   UNL     1       5.644   8.895 -23.414  1.00  0.00     0.180 C 
ATOM      2  C   UNL     1       6.647   9.761 -24.280  1.00  0.00     0.177 C 
ATOM      3  C   UNL     1       5.970  10.850 -25.164  1.00  0.00     0.180 C 
ATOM      4  C   UNL     1       4.724  11.447 -24.486  1.00  0.00     0.214 C 
ATOM      5  C   UNL     1       3.831  10.295 -24.003  1.00  0.00     0.339 C 
ATOM      6  O   UNL     1       4.502   9.610 -22.951  1.00  0.00    -0.332 OA
ENDROOT
BRANCH   1   7
ATOM      7  C   UNL     1       6.240   8.130 -22.199  1.00  0.00     0.198 C 
BRANCH   7   8
ATOM      8  O   UNL     1       5.247   7.564 -21.372  1.00  0.00    -0.347 OA
BRANCH   8   9
ATOM      9  C   UNL     1       5.142   6.148 -21.484  1.00  0.00     0.281 C 
ATOM     10  C   UNL     1       7.726   3.636 -22.160  1.00  0.00     0.041 C 
ATOM     11  C   UNL     1       6.353   4.182 -21.777  1.00  0.00     0.150 C 
ATOM     12  C   UNL     1       5.246   3.511 -22.634  1.00  0.00     0.174 C 
ATOM     13  O   UNL     1       6.366   5.594 -21.948  1.00  0.00    -0.344 OA
ATOM     14  C   UNL     1       3.856   4.165 -22.404  1.00  0.00     0.179 C 
ATOM     15  C   UNL     1       3.968   5.702 -22.381  1.00  0.00     0.202 C 
BRANCH  12  16
ATOM     16  O   UNL     1       5.165   2.149 -22.296  1.00  0.00    -0.388 OA
ATOM     17  H   UNL     1       4.937   1.644 -23.115  1.00  0.00     0.211 HD
ENDBRANCH  12  16
BRANCH  14  18
ATOM     18  O   UNL     1       3.218   3.684 -21.247  1.00  0.00    -0.387 OA
ATOM     19  H   UNL     1       2.306   3.364 -21.511  1.00  0.00     0.211 HD
ENDBRANCH  14  18
BRANCH  15  20
ATOM     20  O   UNL     1       2.768   6.247 -21.907  1.00  0.00    -0.385 OA
ATOM     21  H   UNL     1       2.953   6.704 -21.046  1.00  0.00     0.211 HD
ENDBRANCH  15  20
ENDBRANCH   8   9
ENDBRANCH   7   8
ENDBRANCH   1   7
BRANCH   2  22
ATOM     22  O   UNL     1       7.621  10.416 -23.494  1.00  0.00    -0.387 OA
ATOM     23  H   UNL     1       7.177  10.768 -22.675  1.00  0.00     0.211 HD
ENDBRANCH   2  22
BRANCH   3  24
ATOM     24  O   UNL     1       5.633  10.331 -26.442  1.00  0.00    -0.387 OA
ATOM     25  H   UNL     1       5.903  11.017 -27.096  1.00  0.00     0.211 HD
ENDBRANCH   3  24
BRANCH   5  26
ATOM     26  O   UNL     1       3.532   9.420 -25.110  1.00  0.00    -0.462 OA
BRANCH  26  27
ATOM     27  C   UNL     1       2.759   8.248 -25.014  1.00  0.00     0.130 A 
ATOM     28  C   UNL     1       1.516   8.216 -24.371  1.00  0.00     0.093 A 
ATOM     29  C   UNL     1       3.252   7.093 -25.608  1.00  0.00     0.094 A 
ATOM     30  C   UNL     1       0.754   7.038 -24.335  1.00  0.00     0.133 A 
ATOM     31  C   UNL     1       2.527   5.906 -25.562  1.00  0.00     0.138 A 
ATOM     32  C   UNL     1       1.264   5.863 -24.940  1.00  0.00     0.102 A 
ATOM     33  O   UNL     1       3.097   4.748 -26.102  1.00  0.00    -0.484 OA
ATOM     34  C   UNL     1       0.567   4.557 -24.927  1.00  0.00     0.174 C 
ATOM     35  C   UNL     1       2.407   3.498 -26.207  1.00  0.00     0.211 C 
ATOM     36  O   UNL     1      -0.684   4.462 -24.875  1.00  0.00    -0.294 OA
ATOM     37  C   UNL     1       1.397   3.327 -25.059  1.00  0.00     0.131 C 
BRANCH  30  38
ATOM     38  O   UNL     1      -0.457   7.085 -23.661  1.00  0.00    -0.507 OA
ATOM     39  H   UNL     1      -0.883   7.932 -23.309  1.00  0.00     0.293 HD
ENDBRANCH  30  38
BRANCH  35  40
ATOM     40  C   UNL     1       3.394   2.353 -26.205  1.00  0.00    -0.003 A 
ATOM     41  C   UNL     1       3.316   1.348 -25.232  1.00  0.00     0.057 A 
ATOM     42  C   UNL     1       4.457   2.330 -27.121  1.00  0.00     0.011 A 
ATOM     43  C   UNL     1       4.256   0.307 -25.207  1.00  0.00     0.158 A 
ATOM     44  C   UNL     1       5.408   1.316 -27.091  1.00  0.00     0.051 A 
ATOM     45  C   UNL     1       5.300   0.296 -26.154  1.00  0.00     0.160 A 
BRANCH  43  46
ATOM     46  O   UNL     1       4.158  -0.686 -24.231  1.00  0.00    -0.504 OA
ATOM     47  H   UNL     1       3.611  -0.561 -23.384  1.00  0.00     0.293 HD
ENDBRANCH  43  46
BRANCH  45  48
ATOM     48  O   UNL     1       6.248  -0.729 -26.150  1.00  0.00    -0.493 OA
ATOM     49  C   UNL     1       5.964  -1.994 -26.750  1.00  0.00     0.278 C 
ENDBRANCH  45  48
ENDBRANCH  35  40
ENDBRANCH  26  27
ENDBRANCH   5  26
BRANCH   4  50
ATOM     50  O   UNL     1       5.123  12.235 -23.393  1.00  0.00    -0.384 OA
ATOM     51  H   UNL     1       5.826  12.850 -23.722  1.00  0.00     0.211 HD
ENDBRANCH   4  50
TORSDOF 15
ENDMDL
MODEL 7
REMARK VINA RESULT:    -7.291      1.726      2.648
REMARK INTER + INTRA:         -13.688
REMARK INTER:                 -12.724
REMARK INTRA:                  -0.964
REMARK UNBOUND:                -1.709
REMARK SMILES COc1ccc([C@H]2CC(=O)c3c(O)cc(O[C@H]4O[C@H](CO[C@@H]5O[C@H](C)[C@@H](O)[C@@H](O)[C@H]5O)[C@H](O)[C@@H](O)[C@@H]4O)cc3O2)cc1O
REMARK SMILES IDX 19 1 32 2 34 3 36 4 17 5 18 6 20 7 21 8 22 9 25 10 24 11
REMARK SMILES IDX 26 12 23 13 28 14 30 15 27 16 29 18 31 20 33 22 35 24 16 26
REMARK SMILES IDX 15 27 14 28 38 29 12 30 39 31 11 32 40 33 9 34 7 35 10 36
REMARK SMILES IDX 8 37 13 38 6 40 41 41 5 42 42 43 4 44 3 45 43 46 2 48 1 49
REMARK SMILES IDX 37 50
REMARK H PARENT 27 17 29 19 31 21 33 23 35 25 13 39 43 47 37 51
REMARK Flexibility Score: inf
ROOT
ATOM      1  C   UNL     1       4.248   0.440 -21.797  1.00  0.00     0.180 C 
ATOM      2  C   UNL     1       5.335   0.110 -22.900  1.00  0.00     0.177 C 
ATOM      3  C   UNL     1       5.899   1.354 -23.649  1.00  0.00     0.180 C 
ATOM      4  C   UNL     1       5.991   2.585 -22.731  1.00  0.00     0.214 C 
ATOM      5  C   UNL     1       4.643   2.762 -22.014  1.00  0.00     0.339 C 
ATOM      6  O   UNL     1       4.460   1.673 -21.116  1.00  0.00    -0.332 OA
ENDROOT
BRANCH   1   7
ATOM      7  C   UNL     1       3.984  -0.649 -20.720  1.00  0.00     0.198 C 
BRANCH   7   8
ATOM      8  O   UNL     1       3.323  -1.782 -21.241  1.00  0.00    -0.347 OA
BRANCH   8   9
ATOM      9  C   UNL     1       3.545  -1.989 -22.632  1.00  0.00     0.281 C 
ATOM     10  C   UNL     1       1.229  -1.714 -25.461  1.00  0.00     0.041 C 
ATOM     11  C   UNL     1       2.565  -1.874 -24.740  1.00  0.00     0.150 C 
ATOM     12  C   UNL     1       3.318  -3.125 -25.268  1.00  0.00     0.174 C 
ATOM     13  O   UNL     1       2.315  -1.963 -23.342  1.00  0.00    -0.344 OA
ATOM     14  C   UNL     1       4.596  -3.428 -24.439  1.00  0.00     0.179 C 
ATOM     15  C   UNL     1       4.316  -3.294 -22.929  1.00  0.00     0.202 C 
BRANCH  12  16
ATOM     16  O   UNL     1       3.689  -2.908 -26.606  1.00  0.00    -0.388 OA
ATOM     17  H   UNL     1       3.887  -3.785 -27.015  1.00  0.00     0.211 HD
ENDBRANCH  12  16
BRANCH  14  18
ATOM     18  O   UNL     1       5.691  -2.635 -24.826  1.00  0.00    -0.387 OA
ATOM     19  H   UNL     1       6.038  -2.995 -25.694  1.00  0.00     0.211 HD
ENDBRANCH  14  18
BRANCH  15  20
ATOM     20  O   UNL     1       5.531  -3.302 -22.231  1.00  0.00    -0.385 OA
ATOM     21  H   UNL     1       6.259  -3.102 -22.873  1.00  0.00     0.211 HD
ENDBRANCH  15  20
ENDBRANCH   8   9
ENDBRANCH   7   8
ENDBRANCH   1   7
BRANCH   2  22
ATOM     22  O   UNL     1       6.443  -0.595 -22.380  1.00  0.00    -0.387 OA
ATOM     23  H   UNL     1       6.213  -0.906 -21.462  1.00  0.00     0.211 HD
ENDBRANCH   2  22
BRANCH   3  24
ATOM     24  O   UNL     1       5.119   1.654 -24.797  1.00  0.00    -0.387 OA
ATOM     25  H   UNL     1       4.725   0.800 -25.092  1.00  0.00     0.211 HD
ENDBRANCH   3  24
BRANCH   5  26
ATOM     26  O   UNL     1       3.585   2.838 -22.991  1.00  0.00    -0.462 OA
BRANCH  26  27
ATOM     27  C   UNL     1       3.018   4.037 -23.461  1.00  0.00     0.130 A 
ATOM     28  C   UNL     1       1.757   4.088 -24.067  1.00  0.00     0.093 A 
ATOM     29  C   UNL     1       3.742   5.210 -23.288  1.00  0.00     0.094 A 
ATOM     30  C   UNL     1       1.207   5.310 -24.483  1.00  0.00     0.133 A 
ATOM     31  C   UNL     1       3.229   6.431 -23.716  1.00  0.00     0.138 A 
ATOM     32  C   UNL     1       1.952   6.503 -24.306  1.00  0.00     0.102 A 
ATOM     33  O   UNL     1       4.026   7.575 -23.596  1.00  0.00    -0.484 OA
ATOM     34  C   UNL     1       1.489   7.839 -24.743  1.00  0.00     0.174 C 
ATOM     35  C   UNL     1       3.569   8.896 -23.903  1.00  0.00     0.211 C 
ATOM     36  O   UNL     1       0.272   8.141 -24.810  1.00  0.00    -0.294 OA
ATOM     37  C   UNL     1       2.525   8.870 -25.033  1.00  0.00     0.131 C 
BRANCH  30  38
ATOM     38  O   UNL     1      -0.039   5.273 -25.092  1.00  0.00    -0.507 OA
ATOM     39  H   UNL     1      -0.197   5.426 -26.078  1.00  0.00     0.293 HD
ENDBRANCH  30  38
BRANCH  35  40
ATOM     40  C   UNL     1       4.735   9.775 -24.293  1.00  0.00    -0.003 A 
ATOM     41  C   UNL     1       4.823  11.091 -23.819  1.00  0.00     0.057 A 
ATOM     42  C   UNL     1       5.696   9.317 -25.206  1.00  0.00     0.011 A 
ATOM     43  C   UNL     1       5.884  11.920 -24.212  1.00  0.00     0.158 A 
ATOM     44  C   UNL     1       6.740  10.137 -25.620  1.00  0.00     0.051 A 
ATOM     45  C   UNL     1       6.849  11.425 -25.112  1.00  0.00     0.160 A 
BRANCH  43  46
ATOM     46  O   UNL     1       5.954  13.227 -23.726  1.00  0.00    -0.504 OA
ATOM     47  H   UNL     1       5.140  13.715 -23.366  1.00  0.00     0.293 HD
ENDBRANCH  43  46
BRANCH  45  48
ATOM     48  O   UNL     1       7.915  12.230 -25.519  1.00  0.00    -0.493 OA
ATOM     49  C   UNL     1       7.867  12.942 -26.756  1.00  0.00     0.278 C 
ENDBRANCH  45  48
ENDBRANCH  35  40
ENDBRANCH  26  27
ENDBRANCH   5  26
BRANCH   4  50
ATOM     50  O   UNL     1       7.013   2.386 -21.787  1.00  0.00    -0.384 OA
ATOM     51  H   UNL     1       7.535   3.226 -21.746  1.00  0.00     0.211 HD
ENDBRANCH   4  50
TORSDOF 15
ENDMDL
MODEL 8
REMARK VINA RESULT:    -6.949      2.602      9.113
REMARK INTER + INTRA:         -13.127
REMARK INTER:                 -11.180
REMARK INTRA:                  -1.946
REMARK UNBOUND:                -1.709
REMARK SMILES COc1ccc([C@H]2CC(=O)c3c(O)cc(O[C@H]4O[C@H](CO[C@@H]5O[C@H](C)[C@@H](O)[C@@H](O)[C@H]5O)[C@H](O)[C@@H](O)[C@@H]4O)cc3O2)cc1O
REMARK SMILES IDX 19 1 32 2 34 3 36 4 17 5 18 6 20 7 21 8 22 9 25 10 24 11
REMARK SMILES IDX 26 12 23 13 28 14 30 15 27 16 29 18 31 20 33 22 35 24 16 26
REMARK SMILES IDX 15 27 14 28 38 29 12 30 39 31 11 32 40 33 9 34 7 35 10 36
REMARK SMILES IDX 8 37 13 38 6 40 41 41 5 42 42 43 4 44 3 45 43 46 2 48 1 49
REMARK SMILES IDX 37 50
REMARK H PARENT 27 17 29 19 31 21 33 23 35 25 13 39 43 47 37 51
REMARK Flexibility Score: inf
ROOT
ATOM      1  C   UNL     1       3.415   5.865 -24.521  1.00  0.00     0.180 C 
ATOM      2  C   UNL     1       3.109   7.168 -25.366  1.00  0.00     0.177 C 
ATOM      3  C   UNL     1       1.636   7.293 -25.857  1.00  0.00     0.180 C 
ATOM      4  C   UNL     1       0.640   6.705 -24.842  1.00  0.00     0.214 C 
ATOM      5  C   UNL     1       1.120   5.300 -24.445  1.00  0.00     0.339 C 
ATOM      6  O   UNL     1       2.331   5.426 -23.708  1.00  0.00    -0.332 OA
ENDROOT
BRANCH   1   7
ATOM      7  C   UNL     1       4.689   5.886 -23.630  1.00  0.00     0.198 C 
BRANCH   7   8
ATOM      8  O   UNL     1       4.619   4.968 -22.560  1.00  0.00    -0.347 OA
BRANCH   8   9
ATOM      9  C   UNL     1       5.015   3.645 -22.908  1.00  0.00     0.281 C 
ATOM     10  C   UNL     1       5.397   2.087 -26.206  1.00  0.00     0.041 C 
ATOM     11  C   UNL     1       5.497   2.226 -24.689  1.00  0.00     0.150 C 
ATOM     12  C   UNL     1       4.886   0.980 -23.991  1.00  0.00     0.174 C 
ATOM     13  O   UNL     1       4.835   3.423 -24.300  1.00  0.00    -0.344 OA
ATOM     14  C   UNL     1       4.804   1.159 -22.450  1.00  0.00     0.179 C 
ATOM     15  C   UNL     1       4.283   2.563 -22.086  1.00  0.00     0.202 C 
BRANCH  12  16
ATOM     16  O   UNL     1       5.683  -0.142 -24.273  1.00  0.00    -0.388 OA
ATOM     17  H   UNL     1       6.183  -0.376 -23.453  1.00  0.00     0.211 HD
ENDBRANCH  12  16
BRANCH  14  18
ATOM     18  O   UNL     1       6.027   0.888 -21.810  1.00  0.00    -0.387 OA
ATOM     19  H   UNL     1       6.743   1.399 -22.290  1.00  0.00     0.211 HD
ENDBRANCH  14  18
BRANCH  15  20
ATOM     20  O   UNL     1       4.477   2.788 -20.717  1.00  0.00    -0.385 OA
ATOM     21  H   UNL     1       4.651   1.915 -20.280  1.00  0.00     0.211 HD
ENDBRANCH  15  20
ENDBRANCH   8   9
ENDBRANCH   7   8
ENDBRANCH   1   7
BRANCH   2  22
ATOM     22  O   UNL     1       3.412   8.356 -24.665  1.00  0.00    -0.387 OA
ATOM     23  H   UNL     1       3.810   9.006 -25.307  1.00  0.00     0.211 HD
ENDBRANCH   2  22
BRANCH   3  24
ATOM     24  O   UNL     1       1.468   6.676 -27.125  1.00  0.00    -0.387 OA
ATOM     25  H   UNL     1       2.039   7.177 -27.751  1.00  0.00     0.211 HD
ENDBRANCH   3  24
BRANCH   5  26
ATOM     26  O   UNL     1       1.291   4.496 -25.630  1.00  0.00    -0.462 OA
BRANCH  26  27
ATOM     27  C   UNL     1       0.840   3.170 -25.766  1.00  0.00     0.130 A 
ATOM     28  C   UNL     1      -0.518   2.842 -25.855  1.00  0.00     0.093 A 
ATOM     29  C   UNL     1       1.794   2.163 -25.837  1.00  0.00     0.094 A 
ATOM     30  C   UNL     1      -0.927   1.511 -26.035  1.00  0.00     0.133 A 
ATOM     31  C   UNL     1       1.412   0.833 -25.989  1.00  0.00     0.138 A 
ATOM     32  C   UNL     1       0.051   0.488 -26.104  1.00  0.00     0.102 A 
ATOM     33  O   UNL     1       2.402  -0.157 -25.976  1.00  0.00    -0.484 OA
ATOM     34  C   UNL     1      -0.266  -0.950 -26.251  1.00  0.00     0.174 C 
ATOM     35  C   UNL     1       2.142  -1.542 -26.227  1.00  0.00     0.211 C 
ATOM     36  O   UNL     1      -1.302  -1.355 -26.834  1.00  0.00    -0.294 OA
ATOM     37  C   UNL     1       0.733  -1.935 -25.748  1.00  0.00     0.131 C 
BRANCH  30  38
ATOM     38  O   UNL     1      -2.291   1.268 -26.093  1.00  0.00    -0.507 OA
ATOM     39  H   UNL     1      -2.702   0.373 -26.321  1.00  0.00     0.293 HD
ENDBRANCH  30  38
BRANCH  35  40
ATOM     40  C   UNL     1       3.181  -2.401 -25.544  1.00  0.00    -0.003 A 
ATOM     41  C   UNL     1       2.917  -2.977 -24.294  1.00  0.00     0.057 A 
ATOM     42  C   UNL     1       4.455  -2.559 -26.109  1.00  0.00     0.011 A 
ATOM     43  C   UNL     1       3.896  -3.743 -23.643  1.00  0.00     0.158 A 
ATOM     44  C   UNL     1       5.440  -3.296 -25.462  1.00  0.00     0.051 A 
ATOM     45  C   UNL     1       5.160  -3.904 -24.245  1.00  0.00     0.160 A 
BRANCH  43  46
ATOM     46  O   UNL     1       3.612  -4.310 -22.399  1.00  0.00    -0.504 OA
ATOM     47  H   UNL     1       4.092  -4.024 -21.552  1.00  0.00     0.293 HD
ENDBRANCH  43  46
BRANCH  45  48
ATOM     48  O   UNL     1       6.152  -4.661 -23.617  1.00  0.00    -0.493 OA
ATOM     49  C   UNL     1       7.528  -4.290 -23.711  1.00  0.00     0.278 C 
ENDBRANCH  45  48
ENDBRANCH  35  40
ENDBRANCH  26  27
ENDBRANCH   5  26
BRANCH   4  50
ATOM     50  O   UNL     1       0.589   7.533 -23.708  1.00  0.00    -0.384 OA
ATOM     51  H   UNL     1       0.211   8.399 -24.001  1.00  0.00     0.211 HD
ENDBRANCH   4  50
TORSDOF 15
ENDMDL
