MODEL 1
REMARK VINA RESULT:    83.994      0.000      0.000
REMARK INTER + INTRA:         142.838
REMARK INTER:                 138.007
REMARK INTRA:                   4.830
REMARK UNBOUND:                 4.830
REMARK SMILES C[C@@H]1O[C@@H](OC[C@@H]2O[C@@H](Oc3c(-c4ccc(O)c(O)c4)oc4cc(O)cc(O)c4c3=O)[C@@H](O)[C@@H](O)[C@@H]2O)[C@H](O)[C@@H](O)[C@@H]1O
REMARK SMILES IDX 7 1 36 2 34 3 32 4 9 5 8 6 6 7 5 8 4 9 1 10 2 11 42 12 3 13
REMARK SMILES IDX 40 14 38 15 43 16 41 18 39 20 37 22 35 24 10 26 11 27 12 28
REMARK SMILES IDX 30 29 21 30 29 31 31 32 22 33 27 34 23 35 26 36 24 37 13 38
REMARK SMILES IDX 20 39 14 40 18 41 15 42 16 43 19 44 17 46 28 48 25 50 33 52
REMARK H PARENT 43 17 41 19 39 21 37 23 35 25 19 45 17 47 28 49 25 51 33 53
REMARK Flexibility Score: inf
ROOT
ATOM      1  C   UNL     1      14.791  94.732  -3.415  1.00  0.00     0.180 C 
ATOM      2  C   UNL     1      15.139  94.012  -2.092  1.00  0.00     0.177 C 
ATOM      3  C   UNL     1      14.329  94.633  -0.932  1.00  0.00     0.180 C 
ATOM      4  C   UNL     1      14.488  96.166  -0.937  1.00  0.00     0.214 C 
ATOM      5  C   UNL     1      14.213  96.738  -2.337  1.00  0.00     0.339 C 
ATOM      6  O   UNL     1      15.050  96.127  -3.312  1.00  0.00    -0.332 OA
ENDROOT
BRANCH   1   7
ATOM      7  C   UNL     1      15.596  94.185  -4.606  1.00  0.00     0.198 C 
BRANCH   7   8
ATOM      8  O   UNL     1      16.593  93.263  -4.193  1.00  0.00    -0.347 OA
BRANCH   8   9
ATOM      9  C   UNL     1      16.436  91.990  -4.809  1.00  0.00     0.281 C 
ATOM     10  C   UNL     1      19.179  90.323  -3.047  1.00  0.00     0.041 C 
ATOM     11  C   UNL     1      18.486  91.042  -4.208  1.00  0.00     0.150 C 
ATOM     12  C   UNL     1      18.839  90.422  -5.586  1.00  0.00     0.174 C 
ATOM     13  O   UNL     1      17.082  91.016  -3.999  1.00  0.00    -0.344 OA
ATOM     14  C   UNL     1      17.702  90.678  -6.604  1.00  0.00     0.179 C 
ATOM     15  C   UNL     1      16.973  91.993  -6.284  1.00  0.00     0.202 C 
BRANCH  12  16
ATOM     16  O   UNL     1      19.050  89.037  -5.470  1.00  0.00    -0.388 OA
ATOM     17  H   UNL     1      18.198  88.641  -5.151  1.00  0.00     0.211 HD
ENDBRANCH  12  16
BRANCH  14  18
ATOM     18  O   UNL     1      18.225  90.724  -7.906  1.00  0.00    -0.387 OA
ATOM     19  H   UNL     1      19.148  90.348  -7.863  1.00  0.00     0.211 HD
ENDBRANCH  14  18
BRANCH  15  20
ATOM     20  O   UNL     1      15.935  92.206  -7.210  1.00  0.00    -0.385 OA
ATOM     21  H   UNL     1      16.075  91.562  -7.956  1.00  0.00     0.211 HD
ENDBRANCH  15  20
ENDBRANCH   8   9
ENDBRANCH   7   8
ENDBRANCH   1   7
BRANCH   2  22
ATOM     22  O   UNL     1      16.515  94.133  -1.832  1.00  0.00    -0.387 OA
ATOM     23  H   UNL     1      16.997  93.713  -2.597  1.00  0.00     0.211 HD
ENDBRANCH   2  22
BRANCH   3  24
ATOM     24  O   UNL     1      12.970  94.293  -1.046  1.00  0.00    -0.387 OA
ATOM     25  H   UNL     1      12.452  95.097  -0.762  1.00  0.00     0.211 HD
ENDBRANCH   3  24
BRANCH   5  26
ATOM     26  O   UNL     1      12.827  96.589  -2.681  1.00  0.00    -0.454 OA
BRANCH  26  27
ATOM     27  C   UNL     1      11.771  96.703  -1.768  1.00  0.00     0.214 A 
ATOM     28  C   UNL     1      11.530  97.888  -1.047  1.00  0.00     0.180 A 
ATOM     29  C   UNL     1      10.918  95.610  -1.576  1.00  0.00     0.239 A 
ATOM     30  O   UNL     1      10.529  97.949  -0.185  1.00  0.00    -0.452 OA
ATOM     31  C   UNL     1       9.823  95.717  -0.683  1.00  0.00     0.111 A 
ATOM     32  O   UNL     1      11.176  94.540  -2.189  1.00  0.00    -0.285 OA
ATOM     33  C   UNL     1       9.684  96.945   0.018  1.00  0.00     0.146 A 
ATOM     34  C   UNL     1       8.853  94.692  -0.447  1.00  0.00     0.134 A 
ATOM     35  C   UNL     1       8.635  97.133   0.923  1.00  0.00     0.094 A 
ATOM     36  C   UNL     1       7.821  94.910   0.476  1.00  0.00     0.093 A 
ATOM     37  C   UNL     1       7.708  96.123   1.157  1.00  0.00     0.123 A 
BRANCH  28  38
ATOM     38  C   UNL     1      12.342  99.097  -1.239  1.00  0.00     0.025 A 
ATOM     39  C   UNL     1      12.321 100.118  -0.281  1.00  0.00     0.062 A 
ATOM     40  C   UNL     1      13.121  99.247  -2.397  1.00  0.00     0.016 A 
ATOM     41  C   UNL     1      13.088 101.279  -0.465  1.00  0.00     0.158 A 
ATOM     42  C   UNL     1      13.870 100.407  -2.588  1.00  0.00     0.051 A 
ATOM     43  C   UNL     1      13.864 101.425  -1.630  1.00  0.00     0.157 A 
BRANCH  41  44
ATOM     44  O   UNL     1      13.089 102.285   0.500  1.00  0.00    -0.504 OA
ATOM     45  H   UNL     1      12.633 103.178   0.344  1.00  0.00     0.293 HD
ENDBRANCH  41  44
BRANCH  43  46
ATOM     46  O   UNL     1      14.635 102.569  -1.846  1.00  0.00    -0.504 OA
ATOM     47  H   UNL     1      14.357 103.477  -1.496  1.00  0.00     0.293 HD
ENDBRANCH  43  46
ENDBRANCH  28  38
BRANCH  34  48
ATOM     48  O   UNL     1       8.834  93.456  -1.107  1.00  0.00    -0.507 OA
ATOM     49  H   UNL     1       8.101  92.767  -1.055  1.00  0.00     0.293 HD
ENDBRANCH  34  48
BRANCH  37  50
ATOM     50  O   UNL     1       6.674  96.336   2.065  1.00  0.00    -0.508 OA
ATOM     51  H   UNL     1       5.723  96.491   1.758  1.00  0.00     0.293 HD
ENDBRANCH  37  50
ENDBRANCH  26  27
ENDBRANCH   5  26
BRANCH   4  52
ATOM     52  O   UNL     1      13.615  96.756  -0.008  1.00  0.00    -0.384 OA
ATOM     53  H   UNL     1      14.054  97.581   0.327  1.00  0.00     0.211 HD
ENDBRANCH   4  52
TORSDOF 16
ENDMDL
MODEL 2
REMARK VINA RESULT:    84.663      2.941      4.941
REMARK INTER + INTRA:         143.936
REMARK INTER:                 142.810
REMARK INTRA:                   1.126
REMARK UNBOUND:                 4.830
REMARK SMILES C[C@@H]1O[C@@H](OC[C@@H]2O[C@@H](Oc3c(-c4ccc(O)c(O)c4)oc4cc(O)cc(O)c4c3=O)[C@@H](O)[C@@H](O)[C@@H]2O)[C@H](O)[C@@H](O)[C@@H]1O
REMARK SMILES IDX 7 1 36 2 34 3 32 4 9 5 8 6 6 7 5 8 4 9 1 10 2 11 42 12 3 13
REMARK SMILES IDX 40 14 38 15 43 16 41 18 39 20 37 22 35 24 10 26 11 27 12 28
REMARK SMILES IDX 30 29 21 30 29 31 31 32 22 33 27 34 23 35 26 36 24 37 13 38
REMARK SMILES IDX 20 39 14 40 18 41 15 42 16 43 19 44 17 46 28 48 25 50 33 52
REMARK H PARENT 43 17 41 19 39 21 37 23 35 25 19 45 17 47 28 49 25 51 33 53
REMARK Flexibility Score: inf
ROOT
ATOM      1  C   UNL     1      14.633  96.008  -4.274  1.00  0.00     0.180 C 
ATOM      2  C   UNL     1      15.170  94.704  -3.641  1.00  0.00     0.177 C 
ATOM      3  C   UNL     1      14.426  94.423  -2.317  1.00  0.00     0.180 C 
ATOM      4  C   UNL     1      14.449  95.677  -1.420  1.00  0.00     0.214 C 
ATOM      5  C   UNL     1      13.990  96.917  -2.205  1.00  0.00     0.339 C 
ATOM      6  O   UNL     1      14.778  97.101  -3.375  1.00  0.00    -0.332 OA
ENDROOT
BRANCH   1   7
ATOM      7  C   UNL     1      15.364  96.366  -5.579  1.00  0.00     0.198 C 
BRANCH   7   8
ATOM      8  O   UNL     1      14.620  97.283  -6.368  1.00  0.00    -0.347 OA
BRANCH   8   9
ATOM      9  C   UNL     1      15.364  98.457  -6.673  1.00  0.00     0.281 C 
ATOM     10  C   UNL     1      12.498 100.721  -6.934  1.00  0.00     0.041 C 
ATOM     11  C   UNL     1      13.615  99.804  -7.440  1.00  0.00     0.150 C 
ATOM     12  C   UNL     1      14.330 100.374  -8.694  1.00  0.00     0.174 C 
ATOM     13  O   UNL     1      14.550  99.589  -6.394  1.00  0.00    -0.344 OA
ATOM     14  C   UNL     1      15.780  99.842  -8.783  1.00  0.00     0.179 C 
ATOM     15  C   UNL     1      15.884  98.442  -8.154  1.00  0.00     0.202 C 
BRANCH  12  16
ATOM     16  O   UNL     1      14.357 101.779  -8.656  1.00  0.00    -0.388 OA
ATOM     17  H   UNL     1      14.847 102.080  -9.464  1.00  0.00     0.211 HD
ENDBRANCH  12  16
BRANCH  14  18
ATOM     18  O   UNL     1      16.193  99.796 -10.125  1.00  0.00    -0.387 OA
ATOM     19  H   UNL     1      16.215 100.736 -10.455  1.00  0.00     0.211 HD
ENDBRANCH  14  18
BRANCH  15  20
ATOM     20  O   UNL     1      17.208  97.976  -8.231  1.00  0.00    -0.385 OA
ATOM     21  H   UNL     1      17.258  97.372  -9.022  1.00  0.00     0.211 HD
ENDBRANCH  15  20
ENDBRANCH   8   9
ENDBRANCH   7   8
ENDBRANCH   1   7
BRANCH   2  22
ATOM     22  O   UNL     1      16.549  94.825  -3.397  1.00  0.00    -0.387 OA
ATOM     23  H   UNL     1      16.845  95.686  -3.803  1.00  0.00     0.211 HD
ENDBRANCH   2  22
BRANCH   3  24
ATOM     24  O   UNL     1      13.096  94.042  -2.572  1.00  0.00    -0.387 OA
ATOM     25  H   UNL     1      12.722  93.719  -1.705  1.00  0.00     0.211 HD
ENDBRANCH   3  24
BRANCH   5  26
ATOM     26  O   UNL     1      12.596  96.820  -2.533  1.00  0.00    -0.454 OA
BRANCH  26  27
ATOM     27  C   UNL     1      11.556  96.934  -1.600  1.00  0.00     0.214 A 
ATOM     28  C   UNL     1      11.333  98.115  -0.869  1.00  0.00     0.180 A 
ATOM     29  C   UNL     1      10.702  95.843  -1.400  1.00  0.00     0.239 A 
ATOM     30  O   UNL     1      10.348  98.175   0.011  1.00  0.00    -0.452 OA
ATOM     31  C   UNL     1       9.622  95.950  -0.488  1.00  0.00     0.111 A 
ATOM     32  O   UNL     1      10.943  94.776  -2.024  1.00  0.00    -0.285 OA
ATOM     33  C   UNL     1       9.501  97.174   0.223  1.00  0.00     0.146 A 
ATOM     34  C   UNL     1       8.652  94.928  -0.241  1.00  0.00     0.134 A 
ATOM     35  C   UNL     1       8.470  97.361   1.148  1.00  0.00     0.094 A 
ATOM     36  C   UNL     1       7.637  95.146   0.701  1.00  0.00     0.093 A 
ATOM     37  C   UNL     1       7.542  96.355   1.391  1.00  0.00     0.123 A 
BRANCH  28  38
ATOM     38  C   UNL     1      12.148  99.322  -1.068  1.00  0.00     0.025 A 
ATOM     39  C   UNL     1      12.013 100.413  -0.200  1.00  0.00     0.062 A 
ATOM     40  C   UNL     1      13.044  99.397  -2.144  1.00  0.00     0.016 A 
ATOM     41  C   UNL     1      12.781 101.571  -0.392  1.00  0.00     0.158 A 
ATOM     42  C   UNL     1      13.797 100.554  -2.345  1.00  0.00     0.051 A 
ATOM     43  C   UNL     1      13.677 101.643  -1.475  1.00  0.00     0.157 A 
BRANCH  41  44
ATOM     44  O   UNL     1      12.668 102.648   0.487  1.00  0.00    -0.504 OA
ATOM     45  H   UNL     1      13.420 103.317   0.613  1.00  0.00     0.293 HD
ENDBRANCH  41  44
BRANCH  43  46
ATOM     46  O   UNL     1      14.453 102.781  -1.697  1.00  0.00    -0.504 OA
ATOM     47  H   UNL     1      14.118 103.559  -2.251  1.00  0.00     0.293 HD
ENDBRANCH  43  46
ENDBRANCH  28  38
BRANCH  34  48
ATOM     48  O   UNL     1       8.616  93.696  -0.909  1.00  0.00    -0.507 OA
ATOM     49  H   UNL     1       8.206  93.523  -1.813  1.00  0.00     0.293 HD
ENDBRANCH  34  48
BRANCH  37  50
ATOM     50  O   UNL     1       6.525  96.567   2.318  1.00  0.00    -0.508 OA
ATOM     51  H   UNL     1       5.849  95.848   2.538  1.00  0.00     0.293 HD
ENDBRANCH  37  50
ENDBRANCH  26  27
ENDBRANCH   5  26
BRANCH   4  52
ATOM     52  O   UNL     1      13.622  95.498  -0.298  1.00  0.00    -0.384 OA
ATOM     53  H   UNL     1      13.377  94.537  -0.262  1.00  0.00     0.211 HD
ENDBRANCH   4  52
TORSDOF 16
ENDMDL
MODEL 3
REMARK VINA RESULT:    85.633      2.760      6.037
REMARK INTER + INTRA:         145.531
REMARK INTER:                 142.329
REMARK INTRA:                   3.202
REMARK UNBOUND:                 4.830
REMARK SMILES C[C@@H]1O[C@@H](OC[C@@H]2O[C@@H](Oc3c(-c4ccc(O)c(O)c4)oc4cc(O)cc(O)c4c3=O)[C@@H](O)[C@@H](O)[C@@H]2O)[C@H](O)[C@@H](O)[C@@H]1O
REMARK SMILES IDX 7 1 36 2 34 3 32 4 9 5 8 6 6 7 5 8 4 9 1 10 2 11 42 12 3 13
REMARK SMILES IDX 40 14 38 15 43 16 41 18 39 20 37 22 35 24 10 26 11 27 12 28
REMARK SMILES IDX 30 29 21 30 29 31 31 32 22 33 27 34 23 35 26 36 24 37 13 38
REMARK SMILES IDX 20 39 14 40 18 41 15 42 16 43 19 44 17 46 28 48 25 50 33 52
REMARK H PARENT 43 17 41 19 39 21 37 23 35 25 19 45 17 47 28 49 25 51 33 53
REMARK Flexibility Score: inf
ROOT
ATOM      1  C   UNL     1      15.058  95.514  -1.998  1.00  0.00     0.180 C 
ATOM      2  C   UNL     1      14.877  94.271  -2.898  1.00  0.00     0.177 C 
ATOM      3  C   UNL     1      13.449  94.256  -3.486  1.00  0.00     0.180 C 
ATOM      4  C   UNL     1      12.411  94.440  -2.362  1.00  0.00     0.214 C 
ATOM      5  C   UNL     1      12.769  95.650  -1.482  1.00  0.00     0.339 C 
ATOM      6  O   UNL     1      14.087  95.528  -0.958  1.00  0.00    -0.332 OA
ENDROOT
BRANCH   1   7
ATOM      7  C   UNL     1      16.451  95.566  -1.348  1.00  0.00     0.198 C 
BRANCH   7   8
ATOM      8  O   UNL     1      17.477  95.209  -2.262  1.00  0.00    -0.347 OA
BRANCH   8   9
ATOM      9  C   UNL     1      18.757  95.168  -1.645  1.00  0.00     0.281 C 
ATOM     10  C   UNL     1      19.512  98.734  -1.990  1.00  0.00     0.041 C 
ATOM     11  C   UNL     1      19.564  97.246  -2.347  1.00  0.00     0.150 C 
ATOM     12  C   UNL     1      20.986  96.785  -2.764  1.00  0.00     0.174 C 
ATOM     13  O   UNL     1      19.103  96.486  -1.240  1.00  0.00    -0.344 OA
ATOM     14  C   UNL     1      21.174  95.276  -2.477  1.00  0.00     0.179 C 
ATOM     15  C   UNL     1      19.834  94.530  -2.592  1.00  0.00     0.202 C 
BRANCH  12  16
ATOM     16  O   UNL     1      21.969  97.511  -2.070  1.00  0.00    -0.388 OA
ATOM     17  H   UNL     1      22.609  97.851  -2.747  1.00  0.00     0.211 HD
ENDBRANCH  12  16
BRANCH  14  18
ATOM     18  O   UNL     1      22.106  94.730  -3.375  1.00  0.00    -0.387 OA
ATOM     19  H   UNL     1      22.578  93.996  -2.892  1.00  0.00     0.211 HD
ENDBRANCH  14  18
BRANCH  15  20
ATOM     20  O   UNL     1      20.018  93.164  -2.318  1.00  0.00    -0.385 OA
ATOM     21  H   UNL     1      19.127  92.726  -2.409  1.00  0.00     0.211 HD
ENDBRANCH  15  20
ENDBRANCH   8   9
ENDBRANCH   7   8
ENDBRANCH   1   7
BRANCH   2  22
ATOM     22  O   UNL     1      15.096  93.103  -2.147  1.00  0.00    -0.387 OA
ATOM     23  H   UNL     1      16.032  92.809  -2.327  1.00  0.00     0.211 HD
ENDBRANCH   2  22
BRANCH   3  24
ATOM     24  O   UNL     1      13.302  95.275  -4.444  1.00  0.00    -0.387 OA
ATOM     25  H   UNL     1      13.046  94.827  -5.298  1.00  0.00     0.211 HD
ENDBRANCH   3  24
BRANCH   5  26
ATOM     26  O   UNL     1      12.619  96.873  -2.219  1.00  0.00    -0.454 OA
BRANCH  26  27
ATOM     27  C   UNL     1      12.419  98.129  -1.632  1.00  0.00     0.214 A 
ATOM     28  C   UNL     1      11.362  98.377  -0.738  1.00  0.00     0.180 A 
ATOM     29  C   UNL     1      13.309  99.167  -1.932  1.00  0.00     0.239 A 
ATOM     30  O   UNL     1      11.202  99.581  -0.215  1.00  0.00    -0.452 OA
ATOM     31  C   UNL     1      13.145 100.435  -1.320  1.00  0.00     0.111 A 
ATOM     32  O   UNL     1      14.220  98.945  -2.772  1.00  0.00    -0.285 OA
ATOM     33  C   UNL     1      12.029 100.592  -0.456  1.00  0.00     0.146 A 
ATOM     34  C   UNL     1      14.019 101.553  -1.503  1.00  0.00     0.134 A 
ATOM     35  C   UNL     1      11.789 101.812   0.183  1.00  0.00     0.094 A 
ATOM     36  C   UNL     1      13.743 102.765  -0.856  1.00  0.00     0.093 A 
ATOM     37  C   UNL     1      12.637 102.897  -0.015  1.00  0.00     0.123 A 
BRANCH  28  38
ATOM     38  C   UNL     1      10.424  97.323  -0.326  1.00  0.00     0.025 A 
ATOM     39  C   UNL     1       9.300  97.643   0.446  1.00  0.00     0.062 A 
ATOM     40  C   UNL     1      10.665  95.987  -0.680  1.00  0.00     0.016 A 
ATOM     41  C   UNL     1       8.408  96.638   0.850  1.00  0.00     0.158 A 
ATOM     42  C   UNL     1       9.788  94.986  -0.265  1.00  0.00     0.051 A 
ATOM     43  C   UNL     1       8.657  95.299   0.494  1.00  0.00     0.157 A 
BRANCH  41  44
ATOM     44  O   UNL     1       7.274  96.958   1.596  1.00  0.00    -0.504 OA
ATOM     45  H   UNL     1       7.260  97.743   2.239  1.00  0.00     0.293 HD
ENDBRANCH  41  44
BRANCH  43  46
ATOM     46  O   UNL     1       7.791  94.276   0.884  1.00  0.00    -0.504 OA
ATOM     47  H   UNL     1       7.980  93.304   0.673  1.00  0.00     0.293 HD
ENDBRANCH  43  46
ENDBRANCH  28  38
BRANCH  34  48
ATOM     48  O   UNL     1      15.185 101.525  -2.280  1.00  0.00    -0.507 OA
ATOM     49  H   UNL     1      15.463 102.216  -2.958  1.00  0.00     0.293 HD
ENDBRANCH  34  48
BRANCH  37  50
ATOM     50  O   UNL     1      12.374 104.101   0.632  1.00  0.00    -0.508 OA
ATOM     51  H   UNL     1      12.124 104.936   0.119  1.00  0.00     0.293 HD
ENDBRANCH  37  50
ENDBRANCH  26  27
ENDBRANCH   5  26
BRANCH   4  52
ATOM     52  O   UNL     1      11.125  94.614  -2.899  1.00  0.00    -0.384 OA
ATOM     53  H   UNL     1      10.858  93.752  -3.310  1.00  0.00     0.211 HD
ENDBRANCH   4  52
TORSDOF 16
ENDMDL
MODEL 4
REMARK VINA RESULT:    85.930      2.973      8.147
REMARK INTER + INTRA:         146.018
REMARK INTER:                 147.204
REMARK INTRA:                  -1.186
REMARK UNBOUND:                 4.830
REMARK SMILES C[C@@H]1O[C@@H](OC[C@@H]2O[C@@H](Oc3c(-c4ccc(O)c(O)c4)oc4cc(O)cc(O)c4c3=O)[C@@H](O)[C@@H](O)[C@@H]2O)[C@H](O)[C@@H](O)[C@@H]1O
REMARK SMILES IDX 7 1 36 2 34 3 32 4 9 5 8 6 6 7 5 8 4 9 1 10 2 11 42 12 3 13
REMARK SMILES IDX 40 14 38 15 43 16 41 18 39 20 37 22 35 24 10 26 11 27 12 28
REMARK SMILES IDX 30 29 21 30 29 31 31 32 22 33 27 34 23 35 26 36 24 37 13 38
REMARK SMILES IDX 20 39 14 40 18 41 15 42 16 43 19 44 17 46 28 48 25 50 33 52
REMARK H PARENT 43 17 41 19 39 21 37 23 35 25 19 45 17 47 28 49 25 51 33 53
REMARK Flexibility Score: inf
ROOT
ATOM      1  C   UNL     1       9.351  94.882   0.439  1.00  0.00     0.180 C 
ATOM      2  C   UNL     1       7.948  95.527   0.520  1.00  0.00     0.177 C 
ATOM      3  C   UNL     1       7.962  96.896  -0.195  1.00  0.00     0.180 C 
ATOM      4  C   UNL     1       9.137  97.751   0.322  1.00  0.00     0.214 C 
ATOM      5  C   UNL     1      10.450  96.952   0.282  1.00  0.00     0.339 C 
ATOM      6  O   UNL     1      10.332  95.737   1.013  1.00  0.00    -0.332 OA
ENDROOT
BRANCH   1   7
ATOM      7  C   UNL     1       9.414  93.529   1.169  1.00  0.00     0.198 C 
BRANCH   7   8
ATOM      8  O   UNL     1       8.242  93.283   1.932  1.00  0.00    -0.347 OA
BRANCH   8   9
ATOM      9  C   UNL     1       8.512  92.523   3.103  1.00  0.00     0.281 C 
ATOM     10  C   UNL     1      10.803  90.132   1.539  1.00  0.00     0.041 C 
ATOM     11  C   UNL     1       9.473  90.643   2.100  1.00  0.00     0.150 C 
ATOM     12  C   UNL     1       8.721  89.564   2.924  1.00  0.00     0.174 C 
ATOM     13  O   UNL     1       9.715  91.792   2.897  1.00  0.00    -0.344 OA
ATOM     14  C   UNL     1       7.801  90.226   3.976  1.00  0.00     0.179 C 
ATOM     15  C   UNL     1       7.304  91.594   3.479  1.00  0.00     0.202 C 
BRANCH  12  16
ATOM     16  O   UNL     1       9.630  88.714   3.577  1.00  0.00    -0.388 OA
ATOM     17  H   UNL     1       9.141  87.879   3.793  1.00  0.00     0.211 HD
ENDBRANCH  12  16
BRANCH  14  18
ATOM     18  O   UNL     1       6.706  89.390   4.251  1.00  0.00    -0.387 OA
ATOM     19  H   UNL     1       6.757  88.626   3.612  1.00  0.00     0.211 HD
ENDBRANCH  14  18
BRANCH  15  20
ATOM     20  O   UNL     1       6.480  92.189   4.450  1.00  0.00    -0.385 OA
ATOM     21  H   UNL     1       6.868  93.084   4.653  1.00  0.00     0.211 HD
ENDBRANCH  15  20
ENDBRANCH   8   9
ENDBRANCH   7   8
ENDBRANCH   1   7
BRANCH   2  22
ATOM     22  O   UNL     1       7.577  95.694   1.865  1.00  0.00    -0.387 OA
ATOM     23  H   UNL     1       6.588  95.581   1.913  1.00  0.00     0.211 HD
ENDBRANCH   2  22
BRANCH   3  24
ATOM     24  O   UNL     1       8.073  96.723  -1.586  1.00  0.00    -0.387 OA
ATOM     25  H   UNL     1       8.670  97.451  -1.916  1.00  0.00     0.211 HD
ENDBRANCH   3  24
BRANCH   5  26
ATOM     26  O   UNL     1      10.848  96.701  -1.074  1.00  0.00    -0.454 OA
BRANCH  26  27
ATOM     27  C   UNL     1      12.153  96.372  -1.466  1.00  0.00     0.214 A 
ATOM     28  C   UNL     1      13.178  97.333  -1.537  1.00  0.00     0.180 A 
ATOM     29  C   UNL     1      12.451  95.041  -1.781  1.00  0.00     0.239 A 
ATOM     30  O   UNL     1      14.392  96.982  -1.924  1.00  0.00    -0.452 OA
ATOM     31  C   UNL     1      13.772  94.681  -2.145  1.00  0.00     0.111 A 
ATOM     32  O   UNL     1      11.512  94.201  -1.762  1.00  0.00    -0.285 OA
ATOM     33  C   UNL     1      14.727  95.730  -2.217  1.00  0.00     0.146 A 
ATOM     34  C   UNL     1      14.210  93.350  -2.434  1.00  0.00     0.134 A 
ATOM     35  C   UNL     1      16.052  95.464  -2.575  1.00  0.00     0.094 A 
ATOM     36  C   UNL     1      15.544  93.120  -2.801  1.00  0.00     0.093 A 
ATOM     37  C   UNL     1      16.462  94.168  -2.869  1.00  0.00     0.123 A 
BRANCH  28  38
ATOM     38  C   UNL     1      12.959  98.737  -1.162  1.00  0.00     0.025 A 
ATOM     39  C   UNL     1      12.429  99.640  -2.093  1.00  0.00     0.062 A 
ATOM     40  C   UNL     1      13.304  99.186   0.121  1.00  0.00     0.016 A 
ATOM     41  C   UNL     1      12.228 100.983  -1.742  1.00  0.00     0.158 A 
ATOM     42  C   UNL     1      13.119 100.525   0.466  1.00  0.00     0.051 A 
ATOM     43  C   UNL     1      12.579 101.429  -0.454  1.00  0.00     0.157 A 
BRANCH  41  44
ATOM     44  O   UNL     1      11.676 101.878  -2.659  1.00  0.00    -0.504 OA
ATOM     45  H   UNL     1      10.733 101.764  -3.018  1.00  0.00     0.293 HD
ENDBRANCH  41  44
BRANCH  43  46
ATOM     46  O   UNL     1      12.396 102.760  -0.075  1.00  0.00    -0.504 OA
ATOM     47  H   UNL     1      13.175 103.388   0.073  1.00  0.00     0.293 HD
ENDBRANCH  43  46
ENDBRANCH  28  38
BRANCH  34  48
ATOM     48  O   UNL     1      13.393  92.214  -2.348  1.00  0.00    -0.507 OA
ATOM     49  H   UNL     1      13.502  91.452  -1.699  1.00  0.00     0.293 HD
ENDBRANCH  34  48
BRANCH  37  50
ATOM     50  O   UNL     1      17.787  93.931  -3.224  1.00  0.00    -0.508 OA
ATOM     51  H   UNL     1      18.095  93.974  -4.186  1.00  0.00     0.293 HD
ENDBRANCH  37  50
ENDBRANCH  26  27
ENDBRANCH   5  26
BRANCH   4  52
ATOM     52  O   UNL     1       9.273  98.919  -0.446  1.00  0.00    -0.384 OA
ATOM     53  H   UNL     1       9.890  99.523   0.042  1.00  0.00     0.211 HD
ENDBRANCH   4  52
TORSDOF 16
ENDMDL
MODEL 5
REMARK VINA RESULT:    85.982      3.722     10.125
REMARK INTER + INTRA:         146.104
REMARK INTER:                 144.796
REMARK INTRA:                   1.308
REMARK UNBOUND:                 4.830
REMARK SMILES C[C@@H]1O[C@@H](OC[C@@H]2O[C@@H](Oc3c(-c4ccc(O)c(O)c4)oc4cc(O)cc(O)c4c3=O)[C@@H](O)[C@@H](O)[C@@H]2O)[C@H](O)[C@@H](O)[C@@H]1O
REMARK SMILES IDX 7 1 36 2 34 3 32 4 9 5 8 6 6 7 5 8 4 9 1 10 2 11 42 12 3 13
REMARK SMILES IDX 40 14 38 15 43 16 41 18 39 20 37 22 35 24 10 26 11 27 12 28
REMARK SMILES IDX 30 29 21 30 29 31 31 32 22 33 27 34 23 35 26 36 24 37 13 38
REMARK SMILES IDX 20 39 14 40 18 41 15 42 16 43 19 44 17 46 28 48 25 50 33 52
REMARK H PARENT 43 17 41 19 39 21 37 23 35 25 19 45 17 47 28 49 25 51 33 53
REMARK Flexibility Score: inf
ROOT
ATOM      1  C   UNL     1      10.775 101.452  -1.812  1.00  0.00     0.180 C 
ATOM      2  C   UNL     1      12.121 102.135  -1.476  1.00  0.00     0.177 C 
ATOM      3  C   UNL     1      13.192 101.061  -1.183  1.00  0.00     0.180 C 
ATOM      4  C   UNL     1      12.660 100.053  -0.145  1.00  0.00     0.214 C 
ATOM      5  C   UNL     1      11.272  99.532  -0.552  1.00  0.00     0.339 C 
ATOM      6  O   UNL     1      10.360 100.606  -0.746  1.00  0.00    -0.332 OA
ENDROOT
BRANCH   1   7
ATOM      7  C   UNL     1       9.654 102.471  -2.076  1.00  0.00     0.198 C 
BRANCH   7   8
ATOM      8  O   UNL     1       8.598 101.911  -2.843  1.00  0.00    -0.347 OA
BRANCH   8   9
ATOM      9  C   UNL     1       7.339 102.030  -2.192  1.00  0.00     0.281 C 
ATOM     10  C   UNL     1       5.845  98.996  -3.598  1.00  0.00     0.041 C 
ATOM     11  C   UNL     1       6.125 100.496  -3.472  1.00  0.00     0.150 C 
ATOM     12  C   UNL     1       4.848 101.357  -3.667  1.00  0.00     0.174 C 
ATOM     13  O   UNL     1       6.706 100.757  -2.203  1.00  0.00    -0.344 OA
ATOM     14  C   UNL     1       4.981 102.704  -2.918  1.00  0.00     0.179 C 
ATOM     15  C   UNL     1       6.453 103.145  -2.850  1.00  0.00     0.202 C 
BRANCH  12  16
ATOM     16  O   UNL     1       3.712 100.678  -3.194  1.00  0.00    -0.388 OA
ATOM     17  H   UNL     1       2.920 101.177  -3.521  1.00  0.00     0.211 HD
ENDBRANCH  12  16
BRANCH  14  18
ATOM     18  O   UNL     1       4.215 103.689  -3.564  1.00  0.00    -0.387 OA
ATOM     19  H   UNL     1       4.115 104.446  -2.922  1.00  0.00     0.211 HD
ENDBRANCH  14  18
BRANCH  15  20
ATOM     20  O   UNL     1       6.559 104.364  -2.158  1.00  0.00    -0.385 OA
ATOM     21  H   UNL     1       7.060 104.178  -1.317  1.00  0.00     0.211 HD
ENDBRANCH  15  20
ENDBRANCH   8   9
ENDBRANCH   7   8
ENDBRANCH   1   7
BRANCH   2  22
ATOM     22  O   UNL     1      11.964 102.971  -0.357  1.00  0.00    -0.387 OA
ATOM     23  H   UNL     1      12.371 103.851  -0.589  1.00  0.00     0.211 HD
ENDBRANCH   2  22
BRANCH   3  24
ATOM     24  O   UNL     1      13.547 100.387  -2.365  1.00  0.00    -0.387 OA
ATOM     25  H   UNL     1      13.113  99.490  -2.322  1.00  0.00     0.211 HD
ENDBRANCH   3  24
BRANCH   5  26
ATOM     26  O   UNL     1      11.364  98.715  -1.729  1.00  0.00    -0.454 OA
BRANCH  26  27
ATOM     27  C   UNL     1      11.961  97.448  -1.766  1.00  0.00     0.214 A 
ATOM     28  C   UNL     1      11.416  96.344  -1.084  1.00  0.00     0.180 A 
ATOM     29  C   UNL     1      13.129  97.270  -2.516  1.00  0.00     0.239 A 
ATOM     30  O   UNL     1      12.020  95.168  -1.135  1.00  0.00    -0.452 OA
ATOM     31  C   UNL     1      13.729  95.989  -2.596  1.00  0.00     0.111 A 
ATOM     32  O   UNL     1      13.633  98.278  -3.079  1.00  0.00    -0.285 OA
ATOM     33  C   UNL     1      13.119  94.947  -1.848  1.00  0.00     0.146 A 
ATOM     34  C   UNL     1      14.887  95.671  -3.373  1.00  0.00     0.134 A 
ATOM     35  C   UNL     1      13.650  93.654  -1.863  1.00  0.00     0.094 A 
ATOM     36  C   UNL     1      15.399  94.366  -3.357  1.00  0.00     0.093 A 
ATOM     37  C   UNL     1      14.785  93.361  -2.610  1.00  0.00     0.123 A 
BRANCH  28  38
ATOM     38  C   UNL     1      10.160  96.437  -0.327  1.00  0.00     0.025 A 
ATOM     39  C   UNL     1       9.715  95.348   0.433  1.00  0.00     0.062 A 
ATOM     40  C   UNL     1       9.387  97.606  -0.384  1.00  0.00     0.016 A 
ATOM     41  C   UNL     1       8.512  95.428   1.150  1.00  0.00     0.158 A 
ATOM     42  C   UNL     1       8.183  97.680   0.315  1.00  0.00     0.051 A 
ATOM     43  C   UNL     1       7.738  96.602   1.086  1.00  0.00     0.157 A 
BRANCH  41  44
ATOM     44  O   UNL     1       8.080  94.355   1.929  1.00  0.00    -0.504 OA
ATOM     45  H   UNL     1       7.099  94.208   2.142  1.00  0.00     0.293 HD
ENDBRANCH  41  44
BRANCH  43  46
ATOM     46  O   UNL     1       6.534  96.713   1.784  1.00  0.00    -0.504 OA
ATOM     47  H   UNL     1       5.941  97.528   1.703  1.00  0.00     0.293 HD
ENDBRANCH  43  46
ENDBRANCH  28  38
BRANCH  34  48
ATOM     48  O   UNL     1      15.557  96.583  -4.200  1.00  0.00    -0.507 OA
ATOM     49  H   UNL     1      16.020  96.367  -5.069  1.00  0.00     0.293 HD
ENDBRANCH  34  48
BRANCH  37  50
ATOM     50  O   UNL     1      15.294  92.065  -2.607  1.00  0.00    -0.508 OA
ATOM     51  H   UNL     1      16.183  91.843  -3.034  1.00  0.00     0.293 HD
ENDBRANCH  37  50
ENDBRANCH  26  27
ENDBRANCH   5  26
BRANCH   4  52
ATOM     52  O   UNL     1      13.546  98.971  -0.007  1.00  0.00    -0.384 OA
ATOM     53  H   UNL     1      13.158  98.206  -0.503  1.00  0.00     0.211 HD
ENDBRANCH   4  52
TORSDOF 16
ENDMDL
MODEL 6
REMARK VINA RESULT:    86.221      2.521      9.691
REMARK INTER + INTRA:         146.497
REMARK INTER:                 144.057
REMARK INTRA:                   2.440
REMARK UNBOUND:                 4.830
REMARK SMILES C[C@@H]1O[C@@H](OC[C@@H]2O[C@@H](Oc3c(-c4ccc(O)c(O)c4)oc4cc(O)cc(O)c4c3=O)[C@@H](O)[C@@H](O)[C@@H]2O)[C@H](O)[C@@H](O)[C@@H]1O
REMARK SMILES IDX 7 1 36 2 34 3 32 4 9 5 8 6 6 7 5 8 4 9 1 10 2 11 42 12 3 13
REMARK SMILES IDX 40 14 38 15 43 16 41 18 39 20 37 22 35 24 10 26 11 27 12 28
REMARK SMILES IDX 30 29 21 30 29 31 31 32 22 33 27 34 23 35 26 36 24 37 13 38
REMARK SMILES IDX 20 39 14 40 18 41 15 42 16 43 19 44 17 46 28 48 25 50 33 52
REMARK H PARENT 43 17 41 19 39 21 37 23 35 25 19 45 17 47 28 49 25 51 33 53
REMARK Flexibility Score: inf
ROOT
ATOM      1  C   UNL     1       8.682  95.740   0.431  1.00  0.00     0.180 C 
ATOM      2  C   UNL     1       7.738  96.956   0.296  1.00  0.00     0.177 C 
ATOM      3  C   UNL     1       8.434  98.070  -0.516  1.00  0.00     0.180 C 
ATOM      4  C   UNL     1       9.833  98.354   0.067  1.00  0.00     0.214 C 
ATOM      5  C   UNL     1      10.625  97.048   0.243  1.00  0.00     0.339 C 
ATOM      6  O   UNL     1       9.907  96.119   1.047  1.00  0.00    -0.332 OA
ENDROOT
BRANCH   1   7
ATOM      7  C   UNL     1       8.061  94.607   1.265  1.00  0.00     0.198 C 
BRANCH   7   8
ATOM      8  O   UNL     1       6.918  95.046   1.986  1.00  0.00    -0.347 OA
BRANCH   8   9
ATOM      9  C   UNL     1       6.129  93.959   2.455  1.00  0.00     0.281 C 
ATOM     10  C   UNL     1       2.989  95.007   0.889  1.00  0.00     0.041 C 
ATOM     11  C   UNL     1       4.008  94.839   2.020  1.00  0.00     0.150 C 
ATOM     12  C   UNL     1       3.342  94.447   3.366  1.00  0.00     0.174 C 
ATOM     13  O   UNL     1       4.967  93.864   1.641  1.00  0.00    -0.344 OA
ATOM     14  C   UNL     1       4.337  93.667   4.257  1.00  0.00     0.179 C 
ATOM     15  C   UNL     1       5.782  94.113   3.978  1.00  0.00     0.202 C 
BRANCH  12  16
ATOM     16  O   UNL     1       2.203  93.655   3.145  1.00  0.00    -0.388 OA
ATOM     17  H   UNL     1       2.431  93.016   2.422  1.00  0.00     0.211 HD
ENDBRANCH  12  16
BRANCH  14  18
ATOM     18  O   UNL     1       4.027  93.868   5.612  1.00  0.00    -0.387 OA
ATOM     19  H   UNL     1       3.838  94.840   5.726  1.00  0.00     0.211 HD
ENDBRANCH  14  18
BRANCH  15  20
ATOM     20  O   UNL     1       6.676  93.388   4.786  1.00  0.00    -0.385 OA
ATOM     21  H   UNL     1       7.594  93.587   4.455  1.00  0.00     0.211 HD
ENDBRANCH  15  20
ENDBRANCH   8   9
ENDBRANCH   7   8
ENDBRANCH   1   7
BRANCH   2  22
ATOM     22  O   UNL     1       7.396  97.437   1.572  1.00  0.00    -0.387 OA
ATOM     23  H   UNL     1       7.942  96.929   2.233  1.00  0.00     0.211 HD
ENDBRANCH   2  22
BRANCH   3  24
ATOM     24  O   UNL     1       8.546  97.696  -1.867  1.00  0.00    -0.387 OA
ATOM     25  H   UNL     1       7.814  97.041  -2.041  1.00  0.00     0.211 HD
ENDBRANCH   3  24
BRANCH   5  26
ATOM     26  O   UNL     1      10.953  96.479  -1.033  1.00  0.00    -0.454 OA
BRANCH  26  27
ATOM     27  C   UNL     1      12.251  96.146  -1.439  1.00  0.00     0.214 A 
ATOM     28  C   UNL     1      13.280  97.103  -1.516  1.00  0.00     0.180 A 
ATOM     29  C   UNL     1      12.540  94.815  -1.764  1.00  0.00     0.239 A 
ATOM     30  O   UNL     1      14.489  96.748  -1.917  1.00  0.00    -0.452 OA
ATOM     31  C   UNL     1      13.857  94.451  -2.143  1.00  0.00     0.111 A 
ATOM     32  O   UNL     1      11.598  93.980  -1.740  1.00  0.00    -0.285 OA
ATOM     33  C   UNL     1      14.815  95.496  -2.219  1.00  0.00     0.146 A 
ATOM     34  C   UNL     1      14.285  93.120  -2.442  1.00  0.00     0.134 A 
ATOM     35  C   UNL     1      16.135  95.226  -2.591  1.00  0.00     0.094 A 
ATOM     36  C   UNL     1      15.614  92.886  -2.823  1.00  0.00     0.093 A 
ATOM     37  C   UNL     1      16.537  93.930  -2.896  1.00  0.00     0.123 A 
BRANCH  28  38
ATOM     38  C   UNL     1      13.071  98.506  -1.132  1.00  0.00     0.025 A 
ATOM     39  C   UNL     1      12.722  99.456  -2.100  1.00  0.00     0.062 A 
ATOM     40  C   UNL     1      13.246  98.905   0.202  1.00  0.00     0.016 A 
ATOM     41  C   UNL     1      12.532 100.799  -1.739  1.00  0.00     0.158 A 
ATOM     42  C   UNL     1      13.073 100.242   0.558  1.00  0.00     0.051 A 
ATOM     43  C   UNL     1      12.712 101.194  -0.401  1.00  0.00     0.157 A 
BRANCH  41  44
ATOM     44  O   UNL     1      12.158 101.741  -2.697  1.00  0.00    -0.504 OA
ATOM     45  H   UNL     1      12.713 101.907  -3.530  1.00  0.00     0.293 HD
ENDBRANCH  41  44
BRANCH  43  46
ATOM     46  O   UNL     1      12.534 102.522  -0.010  1.00  0.00    -0.504 OA
ATOM     47  H   UNL     1      12.654 103.293  -0.655  1.00  0.00     0.293 HD
ENDBRANCH  43  46
ENDBRANCH  28  38
BRANCH  34  48
ATOM     48  O   UNL     1      13.464  91.987  -2.355  1.00  0.00    -0.507 OA
ATOM     49  H   UNL     1      12.472  91.959  -2.528  1.00  0.00     0.293 HD
ENDBRANCH  34  48
BRANCH  37  50
ATOM     50  O   UNL     1      17.858  93.688  -3.265  1.00  0.00    -0.508 OA
ATOM     51  H   UNL     1      18.169  93.796  -4.220  1.00  0.00     0.293 HD
ENDBRANCH  37  50
ENDBRANCH  26  27
ENDBRANCH   5  26
BRANCH   4  52
ATOM     52  O   UNL     1      10.548  99.229  -0.768  1.00  0.00    -0.384 OA
ATOM     53  H   UNL     1      11.163  99.751  -0.191  1.00  0.00     0.211 HD
ENDBRANCH   4  52
TORSDOF 16
ENDMDL
