MODEL 1
REMARK VINA RESULT:     1.843      0.000      0.000
REMARK INTER + INTRA:           4.042
REMARK INTER:                   3.351
REMARK INTRA:                   0.692
REMARK UNBOUND:                 0.692
REMARK SMILES CCCCCCCCCCCCCCCC(=O)[O-]
REMARK SMILES IDX 9 1 10 2 11 3 12 4 13 5 14 6 15 7 16 8 17 9 18 10 8 11 7 12
REMARK SMILES IDX 6 13 5 14 4 15 3 16 2 17 1 18
REMARK H PARENT
REMARK Flexibility Score: inf
ROOT
ATOM      1  C   UNL     1     -38.052  22.026   8.107  1.00  0.00     0.000 C 
ENDROOT
BRANCH   1   2
ATOM      2  C   UNL     1     -37.451  23.436   8.029  1.00  0.00     0.000 C 
BRANCH   2   3
ATOM      3  C   UNL     1     -36.135  23.430   7.237  1.00  0.00     0.000 C 
BRANCH   3   4
ATOM      4  C   UNL     1     -35.683  24.841   6.828  1.00  0.00     0.000 C 
BRANCH   4   5
ATOM      5  C   UNL     1     -34.595  24.823   5.744  1.00  0.00     0.000 C 
BRANCH   5   6
ATOM      6  C   UNL     1     -33.348  25.588   6.206  1.00  0.00     0.006 C 
BRANCH   6   7
ATOM      7  C   UNL     1     -33.544  27.099   6.057  1.00  0.00     0.053 C 
BRANCH   7   8
ATOM      8  C   UNL     1     -32.893  27.592   4.804  1.00  0.00     0.041 C 
ATOM      9  O   UNL     1     -33.277  27.169   3.682  1.00  0.00    -0.550 OA
ATOM     10  O   UNL     1     -31.828  28.481   4.877  1.00  0.00    -0.550 OA
ENDBRANCH   7   8
ENDBRANCH   6   7
ENDBRANCH   5   6
ENDBRANCH   4   5
ENDBRANCH   3   4
ENDBRANCH   2   3
ENDBRANCH   1   2
BRANCH   1  11
ATOM     11  C   UNL     1     -39.586  22.078   8.048  1.00  0.00     0.000 C 
BRANCH  11  12
ATOM     12  C   UNL     1     -40.125  23.511   7.917  1.00  0.00    -0.000 C 
BRANCH  12  13
ATOM     13  C   UNL     1     -40.125  24.012   6.461  1.00  0.00    -0.000 C 
BRANCH  13  14
ATOM     14  C   UNL     1     -39.628  25.461   6.334  1.00  0.00    -0.000 C 
BRANCH  14  15
ATOM     15  C   UNL     1     -40.080  26.127   5.023  1.00  0.00    -0.000 C 
BRANCH  15  16
ATOM     16  C   UNL     1     -39.806  25.251   3.791  1.00  0.00    -0.000 C 
BRANCH  16  17
ATOM     17  C   UNL     1     -38.495  24.459   3.905  1.00  0.00    -0.003 C 
ATOM     18  C   UNL     1     -38.750  23.046   4.420  1.00  0.00     0.004 C 
ENDBRANCH  16  17
ENDBRANCH  15  16
ENDBRANCH  14  15
ENDBRANCH  13  14
ENDBRANCH  12  13
ENDBRANCH  11  12
ENDBRANCH   1  11
TORSDOF 14
ENDMDL
MODEL 2
REMARK VINA RESULT:     3.251      1.019      1.766
REMARK INTER + INTRA:           6.603
REMARK INTER:                   6.570
REMARK INTRA:                   0.033
REMARK UNBOUND:                 0.692
REMARK SMILES CCCCCCCCCCCCCCCC(=O)[O-]
REMARK SMILES IDX 9 1 10 2 11 3 12 4 13 5 14 6 15 7 16 8 17 9 18 10 8 11 7 12
REMARK SMILES IDX 6 13 5 14 4 15 3 16 2 17 1 18
REMARK H PARENT
REMARK Flexibility Score: inf
ROOT
ATOM      1  C   UNL     1     -38.701  24.275   7.966  1.00  0.00     0.000 C 
ENDROOT
BRANCH   1   2
ATOM      2  C   UNL     1     -37.344  23.564   8.055  1.00  0.00     0.000 C 
BRANCH   2   3
ATOM      3  C   UNL     1     -36.740  23.358   6.658  1.00  0.00     0.000 C 
BRANCH   3   4
ATOM      4  C   UNL     1     -35.960  24.586   6.163  1.00  0.00     0.000 C 
BRANCH   4   5
ATOM      5  C   UNL     1     -34.695  24.858   6.991  1.00  0.00     0.000 C 
BRANCH   5   6
ATOM      6  C   UNL     1     -34.351  26.352   6.991  1.00  0.00     0.006 C 
BRANCH   6   7
ATOM      7  C   UNL     1     -32.948  26.593   6.426  1.00  0.00     0.053 C 
BRANCH   7   8
ATOM      8  C   UNL     1     -33.028  27.128   5.032  1.00  0.00     0.041 C 
ATOM      9  O   UNL     1     -33.345  26.368   4.078  1.00  0.00    -0.550 OA
ATOM     10  O   UNL     1     -32.705  28.454   4.776  1.00  0.00    -0.550 OA
ENDBRANCH   7   8
ENDBRANCH   6   7
ENDBRANCH   5   6
ENDBRANCH   4   5
ENDBRANCH   3   4
ENDBRANCH   2   3
ENDBRANCH   1   2
BRANCH   1  11
ATOM     11  C   UNL     1     -39.839  23.264   7.755  1.00  0.00     0.000 C 
BRANCH  11  12
ATOM     12  C   UNL     1     -39.356  21.957   7.107  1.00  0.00    -0.000 C 
BRANCH  12  13
ATOM     13  C   UNL     1     -39.669  21.895   5.600  1.00  0.00    -0.000 C 
BRANCH  13  14
ATOM     14  C   UNL     1     -40.112  23.253   5.031  1.00  0.00    -0.000 C 
BRANCH  14  15
ATOM     15  C   UNL     1     -38.935  24.069   4.469  1.00  0.00    -0.000 C 
BRANCH  15  16
ATOM     16  C   UNL     1     -39.362  25.019   3.340  1.00  0.00    -0.000 C 
BRANCH  16  17
ATOM     17  C   UNL     1     -40.049  26.290   3.861  1.00  0.00    -0.003 C 
ATOM     18  C   UNL     1     -40.075  26.315   5.386  1.00  0.00     0.004 C 
ENDBRANCH  16  17
ENDBRANCH  15  16
ENDBRANCH  14  15
ENDBRANCH  13  14
ENDBRANCH  12  13
ENDBRANCH  11  12
ENDBRANCH   1  11
TORSDOF 14
ENDMDL
MODEL 3
REMARK VINA RESULT:     3.356      2.764      5.845
REMARK INTER + INTRA:           6.794
REMARK INTER:                   7.616
REMARK INTRA:                  -0.822
REMARK UNBOUND:                 0.692
REMARK SMILES CCCCCCCCCCCCCCCC(=O)[O-]
REMARK SMILES IDX 9 1 10 2 11 3 12 4 13 5 14 6 15 7 16 8 17 9 18 10 8 11 7 12
REMARK SMILES IDX 6 13 5 14 4 15 3 16 2 17 1 18
REMARK H PARENT
REMARK Flexibility Score: inf
ROOT
ATOM      1  C   UNL     1     -38.419  24.032   7.755  1.00  0.00     0.000 C 
ENDROOT
BRANCH   1   2
ATOM      2  C   UNL     1     -39.310  22.821   8.065  1.00  0.00     0.000 C 
BRANCH   2   3
ATOM      3  C   UNL     1     -39.959  22.276   6.784  1.00  0.00     0.000 C 
BRANCH   3   4
ATOM      4  C   UNL     1     -39.020  22.342   5.569  1.00  0.00     0.000 C 
BRANCH   4   5
ATOM      5  C   UNL     1     -39.779  22.360   4.234  1.00  0.00     0.000 C 
BRANCH   5   6
ATOM      6  C   UNL     1     -40.124  23.795   3.819  1.00  0.00     0.006 C 
BRANCH   6   7
ATOM      7  C   UNL     1     -39.311  24.811   4.626  1.00  0.00     0.053 C 
BRANCH   7   8
ATOM      8  C   UNL     1     -39.811  26.199   4.378  1.00  0.00     0.041 C 
ATOM      9  O   UNL     1     -40.124  26.942   5.346  1.00  0.00    -0.550 OA
ATOM     10  O   UNL     1     -39.980  26.656   3.077  1.00  0.00    -0.550 OA
ENDBRANCH   7   8
ENDBRANCH   6   7
ENDBRANCH   5   6
ENDBRANCH   4   5
ENDBRANCH   3   4
ENDBRANCH   2   3
ENDBRANCH   1   2
BRANCH   1  11
ATOM     11  C   UNL     1     -36.934  23.683   7.939  1.00  0.00     0.000 C 
BRANCH  11  12
ATOM     12  C   UNL     1     -36.131  23.808   6.635  1.00  0.00    -0.000 C 
BRANCH  12  13
ATOM     13  C   UNL     1     -35.573  25.227   6.419  1.00  0.00    -0.000 C 
BRANCH  13  14
ATOM     14  C   UNL     1     -34.244  25.458   7.157  1.00  0.00    -0.000 C 
BRANCH  14  15
ATOM     15  C   UNL     1     -33.742  26.907   7.028  1.00  0.00    -0.000 C 
BRANCH  15  16
ATOM     16  C   UNL     1     -32.756  27.089   5.864  1.00  0.00    -0.000 C 
BRANCH  16  17
ATOM     17  C   UNL     1     -33.388  27.796   4.656  1.00  0.00    -0.003 C 
ATOM     18  C   UNL     1     -33.081  27.050   3.361  1.00  0.00     0.004 C 
ENDBRANCH  16  17
ENDBRANCH  15  16
ENDBRANCH  14  15
ENDBRANCH  13  14
ENDBRANCH  12  13
ENDBRANCH  11  12
ENDBRANCH   1  11
TORSDOF 14
ENDMDL
