MODEL 1
REMARK VINA RESULT:    -3.686      0.000      0.000
REMARK INTER + INTRA:          -4.955
REMARK INTER:                  -4.763
REMARK INTRA:                  -0.192
REMARK UNBOUND:                -0.192
REMARK SMILES CCCCCCC(=O)[O-]
REMARK SMILES IDX 5 1 6 2 7 3 8 4 9 5 4 6 3 7 2 8 1 9
REMARK H PARENT
REMARK Flexibility Score: inf
ROOT
ATOM      1  C   UNL     1      35.705  23.941  16.508  1.00  0.00     0.006 C 
ENDROOT
BRANCH   1   2
ATOM      2  C   UNL     1      34.193  24.168  16.640  1.00  0.00     0.053 C 
BRANCH   2   3
ATOM      3  C   UNL     1      33.859  25.625  16.747  1.00  0.00     0.041 C 
ATOM      4  O   UNL     1      32.781  26.065  16.270  1.00  0.00    -0.550 OA
ATOM      5  O   UNL     1      34.757  26.501  17.344  1.00  0.00    -0.550 OA
ENDBRANCH   2   3
ENDBRANCH   1   2
BRANCH   1   6
ATOM      6  C   UNL     1      36.032  22.685  15.682  1.00  0.00     0.000 C 
BRANCH   6   7
ATOM      7  C   UNL     1      35.568  22.800  14.222  1.00  0.00    -0.000 C 
BRANCH   7   8
ATOM      8  C   UNL     1      35.436  21.433  13.535  1.00  0.00    -0.003 C 
ATOM      9  C   UNL     1      35.777  20.299  14.497  1.00  0.00     0.004 C 
ENDBRANCH   7   8
ENDBRANCH   6   7
ENDBRANCH   1   6
TORSDOF 5
ENDMDL
MODEL 2
REMARK VINA RESULT:    -3.552     17.221     18.141
REMARK INTER + INTRA:          -4.781
REMARK INTER:                  -4.517
REMARK INTRA:                  -0.265
REMARK UNBOUND:                -0.192
REMARK SMILES CCCCCCC(=O)[O-]
REMARK SMILES IDX 5 1 6 2 7 3 8 4 9 5 4 6 3 7 2 8 1 9
REMARK H PARENT
REMARK Flexibility Score: inf
ROOT
ATOM      1  C   UNL     1      27.243  33.652   3.702  1.00  0.00     0.006 C 
ENDROOT
BRANCH   1   2
ATOM      2  C   UNL     1      26.944  32.945   2.374  1.00  0.00     0.053 C 
BRANCH   2   3
ATOM      3  C   UNL     1      25.827  33.611   1.629  1.00  0.00     0.041 C 
ATOM      4  O   UNL     1      25.655  34.854   1.723  1.00  0.00    -0.550 OA
ATOM      5  O   UNL     1      24.955  32.850   0.861  1.00  0.00    -0.550 OA
ENDBRANCH   2   3
ENDBRANCH   1   2
BRANCH   1   6
ATOM      6  C   UNL     1      28.666  34.234   3.742  1.00  0.00     0.000 C 
BRANCH   6   7
ATOM      7  C   UNL     1      29.730  33.173   4.065  1.00  0.00    -0.000 C 
BRANCH   7   8
ATOM      8  C   UNL     1      30.966  33.283   3.161  1.00  0.00    -0.003 C 
ATOM      9  C   UNL     1      30.612  32.990   1.706  1.00  0.00     0.004 C 
ENDBRANCH   7   8
ENDBRANCH   6   7
ENDBRANCH   1   6
TORSDOF 5
ENDMDL
MODEL 3
REMARK VINA RESULT:    -3.545     16.297     17.020
REMARK INTER + INTRA:          -4.773
REMARK INTER:                  -4.593
REMARK INTRA:                  -0.180
REMARK UNBOUND:                -0.192
REMARK SMILES CCCCCCC(=O)[O-]
REMARK SMILES IDX 5 1 6 2 7 3 8 4 9 5 4 6 3 7 2 8 1 9
REMARK H PARENT
REMARK Flexibility Score: inf
ROOT
ATOM      1  C   UNL     1      29.479  33.184   3.879  1.00  0.00     0.006 C 
ENDROOT
BRANCH   1   2
ATOM      2  C   UNL     1      28.738  32.813   2.588  1.00  0.00     0.053 C 
BRANCH   2   3
ATOM      3  C   UNL     1      27.281  33.157   2.666  1.00  0.00     0.041 C 
ATOM      4  O   UNL     1      26.772  33.514   3.760  1.00  0.00    -0.550 OA
ATOM      5  O   UNL     1      26.481  33.047   1.536  1.00  0.00    -0.550 OA
ENDBRANCH   2   3
ENDBRANCH   1   2
BRANCH   1   6
ATOM      6  C   UNL     1      31.006  33.180   3.692  1.00  0.00     0.000 C 
BRANCH   6   7
ATOM      7  C   UNL     1      31.425  32.825   2.257  1.00  0.00    -0.000 C 
BRANCH   7   8
ATOM      8  C   UNL     1      32.947  32.685   2.105  1.00  0.00    -0.003 C 
ATOM      9  C   UNL     1      33.684  33.573   3.103  1.00  0.00     0.004 C 
ENDBRANCH   7   8
ENDBRANCH   6   7
ENDBRANCH   1   6
TORSDOF 5
ENDMDL
MODEL 4
REMARK VINA RESULT:    -3.530     16.559     17.510
REMARK INTER + INTRA:          -4.753
REMARK INTER:                  -4.537
REMARK INTRA:                  -0.216
REMARK UNBOUND:                -0.192
REMARK SMILES CCCCCCC(=O)[O-]
REMARK SMILES IDX 5 1 6 2 7 3 8 4 9 5 4 6 3 7 2 8 1 9
REMARK H PARENT
REMARK Flexibility Score: inf
ROOT
ATOM      1  C   UNL     1      29.723  32.962   3.922  1.00  0.00     0.006 C 
ENDROOT
BRANCH   1   2
ATOM      2  C   UNL     1      31.146  33.382   3.535  1.00  0.00     0.053 C 
BRANCH   2   3
ATOM      3  C   UNL     1      31.554  32.810   2.211  1.00  0.00     0.041 C 
ATOM      4  O   UNL     1      32.740  32.436   2.020  1.00  0.00    -0.550 OA
ATOM      5  O   UNL     1      30.629  32.723   1.178  1.00  0.00    -0.550 OA
ENDBRANCH   2   3
ENDBRANCH   1   2
BRANCH   1   6
ATOM      6  C   UNL     1      28.751  34.154   3.941  1.00  0.00     0.000 C 
BRANCH   6   7
ATOM      7  C   UNL     1      27.314  33.752   3.573  1.00  0.00    -0.000 C 
BRANCH   7   8
ATOM      8  C   UNL     1      27.235  33.012   2.229  1.00  0.00    -0.003 C 
ATOM      9  C   UNL     1      25.937  33.340   1.497  1.00  0.00     0.004 C 
ENDBRANCH   7   8
ENDBRANCH   6   7
ENDBRANCH   1   6
TORSDOF 5
ENDMDL
MODEL 5
REMARK VINA RESULT:    -3.510     17.003     17.891
REMARK INTER + INTRA:          -4.727
REMARK INTER:                  -4.503
REMARK INTRA:                  -0.224
REMARK UNBOUND:                -0.192
REMARK SMILES CCCCCCC(=O)[O-]
REMARK SMILES IDX 5 1 6 2 7 3 8 4 9 5 4 6 3 7 2 8 1 9
REMARK H PARENT
REMARK Flexibility Score: inf
ROOT
ATOM      1  C   UNL     1      28.595  34.284   3.874  1.00  0.00     0.006 C 
ENDROOT
BRANCH   1   2
ATOM      2  C   UNL     1      29.707  33.229   3.941  1.00  0.00     0.053 C 
BRANCH   2   3
ATOM      3  C   UNL     1      30.702  33.401   2.833  1.00  0.00     0.041 C 
ATOM      4  O   UNL     1      30.379  34.007   1.779  1.00  0.00    -0.550 OA
ATOM      5  O   UNL     1      31.975  32.858   2.954  1.00  0.00    -0.550 OA
ENDBRANCH   2   3
ENDBRANCH   1   2
BRANCH   1   6
ATOM      6  C   UNL     1      27.202  33.650   3.725  1.00  0.00     0.000 C 
BRANCH   6   7
ATOM      7  C   UNL     1      27.048  32.864   2.413  1.00  0.00    -0.000 C 
BRANCH   7   8
ATOM      8  C   UNL     1      26.425  33.706   1.290  1.00  0.00    -0.003 C 
ATOM      9  C   UNL     1      25.037  33.191   0.922  1.00  0.00     0.004 C 
ENDBRANCH   7   8
ENDBRANCH   6   7
ENDBRANCH   1   6
TORSDOF 5
ENDMDL
MODEL 6
REMARK VINA RESULT:    -3.441     18.073     19.039
REMARK INTER + INTRA:          -4.638
REMARK INTER:                  -4.480
REMARK INTRA:                  -0.158
REMARK UNBOUND:                -0.192
REMARK SMILES CCCCCCC(=O)[O-]
REMARK SMILES IDX 5 1 6 2 7 3 8 4 9 5 4 6 3 7 2 8 1 9
REMARK H PARENT
REMARK Flexibility Score: inf
ROOT
ATOM      1  C   UNL     1      26.224  34.003   2.351  1.00  0.00     0.006 C 
ENDROOT
BRANCH   1   2
ATOM      2  C   UNL     1      25.825  33.284   1.056  1.00  0.00     0.053 C 
BRANCH   2   3
ATOM      3  C   UNL     1      24.361  33.430   0.769  1.00  0.00     0.041 C 
ATOM      4  O   UNL     1      23.652  32.413   0.553  1.00  0.00    -0.550 OA
ATOM      5  O   UNL     1      23.789  34.695   0.705  1.00  0.00    -0.550 OA
ENDBRANCH   2   3
ENDBRANCH   1   2
BRANCH   1   6
ATOM      6  C   UNL     1      27.127  33.134   3.242  1.00  0.00     0.000 C 
BRANCH   6   7
ATOM      7  C   UNL     1      28.196  33.955   3.980  1.00  0.00    -0.000 C 
BRANCH   7   8
ATOM      8  C   UNL     1      29.567  33.263   3.995  1.00  0.00    -0.003 C 
ATOM      9  C   UNL     1      30.215  33.299   2.614  1.00  0.00     0.004 C 
ENDBRANCH   7   8
ENDBRANCH   6   7
ENDBRANCH   1   6
TORSDOF 5
ENDMDL
MODEL 7
REMARK VINA RESULT:    -3.298     17.766     18.686
REMARK INTER + INTRA:          -4.453
REMARK INTER:                  -4.220
REMARK INTRA:                  -0.233
REMARK UNBOUND:                -0.192
REMARK SMILES CCCCCCC(=O)[O-]
REMARK SMILES IDX 5 1 6 2 7 3 8 4 9 5 4 6 3 7 2 8 1 9
REMARK H PARENT
REMARK Flexibility Score: inf
ROOT
ATOM      1  C   UNL     1      26.793  33.722   3.137  1.00  0.00     0.006 C 
ENDROOT
BRANCH   1   2
ATOM      2  C   UNL     1      28.070  33.949   3.957  1.00  0.00     0.053 C 
BRANCH   2   3
ATOM      3  C   UNL     1      29.223  33.157   3.419  1.00  0.00     0.041 C 
ATOM      4  O   UNL     1      29.148  32.618   2.284  1.00  0.00    -0.550 OA
ATOM      5  O   UNL     1      30.367  32.986   4.189  1.00  0.00    -0.550 OA
ENDBRANCH   2   3
ENDBRANCH   1   2
BRANCH   1   6
ATOM      6  C   UNL     1      26.515  34.882   2.165  1.00  0.00     0.000 C 
BRANCH   6   7
ATOM      7  C   UNL     1      26.413  34.416   0.704  1.00  0.00    -0.000 C 
BRANCH   7   8
ATOM      8  C   UNL     1      25.419  33.260   0.521  1.00  0.00    -0.003 C 
ATOM      9  C   UNL     1      23.990  33.778   0.393  1.00  0.00     0.004 C 
ENDBRANCH   7   8
ENDBRANCH   6   7
ENDBRANCH   1   6
TORSDOF 5
ENDMDL
MODEL 8
REMARK VINA RESULT:    -3.290      3.116      4.884
REMARK INTER + INTRA:          -4.444
REMARK INTER:                  -4.281
REMARK INTRA:                  -0.163
REMARK UNBOUND:                -0.192
REMARK SMILES CCCCCCC(=O)[O-]
REMARK SMILES IDX 5 1 6 2 7 3 8 4 9 5 4 6 3 7 2 8 1 9
REMARK H PARENT
REMARK Flexibility Score: inf
ROOT
ATOM      1  C   UNL     1      35.308  23.426  15.940  1.00  0.00     0.006 C 
ENDROOT
BRANCH   1   2
ATOM      2  C   UNL     1      36.072  22.979  14.687  1.00  0.00     0.053 C 
BRANCH   2   3
ATOM      3  C   UNL     1      35.772  21.554  14.333  1.00  0.00     0.041 C 
ATOM      4  O   UNL     1      35.445  21.249  13.157  1.00  0.00    -0.550 OA
ATOM      5  O   UNL     1      35.820  20.571  15.313  1.00  0.00    -0.550 OA
ENDBRANCH   2   3
ENDBRANCH   1   2
BRANCH   1   6
ATOM      6  C   UNL     1      36.037  24.553  16.693  1.00  0.00     0.000 C 
BRANCH   6   7
ATOM      7  C   UNL     1      35.211  25.847  16.763  1.00  0.00    -0.000 C 
BRANCH   7   8
ATOM      8  C   UNL     1      33.771  25.603  17.236  1.00  0.00    -0.003 C 
ATOM      9  C   UNL     1      32.763  26.011  16.166  1.00  0.00     0.004 C 
ENDBRANCH   7   8
ENDBRANCH   6   7
ENDBRANCH   1   6
TORSDOF 5
ENDMDL
MODEL 9
REMARK VINA RESULT:    -3.150     17.129     18.148
REMARK INTER + INTRA:          -4.262
REMARK INTER:                  -4.087
REMARK INTRA:                  -0.176
REMARK UNBOUND:                -0.192
REMARK SMILES CCCCCCC(=O)[O-]
REMARK SMILES IDX 5 1 6 2 7 3 8 4 9 5 4 6 3 7 2 8 1 9
REMARK H PARENT
REMARK Flexibility Score: inf
ROOT
ATOM      1  C   UNL     1      28.363  32.770   2.855  1.00  0.00     0.006 C 
ENDROOT
BRANCH   1   2
ATOM      2  C   UNL     1      29.476  33.242   3.799  1.00  0.00     0.053 C 
BRANCH   2   3
ATOM      3  C   UNL     1      30.820  33.200   3.137  1.00  0.00     0.041 C 
ATOM      4  O   UNL     1      31.870  33.222   3.831  1.00  0.00    -0.550 OA
ATOM      5  O   UNL     1      30.911  33.170   1.751  1.00  0.00    -0.550 OA
ENDBRANCH   2   3
ENDBRANCH   1   2
BRANCH   1   6
ATOM      6  C   UNL     1      27.022  33.465   3.146  1.00  0.00     0.000 C 
BRANCH   6   7
ATOM      7  C   UNL     1      26.057  33.412   1.951  1.00  0.00    -0.000 C 
BRANCH   7   8
ATOM      8  C   UNL     1      25.566  34.804   1.527  1.00  0.00    -0.003 C 
ATOM      9  C   UNL     1      26.609  35.873   1.836  1.00  0.00     0.004 C 
ENDBRANCH   7   8
ENDBRANCH   6   7
ENDBRANCH   1   6
TORSDOF 5
ENDMDL
