MODEL 1
REMARK VINA RESULT:    -3.795      0.000      0.000
REMARK INTER + INTRA:          -5.451
REMARK INTER:                  -5.126
REMARK INTRA:                  -0.324
REMARK UNBOUND:                -0.324
REMARK SMILES CCCCCCC=CC(=O)[O-]
REMARK SMILES IDX 5 1 6 2 7 3 8 4 9 5 10 6 11 7 4 8 3 9 2 10 1 11
REMARK H PARENT
REMARK Flexibility Score: inf
ROOT
ATOM      1  C   UNL     1       0.624  38.234  36.086  1.00  0.00     0.004 C 
ENDROOT
BRANCH   1   2
ATOM      2  C   UNL     1       0.176  37.185  37.117  1.00  0.00     0.027 C 
BRANCH   2   3
ATOM      3  C   UNL     1      -0.738  36.148  36.519  1.00  0.00    -0.025 C 
ATOM      4  C   UNL     1      -1.306  35.122  37.174  1.00  0.00     0.020 C 
BRANCH   4   5
ATOM      5  C   UNL     1      -1.196  34.830  38.618  1.00  0.00     0.064 C 
ATOM      6  O   UNL     1      -2.054  35.310  39.403  1.00  0.00    -0.545 OA
ATOM      7  O   UNL     1      -0.161  34.068  39.144  1.00  0.00    -0.545 OA
ENDBRANCH   4   5
ENDBRANCH   2   3
ENDBRANCH   1   2
BRANCH   1   8
ATOM      8  C   UNL     1       1.707  39.167  36.648  1.00  0.00     0.000 C 
BRANCH   8   9
ATOM      9  C   UNL     1       1.808  40.453  35.819  1.00  0.00    -0.000 C 
BRANCH   9  10
ATOM     10  C   UNL     1       0.449  41.158  35.731  1.00  0.00    -0.003 C 
ATOM     11  C   UNL     1       0.078  41.807  37.062  1.00  0.00     0.004 C 
ENDBRANCH   9  10
ENDBRANCH   8   9
ENDBRANCH   1   8
TORSDOF 6
ENDMDL
MODEL 2
REMARK VINA RESULT:    -3.760      3.295      5.888
REMARK INTER + INTRA:          -5.403
REMARK INTER:                  -5.028
REMARK INTRA:                  -0.375
REMARK UNBOUND:                -0.324
REMARK SMILES CCCCCCC=CC(=O)[O-]
REMARK SMILES IDX 5 1 6 2 7 3 8 4 9 5 10 6 11 7 4 8 3 9 2 10 1 11
REMARK H PARENT
REMARK Flexibility Score: inf
ROOT
ATOM      1  C   UNL     1      -0.139  37.331  36.039  1.00  0.00     0.004 C 
ENDROOT
BRANCH   1   2
ATOM      2  C   UNL     1       0.624  38.141  37.100  1.00  0.00     0.027 C 
BRANCH   2   3
ATOM      3  C   UNL     1       1.642  39.069  36.491  1.00  0.00    -0.025 C 
ATOM      4  C   UNL     1       1.430  40.342  36.120  1.00  0.00     0.020 C 
BRANCH   4   5
ATOM      5  C   UNL     1       0.176  41.108  36.279  1.00  0.00     0.064 C 
ATOM      6  O   UNL     1       0.031  41.832  37.298  1.00  0.00    -0.545 OA
ATOM      7  O   UNL     1      -0.861  41.035  35.357  1.00  0.00    -0.545 OA
ENDBRANCH   4   5
ENDBRANCH   2   3
ENDBRANCH   1   2
BRANCH   1   8
ATOM      8  C   UNL     1      -0.814  36.088  36.638  1.00  0.00     0.000 C 
BRANCH   8   9
ATOM      9  C   UNL     1      -0.793  36.136  38.170  1.00  0.00    -0.000 C 
BRANCH   9  10
ATOM     10  C   UNL     1      -1.476  34.901  38.768  1.00  0.00    -0.003 C 
ATOM     11  C   UNL     1      -0.463  33.796  39.057  1.00  0.00     0.004 C 
ENDBRANCH   9  10
ENDBRANCH   8   9
ENDBRANCH   1   8
TORSDOF 6
ENDMDL
MODEL 3
REMARK VINA RESULT:    -3.747      8.639     10.342
REMARK INTER + INTRA:          -5.385
REMARK INTER:                  -4.495
REMARK INTRA:                  -0.890
REMARK UNBOUND:                -0.324
REMARK SMILES CCCCCCC=CC(=O)[O-]
REMARK SMILES IDX 5 1 6 2 7 3 8 4 9 5 10 6 11 7 4 8 3 9 2 10 1 11
REMARK H PARENT
REMARK Flexibility Score: inf
ROOT
ATOM      1  C   UNL     1       0.408  29.859  34.876  1.00  0.00     0.004 C 
ENDROOT
BRANCH   1   2
ATOM      2  C   UNL     1       0.938  29.898  33.433  1.00  0.00     0.027 C 
BRANCH   2   3
ATOM      3  C   UNL     1       0.537  28.680  32.643  1.00  0.00    -0.025 C 
ATOM      4  C   UNL     1      -0.389  28.637  31.670  1.00  0.00     0.020 C 
BRANCH   4   5
ATOM      5  C   UNL     1      -1.163  29.778  31.141  1.00  0.00     0.064 C 
ATOM      6  O   UNL     1      -2.323  29.984  31.582  1.00  0.00    -0.545 OA
ATOM      7  O   UNL     1      -0.666  30.617  30.151  1.00  0.00    -0.545 OA
ENDBRANCH   4   5
ENDBRANCH   2   3
ENDBRANCH   1   2
BRANCH   1   8
ATOM      8  C   UNL     1      -0.996  30.473  34.991  1.00  0.00     0.000 C 
BRANCH   8   9
ATOM      9  C   UNL     1      -2.060  29.382  35.159  1.00  0.00    -0.000 C 
BRANCH   9  10
ATOM     10  C   UNL     1      -1.459  28.122  35.793  1.00  0.00    -0.003 C 
ATOM     11  C   UNL     1      -1.780  26.881  34.964  1.00  0.00     0.004 C 
ENDBRANCH   9  10
ENDBRANCH   8   9
ENDBRANCH   1   8
TORSDOF 6
ENDMDL
MODEL 4
REMARK VINA RESULT:    -3.684      4.257      7.441
REMARK INTER + INTRA:          -5.301
REMARK INTER:                  -5.072
REMARK INTRA:                  -0.229
REMARK UNBOUND:                -0.324
REMARK SMILES CCCCCCC=CC(=O)[O-]
REMARK SMILES IDX 5 1 6 2 7 3 8 4 9 5 10 6 11 7 4 8 3 9 2 10 1 11
REMARK H PARENT
REMARK Flexibility Score: inf
ROOT
ATOM      1  C   UNL     1      -1.886  31.178  36.555  1.00  0.00     0.004 C 
ENDROOT
BRANCH   1   2
ATOM      2  C   UNL     1      -1.861  32.613  37.108  1.00  0.00     0.027 C 
BRANCH   2   3
ATOM      3  C   UNL     1      -1.143  32.706  38.428  1.00  0.00    -0.025 C 
ATOM      4  C   UNL     1      -0.739  33.837  39.031  1.00  0.00     0.020 C 
BRANCH   4   5
ATOM      5  C   UNL     1      -0.963  35.217  38.553  1.00  0.00     0.064 C 
ATOM      6  O   UNL     1      -1.791  35.944  39.159  1.00  0.00    -0.545 OA
ATOM      7  O   UNL     1      -0.311  35.732  37.439  1.00  0.00    -0.545 OA
ENDBRANCH   4   5
ENDBRANCH   2   3
ENDBRANCH   1   2
BRANCH   1   8
ATOM      8  C   UNL     1      -1.173  31.071  35.198  1.00  0.00     0.000 C 
BRANCH   8   9
ATOM      9  C   UNL     1      -0.130  29.947  35.213  1.00  0.00    -0.000 C 
BRANCH   9  10
ATOM     10  C   UNL     1       0.725  29.974  33.941  1.00  0.00    -0.003 C 
ATOM     11  C   UNL     1       0.186  29.003  32.894  1.00  0.00     0.004 C 
ENDBRANCH   9  10
ENDBRANCH   8   9
ENDBRANCH   1   8
TORSDOF 6
ENDMDL
MODEL 5
REMARK VINA RESULT:    -3.643      3.413      5.772
REMARK INTER + INTRA:          -5.246
REMARK INTER:                  -4.743
REMARK INTRA:                  -0.503
REMARK UNBOUND:                -0.324
REMARK SMILES CCCCCCC=CC(=O)[O-]
REMARK SMILES IDX 5 1 6 2 7 3 8 4 9 5 10 6 11 7 4 8 3 9 2 10 1 11
REMARK H PARENT
REMARK Flexibility Score: inf
ROOT
ATOM      1  C   UNL     1       2.023  39.144  36.746  1.00  0.00     0.004 C 
ENDROOT
BRANCH   1   2
ATOM      2  C   UNL     1       2.079  39.620  35.285  1.00  0.00     0.027 C 
BRANCH   2   3
ATOM      3  C   UNL     1       2.353  41.097  35.173  1.00  0.00    -0.025 C 
ATOM      4  C   UNL     1       1.479  42.085  35.428  1.00  0.00     0.020 C 
BRANCH   4   5
ATOM      5  C   UNL     1       0.094  41.931  35.918  1.00  0.00     0.064 C 
ATOM      6  O   UNL     1      -0.839  41.817  35.081  1.00  0.00    -0.545 OA
ATOM      7  O   UNL     1      -0.220  41.938  37.271  1.00  0.00    -0.545 OA
ENDBRANCH   4   5
ENDBRANCH   2   3
ENDBRANCH   1   2
BRANCH   1   8
ATOM      8  C   UNL     1       0.748  38.341  37.043  1.00  0.00     0.000 C 
BRANCH   8   9
ATOM      9  C   UNL     1       0.095  37.848  35.746  1.00  0.00    -0.000 C 
BRANCH   9  10
ATOM     10  C   UNL     1      -0.921  36.736  36.031  1.00  0.00    -0.003 C 
ATOM     11  C   UNL     1      -0.528  35.935  37.270  1.00  0.00     0.004 C 
ENDBRANCH   9  10
ENDBRANCH   8   9
ENDBRANCH   1   8
TORSDOF 6
ENDMDL
MODEL 6
REMARK VINA RESULT:    -3.629      9.335     10.992
REMARK INTER + INTRA:          -5.226
REMARK INTER:                  -4.670
REMARK INTRA:                  -0.556
REMARK UNBOUND:                -0.324
REMARK SMILES CCCCCCC=CC(=O)[O-]
REMARK SMILES IDX 5 1 6 2 7 3 8 4 9 5 10 6 11 7 4 8 3 9 2 10 1 11
REMARK H PARENT
REMARK Flexibility Score: inf
ROOT
ATOM      1  C   UNL     1      -0.002  29.688  32.664  1.00  0.00     0.004 C 
ENDROOT
BRANCH   1   2
ATOM      2  C   UNL     1       0.042  28.293  32.017  1.00  0.00     0.027 C 
BRANCH   2   3
ATOM      3  C   UNL     1      -1.306  27.621  32.011  1.00  0.00    -0.025 C 
ATOM      4  C   UNL     1      -2.161  27.572  30.977  1.00  0.00     0.020 C 
BRANCH   4   5
ATOM      5  C   UNL     1      -1.937  28.119  29.622  1.00  0.00     0.064 C 
ATOM      6  O   UNL     1      -1.600  27.335  28.698  1.00  0.00    -0.545 OA
ATOM      7  O   UNL     1      -2.058  29.474  29.340  1.00  0.00    -0.545 OA
ENDBRANCH   4   5
ENDBRANCH   2   3
ENDBRANCH   1   2
BRANCH   1   8
ATOM      8  C   UNL     1       1.076  29.856  33.745  1.00  0.00     0.000 C 
BRANCH   8   9
ATOM      9  C   UNL     1       0.443  30.016  35.132  1.00  0.00    -0.000 C 
BRANCH   9  10
ATOM     10  C   UNL     1      -1.060  29.716  35.087  1.00  0.00    -0.003 C 
ATOM     11  C   UNL     1      -1.383  28.411  35.810  1.00  0.00     0.004 C 
ENDBRANCH   9  10
ENDBRANCH   8   9
ENDBRANCH   1   8
TORSDOF 6
ENDMDL
MODEL 7
REMARK VINA RESULT:    -3.598      3.390      6.608
REMARK INTER + INTRA:          -5.184
REMARK INTER:                  -4.938
REMARK INTRA:                  -0.247
REMARK UNBOUND:                -0.324
REMARK SMILES CCCCCCC=CC(=O)[O-]
REMARK SMILES IDX 5 1 6 2 7 3 8 4 9 5 10 6 11 7 4 8 3 9 2 10 1 11
REMARK H PARENT
REMARK Flexibility Score: inf
ROOT
ATOM      1  C   UNL     1      -1.549  33.767  34.661  1.00  0.00     0.004 C 
ENDROOT
BRANCH   1   2
ATOM      2  C   UNL     1      -2.052  34.618  35.839  1.00  0.00     0.027 C 
BRANCH   2   3
ATOM      3  C   UNL     1      -1.067  35.685  36.238  1.00  0.00    -0.025 C 
ATOM      4  C   UNL     1      -0.618  35.921  37.482  1.00  0.00     0.020 C 
BRANCH   4   5
ATOM      5  C   UNL     1      -0.954  35.155  38.700  1.00  0.00     0.064 C 
ATOM      6  O   UNL     1      -0.185  34.230  39.068  1.00  0.00    -0.545 OA
ATOM      7  O   UNL     1      -2.105  35.400  39.437  1.00  0.00    -0.545 OA
ENDBRANCH   4   5
ENDBRANCH   2   3
ENDBRANCH   1   2
BRANCH   1   8
ATOM      8  C   UNL     1      -1.675  32.262  34.942  1.00  0.00     0.000 C 
BRANCH   8   9
ATOM      9  C   UNL     1      -0.886  31.444  33.913  1.00  0.00    -0.000 C 
BRANCH   9  10
ATOM     10  C   UNL     1      -0.122  30.300  34.591  1.00  0.00    -0.003 C 
ATOM     11  C   UNL     1       1.074  29.861  33.751  1.00  0.00     0.004 C 
ENDBRANCH   9  10
ENDBRANCH   8   9
ENDBRANCH   1   8
TORSDOF 6
ENDMDL
MODEL 8
REMARK VINA RESULT:    -3.585      7.092      8.555
REMARK INTER + INTRA:          -5.166
REMARK INTER:                  -4.295
REMARK INTRA:                  -0.871
REMARK UNBOUND:                -0.324
REMARK SMILES CCCCCCC=CC(=O)[O-]
REMARK SMILES IDX 5 1 6 2 7 3 8 4 9 5 10 6 11 7 4 8 3 9 2 10 1 11
REMARK H PARENT
REMARK Flexibility Score: inf
ROOT
ATOM      1  C   UNL     1      -1.972  30.143  35.466  1.00  0.00     0.004 C 
ENDROOT
BRANCH   1   2
ATOM      2  C   UNL     1      -0.769  29.191  35.364  1.00  0.00     0.027 C 
BRANCH   2   3
ATOM      3  C   UNL     1       0.456  29.871  34.811  1.00  0.00    -0.025 C 
ATOM      4  C   UNL     1       0.850  29.868  33.527  1.00  0.00     0.020 C 
BRANCH   4   5
ATOM      5  C   UNL     1       0.141  29.246  32.389  1.00  0.00     0.064 C 
ATOM      6  O   UNL     1      -0.819  29.864  31.859  1.00  0.00    -0.545 OA
ATOM      7  O   UNL     1       0.476  27.989  31.904  1.00  0.00    -0.545 OA
ENDBRANCH   4   5
ENDBRANCH   2   3
ENDBRANCH   1   2
BRANCH   1   8
ATOM      8  C   UNL     1      -1.643  31.404  36.278  1.00  0.00     0.000 C 
BRANCH   8   9
ATOM      9  C   UNL     1      -1.975  32.672  35.483  1.00  0.00    -0.000 C 
BRANCH   9  10
ATOM     10  C   UNL     1      -2.132  32.359  33.991  1.00  0.00    -0.003 C 
ATOM     11  C   UNL     1      -1.110  33.126  33.156  1.00  0.00     0.004 C 
ENDBRANCH   9  10
ENDBRANCH   8   9
ENDBRANCH   1   8
TORSDOF 6
ENDMDL
MODEL 9
REMARK VINA RESULT:    -3.520      7.610     10.013
REMARK INTER + INTRA:          -5.079
REMARK INTER:                  -4.122
REMARK INTRA:                  -0.957
REMARK UNBOUND:                -0.324
REMARK SMILES CCCCCCC=CC(=O)[O-]
REMARK SMILES IDX 5 1 6 2 7 3 8 4 9 5 10 6 11 7 4 8 3 9 2 10 1 11
REMARK H PARENT
REMARK Flexibility Score: inf
ROOT
ATOM      1  C   UNL     1       0.410  28.591  32.630  1.00  0.00     0.004 C 
ENDROOT
BRANCH   1   2
ATOM      2  C   UNL     1       0.876  29.817  33.434  1.00  0.00     0.027 C 
BRANCH   2   3
ATOM      3  C   UNL     1       0.300  29.843  34.825  1.00  0.00    -0.025 C 
ATOM      4  C   UNL     1      -0.774  30.545  35.223  1.00  0.00     0.020 C 
BRANCH   4   5
ATOM      5  C   UNL     1      -1.639  31.389  34.373  1.00  0.00     0.064 C 
ATOM      6  O   UNL     1      -1.293  32.576  34.141  1.00  0.00    -0.545 OA
ATOM      7  O   UNL     1      -2.837  30.927  33.843  1.00  0.00    -0.545 OA
ENDBRANCH   4   5
ENDBRANCH   2   3
ENDBRANCH   1   2
BRANCH   1   8
ATOM      8  C   UNL     1      -0.786  28.918  31.723  1.00  0.00     0.000 C 
BRANCH   8   9
ATOM      9  C   UNL     1      -1.953  27.960  31.988  1.00  0.00    -0.000 C 
BRANCH   9  10
ATOM     10  C   UNL     1      -1.701  27.121  33.246  1.00  0.00    -0.003 C 
ATOM     11  C   UNL     1      -2.721  27.440  34.335  1.00  0.00     0.004 C 
ENDBRANCH   9  10
ENDBRANCH   8   9
ENDBRANCH   1   8
TORSDOF 6
ENDMDL
