MODEL 1
REMARK VINA RESULT:    -3.152      0.000      0.000
REMARK INTER + INTRA:          -7.192
REMARK INTER:                  -5.732
REMARK INTRA:                  -1.460
REMARK UNBOUND:                -1.460
REMARK SMILES CCCCCCCCCCCCCC[C@H](C)C(=O)[O-]
REMARK SMILES IDX 9 1 10 2 11 3 12 4 13 5 14 6 15 7 16 8 17 9 18 10 19 11 8 12
REMARK SMILES IDX 7 13 6 14 5 15 4 16 3 17 2 18 1 19
REMARK H PARENT
REMARK Flexibility Score: inf
ROOT
ATOM      1  C   UNL     1      25.510  40.293  25.070  1.00  0.00     0.000 C 
ENDROOT
BRANCH   1   2
ATOM      2  C   UNL     1      25.239  40.638  26.546  1.00  0.00     0.000 C 
BRANCH   2   3
ATOM      3  C   UNL     1      26.461  41.255  27.245  1.00  0.00     0.000 C 
BRANCH   3   4
ATOM      4  C   UNL     1      26.387  42.791  27.315  1.00  0.00     0.000 C 
BRANCH   4   5
ATOM      5  C   UNL     1      26.834  43.462  26.005  1.00  0.00     0.001 C 
BRANCH   5   6
ATOM      6  C   UNL     1      28.253  43.041  25.580  1.00  0.00     0.009 C 
BRANCH   6   7
ATOM      7  C   UNL     1      29.340  43.539  26.558  1.00  0.00     0.032 C 
ATOM      8  C   UNL     1      30.339  44.490  25.885  1.00  0.00     0.014 C 
BRANCH   7   9
ATOM      9  C   UNL     1      30.078  42.364  27.138  1.00  0.00     0.044 C 
ATOM     10  O   UNL     1      30.698  41.570  26.383  1.00  0.00    -0.550 OA
ATOM     11  O   UNL     1      30.080  42.146  28.511  1.00  0.00    -0.550 OA
ENDBRANCH   7   9
ENDBRANCH   6   7
ENDBRANCH   5   6
ENDBRANCH   4   5
ENDBRANCH   3   4
ENDBRANCH   2   3
ENDBRANCH   1   2
BRANCH   1  12
ATOM     12  C   UNL     1      25.868  38.812  24.864  1.00  0.00     0.000 C 
BRANCH  12  13
ATOM     13  C   UNL     1      27.099  38.384  25.682  1.00  0.00    -0.000 C 
BRANCH  13  14
ATOM     14  C   UNL     1      26.970  36.956  26.238  1.00  0.00    -0.000 C 
BRANCH  14  15
ATOM     15  C   UNL     1      26.710  36.928  27.754  1.00  0.00    -0.000 C 
BRANCH  15  16
ATOM     16  C   UNL     1      25.271  37.364  28.106  1.00  0.00    -0.000 C 
BRANCH  16  17
ATOM     17  C   UNL     1      25.099  37.798  29.575  1.00  0.00    -0.000 C 
BRANCH  17  18
ATOM     18  C   UNL     1      26.413  38.125  30.304  1.00  0.00    -0.003 C 
ATOM     19  C   UNL     1      26.268  38.094  31.827  1.00  0.00     0.004 C 
ENDBRANCH  17  18
ENDBRANCH  16  17
ENDBRANCH  15  16
ENDBRANCH  14  15
ENDBRANCH  13  14
ENDBRANCH  12  13
ENDBRANCH   1  12
TORSDOF 14
ENDMDL
MODEL 2
REMARK VINA RESULT:    -3.037      2.247      6.316
REMARK INTER + INTRA:          -6.982
REMARK INTER:                  -5.749
REMARK INTRA:                  -1.233
REMARK UNBOUND:                -1.460
REMARK SMILES CCCCCCCCCCCCCC[C@H](C)C(=O)[O-]
REMARK SMILES IDX 9 1 10 2 11 3 12 4 13 5 14 6 15 7 16 8 17 9 18 10 19 11 8 12
REMARK SMILES IDX 7 13 6 14 5 15 4 16 3 17 2 18 1 19
REMARK H PARENT
REMARK Flexibility Score: inf
ROOT
ATOM      1  C   UNL     1      25.342  40.027  25.140  1.00  0.00     0.000 C 
ENDROOT
BRANCH   1   2
ATOM      2  C   UNL     1      25.668  38.524  25.185  1.00  0.00     0.000 C 
BRANCH   2   3
ATOM      3  C   UNL     1      27.118  38.244  25.611  1.00  0.00     0.000 C 
BRANCH   3   4
ATOM      4  C   UNL     1      27.206  37.253  26.786  1.00  0.00     0.000 C 
BRANCH   4   5
ATOM      5  C   UNL     1      25.916  37.213  27.622  1.00  0.00     0.001 C 
BRANCH   5   6
ATOM      6  C   UNL     1      26.181  36.887  29.103  1.00  0.00     0.009 C 
BRANCH   6   7
ATOM      7  C   UNL     1      25.719  38.014  30.052  1.00  0.00     0.032 C 
ATOM      8  C   UNL     1      25.854  39.405  29.417  1.00  0.00     0.014 C 
BRANCH   7   9
ATOM      9  C   UNL     1      26.518  37.964  31.325  1.00  0.00     0.044 C 
ATOM     10  O   UNL     1      25.975  38.244  32.426  1.00  0.00    -0.550 OA
ATOM     11  O   UNL     1      27.862  37.610  31.296  1.00  0.00    -0.550 OA
ENDBRANCH   7   9
ENDBRANCH   6   7
ENDBRANCH   5   6
ENDBRANCH   4   5
ENDBRANCH   3   4
ENDBRANCH   2   3
ENDBRANCH   1   2
BRANCH   1  12
ATOM     12  C   UNL     1      25.065  40.615  26.534  1.00  0.00     0.000 C 
BRANCH  12  13
ATOM     13  C   UNL     1      25.634  42.034  26.698  1.00  0.00    -0.000 C 
BRANCH  13  14
ATOM     14  C   UNL     1      26.330  42.543  25.425  1.00  0.00    -0.000 C 
BRANCH  14  15
ATOM     15  C   UNL     1      27.774  43.007  25.679  1.00  0.00    -0.000 C 
BRANCH  15  16
ATOM     16  C   UNL     1      28.312  42.518  27.041  1.00  0.00    -0.000 C 
BRANCH  16  17
ATOM     17  C   UNL     1      29.850  42.505  27.130  1.00  0.00    -0.000 C 
BRANCH  17  18
ATOM     18  C   UNL     1      30.569  42.971  25.853  1.00  0.00    -0.003 C 
ATOM     19  C   UNL     1      30.838  44.477  25.840  1.00  0.00     0.004 C 
ENDBRANCH  17  18
ENDBRANCH  16  17
ENDBRANCH  15  16
ENDBRANCH  14  15
ENDBRANCH  13  14
ENDBRANCH  12  13
ENDBRANCH   1  12
TORSDOF 14
ENDMDL
MODEL 3
REMARK VINA RESULT:    -2.841     15.578     17.796
REMARK INTER + INTRA:          -6.627
REMARK INTER:                  -5.170
REMARK INTRA:                  -1.456
REMARK UNBOUND:                -1.460
REMARK SMILES CCCCCCCCCCCCCC[C@H](C)C(=O)[O-]
REMARK SMILES IDX 9 1 10 2 11 3 12 4 13 5 14 6 15 7 16 8 17 9 18 10 19 11 8 12
REMARK SMILES IDX 7 13 6 14 5 15 4 16 3 17 2 18 1 19
REMARK H PARENT
REMARK Flexibility Score: inf
ROOT
ATOM      1  C   UNL     1      30.377  52.221  38.154  1.00  0.00     0.000 C 
ENDROOT
BRANCH   1   2
ATOM      2  C   UNL     1      30.077  50.833  38.746  1.00  0.00     0.000 C 
BRANCH   2   3
ATOM      3  C   UNL     1      31.142  50.376  39.755  1.00  0.00     0.000 C 
BRANCH   3   4
ATOM      4  C   UNL     1      30.679  50.534  41.215  1.00  0.00     0.000 C 
BRANCH   4   5
ATOM      5  C   UNL     1      31.111  49.354  42.101  1.00  0.00     0.001 C 
BRANCH   5   6
ATOM      6  C   UNL     1      31.319  48.057  41.299  1.00  0.00     0.009 C 
BRANCH   6   7
ATOM      7  C   UNL     1      30.782  46.810  42.034  1.00  0.00     0.032 C 
ATOM      8  C   UNL     1      31.810  45.671  42.078  1.00  0.00     0.014 C 
BRANCH   7   9
ATOM      9  C   UNL     1      29.526  46.326  41.363  1.00  0.00     0.044 C 
ATOM     10  O   UNL     1      29.447  46.303  40.107  1.00  0.00    -0.550 OA
ATOM     11  O   UNL     1      28.443  45.902  42.125  1.00  0.00    -0.550 OA
ENDBRANCH   7   9
ENDBRANCH   6   7
ENDBRANCH   5   6
ENDBRANCH   4   5
ENDBRANCH   3   4
ENDBRANCH   2   3
ENDBRANCH   1   2
BRANCH   1  12
ATOM     12  C   UNL     1      29.243  53.229  38.402  1.00  0.00     0.000 C 
BRANCH  12  13
ATOM     13  C   UNL     1      27.867  52.683  37.984  1.00  0.00    -0.000 C 
BRANCH  13  14
ATOM     14  C   UNL     1      26.913  52.509  39.177  1.00  0.00    -0.000 C 
BRANCH  14  15
ATOM     15  C   UNL     1      27.416  51.473  40.197  1.00  0.00    -0.000 C 
BRANCH  15  16
ATOM     16  C   UNL     1      27.169  51.922  41.654  1.00  0.00    -0.000 C 
BRANCH  16  17
ATOM     17  C   UNL     1      27.431  53.423  41.890  1.00  0.00    -0.000 C 
BRANCH  17  18
ATOM     18  C   UNL     1      28.913  53.797  42.052  1.00  0.00    -0.003 C 
ATOM     19  C   UNL     1      29.196  55.261  41.712  1.00  0.00     0.004 C 
ENDBRANCH  17  18
ENDBRANCH  16  17
ENDBRANCH  15  16
ENDBRANCH  14  15
ENDBRANCH  13  14
ENDBRANCH  12  13
ENDBRANCH   1  12
TORSDOF 14
ENDMDL
MODEL 4
REMARK VINA RESULT:    -2.783      2.708      4.863
REMARK INTER + INTRA:          -6.520
REMARK INTER:                  -4.693
REMARK INTRA:                  -1.827
REMARK UNBOUND:                -1.460
REMARK SMILES CCCCCCCCCCCCCC[C@H](C)C(=O)[O-]
REMARK SMILES IDX 9 1 10 2 11 3 12 4 13 5 14 6 15 7 16 8 17 9 18 10 19 11 8 12
REMARK SMILES IDX 7 13 6 14 5 15 4 16 3 17 2 18 1 19
REMARK H PARENT
REMARK Flexibility Score: inf
ROOT
ATOM      1  C   UNL     1      27.386  42.985  26.421  1.00  0.00     0.000 C 
ENDROOT
BRANCH   1   2
ATOM      2  C   UNL     1      27.412  42.173  25.113  1.00  0.00     0.000 C 
BRANCH   2   3
ATOM      3  C   UNL     1      26.085  42.249  24.341  1.00  0.00     0.000 C 
BRANCH   3   4
ATOM      4  C   UNL     1      25.391  40.880  24.225  1.00  0.00     0.000 C 
BRANCH   4   5
ATOM      5  C   UNL     1      26.208  39.748  24.871  1.00  0.00     0.001 C 
BRANCH   5   6
ATOM      6  C   UNL     1      25.452  38.407  24.884  1.00  0.00     0.009 C 
BRANCH   6   7
ATOM      7  C   UNL     1      26.383  37.197  24.656  1.00  0.00     0.032 C 
ATOM      8  C   UNL     1      27.616  37.228  25.570  1.00  0.00     0.014 C 
BRANCH   7   9
ATOM      9  C   UNL     1      26.826  37.160  23.219  1.00  0.00     0.044 C 
ATOM     10  O   UNL     1      28.051  37.132  22.933  1.00  0.00    -0.550 OA
ATOM     11  O   UNL     1      25.884  37.159  22.195  1.00  0.00    -0.550 OA
ENDBRANCH   7   9
ENDBRANCH   6   7
ENDBRANCH   5   6
ENDBRANCH   4   5
ENDBRANCH   3   4
ENDBRANCH   2   3
ENDBRANCH   1   2
BRANCH   1  12
ATOM     12  C   UNL     1      26.172  42.650  27.303  1.00  0.00     0.000 C 
BRANCH  12  13
ATOM     13  C   UNL     1      26.264  41.244  27.921  1.00  0.00    -0.000 C 
BRANCH  13  14
ATOM     14  C   UNL     1      24.883  40.608  28.150  1.00  0.00    -0.000 C 
BRANCH  14  15
ATOM     15  C   UNL     1      24.932  39.403  29.105  1.00  0.00    -0.000 C 
BRANCH  15  16
ATOM     16  C   UNL     1      25.911  38.313  28.617  1.00  0.00    -0.000 C 
BRANCH  16  17
ATOM     17  C   UNL     1      26.484  37.445  29.754  1.00  0.00    -0.000 C 
BRANCH  17  18
ATOM     18  C   UNL     1      26.989  38.236  30.972  1.00  0.00    -0.003 C 
ATOM     19  C   UNL     1      26.239  37.885  32.258  1.00  0.00     0.004 C 
ENDBRANCH  17  18
ENDBRANCH  16  17
ENDBRANCH  15  16
ENDBRANCH  14  15
ENDBRANCH  13  14
ENDBRANCH  12  13
ENDBRANCH   1  12
TORSDOF 14
ENDMDL
MODEL 5
REMARK VINA RESULT:    -2.755      1.413      2.367
REMARK INTER + INTRA:          -6.470
REMARK INTER:                  -5.398
REMARK INTRA:                  -1.071
REMARK UNBOUND:                -1.460
REMARK SMILES CCCCCCCCCCCCCC[C@H](C)C(=O)[O-]
REMARK SMILES IDX 9 1 10 2 11 3 12 4 13 5 14 6 15 7 16 8 17 9 18 10 19 11 8 12
REMARK SMILES IDX 7 13 6 14 5 15 4 16 3 17 2 18 1 19
REMARK H PARENT
REMARK Flexibility Score: inf
ROOT
ATOM      1  C   UNL     1      25.912  38.984  25.529  1.00  0.00     0.000 C 
ENDROOT
BRANCH   1   2
ATOM      2  C   UNL     1      24.947  40.164  25.738  1.00  0.00     0.000 C 
BRANCH   2   3
ATOM      3  C   UNL     1      25.680  41.496  25.965  1.00  0.00     0.000 C 
BRANCH   3   4
ATOM      4  C   UNL     1      26.487  41.509  27.276  1.00  0.00     0.000 C 
BRANCH   4   5
ATOM      5  C   UNL     1      27.425  42.724  27.378  1.00  0.00     0.001 C 
BRANCH   5   6
ATOM      6  C   UNL     1      28.187  42.994  26.068  1.00  0.00     0.009 C 
BRANCH   6   7
ATOM      7  C   UNL     1      29.719  42.893  26.239  1.00  0.00     0.032 C 
ATOM      8  C   UNL     1      30.116  42.266  27.583  1.00  0.00     0.014 C 
BRANCH   7   9
ATOM      9  C   UNL     1      30.334  44.260  26.122  1.00  0.00     0.044 C 
ATOM     10  O   UNL     1      30.143  45.120  27.021  1.00  0.00    -0.550 OA
ATOM     11  O   UNL     1      31.117  44.585  25.020  1.00  0.00    -0.550 OA
ENDBRANCH   7   9
ENDBRANCH   6   7
ENDBRANCH   5   6
ENDBRANCH   4   5
ENDBRANCH   3   4
ENDBRANCH   2   3
ENDBRANCH   1   2
BRANCH   1  12
ATOM     12  C   UNL     1      25.237  37.620  25.748  1.00  0.00     0.000 C 
BRANCH  12  13
ATOM     13  C   UNL     1      24.877  37.370  27.222  1.00  0.00    -0.000 C 
BRANCH  13  14
ATOM     14  C   UNL     1      25.994  37.806  28.184  1.00  0.00    -0.000 C 
BRANCH  14  15
ATOM     15  C   UNL     1      25.561  37.764  29.660  1.00  0.00    -0.000 C 
BRANCH  15  16
ATOM     16  C   UNL     1      26.616  38.391  30.596  1.00  0.00    -0.000 C 
BRANCH  16  17
ATOM     17  C   UNL     1      26.887  37.561  31.865  1.00  0.00    -0.000 C 
BRANCH  17  18
ATOM     18  C   UNL     1      25.678  37.409  32.802  1.00  0.00    -0.003 C 
ATOM     19  C   UNL     1      25.046  38.751  33.177  1.00  0.00     0.004 C 
ENDBRANCH  17  18
ENDBRANCH  16  17
ENDBRANCH  15  16
ENDBRANCH  14  15
ENDBRANCH  13  14
ENDBRANCH  12  13
ENDBRANCH   1  12
TORSDOF 14
ENDMDL
MODEL 6
REMARK VINA RESULT:    -2.745     16.157     17.904
REMARK INTER + INTRA:          -6.452
REMARK INTER:                  -5.758
REMARK INTRA:                  -0.694
REMARK UNBOUND:                -1.460
REMARK SMILES CCCCCCCCCCCCCC[C@H](C)C(=O)[O-]
REMARK SMILES IDX 9 1 10 2 11 3 12 4 13 5 14 6 15 7 16 8 17 9 18 10 19 11 8 12
REMARK SMILES IDX 7 13 6 14 5 15 4 16 3 17 2 18 1 19
REMARK H PARENT
REMARK Flexibility Score: inf
ROOT
ATOM      1  C   UNL     1      28.551  52.403  38.043  1.00  0.00     0.000 C 
ENDROOT
BRANCH   1   2
ATOM      2  C   UNL     1      27.182  52.222  38.724  1.00  0.00     0.000 C 
BRANCH   2   3
ATOM      3  C   UNL     1      27.283  51.488  40.071  1.00  0.00     0.000 C 
BRANCH   3   4
ATOM      4  C   UNL     1      26.889  52.381  41.260  1.00  0.00     0.000 C 
BRANCH   4   5
ATOM      5  C   UNL     1      28.110  52.886  42.047  1.00  0.00     0.001 C 
BRANCH   5   6
ATOM      6  C   UNL     1      28.169  54.422  42.124  1.00  0.00     0.009 C 
BRANCH   6   7
ATOM      7  C   UNL     1      29.330  55.016  41.297  1.00  0.00     0.032 C 
ATOM      8  C   UNL     1      30.214  55.959  42.124  1.00  0.00     0.014 C 
BRANCH   7   9
ATOM      9  C   UNL     1      28.781  55.756  40.109  1.00  0.00     0.044 C 
ATOM     10  O   UNL     1      28.493  56.978  40.202  1.00  0.00    -0.550 OA
ATOM     11  O   UNL     1      28.586  55.096  38.901  1.00  0.00    -0.550 OA
ENDBRANCH   7   9
ENDBRANCH   6   7
ENDBRANCH   5   6
ENDBRANCH   4   5
ENDBRANCH   3   4
ENDBRANCH   2   3
ENDBRANCH   1   2
BRANCH   1  12
ATOM     12  C   UNL     1      29.727  52.192  39.010  1.00  0.00     0.000 C 
BRANCH  12  13
ATOM     13  C   UNL     1      30.442  50.849  38.785  1.00  0.00    -0.000 C 
BRANCH  13  14
ATOM     14  C   UNL     1      30.549  50.014  40.071  1.00  0.00    -0.000 C 
BRANCH  14  15
ATOM     15  C   UNL     1      29.525  48.867  40.124  1.00  0.00    -0.000 C 
BRANCH  15  16
ATOM     16  C   UNL     1      28.987  48.632  41.552  1.00  0.00    -0.000 C 
BRANCH  16  17
ATOM     17  C   UNL     1      29.324  47.239  42.118  1.00  0.00    -0.000 C 
BRANCH  17  18
ATOM     18  C   UNL     1      29.880  46.245  41.085  1.00  0.00    -0.003 C 
ATOM     19  C   UNL     1      31.409  46.184  41.084  1.00  0.00     0.004 C 
ENDBRANCH  17  18
ENDBRANCH  16  17
ENDBRANCH  15  16
ENDBRANCH  14  15
ENDBRANCH  13  14
ENDBRANCH  12  13
ENDBRANCH   1  12
TORSDOF 14
ENDMDL
MODEL 7
REMARK VINA RESULT:    -2.685     13.460     15.699
REMARK INTER + INTRA:          -6.342
REMARK INTER:                  -5.476
REMARK INTRA:                  -0.866
REMARK UNBOUND:                -1.460
REMARK SMILES CCCCCCCCCCCCCC[C@H](C)C(=O)[O-]
REMARK SMILES IDX 9 1 10 2 11 3 12 4 13 5 14 6 15 7 16 8 17 9 18 10 19 11 8 12
REMARK SMILES IDX 7 13 6 14 5 15 4 16 3 17 2 18 1 19
REMARK H PARENT
REMARK Flexibility Score: inf
ROOT
ATOM      1  C   UNL     1      30.211  46.358  41.557  1.00  0.00     0.000 C 
ENDROOT
BRANCH   1   2
ATOM      2  C   UNL     1      30.478  47.873  41.541  1.00  0.00     0.000 C 
BRANCH   2   3
ATOM      3  C   UNL     1      29.184  48.703  41.563  1.00  0.00     0.000 C 
BRANCH   3   4
ATOM      4  C   UNL     1      28.832  49.285  40.182  1.00  0.00     0.000 C 
BRANCH   4   5
ATOM      5  C   UNL     1      30.010  50.042  39.545  1.00  0.00     0.001 C 
BRANCH   5   6
ATOM      6  C   UNL     1      29.657  51.500  39.199  1.00  0.00     0.009 C 
BRANCH   6   7
ATOM      7  C   UNL     1      28.213  51.874  39.597  1.00  0.00     0.032 C 
ATOM      8  C   UNL     1      27.425  52.483  38.430  1.00  0.00     0.014 C 
BRANCH   7   9
ATOM      9  C   UNL     1      28.239  52.844  40.746  1.00  0.00     0.044 C 
ATOM     10  O   UNL     1      29.284  53.499  40.999  1.00  0.00    -0.550 OA
ATOM     11  O   UNL     1      27.109  53.025  41.537  1.00  0.00    -0.550 OA
ENDBRANCH   7   9
ENDBRANCH   6   7
ENDBRANCH   5   6
ENDBRANCH   4   5
ENDBRANCH   3   4
ENDBRANCH   2   3
ENDBRANCH   1   2
BRANCH   1  12
ATOM     12  C   UNL     1      28.827  46.005  42.125  1.00  0.00     0.000 C 
BRANCH  12  13
ATOM     13  C   UNL     1      28.377  44.585  41.741  1.00  0.00    -0.000 C 
BRANCH  13  14
ATOM     14  C   UNL     1      26.898  44.325  42.068  1.00  0.00    -0.000 C 
BRANCH  14  15
ATOM     15  C   UNL     1      26.554  42.826  42.124  1.00  0.00    -0.000 C 
BRANCH  15  16
ATOM     16  C   UNL     1      26.708  42.142  40.748  1.00  0.00    -0.000 C 
BRANCH  16  17
ATOM     17  C   UNL     1      25.581  42.488  39.756  1.00  0.00    -0.000 C 
BRANCH  17  18
ATOM     18  C   UNL     1      25.322  41.419  38.682  1.00  0.00    -0.003 C 
ATOM     19  C   UNL     1      26.443  40.381  38.596  1.00  0.00     0.004 C 
ENDBRANCH  17  18
ENDBRANCH  16  17
ENDBRANCH  15  16
ENDBRANCH  14  15
ENDBRANCH  13  14
ENDBRANCH  12  13
ENDBRANCH   1  12
TORSDOF 14
ENDMDL
MODEL 8
REMARK VINA RESULT:    -2.457      1.870      3.247
REMARK INTER + INTRA:          -5.928
REMARK INTER:                  -4.989
REMARK INTRA:                  -0.939
REMARK UNBOUND:                -1.460
REMARK SMILES CCCCCCCCCCCCCC[C@H](C)C(=O)[O-]
REMARK SMILES IDX 9 1 10 2 11 3 12 4 13 5 14 6 15 7 16 8 17 9 18 10 19 11 8 12
REMARK SMILES IDX 7 13 6 14 5 15 4 16 3 17 2 18 1 19
REMARK H PARENT
REMARK Flexibility Score: inf
ROOT
ATOM      1  C   UNL     1      25.843  40.148  28.201  1.00  0.00     0.000 C 
ENDROOT
BRANCH   1   2
ATOM      2  C   UNL     1      26.399  39.281  27.057  1.00  0.00     0.000 C 
BRANCH   2   3
ATOM      3  C   UNL     1      26.063  39.846  25.668  1.00  0.00     0.000 C 
BRANCH   3   4
ATOM      4  C   UNL     1      25.613  41.317  25.722  1.00  0.00     0.000 C 
BRANCH   4   5
ATOM      5  C   UNL     1      26.486  42.232  24.848  1.00  0.00     0.001 C 
BRANCH   5   6
ATOM      6  C   UNL     1      27.360  43.187  25.681  1.00  0.00     0.009 C 
BRANCH   6   7
ATOM      7  C   UNL     1      28.416  42.443  26.526  1.00  0.00     0.032 C 
ATOM      8  C   UNL     1      28.086  42.464  28.025  1.00  0.00     0.014 C 
BRANCH   7   9
ATOM      9  C   UNL     1      29.771  43.057  26.302  1.00  0.00     0.044 C 
ATOM     10  O   UNL     1      29.915  44.307  26.347  1.00  0.00    -0.550 OA
ATOM     11  O   UNL     1      30.873  42.250  26.043  1.00  0.00    -0.550 OA
ENDBRANCH   7   9
ENDBRANCH   6   7
ENDBRANCH   5   6
ENDBRANCH   4   5
ENDBRANCH   3   4
ENDBRANCH   2   3
ENDBRANCH   1   2
BRANCH   1  12
ATOM     12  C   UNL     1      24.879  39.375  29.116  1.00  0.00     0.000 C 
BRANCH  12  13
ATOM     13  C   UNL     1      24.875  37.864  28.826  1.00  0.00    -0.000 C 
BRANCH  13  14
ATOM     14  C   UNL     1      25.629  37.056  29.894  1.00  0.00    -0.000 C 
BRANCH  14  15
ATOM     15  C   UNL     1      24.980  37.157  31.286  1.00  0.00    -0.000 C 
BRANCH  15  16
ATOM     16  C   UNL     1      25.919  37.817  32.319  1.00  0.00    -0.000 C 
BRANCH  16  17
ATOM     17  C   UNL     1      25.467  37.618  33.779  1.00  0.00    -0.000 C 
BRANCH  17  18
ATOM     18  C   UNL     1      26.478  36.876  34.668  1.00  0.00    -0.003 C 
ATOM     19  C   UNL     1      26.374  37.271  36.142  1.00  0.00     0.004 C 
ENDBRANCH  17  18
ENDBRANCH  16  17
ENDBRANCH  15  16
ENDBRANCH  14  15
ENDBRANCH  13  14
ENDBRANCH  12  13
ENDBRANCH   1  12
TORSDOF 14
ENDMDL
MODEL 9
REMARK VINA RESULT:    -2.392     12.855     15.210
REMARK INTER + INTRA:          -5.809
REMARK INTER:                  -5.242
REMARK INTRA:                  -0.567
REMARK UNBOUND:                -1.460
REMARK SMILES CCCCCCCCCCCCCC[C@H](C)C(=O)[O-]
REMARK SMILES IDX 9 1 10 2 11 3 12 4 13 5 14 6 15 7 16 8 17 9 18 10 19 11 8 12
REMARK SMILES IDX 7 13 6 14 5 15 4 16 3 17 2 18 1 19
REMARK H PARENT
REMARK Flexibility Score: inf
ROOT
ATOM      1  C   UNL     1      28.640  45.909  42.096  1.00  0.00     0.000 C 
ENDROOT
BRANCH   1   2
ATOM      2  C   UNL     1      29.607  46.372  40.992  1.00  0.00     0.000 C 
BRANCH   2   3
ATOM      3  C   UNL     1      30.815  47.144  41.547  1.00  0.00     0.000 C 
BRANCH   3   4
ATOM      4  C   UNL     1      30.454  48.579  41.971  1.00  0.00     0.000 C 
BRANCH   4   5
ATOM      5  C   UNL     1      30.668  49.598  40.840  1.00  0.00     0.001 C 
BRANCH   5   6
ATOM      6  C   UNL     1      29.351  50.004  40.153  1.00  0.00     0.009 C 
BRANCH   6   7
ATOM      7  C   UNL     1      29.559  51.055  39.041  1.00  0.00     0.032 C 
ATOM      8  C   UNL     1      30.984  51.027  38.471  1.00  0.00     0.014 C 
BRANCH   7   9
ATOM      9  C   UNL     1      29.260  52.428  39.577  1.00  0.00     0.044 C 
ATOM     10  O   UNL     1      29.367  52.664  40.809  1.00  0.00    -0.550 OA
ATOM     11  O   UNL     1      28.863  53.446  38.717  1.00  0.00    -0.550 OA
ENDBRANCH   7   9
ENDBRANCH   6   7
ENDBRANCH   5   6
ENDBRANCH   4   5
ENDBRANCH   3   4
ENDBRANCH   2   3
ENDBRANCH   1   2
BRANCH   1  12
ATOM     12  C   UNL     1      28.325  44.406  42.016  1.00  0.00     0.000 C 
BRANCH  12  13
ATOM     13  C   UNL     1      26.819  44.113  42.125  1.00  0.00    -0.000 C 
BRANCH  13  14
ATOM     14  C   UNL     1      26.468  42.668  41.736  1.00  0.00    -0.000 C 
BRANCH  14  15
ATOM     15  C   UNL     1      25.851  42.561  40.331  1.00  0.00    -0.000 C 
BRANCH  15  16
ATOM     16  C   UNL     1      25.109  41.223  40.120  1.00  0.00    -0.000 C 
BRANCH  16  17
ATOM     17  C   UNL     1      26.048  40.036  39.832  1.00  0.00    -0.000 C 
BRANCH  17  18
ATOM     18  C   UNL     1      27.408  40.426  39.229  1.00  0.00    -0.003 C 
ATOM     19  C   UNL     1      28.257  39.212  38.847  1.00  0.00     0.004 C 
ENDBRANCH  17  18
ENDBRANCH  16  17
ENDBRANCH  15  16
ENDBRANCH  14  15
ENDBRANCH  13  14
ENDBRANCH  12  13
ENDBRANCH   1  12
TORSDOF 14
ENDMDL
