MODEL 1
REMARK VINA RESULT:    -6.635      0.000      0.000
REMARK INTER + INTRA:          -7.899
REMARK INTER:                  -7.604
REMARK INTRA:                  -0.294
REMARK UNBOUND:                -0.294
REMARK SMILES O=C1C[C@H](c2ccc(O)cc2)Oc2cc(O)cc(O)c21
REMARK SMILES IDX 3 1 4 2 12 3 13 4 14 5 15 6 17 7 18 8 20 9 2 10 1 11 5 12
REMARK SMILES IDX 6 13 11 14 7 15 10 16 8 17 9 18 19 20 16 22
REMARK H PARENT 9 19 19 21 16 23
REMARK Flexibility Score: inf
ROOT
ATOM      1  C   UNL     1     -12.885  -8.889 -14.898  1.00  0.00     0.131 C 
ATOM      2  C   UNL     1     -12.552 -10.024 -15.881  1.00  0.00     0.211 C 
ATOM      3  O   UNL     1     -13.688 -10.336 -16.692  1.00  0.00    -0.484 OA
ATOM      4  C   UNL     1     -14.980 -10.421 -16.161  1.00  0.00     0.138 A 
ATOM      5  C   UNL     1     -15.990 -11.031 -16.908  1.00  0.00     0.093 A 
ATOM      6  C   UNL     1     -17.283 -11.146 -16.383  1.00  0.00     0.123 A 
ATOM      7  C   UNL     1     -17.562 -10.643 -15.110  1.00  0.00     0.093 A 
ATOM      8  C   UNL     1     -16.561 -10.013 -14.356  1.00  0.00     0.133 A 
ATOM      9  C   UNL     1     -15.259  -9.893 -14.885  1.00  0.00     0.102 A 
ATOM     10  C   UNL     1     -14.162  -9.195 -14.171  1.00  0.00     0.174 C 
ATOM     11  O   UNL     1     -14.302  -8.808 -12.979  1.00  0.00    -0.294 OA
ENDROOT
BRANCH   2  12
ATOM     12  C   UNL     1     -11.379  -9.648 -16.753  1.00  0.00    -0.007 A 
ATOM     13  C   UNL     1     -11.540  -8.742 -17.817  1.00  0.00     0.011 A 
ATOM     14  C   UNL     1     -10.100 -10.159 -16.477  1.00  0.00     0.011 A 
ATOM     15  C   UNL     1     -10.444  -8.375 -18.603  1.00  0.00     0.046 A 
ATOM     16  C   UNL     1      -9.006  -9.789 -17.265  1.00  0.00     0.046 A 
ATOM     17  C   UNL     1      -9.176  -8.898 -18.332  1.00  0.00     0.115 A 
BRANCH  17  18
ATOM     18  O   UNL     1      -8.094  -8.522 -19.125  1.00  0.00    -0.508 OA
ATOM     19  H   UNL     1      -7.500  -9.212 -19.570  1.00  0.00     0.293 HD
ENDBRANCH  17  18
ENDBRANCH   2  12
BRANCH   8  20
ATOM     20  O   UNL     1     -16.867  -9.502 -13.094  1.00  0.00    -0.507 OA
ATOM     21  H   UNL     1     -16.246  -9.629 -12.304  1.00  0.00     0.293 HD
ENDBRANCH   8  20
BRANCH   6  22
ATOM     22  O   UNL     1     -18.295 -11.761 -17.118  1.00  0.00    -0.508 OA
ATOM     23  H   UNL     1     -18.644 -12.680 -16.873  1.00  0.00     0.293 HD
ENDBRANCH   6  22
TORSDOF 4
ENDMDL
MODEL 2
REMARK VINA RESULT:    -6.598      2.291      6.928
REMARK INTER + INTRA:          -7.857
REMARK INTER:                  -7.564
REMARK INTRA:                  -0.293
REMARK UNBOUND:                -0.294
REMARK SMILES O=C1C[C@H](c2ccc(O)cc2)Oc2cc(O)cc(O)c21
REMARK SMILES IDX 3 1 4 2 12 3 13 4 14 5 15 6 17 7 18 8 20 9 2 10 1 11 5 12
REMARK SMILES IDX 6 13 11 14 7 15 10 16 8 17 9 18 19 20 16 22
REMARK H PARENT 9 19 19 21 16 23
REMARK Flexibility Score: inf
ROOT
ATOM      1  C   UNL     1     -12.130  -9.238 -16.973  1.00  0.00     0.131 C 
ATOM      2  C   UNL     1     -12.956 -10.446 -16.503  1.00  0.00     0.211 C 
ATOM      3  O   UNL     1     -12.128 -11.383 -15.809  1.00  0.00    -0.484 OA
ATOM      4  C   UNL     1     -10.850 -11.726 -16.265  1.00  0.00     0.138 A 
ATOM      5  C   UNL     1     -10.218 -12.859 -15.748  1.00  0.00     0.093 A 
ATOM      6  C   UNL     1      -8.950 -13.231 -16.210  1.00  0.00     0.123 A 
ATOM      7  C   UNL     1      -8.313 -12.461 -17.188  1.00  0.00     0.093 A 
ATOM      8  C   UNL     1      -8.930 -11.311 -17.703  1.00  0.00     0.133 A 
ATOM      9  C   UNL     1     -10.206 -10.933 -17.235  1.00  0.00     0.102 A 
ATOM     10  C   UNL     1     -10.899  -9.704 -17.694  1.00  0.00     0.174 C 
ATOM     11  O   UNL     1     -10.442  -9.016 -18.646  1.00  0.00    -0.294 OA
ENDROOT
BRANCH   2  12
ATOM     12  C   UNL     1     -14.094 -10.003 -15.616  1.00  0.00    -0.007 A 
ATOM     13  C   UNL     1     -14.277  -8.641 -15.316  1.00  0.00     0.011 A 
ATOM     14  C   UNL     1     -15.015 -10.943 -15.124  1.00  0.00     0.011 A 
ATOM     15  C   UNL     1     -15.350  -8.233 -14.517  1.00  0.00     0.046 A 
ATOM     16  C   UNL     1     -16.087 -10.531 -14.327  1.00  0.00     0.046 A 
ATOM     17  C   UNL     1     -16.256  -9.175 -14.020  1.00  0.00     0.115 A 
BRANCH  17  18
ATOM     18  O   UNL     1     -17.320  -8.752 -13.225  1.00  0.00    -0.508 OA
ATOM     19  H   UNL     1     -18.086  -9.374 -12.994  1.00  0.00     0.293 HD
ENDBRANCH  17  18
ENDBRANCH   2  12
BRANCH   8  20
ATOM     20  O   UNL     1      -8.269 -10.548 -18.665  1.00  0.00    -0.507 OA
ATOM     21  H   UNL     1      -8.437  -9.553 -18.764  1.00  0.00     0.293 HD
ENDBRANCH   8  20
BRANCH   6  22
ATOM     22  O   UNL     1      -8.315 -14.365 -15.706  1.00  0.00    -0.508 OA
ATOM     23  H   UNL     1      -8.496 -15.286 -16.086  1.00  0.00     0.293 HD
ENDBRANCH   6  22
TORSDOF 4
ENDMDL
MODEL 3
REMARK VINA RESULT:    -6.587     13.049     15.191
REMARK INTER + INTRA:          -7.844
REMARK INTER:                  -7.537
REMARK INTRA:                  -0.307
REMARK UNBOUND:                -0.294
REMARK SMILES O=C1C[C@H](c2ccc(O)cc2)Oc2cc(O)cc(O)c21
REMARK SMILES IDX 3 1 4 2 12 3 13 4 14 5 15 6 17 7 18 8 20 9 2 10 1 11 5 12
REMARK SMILES IDX 6 13 11 14 7 15 10 16 8 17 9 18 19 20 16 22
REMARK H PARENT 9 19 19 21 16 23
REMARK Flexibility Score: inf
ROOT
ATOM      1  C   UNL     1     -15.649 -20.021  -8.997  1.00  0.00     0.131 C 
ATOM      2  C   UNL     1     -16.218 -20.378  -7.614  1.00  0.00     0.211 C 
ATOM      3  O   UNL     1     -15.313 -19.981  -6.580  1.00  0.00    -0.484 OA
ATOM      4  C   UNL     1     -13.932 -20.185  -6.683  1.00  0.00     0.138 A 
ATOM      5  C   UNL     1     -13.136 -20.079  -5.541  1.00  0.00     0.093 A 
ATOM      6  C   UNL     1     -11.756 -20.302  -5.621  1.00  0.00     0.123 A 
ATOM      7  C   UNL     1     -11.175 -20.626  -6.850  1.00  0.00     0.093 A 
ATOM      8  C   UNL     1     -11.960 -20.718  -8.009  1.00  0.00     0.133 A 
ATOM      9  C   UNL     1     -13.351 -20.489  -7.930  1.00  0.00     0.102 A 
ATOM     10  C   UNL     1     -14.238 -20.518  -9.118  1.00  0.00     0.174 C 
ATOM     11  O   UNL     1     -13.813 -20.903 -10.241  1.00  0.00    -0.294 OA
ENDROOT
BRANCH   2  12
ATOM     12  C   UNL     1     -17.562 -19.725  -7.405  1.00  0.00    -0.007 A 
ATOM     13  C   UNL     1     -18.333 -19.305  -8.504  1.00  0.00     0.011 A 
ATOM     14  C   UNL     1     -18.084 -19.578  -6.108  1.00  0.00     0.011 A 
ATOM     15  C   UNL     1     -19.590 -18.727  -8.306  1.00  0.00     0.046 A 
ATOM     16  C   UNL     1     -19.342 -19.001  -5.914  1.00  0.00     0.046 A 
ATOM     17  C   UNL     1     -20.097 -18.571  -7.012  1.00  0.00     0.115 A 
BRANCH  17  18
ATOM     18  O   UNL     1     -21.352 -17.994  -6.831  1.00  0.00    -0.508 OA
ATOM     19  H   UNL     1     -21.999 -17.880  -7.603  1.00  0.00     0.293 HD
ENDBRANCH  17  18
ENDBRANCH   2  12
BRANCH   8  20
ATOM     20  O   UNL     1     -11.357 -21.024  -9.228  1.00  0.00    -0.507 OA
ATOM     21  H   UNL     1     -11.901 -21.165 -10.071  1.00  0.00     0.293 HD
ENDBRANCH   8  20
BRANCH   6  22
ATOM     22  O   UNL     1     -10.954 -20.208  -4.485  1.00  0.00    -0.508 OA
ATOM     23  H   UNL     1     -11.309 -19.823  -3.617  1.00  0.00     0.293 HD
ENDBRANCH   6  22
TORSDOF 4
ENDMDL
MODEL 4
REMARK VINA RESULT:    -6.541      1.836      6.884
REMARK INTER + INTRA:          -7.791
REMARK INTER:                  -7.506
REMARK INTRA:                  -0.285
REMARK UNBOUND:                -0.294
REMARK SMILES O=C1C[C@H](c2ccc(O)cc2)Oc2cc(O)cc(O)c21
REMARK SMILES IDX 3 1 4 2 12 3 13 4 14 5 15 6 17 7 18 8 20 9 2 10 1 11 5 12
REMARK SMILES IDX 6 13 11 14 7 15 10 16 8 17 9 18 19 20 16 22
REMARK H PARENT 9 19 19 21 16 23
REMARK Flexibility Score: inf
ROOT
ATOM      1  C   UNL     1     -13.670  -8.672 -16.882  1.00  0.00     0.131 C 
ATOM      2  C   UNL     1     -14.105 -10.136 -17.065  1.00  0.00     0.211 C 
ATOM      3  O   UNL     1     -13.117 -11.024 -16.537  1.00  0.00    -0.484 OA
ATOM      4  C   UNL     1     -11.747 -10.820 -16.744  1.00  0.00     0.138 A 
ATOM      5  C   UNL     1     -10.853 -11.862 -16.491  1.00  0.00     0.093 A 
ATOM      6  C   UNL     1      -9.482 -11.684 -16.715  1.00  0.00     0.123 A 
ATOM      7  C   UNL     1      -9.009 -10.456 -17.187  1.00  0.00     0.093 A 
ATOM      8  C   UNL     1      -9.896  -9.396 -17.428  1.00  0.00     0.133 A 
ATOM      9  C   UNL     1     -11.277  -9.573 -17.199  1.00  0.00     0.102 A 
ATOM     10  C   UNL     1     -12.268  -8.485 -17.383  1.00  0.00     0.174 C 
ATOM     11  O   UNL     1     -11.940  -7.385 -17.904  1.00  0.00    -0.294 OA
ENDROOT
BRANCH   2  12
ATOM     12  C   UNL     1     -15.436 -10.385 -16.399  1.00  0.00    -0.007 A 
ATOM     13  C   UNL     1     -15.745  -9.778 -15.168  1.00  0.00     0.011 A 
ATOM     14  C   UNL     1     -16.404 -11.186 -17.029  1.00  0.00     0.011 A 
ATOM     15  C   UNL     1     -16.990  -9.989 -14.570  1.00  0.00     0.046 A 
ATOM     16  C   UNL     1     -17.648 -11.395 -16.428  1.00  0.00     0.046 A 
ATOM     17  C   UNL     1     -17.944 -10.798 -15.195  1.00  0.00     0.115 A 
BRANCH  17  18
ATOM     18  O   UNL     1     -19.180 -10.999 -14.586  1.00  0.00    -0.508 OA
ATOM     19  H   UNL     1     -19.766 -10.220 -14.308  1.00  0.00     0.293 HD
ENDBRANCH  17  18
ENDBRANCH   2  12
BRANCH   8  20
ATOM     20  O   UNL     1      -9.400  -8.174 -17.882  1.00  0.00    -0.507 OA
ATOM     21  H   UNL     1      -9.979  -7.525 -18.403  1.00  0.00     0.293 HD
ENDBRANCH   8  20
BRANCH   6  22
ATOM     22  O   UNL     1      -8.583 -12.721 -16.474  1.00  0.00    -0.508 OA
ATOM     23  H   UNL     1      -7.619 -12.669 -16.784  1.00  0.00     0.293 HD
ENDBRANCH   6  22
TORSDOF 4
ENDMDL
MODEL 5
REMARK VINA RESULT:    -6.423      1.849      2.197
REMARK INTER + INTRA:          -7.656
REMARK INTER:                  -7.360
REMARK INTRA:                  -0.296
REMARK UNBOUND:                -0.294
REMARK SMILES O=C1C[C@H](c2ccc(O)cc2)Oc2cc(O)cc(O)c21
REMARK SMILES IDX 3 1 4 2 12 3 13 4 14 5 15 6 17 7 18 8 20 9 2 10 1 11 5 12
REMARK SMILES IDX 6 13 11 14 7 15 10 16 8 17 9 18 19 20 16 22
REMARK H PARENT 9 19 19 21 16 23
REMARK Flexibility Score: inf
ROOT
ATOM      1  C   UNL     1     -12.220  -8.826 -15.331  1.00  0.00     0.131 C 
ATOM      2  C   UNL     1     -12.055 -10.326 -15.037  1.00  0.00     0.211 C 
ATOM      3  O   UNL     1     -13.262 -11.033 -15.334  1.00  0.00    -0.484 OA
ATOM      4  C   UNL     1     -14.522 -10.532 -14.984  1.00  0.00     0.138 A 
ATOM      5  C   UNL     1     -15.628 -11.384 -15.004  1.00  0.00     0.093 A 
ATOM      6  C   UNL     1     -16.891 -10.907 -14.634  1.00  0.00     0.123 A 
ATOM      7  C   UNL     1     -17.045  -9.571 -14.251  1.00  0.00     0.093 A 
ATOM      8  C   UNL     1     -15.945  -8.700 -14.244  1.00  0.00     0.133 A 
ATOM      9  C   UNL     1     -14.672  -9.179 -14.620  1.00  0.00     0.102 A 
ATOM     10  C   UNL     1     -13.473  -8.309 -14.686  1.00  0.00     0.174 C 
ATOM     11  O   UNL     1     -13.503  -7.123 -14.258  1.00  0.00    -0.294 OA
ENDROOT
BRANCH   2  12
ATOM     12  C   UNL     1     -10.908 -10.903 -15.829  1.00  0.00    -0.007 A 
ATOM     13  C   UNL     1     -10.106 -10.073 -16.635  1.00  0.00     0.011 A 
ATOM     14  C   UNL     1     -10.594 -12.269 -15.728  1.00  0.00     0.011 A 
ATOM     15  C   UNL     1      -9.027 -10.608 -17.344  1.00  0.00     0.046 A 
ATOM     16  C   UNL     1      -9.514 -12.800 -16.439  1.00  0.00     0.046 A 
ATOM     17  C   UNL     1      -8.728 -11.971 -17.250  1.00  0.00     0.115 A 
BRANCH  17  18
ATOM     18  O   UNL     1      -7.649 -12.489 -17.963  1.00  0.00    -0.508 OA
ATOM     19  H   UNL     1      -6.722 -12.088 -17.884  1.00  0.00     0.293 HD
ENDBRANCH  17  18
ENDBRANCH   2  12
BRANCH   8  20
ATOM     20  O   UNL     1     -16.124  -7.367 -13.875  1.00  0.00    -0.507 OA
ATOM     21  H   UNL     1     -15.429  -6.659 -14.085  1.00  0.00     0.293 HD
ENDBRANCH   8  20
BRANCH   6  22
ATOM     22  O   UNL     1     -18.000 -11.751 -14.643  1.00  0.00    -0.508 OA
ATOM     23  H   UNL     1     -18.752 -11.645 -13.973  1.00  0.00     0.293 HD
ENDBRANCH   6  22
TORSDOF 4
ENDMDL
MODEL 6
REMARK VINA RESULT:    -6.396     14.648     15.519
REMARK INTER + INTRA:          -7.626
REMARK INTER:                  -7.337
REMARK INTRA:                  -0.289
REMARK UNBOUND:                -0.294
REMARK SMILES O=C1C[C@H](c2ccc(O)cc2)Oc2cc(O)cc(O)c21
REMARK SMILES IDX 3 1 4 2 12 3 13 4 14 5 15 6 17 7 18 8 20 9 2 10 1 11 5 12
REMARK SMILES IDX 6 13 11 14 7 15 10 16 8 17 9 18 19 20 16 22
REMARK H PARENT 9 19 19 21 16 23
REMARK Flexibility Score: inf
ROOT
ATOM      1  C   UNL     1      -8.003 -19.303  -7.495  1.00  0.00     0.131 C 
ATOM      2  C   UNL     1      -7.729 -19.926  -6.116  1.00  0.00     0.211 C 
ATOM      3  O   UNL     1      -8.849 -20.705  -5.685  1.00  0.00    -0.484 OA
ATOM      4  C   UNL     1     -10.167 -20.264  -5.845  1.00  0.00     0.138 A 
ATOM      5  C   UNL     1     -11.193 -20.894  -5.137  1.00  0.00     0.093 A 
ATOM      6  C   UNL     1     -12.514 -20.450  -5.266  1.00  0.00     0.123 A 
ATOM      7  C   UNL     1     -12.807 -19.378  -6.113  1.00  0.00     0.093 A 
ATOM      8  C   UNL     1     -11.789 -18.747  -6.844  1.00  0.00     0.133 A 
ATOM      9  C   UNL     1     -10.457 -19.196  -6.717  1.00  0.00     0.102 A 
ATOM     10  C   UNL     1      -9.336 -18.614  -7.494  1.00  0.00     0.174 C 
ATOM     11  O   UNL     1      -9.497 -17.580  -8.197  1.00  0.00    -0.294 OA
ENDROOT
BRANCH   2  12
ATOM     12  C   UNL     1      -6.486 -20.781  -6.153  1.00  0.00    -0.007 A 
ATOM     13  C   UNL     1      -5.353 -20.428  -5.397  1.00  0.00     0.011 A 
ATOM     14  C   UNL     1      -6.466 -21.969  -6.902  1.00  0.00     0.011 A 
ATOM     15  C   UNL     1      -4.214 -21.238  -5.411  1.00  0.00     0.046 A 
ATOM     16  C   UNL     1      -5.326 -22.777  -6.914  1.00  0.00     0.046 A 
ATOM     17  C   UNL     1      -4.196 -22.413  -6.170  1.00  0.00     0.115 A 
BRANCH  17  18
ATOM     18  O   UNL     1      -3.053 -23.210  -6.174  1.00  0.00    -0.508 OA
ATOM     19  H   UNL     1      -2.909 -23.924  -6.879  1.00  0.00     0.293 HD
ENDBRANCH  17  18
ENDBRANCH   2  12
BRANCH   8  20
ATOM     20  O   UNL     1     -12.106 -17.690  -7.696  1.00  0.00    -0.507 OA
ATOM     21  H   UNL     1     -11.763 -16.751  -7.531  1.00  0.00     0.293 HD
ENDBRANCH   8  20
BRANCH   6  22
ATOM     22  O   UNL     1     -13.543 -21.067  -4.556  1.00  0.00    -0.508 OA
ATOM     23  H   UNL     1     -14.345 -20.545  -4.224  1.00  0.00     0.293 HD
ENDBRANCH   6  22
TORSDOF 4
ENDMDL
MODEL 7
REMARK VINA RESULT:    -6.279     12.852     14.813
REMARK INTER + INTRA:          -7.492
REMARK INTER:                  -7.199
REMARK INTRA:                  -0.292
REMARK UNBOUND:                -0.294
REMARK SMILES O=C1C[C@H](c2ccc(O)cc2)Oc2cc(O)cc(O)c21
REMARK SMILES IDX 3 1 4 2 12 3 13 4 14 5 15 6 17 7 18 8 20 9 2 10 1 11 5 12
REMARK SMILES IDX 6 13 11 14 7 15 10 16 8 17 9 18 19 20 16 22
REMARK H PARENT 9 19 19 21 16 23
REMARK Flexibility Score: inf
ROOT
ATOM      1  C   UNL     1     -14.610 -20.958  -8.896  1.00  0.00     0.131 C 
ATOM      2  C   UNL     1     -14.969 -20.430  -7.497  1.00  0.00     0.211 C 
ATOM      3  O   UNL     1     -14.125 -19.331  -7.142  1.00  0.00    -0.484 OA
ATOM      4  C   UNL     1     -12.749 -19.339  -7.397  1.00  0.00     0.138 A 
ATOM      5  C   UNL     1     -11.928 -18.407  -6.759  1.00  0.00     0.093 A 
ATOM      6  C   UNL     1     -10.546 -18.414  -6.984  1.00  0.00     0.123 A 
ATOM      7  C   UNL     1      -9.989 -19.354  -7.855  1.00  0.00     0.093 A 
ATOM      8  C   UNL     1     -10.805 -20.285  -8.517  1.00  0.00     0.133 A 
ATOM      9  C   UNL     1     -12.198 -20.276  -8.294  1.00  0.00     0.102 A 
ATOM     10  C   UNL     1     -13.130 -21.193  -8.993  1.00  0.00     0.174 C 
ATOM     11  O   UNL     1     -12.701 -22.136  -9.712  1.00  0.00    -0.294 OA
ENDROOT
BRANCH   2  12
ATOM     12  C   UNL     1     -16.418 -20.010  -7.441  1.00  0.00    -0.007 A 
ATOM     13  C   UNL     1     -17.005 -19.632  -6.220  1.00  0.00     0.011 A 
ATOM     14  C   UNL     1     -17.181 -19.942  -8.619  1.00  0.00     0.011 A 
ATOM     15  C   UNL     1     -18.340 -19.216  -6.178  1.00  0.00     0.046 A 
ATOM     16  C   UNL     1     -18.514 -19.525  -8.573  1.00  0.00     0.046 A 
ATOM     17  C   UNL     1     -19.098 -19.163  -7.352  1.00  0.00     0.115 A 
BRANCH  17  18
ATOM     18  O   UNL     1     -20.426 -18.747  -7.293  1.00  0.00    -0.508 OA
ATOM     19  H   UNL     1     -20.675 -17.765  -7.328  1.00  0.00     0.293 HD
ENDBRANCH  17  18
ENDBRANCH   2  12
BRANCH   8  20
ATOM     20  O   UNL     1     -10.231 -21.202  -9.396  1.00  0.00    -0.507 OA
ATOM     21  H   UNL     1      -9.226 -21.295  -9.488  1.00  0.00     0.293 HD
ENDBRANCH   8  20
BRANCH   6  22
ATOM     22  O   UNL     1      -9.718 -17.494  -6.344  1.00  0.00    -0.508 OA
ATOM     23  H   UNL     1      -8.709 -17.537  -6.434  1.00  0.00     0.293 HD
ENDBRANCH   6  22
TORSDOF 4
ENDMDL
MODEL 8
REMARK VINA RESULT:    -6.235      3.356      5.228
REMARK INTER + INTRA:          -7.441
REMARK INTER:                  -7.140
REMARK INTRA:                  -0.301
REMARK UNBOUND:                -0.294
REMARK SMILES O=C1C[C@H](c2ccc(O)cc2)Oc2cc(O)cc(O)c21
REMARK SMILES IDX 3 1 4 2 12 3 13 4 14 5 15 6 17 7 18 8 20 9 2 10 1 11 5 12
REMARK SMILES IDX 6 13 11 14 7 15 10 16 8 17 9 18 19 20 16 22
REMARK H PARENT 9 19 19 21 16 23
REMARK Flexibility Score: inf
ROOT
ATOM      1  C   UNL     1     -11.897 -11.417 -17.931  1.00  0.00     0.131 C 
ATOM      2  C   UNL     1     -10.963 -11.547 -16.717  1.00  0.00     0.211 C 
ATOM      3  O   UNL     1     -11.605 -11.064 -15.533  1.00  0.00    -0.484 OA
ATOM      4  C   UNL     1     -12.366  -9.889 -15.528  1.00  0.00     0.138 A 
ATOM      5  C   UNL     1     -12.701  -9.295 -14.309  1.00  0.00     0.093 A 
ATOM      6  C   UNL     1     -13.441  -8.106 -14.284  1.00  0.00     0.123 A 
ATOM      7  C   UNL     1     -13.850  -7.518 -15.484  1.00  0.00     0.093 A 
ATOM      8  C   UNL     1     -13.535  -8.114 -16.715  1.00  0.00     0.133 A 
ATOM      9  C   UNL     1     -12.793  -9.314 -16.741  1.00  0.00     0.102 A 
ATOM     10  C   UNL     1     -12.465 -10.029 -17.998  1.00  0.00     0.174 C 
ATOM     11  O   UNL     1     -12.705  -9.514 -19.123  1.00  0.00    -0.294 OA
ENDROOT
BRANCH   2  12
ATOM     12  C   UNL     1     -10.532 -12.980 -16.525  1.00  0.00    -0.007 A 
ATOM     13  C   UNL     1     -10.797 -13.945 -17.514  1.00  0.00     0.011 A 
ATOM     14  C   UNL     1      -9.812 -13.355 -15.377  1.00  0.00     0.011 A 
ATOM     15  C   UNL     1     -10.370 -15.266 -17.344  1.00  0.00     0.046 A 
ATOM     16  C   UNL     1      -9.387 -14.676 -15.212  1.00  0.00     0.046 A 
ATOM     17  C   UNL     1      -9.667 -15.636 -16.194  1.00  0.00     0.115 A 
BRANCH  17  18
ATOM     18  O   UNL     1      -9.248 -16.955 -16.039  1.00  0.00    -0.508 OA
ATOM     19  H   UNL     1      -9.658 -17.707 -16.581  1.00  0.00     0.293 HD
ENDBRANCH  17  18
ENDBRANCH   2  12
BRANCH   8  20
ATOM     20  O   UNL     1     -13.968  -7.519 -17.900  1.00  0.00    -0.507 OA
ATOM     21  H   UNL     1     -14.622  -6.745 -17.898  1.00  0.00     0.293 HD
ENDBRANCH   8  20
BRANCH   6  22
ATOM     22  O   UNL     1     -13.772  -7.502 -13.074  1.00  0.00    -0.508 OA
ATOM     23  H   UNL     1     -14.736  -7.326 -12.816  1.00  0.00     0.293 HD
ENDBRANCH   6  22
TORSDOF 4
ENDMDL
MODEL 9
REMARK VINA RESULT:    -6.219     14.583     16.626
REMARK INTER + INTRA:          -7.423
REMARK INTER:                  -7.109
REMARK INTRA:                  -0.314
REMARK UNBOUND:                -0.294
REMARK SMILES O=C1C[C@H](c2ccc(O)cc2)Oc2cc(O)cc(O)c21
REMARK SMILES IDX 3 1 4 2 12 3 13 4 14 5 15 6 17 7 18 8 20 9 2 10 1 11 5 12
REMARK SMILES IDX 6 13 11 14 7 15 10 16 8 17 9 18 19 20 16 22
REMARK H PARENT 9 19 19 21 16 23
REMARK Flexibility Score: inf
ROOT
ATOM      1  C   UNL     1      -7.619 -18.446  -7.512  1.00  0.00     0.131 C 
ATOM      2  C   UNL     1      -8.155 -19.829  -7.109  1.00  0.00     0.211 C 
ATOM      3  O   UNL     1      -7.373 -20.383  -6.048  1.00  0.00    -0.484 OA
ATOM      4  C   UNL     1      -5.975 -20.303  -6.035  1.00  0.00     0.138 A 
ATOM      5  C   UNL     1      -5.250 -21.119  -5.164  1.00  0.00     0.093 A 
ATOM      6  C   UNL     1      -3.851 -21.070  -5.154  1.00  0.00     0.123 A 
ATOM      7  C   UNL     1      -3.180 -20.195  -6.014  1.00  0.00     0.093 A 
ATOM      8  C   UNL     1      -3.898 -19.357  -6.881  1.00  0.00     0.133 A 
ATOM      9  C   UNL     1      -5.308 -19.404  -6.890  1.00  0.00     0.102 A 
ATOM     10  C   UNL     1      -6.136 -18.514  -7.740  1.00  0.00     0.174 C 
ATOM     11  O   UNL     1      -5.612 -17.775  -8.616  1.00  0.00    -0.294 OA
ENDROOT
BRANCH   2  12
ATOM     12  C   UNL     1      -9.603 -19.740  -6.694  1.00  0.00    -0.007 A 
ATOM     13  C   UNL     1     -10.497 -18.905  -7.389  1.00  0.00     0.011 A 
ATOM     14  C   UNL     1     -10.088 -20.535  -5.641  1.00  0.00     0.011 A 
ATOM     15  C   UNL     1     -11.844 -18.848  -7.018  1.00  0.00     0.046 A 
ATOM     16  C   UNL     1     -11.435 -20.476  -5.274  1.00  0.00     0.046 A 
ATOM     17  C   UNL     1     -12.316 -19.631  -5.960  1.00  0.00     0.115 A 
BRANCH  17  18
ATOM     18  O   UNL     1     -13.661 -19.563  -5.603  1.00  0.00    -0.508 OA
ATOM     19  H   UNL     1     -14.338 -19.080  -6.182  1.00  0.00     0.293 HD
ENDBRANCH  17  18
ENDBRANCH   2  12
BRANCH   8  20
ATOM     20  O   UNL     1      -3.209 -18.480  -7.718  1.00  0.00    -0.507 OA
ATOM     21  H   UNL     1      -2.590 -18.815  -8.447  1.00  0.00     0.293 HD
ENDBRANCH   8  20
BRANCH   6  22
ATOM     22  O   UNL     1      -3.117 -21.886  -4.296  1.00  0.00    -0.508 OA
ATOM     23  H   UNL     1      -3.430 -22.078  -3.351  1.00  0.00     0.293 HD
ENDBRANCH   6  22
TORSDOF 4
ENDMDL
