MODEL 1
REMARK VINA RESULT:    -6.565      0.000      0.000
REMARK INTER + INTRA:          -7.140
REMARK INTER:                  -7.140
REMARK INTRA:                   0.000
REMARK UNBOUND:                 0.000
REMARK SMILES Cc1cc(O)c2c(c1)C(=O)c1cc(O)cc(O)c1C2=O
REMARK SMILES IDX 1 1 2 2 8 3 7 4 6 5 4 6 3 7 19 8 20 9 18 10 11 11 9 12 10 13
REMARK SMILES IDX 12 14 13 15 15 16 16 17 5 18 17 20 14 22
REMARK H PARENT 5 19 17 21 14 23
REMARK Flexibility Score: inf
ROOT
ATOM      1  C   UNL     1      -1.050  -9.002   7.115  1.00  0.00     0.044 C 
ATOM      2  C   UNL     1      -0.808  -7.557   6.795  1.00  0.00    -0.047 A 
ATOM      3  C   UNL     1       0.314  -7.177   6.049  1.00  0.00     0.016 A 
ATOM      4  C   UNL     1       0.531  -5.830   5.715  1.00  0.00     0.038 A 
ATOM      5  C   UNL     1      -0.400  -4.848   6.117  1.00  0.00     0.076 A 
ATOM      6  C   UNL     1      -1.539  -5.237   6.860  1.00  0.00     0.127 A 
ATOM      7  C   UNL     1      -1.736  -6.585   7.186  1.00  0.00     0.050 A 
ATOM      8  C   UNL     1      -0.175  -3.433   5.722  1.00  0.00     0.201 C 
ATOM      9  O   UNL     1      -1.139  -2.621   5.748  1.00  0.00    -0.288 OA
ATOM     10  C   UNL     1       1.148  -3.005   5.188  1.00  0.00     0.076 A 
ATOM     11  C   UNL     1       2.042  -4.001   4.731  1.00  0.00     0.041 A 
ATOM     12  C   UNL     1       1.727  -5.436   4.938  1.00  0.00     0.194 C 
ATOM     13  O   UNL     1       2.492  -6.323   4.467  1.00  0.00    -0.289 OA
ATOM     14  C   UNL     1       3.236  -3.630   4.087  1.00  0.00     0.059 A 
ATOM     15  C   UNL     1       3.556  -2.283   3.909  1.00  0.00     0.120 A 
ATOM     16  C   UNL     1       2.703  -1.297   4.400  1.00  0.00     0.093 A 
ATOM     17  C   UNL     1       1.522  -1.638   5.068  1.00  0.00     0.131 A 
ENDROOT
BRANCH   6  18
ATOM     18  O   UNL     1      -2.470  -4.289   7.283  1.00  0.00    -0.507 OA
ATOM     19  H   UNL     1      -2.845  -4.292   8.225  1.00  0.00     0.293 HD
ENDBRANCH   6  18
BRANCH  17  20
ATOM     20  O   UNL     1       0.779  -0.593   5.622  1.00  0.00    -0.507 OA
ATOM     21  H   UNL     1       0.539  -0.534   6.601  1.00  0.00     0.293 HD
ENDBRANCH  17  20
BRANCH  15  22
ATOM     22  O   UNL     1       4.731  -1.912   3.258  1.00  0.00    -0.508 OA
ATOM     23  H   UNL     1       5.117  -0.979   3.353  1.00  0.00     0.293 HD
ENDBRANCH  15  22
TORSDOF 3
ENDMDL
MODEL 2
REMARK VINA RESULT:    -6.363      1.656      5.744
REMARK INTER + INTRA:          -6.920
REMARK INTER:                  -6.920
REMARK INTRA:                   0.000
REMARK UNBOUND:                 0.000
REMARK SMILES Cc1cc(O)c2c(c1)C(=O)c1cc(O)cc(O)c1C2=O
REMARK SMILES IDX 1 1 2 2 8 3 7 4 6 5 4 6 3 7 19 8 20 9 18 10 11 11 9 12 10 13
REMARK SMILES IDX 12 14 13 15 15 16 16 17 5 18 17 20 14 22
REMARK H PARENT 5 19 17 21 14 23
REMARK Flexibility Score: inf
ROOT
ATOM      1  C   UNL     1       3.254   1.876   2.938  1.00  0.00     0.044 C 
ATOM      2  C   UNL     1       2.380   0.868   3.624  1.00  0.00    -0.047 A 
ATOM      3  C   UNL     1       2.799  -0.462   3.746  1.00  0.00     0.016 A 
ATOM      4  C   UNL     1       2.004  -1.406   4.418  1.00  0.00     0.038 A 
ATOM      5  C   UNL     1       0.779  -1.007   4.995  1.00  0.00     0.076 A 
ATOM      6  C   UNL     1       0.365   0.340   4.881  1.00  0.00     0.127 A 
ATOM      7  C   UNL     1       1.170   1.265   4.205  1.00  0.00     0.050 A 
ATOM      8  C   UNL     1      -0.032  -2.010   5.735  1.00  0.00     0.201 C 
ATOM      9  O   UNL     1      -0.915  -1.618   6.545  1.00  0.00    -0.288 OA
ATOM     10  C   UNL     1       0.275  -3.462   5.610  1.00  0.00     0.076 A 
ATOM     11  C   UNL     1       1.535  -3.840   5.088  1.00  0.00     0.041 A 
ATOM     12  C   UNL     1       2.447  -2.813   4.529  1.00  0.00     0.194 C 
ATOM     13  O   UNL     1       3.598  -3.144   4.129  1.00  0.00    -0.289 OA
ATOM     14  C   UNL     1       1.917  -5.193   5.092  1.00  0.00     0.059 A 
ATOM     15  C   UNL     1       1.057  -6.172   5.591  1.00  0.00     0.120 A 
ATOM     16  C   UNL     1      -0.203  -5.812   6.063  1.00  0.00     0.093 A 
ATOM     17  C   UNL     1      -0.620  -4.477   6.047  1.00  0.00     0.131 A 
ENDROOT
BRANCH   6  18
ATOM     18  O   UNL     1      -0.846   0.761   5.429  1.00  0.00    -0.507 OA
ATOM     19  H   UNL     1      -0.885   1.333   6.264  1.00  0.00     0.293 HD
ENDBRANCH   6  18
BRANCH  17  20
ATOM     20  O   UNL     1      -1.936  -4.216   6.436  1.00  0.00    -0.507 OA
ATOM     21  H   UNL     1      -2.571  -3.632   5.910  1.00  0.00     0.293 HD
ENDBRANCH  17  20
BRANCH  15  22
ATOM     22  O   UNL     1       1.440  -7.512   5.611  1.00  0.00    -0.508 OA
ATOM     23  H   UNL     1       0.782  -8.248   5.841  1.00  0.00     0.293 HD
ENDBRANCH  15  22
TORSDOF 3
ENDMDL
MODEL 3
REMARK VINA RESULT:    -6.360      1.183      3.420
REMARK INTER + INTRA:          -6.917
REMARK INTER:                  -6.917
REMARK INTRA:                   0.000
REMARK UNBOUND:                 0.000
REMARK SMILES Cc1cc(O)c2c(c1)C(=O)c1cc(O)cc(O)c1C2=O
REMARK SMILES IDX 1 1 2 2 8 3 7 4 6 5 4 6 3 7 19 8 20 9 18 10 11 11 9 12 10 13
REMARK SMILES IDX 12 14 13 15 15 16 16 17 5 18 17 20 14 22
REMARK H PARENT 5 19 17 21 14 23
REMARK Flexibility Score: inf
ROOT
ATOM      1  C   UNL     1      -1.683  -7.693   7.069  1.00  0.00     0.044 C 
ATOM      2  C   UNL     1      -0.722  -6.732   6.435  1.00  0.00    -0.047 A 
ATOM      3  C   UNL     1      -0.901  -5.352   6.587  1.00  0.00     0.016 A 
ATOM      4  C   UNL     1       0.013  -4.444   6.027  1.00  0.00     0.038 A 
ATOM      5  C   UNL     1       1.135  -4.924   5.319  1.00  0.00     0.076 A 
ATOM      6  C   UNL     1       1.319  -6.319   5.177  1.00  0.00     0.127 A 
ATOM      7  C   UNL     1       0.396  -7.208   5.741  1.00  0.00     0.050 A 
ATOM      8  C   UNL     1       2.113  -3.950   4.765  1.00  0.00     0.201 C 
ATOM      9  O   UNL     1       3.271  -4.340   4.459  1.00  0.00    -0.288 OA
ATOM     10  C   UNL     1       1.765  -2.504   4.682  1.00  0.00     0.076 A 
ATOM     11  C   UNL     1       0.675  -2.030   5.450  1.00  0.00     0.041 A 
ATOM     12  C   UNL     1      -0.193  -2.986   6.181  1.00  0.00     0.194 C 
ATOM     13  O   UNL     1      -1.121  -2.556   6.920  1.00  0.00    -0.289 OA
ATOM     14  C   UNL     1       0.409  -0.651   5.511  1.00  0.00     0.059 A 
ATOM     15  C   UNL     1       1.202   0.257   4.808  1.00  0.00     0.120 A 
ATOM     16  C   UNL     1       2.247  -0.207   4.012  1.00  0.00     0.093 A 
ATOM     17  C   UNL     1       2.517  -1.576   3.911  1.00  0.00     0.131 A 
ENDROOT
BRANCH   6  18
ATOM     18  O   UNL     1       2.411  -6.824   4.472  1.00  0.00    -0.507 OA
ATOM     19  H   UNL     1       3.247  -7.149   4.943  1.00  0.00     0.293 HD
ENDBRANCH   6  18
BRANCH  17  20
ATOM     20  O   UNL     1       3.512  -1.964   3.010  1.00  0.00    -0.507 OA
ATOM     21  H   UNL     1       4.169  -2.710   3.187  1.00  0.00     0.293 HD
ENDBRANCH  17  20
BRANCH  15  22
ATOM     22  O   UNL     1       0.950   1.626   4.880  1.00  0.00    -0.508 OA
ATOM     23  H   UNL     1       0.643   2.151   4.070  1.00  0.00     0.293 HD
ENDBRANCH  15  22
TORSDOF 3
ENDMDL
MODEL 4
REMARK VINA RESULT:    -6.354      1.564      5.559
REMARK INTER + INTRA:          -6.911
REMARK INTER:                  -6.911
REMARK INTRA:                   0.000
REMARK UNBOUND:                 0.000
REMARK SMILES Cc1cc(O)c2c(c1)C(=O)c1cc(O)cc(O)c1C2=O
REMARK SMILES IDX 1 1 2 2 8 3 7 4 6 5 4 6 3 7 19 8 20 9 18 10 11 11 9 12 10 13
REMARK SMILES IDX 12 14 13 15 15 16 16 17 5 18 17 20 14 22
REMARK H PARENT 5 19 17 21 14 23
REMARK Flexibility Score: inf
ROOT
ATOM      1  C   UNL     1       3.995  -2.058   3.375  1.00  0.00     0.044 C 
ATOM      2  C   UNL     1       2.875  -2.593   4.218  1.00  0.00    -0.047 A 
ATOM      3  C   UNL     1       2.632  -3.970   4.276  1.00  0.00     0.016 A 
ATOM      4  C   UNL     1       1.608  -4.484   5.089  1.00  0.00     0.038 A 
ATOM      5  C   UNL     1       0.827  -3.608   5.872  1.00  0.00     0.076 A 
ATOM      6  C   UNL     1       1.084  -2.218   5.821  1.00  0.00     0.127 A 
ATOM      7  C   UNL     1       2.108  -1.725   5.002  1.00  0.00     0.050 A 
ATOM      8  C   UNL     1      -0.226  -4.172   6.756  1.00  0.00     0.201 C 
ATOM      9  O   UNL     1      -0.676  -3.477   7.707  1.00  0.00    -0.288 OA
ATOM     10  C   UNL     1      -0.664  -5.586   6.592  1.00  0.00     0.076 A 
ATOM     11  C   UNL     1       0.165  -6.466   5.857  1.00  0.00     0.041 A 
ATOM     12  C   UNL     1       1.349  -5.941   5.132  1.00  0.00     0.194 C 
ATOM     13  O   UNL     1       2.125  -6.737   4.535  1.00  0.00    -0.289 OA
ATOM     14  C   UNL     1      -0.139  -7.837   5.805  1.00  0.00     0.059 A 
ATOM     15  C   UNL     1      -1.264  -8.340   6.460  1.00  0.00     0.120 A 
ATOM     16  C   UNL     1      -2.111  -7.472   7.147  1.00  0.00     0.093 A 
ATOM     17  C   UNL     1      -1.847  -6.099   7.192  1.00  0.00     0.131 A 
ENDROOT
BRANCH   6  18
ATOM     18  O   UNL     1       0.321  -1.326   6.573  1.00  0.00    -0.507 OA
ATOM     19  H   UNL     1      -0.662  -1.488   6.759  1.00  0.00     0.293 HD
ENDBRANCH   6  18
BRANCH  17  20
ATOM     20  O   UNL     1      -2.802  -5.287   7.809  1.00  0.00    -0.507 OA
ATOM     21  H   UNL     1      -3.482  -5.626   8.473  1.00  0.00     0.293 HD
ENDBRANCH  17  20
BRANCH  15  22
ATOM     22  O   UNL     1      -1.560  -9.701   6.424  1.00  0.00    -0.508 OA
ATOM     23  H   UNL     1      -2.502 -10.034   6.254  1.00  0.00     0.293 HD
ENDBRANCH  15  22
TORSDOF 3
ENDMDL
MODEL 5
REMARK VINA RESULT:    -6.245      1.772      2.417
REMARK INTER + INTRA:          -6.792
REMARK INTER:                  -6.792
REMARK INTRA:                   0.000
REMARK UNBOUND:                 0.000
REMARK SMILES Cc1cc(O)c2c(c1)C(=O)c1cc(O)cc(O)c1C2=O
REMARK SMILES IDX 1 1 2 2 8 3 7 4 6 5 4 6 3 7 19 8 20 9 18 10 11 11 9 12 10 13
REMARK SMILES IDX 12 14 13 15 15 16 16 17 5 18 17 20 14 22
REMARK H PARENT 5 19 17 21 14 23
REMARK Flexibility Score: inf
ROOT
ATOM      1  C   UNL     1       1.118  -7.139   7.349  1.00  0.00     0.044 C 
ATOM      2  C   UNL     1       0.676  -5.799   6.841  1.00  0.00    -0.047 A 
ATOM      3  C   UNL     1       1.549  -5.006   6.086  1.00  0.00     0.016 A 
ATOM      4  C   UNL     1       1.133  -3.765   5.576  1.00  0.00     0.038 A 
ATOM      5  C   UNL     1      -0.185  -3.318   5.808  1.00  0.00     0.076 A 
ATOM      6  C   UNL     1      -1.069  -4.126   6.560  1.00  0.00     0.127 A 
ATOM      7  C   UNL     1      -0.634  -5.360   7.062  1.00  0.00     0.050 A 
ATOM      8  C   UNL     1      -0.621  -2.020   5.229  1.00  0.00     0.201 C 
ATOM      9  O   UNL     1      -1.852  -1.775   5.111  1.00  0.00    -0.288 OA
ATOM     10  C   UNL     1       0.386  -1.066   4.685  1.00  0.00     0.076 A 
ATOM     11  C   UNL     1       1.684  -1.550   4.399  1.00  0.00     0.041 A 
ATOM     12  C   UNL     1       2.068  -2.928   4.792  1.00  0.00     0.194 C 
ATOM     13  O   UNL     1       3.203  -3.380   4.474  1.00  0.00    -0.289 OA
ATOM     14  C   UNL     1       2.615  -0.719   3.751  1.00  0.00     0.059 A 
ATOM     15  C   UNL     1       2.274   0.588   3.399  1.00  0.00     0.120 A 
ATOM     16  C   UNL     1       1.014   1.086   3.720  1.00  0.00     0.093 A 
ATOM     17  C   UNL     1       0.078   0.290   4.389  1.00  0.00     0.131 A 
ENDROOT
BRANCH   6  18
ATOM     18  O   UNL     1      -2.373  -3.706   6.817  1.00  0.00    -0.507 OA
ATOM     19  H   UNL     1      -3.167  -4.090   6.317  1.00  0.00     0.293 HD
ENDBRANCH   6  18
BRANCH  17  20
ATOM     20  O   UNL     1      -1.121   0.899   4.769  1.00  0.00    -0.507 OA
ATOM     21  H   UNL     1      -1.229   1.450   5.608  1.00  0.00     0.293 HD
ENDBRANCH  17  20
BRANCH  15  22
ATOM     22  O   UNL     1       3.189   1.408   2.742  1.00  0.00    -0.508 OA
ATOM     23  H   UNL     1       4.188   1.257   2.819  1.00  0.00     0.293 HD
ENDBRANCH  15  22
TORSDOF 3
ENDMDL
MODEL 6
REMARK VINA RESULT:    -6.143      1.769      6.249
REMARK INTER + INTRA:          -6.681
REMARK INTER:                  -6.681
REMARK INTRA:                   0.000
REMARK UNBOUND:                 0.000
REMARK SMILES Cc1cc(O)c2c(c1)C(=O)c1cc(O)cc(O)c1C2=O
REMARK SMILES IDX 1 1 2 2 8 3 7 4 6 5 4 6 3 7 19 8 20 9 18 10 11 11 9 12 10 13
REMARK SMILES IDX 12 14 13 15 15 16 16 17 5 18 17 20 14 22
REMARK H PARENT 5 19 17 21 14 23
REMARK Flexibility Score: inf
ROOT
ATOM      1  C   UNL     1       3.471  -2.025   3.812  1.00  0.00     0.044 C 
ATOM      2  C   UNL     1       2.613  -3.111   4.390  1.00  0.00    -0.047 A 
ATOM      3  C   UNL     1       1.452  -2.789   5.103  1.00  0.00     0.016 A 
ATOM      4  C   UNL     1       0.623  -3.799   5.619  1.00  0.00     0.038 A 
ATOM      5  C   UNL     1       0.949  -5.154   5.400  1.00  0.00     0.076 A 
ATOM      6  C   UNL     1       2.115  -5.476   4.668  1.00  0.00     0.127 A 
ATOM      7  C   UNL     1       2.931  -4.455   4.164  1.00  0.00     0.050 A 
ATOM      8  C   UNL     1       0.041  -6.210   5.919  1.00  0.00     0.201 C 
ATOM      9  O   UNL     1       0.107  -7.375   5.442  1.00  0.00    -0.288 OA
ATOM     10  C   UNL     1      -1.017  -5.867   6.911  1.00  0.00     0.076 A 
ATOM     11  C   UNL     1      -1.375  -4.508   7.069  1.00  0.00     0.041 A 
ATOM     12  C   UNL     1      -0.595  -3.448   6.385  1.00  0.00     0.194 C 
ATOM     13  O   UNL     1      -0.958  -2.243   6.471  1.00  0.00    -0.289 OA
ATOM     14  C   UNL     1      -2.466  -4.161   7.885  1.00  0.00     0.059 A 
ATOM     15  C   UNL     1      -3.192  -5.146   8.555  1.00  0.00     0.120 A 
ATOM     16  C   UNL     1      -2.816  -6.482   8.441  1.00  0.00     0.093 A 
ATOM     17  C   UNL     1      -1.718  -6.854   7.658  1.00  0.00     0.131 A 
ENDROOT
BRANCH   6  18
ATOM     18  O   UNL     1       2.472  -6.806   4.447  1.00  0.00    -0.507 OA
ATOM     19  H   UNL     1       3.004  -7.088   3.631  1.00  0.00     0.293 HD
ENDBRANCH   6  18
BRANCH  17  20
ATOM     20  O   UNL     1      -1.343  -8.199   7.684  1.00  0.00    -0.507 OA
ATOM     21  H   UNL     1      -1.337  -8.764   8.521  1.00  0.00     0.293 HD
ENDBRANCH  17  20
BRANCH  15  22
ATOM     22  O   UNL     1      -4.284  -4.806   9.352  1.00  0.00    -0.508 OA
ATOM     23  H   UNL     1      -4.974  -4.130   9.045  1.00  0.00     0.293 HD
ENDBRANCH  15  22
TORSDOF 3
ENDMDL
MODEL 7
REMARK VINA RESULT:    -6.091      1.469      6.414
REMARK INTER + INTRA:          -6.625
REMARK INTER:                  -6.625
REMARK INTRA:                   0.000
REMARK UNBOUND:                 0.000
REMARK SMILES Cc1cc(O)c2c(c1)C(=O)c1cc(O)cc(O)c1C2=O
REMARK SMILES IDX 1 1 2 2 8 3 7 4 6 5 4 6 3 7 19 8 20 9 18 10 11 11 9 12 10 13
REMARK SMILES IDX 12 14 13 15 15 16 16 17 5 18 17 20 14 22
REMARK H PARENT 5 19 17 21 14 23
REMARK Flexibility Score: inf
ROOT
ATOM      1  C   UNL     1       1.781   1.837   3.462  1.00  0.00     0.044 C 
ATOM      2  C   UNL     1       1.839   0.402   3.894  1.00  0.00    -0.047 A 
ATOM      3  C   UNL     1       0.692  -0.236   4.380  1.00  0.00     0.016 A 
ATOM      4  C   UNL     1       0.727  -1.589   4.755  1.00  0.00     0.038 A 
ATOM      5  C   UNL     1       1.925  -2.323   4.622  1.00  0.00     0.076 A 
ATOM      6  C   UNL     1       3.079  -1.679   4.119  1.00  0.00     0.127 A 
ATOM      7  C   UNL     1       3.025  -0.328   3.753  1.00  0.00     0.050 A 
ATOM      8  C   UNL     1       1.935  -3.764   4.987  1.00  0.00     0.201 C 
ATOM      9  O   UNL     1       2.854  -4.508   4.550  1.00  0.00    -0.288 OA
ATOM     10  C   UNL     1       0.807  -4.348   5.764  1.00  0.00     0.076 A 
ATOM     11  C   UNL     1      -0.408  -3.626   5.832  1.00  0.00     0.041 A 
ATOM     12  C   UNL     1      -0.488  -2.251   5.282  1.00  0.00     0.194 C 
ATOM     13  O   UNL     1      -1.590  -1.636   5.281  1.00  0.00    -0.289 OA
ATOM     14  C   UNL     1      -1.537  -4.210   6.431  1.00  0.00     0.059 A 
ATOM     15  C   UNL     1      -1.468  -5.493   6.976  1.00  0.00     0.120 A 
ATOM     16  C   UNL     1      -0.263  -6.191   6.955  1.00  0.00     0.093 A 
ATOM     17  C   UNL     1       0.884  -5.623   6.390  1.00  0.00     0.131 A 
ENDROOT
BRANCH   6  18
ATOM     18  O   UNL     1       4.282  -2.373   3.988  1.00  0.00    -0.507 OA
ATOM     19  H   UNL     1       4.559  -3.090   4.649  1.00  0.00     0.293 HD
ENDBRANCH   6  18
BRANCH  17  20
ATOM     20  O   UNL     1       2.075  -6.344   6.506  1.00  0.00    -0.507 OA
ATOM     21  H   UNL     1       2.229  -7.065   7.196  1.00  0.00     0.293 HD
ENDBRANCH  17  20
BRANCH  15  22
ATOM     22  O   UNL     1      -2.591  -6.081   7.556  1.00  0.00    -0.508 OA
ATOM     23  H   UNL     1      -2.510  -6.873   8.183  1.00  0.00     0.293 HD
ENDBRANCH  15  22
TORSDOF 3
ENDMDL
MODEL 8
REMARK VINA RESULT:    -5.888      1.755      3.632
REMARK INTER + INTRA:          -6.404
REMARK INTER:                  -6.404
REMARK INTRA:                   0.000
REMARK UNBOUND:                 0.000
REMARK SMILES Cc1cc(O)c2c(c1)C(=O)c1cc(O)cc(O)c1C2=O
REMARK SMILES IDX 1 1 2 2 8 3 7 4 6 5 4 6 3 7 19 8 20 9 18 10 11 11 9 12 10 13
REMARK SMILES IDX 12 14 13 15 15 16 16 17 5 18 17 20 14 22
REMARK H PARENT 5 19 17 21 14 23
REMARK Flexibility Score: inf
ROOT
ATOM      1  C   UNL     1      -4.528  -4.539   9.195  1.00  0.00     0.044 C 
ATOM      2  C   UNL     1      -3.282  -4.927   8.455  1.00  0.00    -0.047 A 
ATOM      3  C   UNL     1      -2.459  -3.944   7.893  1.00  0.00     0.016 A 
ATOM      4  C   UNL     1      -1.272  -4.295   7.229  1.00  0.00     0.038 A 
ATOM      5  C   UNL     1      -0.891  -5.651   7.143  1.00  0.00     0.076 A 
ATOM      6  C   UNL     1      -1.718  -6.641   7.723  1.00  0.00     0.127 A 
ATOM      7  C   UNL     1      -2.899  -6.271   8.379  1.00  0.00     0.050 A 
ATOM      8  C   UNL     1       0.387  -6.002   6.470  1.00  0.00     0.201 C 
ATOM      9  O   UNL     1       0.917  -7.124   6.691  1.00  0.00    -0.288 OA
ATOM     10  C   UNL     1       1.096  -4.993   5.634  1.00  0.00     0.076 A 
ATOM     11  C   UNL     1       0.743  -3.631   5.782  1.00  0.00     0.041 A 
ATOM     12  C   UNL     1      -0.416  -3.249   6.624  1.00  0.00     0.194 C 
ATOM     13  O   UNL     1      -0.686  -2.031   6.810  1.00  0.00    -0.289 OA
ATOM     14  C   UNL     1       1.488  -2.638   5.121  1.00  0.00     0.059 A 
ATOM     15  C   UNL     1       2.565  -2.986   4.304  1.00  0.00     0.120 A 
ATOM     16  C   UNL     1       2.888  -4.328   4.117  1.00  0.00     0.093 A 
ATOM     17  C   UNL     1       2.148  -5.337   4.741  1.00  0.00     0.131 A 
ENDROOT
BRANCH   6  18
ATOM     18  O   UNL     1      -1.375  -7.990   7.643  1.00  0.00    -0.507 OA
ATOM     19  H   UNL     1      -1.098  -8.420   6.768  1.00  0.00     0.293 HD
ENDBRANCH   6  18
BRANCH  17  20
ATOM     20  O   UNL     1       2.469  -6.657   4.415  1.00  0.00    -0.507 OA
ATOM     21  H   UNL     1       1.793  -7.336   4.096  1.00  0.00     0.293 HD
ENDBRANCH  17  20
BRANCH  15  22
ATOM     22  O   UNL     1       3.315  -2.003   3.660  1.00  0.00    -0.508 OA
ATOM     23  H   UNL     1       2.927  -1.090   3.455  1.00  0.00     0.293 HD
ENDBRANCH  15  22
TORSDOF 3
ENDMDL
MODEL 9
REMARK VINA RESULT:    -5.830      2.754      5.346
REMARK INTER + INTRA:          -6.341
REMARK INTER:                  -6.341
REMARK INTRA:                   0.000
REMARK UNBOUND:                 0.000
REMARK SMILES Cc1cc(O)c2c(c1)C(=O)c1cc(O)cc(O)c1C2=O
REMARK SMILES IDX 1 1 2 2 8 3 7 4 6 5 4 6 3 7 19 8 20 9 18 10 11 11 9 12 10 13
REMARK SMILES IDX 12 14 13 15 15 16 16 17 5 18 17 20 14 22
REMARK H PARENT 5 19 17 21 14 23
REMARK Flexibility Score: inf
ROOT
ATOM      1  C   UNL     1       1.732  -5.998   5.716  1.00  0.00     0.044 C 
ATOM      2  C   UNL     1       1.720  -4.580   5.229  1.00  0.00    -0.047 A 
ATOM      3  C   UNL     1       0.686  -3.714   5.603  1.00  0.00     0.016 A 
ATOM      4  C   UNL     1       0.683  -2.374   5.181  1.00  0.00     0.038 A 
ATOM      5  C   UNL     1       1.743  -1.886   4.387  1.00  0.00     0.076 A 
ATOM      6  C   UNL     1       2.793  -2.760   4.021  1.00  0.00     0.127 A 
ATOM      7  C   UNL     1       2.776  -4.094   4.450  1.00  0.00     0.050 A 
ATOM      8  C   UNL     1       1.745  -0.456   3.981  1.00  0.00     0.201 C 
ATOM      9  O   UNL     1       2.820   0.079   3.598  1.00  0.00    -0.288 OA
ATOM     10  C   UNL     1       0.514   0.368   4.137  1.00  0.00     0.076 A 
ATOM     11  C   UNL     1      -0.511  -0.108   4.988  1.00  0.00     0.041 A 
ATOM     12  C   UNL     1      -0.422  -1.469   5.570  1.00  0.00     0.194 C 
ATOM     13  O   UNL     1      -1.302  -1.865   6.383  1.00  0.00    -0.289 OA
ATOM     14  C   UNL     1      -1.620   0.707   5.274  1.00  0.00     0.059 A 
ATOM     15  C   UNL     1      -1.728   1.981   4.712  1.00  0.00     0.120 A 
ATOM     16  C   UNL     1      -0.746   2.437   3.836  1.00  0.00     0.093 A 
ATOM     17  C   UNL     1       0.355   1.636   3.513  1.00  0.00     0.131 A 
ENDROOT
BRANCH   6  18
ATOM     18  O   UNL     1       3.848  -2.312   3.227  1.00  0.00    -0.507 OA
ATOM     19  H   UNL     1       3.744  -1.527   2.594  1.00  0.00     0.293 HD
ENDBRANCH   6  18
BRANCH  17  20
ATOM     20  O   UNL     1       1.236   2.125   2.545  1.00  0.00    -0.507 OA
ATOM     21  H   UNL     1       2.208   1.857   2.486  1.00  0.00     0.293 HD
ENDBRANCH  17  20
BRANCH  15  22
ATOM     22  O   UNL     1      -2.818   2.797   5.007  1.00  0.00    -0.508 OA
ATOM     23  H   UNL     1      -2.751   3.544   5.689  1.00  0.00     0.293 HD
ENDBRANCH  15  22
TORSDOF 3
ENDMDL
