MODEL 1
REMARK VINA RESULT:    -5.745      0.000      0.000
REMARK INTER + INTRA:          -7.017
REMARK INTER:                  -6.753
REMARK INTRA:                  -0.264
REMARK UNBOUND:                -0.264
REMARK SMILES O=c1cc(-c2ccc(O)c(O)c2)oc2cc(O)cc(O)c12
REMARK SMILES IDX 4 1 3 2 2 3 1 4 21 5 19 6 18 7 16 8 15 9 14 10 13 11 5 12
REMARK SMILES IDX 6 13 7 14 8 15 12 16 10 17 9 18 11 20 20 22 17 24
REMARK H PARENT 9 19 11 21 20 23 17 25
REMARK Flexibility Score: inf
ROOT
ATOM      1  C   UNL     1      33.203 -37.775   9.595  1.00  0.00     0.138 A 
ATOM      2  C   UNL     1      31.905 -37.236   9.602  1.00  0.00     0.100 A 
ATOM      3  C   UNL     1      31.295 -36.899   8.393  1.00  0.00     0.197 A 
ATOM      4  O   UNL     1      30.130 -36.415   8.410  1.00  0.00    -0.289 OA
ATOM      5  C   UNL     1      31.989 -37.100   7.184  1.00  0.00     0.107 A 
ATOM      6  C   UNL     1      31.444 -36.786   5.916  1.00  0.00     0.134 A 
ATOM      7  C   UNL     1      32.203 -37.011   4.758  1.00  0.00     0.093 A 
ATOM      8  C   UNL     1      33.496 -37.542   4.845  1.00  0.00     0.123 A 
ATOM      9  C   UNL     1      34.037 -37.852   6.094  1.00  0.00     0.094 A 
ATOM     10  C   UNL     1      33.297 -37.636   7.259  1.00  0.00     0.146 A 
ATOM     11  O   UNL     1      33.835 -37.942   8.435  1.00  0.00    -0.456 OA
ENDROOT
BRANCH   1  12
ATOM     12  C   UNL     1      33.901 -38.150  10.850  1.00  0.00     0.021 A 
ATOM     13  C   UNL     1      34.207 -39.500  11.094  1.00  0.00     0.016 A 
ATOM     14  C   UNL     1      34.857 -39.882  12.269  1.00  0.00     0.051 A 
ATOM     15  C   UNL     1      35.204 -38.925  13.227  1.00  0.00     0.157 A 
ATOM     16  C   UNL     1      34.241 -37.191  11.824  1.00  0.00     0.062 A 
ATOM     17  C   UNL     1      34.892 -37.574  13.007  1.00  0.00     0.158 A 
BRANCH  15  18
ATOM     18  O   UNL     1      35.853 -39.335  14.391  1.00  0.00    -0.504 OA
ATOM     19  H   UNL     1      36.606 -40.012  14.377  1.00  0.00     0.293 HD
ENDBRANCH  15  18
BRANCH  17  20
ATOM     20  O   UNL     1      35.226 -36.616  13.963  1.00  0.00    -0.504 OA
ATOM     21  H   UNL     1      36.133 -36.164  13.970  1.00  0.00     0.293 HD
ENDBRANCH  17  20
ENDBRANCH   1  12
BRANCH   6  22
ATOM     22  O   UNL     1      30.159 -36.255   5.800  1.00  0.00    -0.507 OA
ATOM     23  H   UNL     1      29.982 -35.389   5.304  1.00  0.00     0.293 HD
ENDBRANCH   6  22
BRANCH   8  24
ATOM     24  O   UNL     1      34.250 -37.765   3.695  1.00  0.00    -0.508 OA
ATOM     25  H   UNL     1      33.857 -37.633   2.771  1.00  0.00     0.293 HD
ENDBRANCH   8  24
TORSDOF 5
ENDMDL
MODEL 2
REMARK VINA RESULT:    -5.312      1.739      6.958
REMARK INTER + INTRA:          -6.508
REMARK INTER:                  -6.221
REMARK INTRA:                  -0.287
REMARK UNBOUND:                -0.264
REMARK SMILES O=c1cc(-c2ccc(O)c(O)c2)oc2cc(O)cc(O)c12
REMARK SMILES IDX 4 1 3 2 2 3 1 4 21 5 19 6 18 7 16 8 15 9 14 10 13 11 5 12
REMARK SMILES IDX 6 13 7 14 8 15 12 16 10 17 9 18 11 20 20 22 17 24
REMARK H PARENT 9 19 11 21 20 23 17 25
REMARK Flexibility Score: inf
ROOT
ATOM      1  C   UNL     1      33.158 -36.774   6.663  1.00  0.00     0.138 A 
ATOM      2  C   UNL     1      31.773 -36.591   6.807  1.00  0.00     0.100 A 
ATOM      3  C   UNL     1      31.212 -36.563   8.084  1.00  0.00     0.197 A 
ATOM      4  O   UNL     1      29.967 -36.399   8.202  1.00  0.00    -0.289 OA
ATOM      5  C   UNL     1      32.042 -36.722   9.211  1.00  0.00     0.107 A 
ATOM      6  C   UNL     1      31.556 -36.706  10.540  1.00  0.00     0.134 A 
ATOM      7  C   UNL     1      32.448 -36.877  11.609  1.00  0.00     0.093 A 
ATOM      8  C   UNL     1      33.816 -37.065  11.373  1.00  0.00     0.123 A 
ATOM      9  C   UNL     1      34.299 -37.083  10.063  1.00  0.00     0.094 A 
ATOM     10  C   UNL     1      33.426 -36.913   8.985  1.00  0.00     0.146 A 
ATOM     11  O   UNL     1      33.913 -36.932   7.748  1.00  0.00    -0.456 OA
ENDROOT
BRANCH   1  12
ATOM     12  C   UNL     1      33.808 -36.813   5.329  1.00  0.00     0.021 A 
ATOM     13  C   UNL     1      35.121 -36.331   5.185  1.00  0.00     0.016 A 
ATOM     14  C   UNL     1      35.753 -36.350   3.940  1.00  0.00     0.051 A 
ATOM     15  C   UNL     1      35.085 -36.840   2.815  1.00  0.00     0.157 A 
ATOM     16  C   UNL     1      33.134 -37.294   4.190  1.00  0.00     0.062 A 
ATOM     17  C   UNL     1      33.767 -37.311   2.937  1.00  0.00     0.158 A 
BRANCH  15  18
ATOM     18  O   UNL     1      35.742 -36.847   1.585  1.00  0.00    -0.504 OA
ATOM     19  H   UNL     1      35.321 -37.241   0.753  1.00  0.00     0.293 HD
ENDBRANCH  15  18
BRANCH  17  20
ATOM     20  O   UNL     1      33.091 -37.791   1.817  1.00  0.00    -0.504 OA
ATOM     21  H   UNL     1      33.508 -38.475   1.197  1.00  0.00     0.293 HD
ENDBRANCH  17  20
ENDBRANCH   1  12
BRANCH   6  22
ATOM     22  O   UNL     1      30.199 -36.521  10.805  1.00  0.00    -0.507 OA
ATOM     23  H   UNL     1      29.480 -36.924  10.215  1.00  0.00     0.293 HD
ENDBRANCH   6  22
BRANCH   8  24
ATOM     24  O   UNL     1      34.701 -37.236  12.434  1.00  0.00    -0.508 OA
ATOM     25  H   UNL     1      34.487 -36.895  13.363  1.00  0.00     0.293 HD
ENDBRANCH   8  24
TORSDOF 5
ENDMDL
MODEL 3
REMARK VINA RESULT:    -5.283      1.189      2.744
REMARK INTER + INTRA:          -6.473
REMARK INTER:                  -6.206
REMARK INTRA:                  -0.267
REMARK UNBOUND:                -0.264
REMARK SMILES O=c1cc(-c2ccc(O)c(O)c2)oc2cc(O)cc(O)c12
REMARK SMILES IDX 4 1 3 2 2 3 1 4 21 5 19 6 18 7 16 8 15 9 14 10 13 11 5 12
REMARK SMILES IDX 6 13 7 14 8 15 12 16 10 17 9 18 11 20 20 22 17 24
REMARK H PARENT 9 19 11 21 20 23 17 25
REMARK Flexibility Score: inf
ROOT
ATOM      1  C   UNL     1      34.312 -38.431   9.566  1.00  0.00     0.138 A 
ATOM      2  C   UNL     1      35.352 -38.705   8.663  1.00  0.00     0.100 A 
ATOM      3  C   UNL     1      35.177 -38.423   7.308  1.00  0.00     0.197 A 
ATOM      4  O   UNL     1      36.117 -38.674   6.505  1.00  0.00    -0.289 OA
ATOM      5  C   UNL     1      33.960 -37.870   6.864  1.00  0.00     0.107 A 
ATOM      6  C   UNL     1      33.701 -37.554   5.509  1.00  0.00     0.134 A 
ATOM      7  C   UNL     1      32.459 -37.011   5.147  1.00  0.00     0.093 A 
ATOM      8  C   UNL     1      31.473 -36.781   6.114  1.00  0.00     0.123 A 
ATOM      9  C   UNL     1      31.724 -37.092   7.452  1.00  0.00     0.094 A 
ATOM     10  C   UNL     1      32.955 -37.633   7.832  1.00  0.00     0.146 A 
ATOM     11  O   UNL     1      33.169 -37.919   9.113  1.00  0.00    -0.456 OA
ENDROOT
BRANCH   1  12
ATOM     12  C   UNL     1      34.441 -38.712  11.018  1.00  0.00     0.021 A 
ATOM     13  C   UNL     1      34.218 -40.016  11.492  1.00  0.00     0.016 A 
ATOM     14  C   UNL     1      34.326 -40.307  12.854  1.00  0.00     0.051 A 
ATOM     15  C   UNL     1      34.649 -39.300  13.768  1.00  0.00     0.157 A 
ATOM     16  C   UNL     1      34.753 -37.698  11.945  1.00  0.00     0.062 A 
ATOM     17  C   UNL     1      34.859 -37.988  13.314  1.00  0.00     0.158 A 
BRANCH  15  18
ATOM     18  O   UNL     1      34.750 -39.619  15.121  1.00  0.00    -0.504 OA
ATOM     19  H   UNL     1      34.765 -40.578  15.448  1.00  0.00     0.293 HD
ENDBRANCH  15  18
BRANCH  17  20
ATOM     20  O   UNL     1      35.170 -36.977  14.221  1.00  0.00    -0.504 OA
ATOM     21  H   UNL     1      34.734 -36.928  15.134  1.00  0.00     0.293 HD
ENDBRANCH  17  20
ENDBRANCH   1  12
BRANCH   6  22
ATOM     22  O   UNL     1      34.664 -37.773   4.524  1.00  0.00    -0.507 OA
ATOM     23  H   UNL     1      34.809 -38.689   4.113  1.00  0.00     0.293 HD
ENDBRANCH   6  22
BRANCH   8  24
ATOM     24  O   UNL     1      30.239 -36.242   5.755  1.00  0.00    -0.508 OA
ATOM     25  H   UNL     1      30.139 -35.264   5.510  1.00  0.00     0.293 HD
ENDBRANCH   8  24
TORSDOF 5
ENDMDL
MODEL 4
REMARK VINA RESULT:    -5.230     11.221     14.291
REMARK INTER + INTRA:          -6.411
REMARK INTER:                  -6.142
REMARK INTRA:                  -0.269
REMARK UNBOUND:                -0.264
REMARK SMILES O=c1cc(-c2ccc(O)c(O)c2)oc2cc(O)cc(O)c12
REMARK SMILES IDX 4 1 3 2 2 3 1 4 21 5 19 6 18 7 16 8 15 9 14 10 13 11 5 12
REMARK SMILES IDX 6 13 7 14 8 15 12 16 10 17 9 18 11 20 20 22 17 24
REMARK H PARENT 9 19 11 21 20 23 17 25
REMARK Flexibility Score: inf
ROOT
ATOM      1  C   UNL     1      37.217 -39.938  -3.103  1.00  0.00     0.138 A 
ATOM      2  C   UNL     1      37.909 -40.934  -3.811  1.00  0.00     0.100 A 
ATOM      3  C   UNL     1      39.248 -40.734  -4.147  1.00  0.00     0.197 A 
ATOM      4  O   UNL     1      39.860 -41.634  -4.784  1.00  0.00    -0.289 OA
ATOM      5  C   UNL     1      39.887 -39.535  -3.774  1.00  0.00     0.107 A 
ATOM      6  C   UNL     1      41.240 -39.252  -4.074  1.00  0.00     0.134 A 
ATOM      7  C   UNL     1      41.801 -38.031  -3.672  1.00  0.00     0.093 A 
ATOM      8  C   UNL     1      41.033 -37.088  -2.978  1.00  0.00     0.123 A 
ATOM      9  C   UNL     1      39.697 -37.363  -2.681  1.00  0.00     0.094 A 
ATOM     10  C   UNL     1      39.120 -38.574  -3.072  1.00  0.00     0.146 A 
ATOM     11  O   UNL     1      37.847 -38.812  -2.775  1.00  0.00    -0.456 OA
ENDROOT
BRANCH   1  12
ATOM     12  C   UNL     1      35.791 -40.096  -2.720  1.00  0.00     0.021 A 
ATOM     13  C   UNL     1      35.428 -40.027  -1.364  1.00  0.00     0.016 A 
ATOM     14  C   UNL     1      34.095 -40.180  -0.977  1.00  0.00     0.051 A 
ATOM     15  C   UNL     1      33.103 -40.414  -1.933  1.00  0.00     0.157 A 
ATOM     16  C   UNL     1      34.790 -40.346  -3.679  1.00  0.00     0.062 A 
ATOM     17  C   UNL     1      33.451 -40.502  -3.290  1.00  0.00     0.158 A 
BRANCH  15  18
ATOM     18  O   UNL     1      31.780 -40.562  -1.516  1.00  0.00    -0.504 OA
ATOM     19  H   UNL     1      31.232 -41.381  -1.747  1.00  0.00     0.293 HD
ENDBRANCH  15  18
BRANCH  17  20
ATOM     20  O   UNL     1      32.468 -40.746  -4.248  1.00  0.00    -0.504 OA
ATOM     21  H   UNL     1      31.512 -40.956  -3.988  1.00  0.00     0.293 HD
ENDBRANCH  17  20
ENDBRANCH   1  12
BRANCH   6  22
ATOM     22  O   UNL     1      42.030 -40.173  -4.765  1.00  0.00    -0.507 OA
ATOM     23  H   UNL     1      42.953 -39.933  -5.108  1.00  0.00     0.293 HD
ENDBRANCH   6  22
BRANCH   8  24
ATOM     24  O   UNL     1      41.590 -35.875  -2.579  1.00  0.00    -0.508 OA
ATOM     25  H   UNL     1      41.019 -35.051  -2.437  1.00  0.00     0.293 HD
ENDBRANCH   8  24
TORSDOF 5
ENDMDL
MODEL 5
REMARK VINA RESULT:    -5.223      4.764      9.613
REMARK INTER + INTRA:          -6.404
REMARK INTER:                  -6.125
REMARK INTRA:                  -0.278
REMARK UNBOUND:                -0.264
REMARK SMILES O=c1cc(-c2ccc(O)c(O)c2)oc2cc(O)cc(O)c12
REMARK SMILES IDX 4 1 3 2 2 3 1 4 21 5 19 6 18 7 16 8 15 9 14 10 13 11 5 12
REMARK SMILES IDX 6 13 7 14 8 15 12 16 10 17 9 18 11 20 20 22 17 24
REMARK H PARENT 9 19 11 21 20 23 17 25
REMARK Flexibility Score: inf
ROOT
ATOM      1  C   UNL     1      33.278 -38.824   1.990  1.00  0.00     0.138 A 
ATOM      2  C   UNL     1      34.608 -38.371   1.980  1.00  0.00     0.100 A 
ATOM      3  C   UNL     1      35.064 -37.556   3.016  1.00  0.00     0.197 A 
ATOM      4  O   UNL     1      36.259 -37.153   2.998  1.00  0.00    -0.289 OA
ATOM      5  C   UNL     1      34.184 -37.196   4.056  1.00  0.00     0.107 A 
ATOM      6  C   UNL     1      34.564 -36.375   5.144  1.00  0.00     0.134 A 
ATOM      7  C   UNL     1      33.625 -36.058   6.137  1.00  0.00     0.093 A 
ATOM      8  C   UNL     1      32.315 -36.546   6.061  1.00  0.00     0.123 A 
ATOM      9  C   UNL     1      31.936 -37.355   4.989  1.00  0.00     0.094 A 
ATOM     10  C   UNL     1      32.856 -37.683   3.990  1.00  0.00     0.146 A 
ATOM     11  O   UNL     1      32.469 -38.458   2.981  1.00  0.00    -0.456 OA
ENDROOT
BRANCH   1  12
ATOM     12  C   UNL     1      32.739 -39.692   0.912  1.00  0.00     0.021 A 
ATOM     13  C   UNL     1      31.952 -40.806   1.251  1.00  0.00     0.016 A 
ATOM     14  C   UNL     1      31.439 -41.643   0.258  1.00  0.00     0.051 A 
ATOM     15  C   UNL     1      31.709 -41.390  -1.089  1.00  0.00     0.157 A 
ATOM     16  C   UNL     1      33.020 -39.448  -0.446  1.00  0.00     0.062 A 
ATOM     17  C   UNL     1      32.507 -40.290  -1.445  1.00  0.00     0.158 A 
BRANCH  15  18
ATOM     18  O   UNL     1      31.182 -42.242  -2.059  1.00  0.00    -0.504 OA
ATOM     19  H   UNL     1      30.252 -42.635  -1.982  1.00  0.00     0.293 HD
ENDBRANCH  15  18
BRANCH  17  20
ATOM     20  O   UNL     1      32.790 -40.038  -2.786  1.00  0.00    -0.504 OA
ATOM     21  H   UNL     1      32.377 -40.589  -3.530  1.00  0.00     0.293 HD
ENDBRANCH  17  20
ENDBRANCH   1  12
BRANCH   6  22
ATOM     22  O   UNL     1      35.863 -35.875   5.245  1.00  0.00    -0.507 OA
ATOM     23  H   UNL     1      36.645 -36.324   4.782  1.00  0.00     0.293 HD
ENDBRANCH   6  22
BRANCH   8  24
ATOM     24  O   UNL     1      31.383 -36.230   7.047  1.00  0.00    -0.508 OA
ATOM     25  H   UNL     1      31.602 -36.321   8.032  1.00  0.00     0.293 HD
ENDBRANCH   8  24
TORSDOF 5
ENDMDL
MODEL 6
REMARK VINA RESULT:    -5.206      5.828     10.923
REMARK INTER + INTRA:          -6.384
REMARK INTER:                  -6.106
REMARK INTRA:                  -0.278
REMARK UNBOUND:                -0.264
REMARK SMILES O=c1cc(-c2ccc(O)c(O)c2)oc2cc(O)cc(O)c12
REMARK SMILES IDX 4 1 3 2 2 3 1 4 21 5 19 6 18 7 16 8 15 9 14 10 13 11 5 12
REMARK SMILES IDX 6 13 7 14 8 15 12 16 10 17 9 18 11 20 20 22 17 24
REMARK H PARENT 9 19 11 21 20 23 17 25
REMARK Flexibility Score: inf
ROOT
ATOM      1  C   UNL     1      33.467 -39.908   0.233  1.00  0.00     0.138 A 
ATOM      2  C   UNL     1      32.455 -40.536   0.978  1.00  0.00     0.100 A 
ATOM      3  C   UNL     1      32.186 -40.101   2.276  1.00  0.00     0.197 A 
ATOM      4  O   UNL     1      31.277 -40.673   2.937  1.00  0.00    -0.289 OA
ATOM      5  C   UNL     1      32.935 -39.041   2.823  1.00  0.00     0.107 A 
ATOM      6  C   UNL     1      32.728 -38.539   4.129  1.00  0.00     0.134 A 
ATOM      7  C   UNL     1      33.521 -37.483   4.603  1.00  0.00     0.093 A 
ATOM      8  C   UNL     1      34.518 -36.923   3.794  1.00  0.00     0.123 A 
ATOM      9  C   UNL     1      34.726 -37.416   2.505  1.00  0.00     0.094 A 
ATOM     10  C   UNL     1      33.946 -38.466   2.015  1.00  0.00     0.146 A 
ATOM     11  O   UNL     1      34.164 -38.916   0.783  1.00  0.00    -0.456 OA
ENDROOT
BRANCH   1  12
ATOM     12  C   UNL     1      33.796 -40.329  -1.152  1.00  0.00     0.021 A 
ATOM     13  C   UNL     1      35.142 -40.501  -1.521  1.00  0.00     0.016 A 
ATOM     14  C   UNL     1      35.480 -40.890  -2.818  1.00  0.00     0.051 A 
ATOM     15  C   UNL     1      34.483 -41.105  -3.774  1.00  0.00     0.157 A 
ATOM     16  C   UNL     1      32.796 -40.534  -2.122  1.00  0.00     0.062 A 
ATOM     17  C   UNL     1      33.135 -40.923  -3.428  1.00  0.00     0.158 A 
BRANCH  15  18
ATOM     18  O   UNL     1      34.851 -41.493  -5.062  1.00  0.00    -0.504 OA
ATOM     19  H   UNL     1      34.193 -41.918  -5.704  1.00  0.00     0.293 HD
ENDBRANCH  15  18
BRANCH  17  20
ATOM     20  O   UNL     1      32.136 -41.125  -4.379  1.00  0.00    -0.504 OA
ATOM     21  H   UNL     1      31.154 -41.044  -4.145  1.00  0.00     0.293 HD
ENDBRANCH  17  20
ENDBRANCH   1  12
BRANCH   6  22
ATOM     22  O   UNL     1      31.743 -39.079   4.957  1.00  0.00    -0.507 OA
ATOM     23  H   UNL     1      31.522 -40.068   4.949  1.00  0.00     0.293 HD
ENDBRANCH   6  22
BRANCH   8  24
ATOM     24  O   UNL     1      35.306 -35.875   4.265  1.00  0.00    -0.508 OA
ATOM     25  H   UNL     1      35.105 -35.414   5.144  1.00  0.00     0.293 HD
ENDBRANCH   8  24
TORSDOF 5
ENDMDL
MODEL 7
REMARK VINA RESULT:    -5.170     11.645     14.089
REMARK INTER + INTRA:          -6.341
REMARK INTER:                  -6.073
REMARK INTRA:                  -0.268
REMARK UNBOUND:                -0.264
REMARK SMILES O=c1cc(-c2ccc(O)c(O)c2)oc2cc(O)cc(O)c12
REMARK SMILES IDX 4 1 3 2 2 3 1 4 21 5 19 6 18 7 16 8 15 9 14 10 13 11 5 12
REMARK SMILES IDX 6 13 7 14 8 15 12 16 10 17 9 18 11 20 20 22 17 24
REMARK H PARENT 9 19 11 21 20 23 17 25
REMARK Flexibility Score: inf
ROOT
ATOM      1  C   UNL     1      37.373 -39.335  -2.735  1.00  0.00     0.138 A 
ATOM      2  C   UNL     1      37.282 -38.639  -1.518  1.00  0.00     0.100 A 
ATOM      3  C   UNL     1      38.297 -37.754  -1.155  1.00  0.00     0.197 A 
ATOM      4  O   UNL     1      38.206 -37.134  -0.060  1.00  0.00    -0.289 OA
ATOM      5  C   UNL     1      39.401 -37.573  -2.011  1.00  0.00     0.107 A 
ATOM      6  C   UNL     1      40.473 -36.696  -1.720  1.00  0.00     0.134 A 
ATOM      7  C   UNL     1      41.540 -36.577  -2.623  1.00  0.00     0.093 A 
ATOM      8  C   UNL     1      41.555 -37.320  -3.810  1.00  0.00     0.123 A 
ATOM      9  C   UNL     1      40.500 -38.187  -4.101  1.00  0.00     0.094 A 
ATOM     10  C   UNL     1      39.428 -38.319  -3.214  1.00  0.00     0.146 A 
ATOM     11  O   UNL     1      38.436 -39.150  -3.516  1.00  0.00    -0.456 OA
ENDROOT
BRANCH   1  12
ATOM     12  C   UNL     1      36.324 -40.290  -3.172  1.00  0.00     0.021 A 
ATOM     13  C   UNL     1      36.665 -41.633  -3.405  1.00  0.00     0.016 A 
ATOM     14  C   UNL     1      35.699 -42.551  -3.824  1.00  0.00     0.051 A 
ATOM     15  C   UNL     1      34.378 -42.143  -4.026  1.00  0.00     0.157 A 
ATOM     16  C   UNL     1      34.994 -39.880  -3.390  1.00  0.00     0.062 A 
ATOM     17  C   UNL     1      34.023 -40.801  -3.813  1.00  0.00     0.158 A 
BRANCH  15  18
ATOM     18  O   UNL     1      33.435 -43.081  -4.443  1.00  0.00    -0.504 OA
ATOM     19  H   UNL     1      33.626 -43.742  -5.186  1.00  0.00     0.293 HD
ENDBRANCH  15  18
BRANCH  17  20
ATOM     20  O   UNL     1      32.709 -40.385  -4.024  1.00  0.00    -0.504 OA
ATOM     21  H   UNL     1      32.397 -40.044  -4.926  1.00  0.00     0.293 HD
ENDBRANCH  17  20
ENDBRANCH   1  12
BRANCH   6  22
ATOM     22  O   UNL     1      40.484 -35.944  -0.544  1.00  0.00    -0.507 OA
ATOM     23  H   UNL     1      39.869 -35.149  -0.413  1.00  0.00     0.293 HD
ENDBRANCH   6  22
BRANCH   8  24
ATOM     24  O   UNL     1      42.614 -37.202  -4.706  1.00  0.00    -0.508 OA
ATOM     25  H   UNL     1      43.516 -36.842  -4.417  1.00  0.00     0.293 HD
ENDBRANCH   8  24
TORSDOF 5
ENDMDL
MODEL 8
REMARK VINA RESULT:    -5.146      4.373      9.437
REMARK INTER + INTRA:          -6.313
REMARK INTER:                  -5.994
REMARK INTRA:                  -0.318
REMARK UNBOUND:                -0.264
REMARK SMILES O=c1cc(-c2ccc(O)c(O)c2)oc2cc(O)cc(O)c12
REMARK SMILES IDX 4 1 3 2 2 3 1 4 21 5 19 6 18 7 16 8 15 9 14 10 13 11 5 12
REMARK SMILES IDX 6 13 7 14 8 15 12 16 10 17 9 18 11 20 20 22 17 24
REMARK H PARENT 9 19 11 21 20 23 17 25
REMARK Flexibility Score: inf
ROOT
ATOM      1  C   UNL     1      34.402 -38.412   2.271  1.00  0.00     0.138 A 
ATOM      2  C   UNL     1      35.590 -38.173   2.981  1.00  0.00     0.100 A 
ATOM      3  C   UNL     1      35.528 -37.600   4.251  1.00  0.00     0.197 A 
ATOM      4  O   UNL     1      36.600 -37.389   4.880  1.00  0.00    -0.289 OA
ATOM      5  C   UNL     1      34.275 -37.267   4.803  1.00  0.00     0.107 A 
ATOM      6  C   UNL     1      34.123 -36.684   6.083  1.00  0.00     0.134 A 
ATOM      7  C   UNL     1      32.839 -36.376   6.559  1.00  0.00     0.093 A 
ATOM      8  C   UNL     1      31.708 -36.639   5.777  1.00  0.00     0.123 A 
ATOM      9  C   UNL     1      31.854 -37.213   4.513  1.00  0.00     0.094 A 
ATOM     10  C   UNL     1      33.124 -37.528   4.022  1.00  0.00     0.146 A 
ATOM     11  O   UNL     1      33.235 -38.075   2.816  1.00  0.00    -0.456 OA
ENDROOT
BRANCH   1  12
ATOM     12  C   UNL     1      34.408 -39.017   0.915  1.00  0.00     0.021 A 
ATOM     13  C   UNL     1      35.632 -39.374   0.323  1.00  0.00     0.016 A 
ATOM     14  C   UNL     1      35.667 -39.938  -0.954  1.00  0.00     0.051 A 
ATOM     15  C   UNL     1      34.484 -40.148  -1.667  1.00  0.00     0.157 A 
ATOM     16  C   UNL     1      33.219 -39.218   0.188  1.00  0.00     0.062 A 
ATOM     17  C   UNL     1      33.253 -39.783  -1.097  1.00  0.00     0.158 A 
BRANCH  15  18
ATOM     18  O   UNL     1      34.550 -40.713  -2.940  1.00  0.00    -0.504 OA
ATOM     19  H   UNL     1      35.144 -40.334  -3.667  1.00  0.00     0.293 HD
ENDBRANCH  15  18
BRANCH  17  20
ATOM     20  O   UNL     1      32.070 -39.979  -1.807  1.00  0.00    -0.504 OA
ATOM     21  H   UNL     1      31.181 -39.632  -1.466  1.00  0.00     0.293 HD
ENDBRANCH  17  20
ENDBRANCH   1  12
BRANCH   6  22
ATOM     22  O   UNL     1      35.233 -36.411   6.884  1.00  0.00    -0.507 OA
ATOM     23  H   UNL     1      35.166 -36.375   7.895  1.00  0.00     0.293 HD
ENDBRANCH   6  22
BRANCH   8  24
ATOM     24  O   UNL     1      30.434 -36.332   6.249  1.00  0.00    -0.508 OA
ATOM     25  H   UNL     1      29.736 -37.051   6.397  1.00  0.00     0.293 HD
ENDBRANCH   8  24
TORSDOF 5
ENDMDL
MODEL 9
REMARK VINA RESULT:    -5.116      1.869      2.910
REMARK INTER + INTRA:          -6.277
REMARK INTER:                  -5.997
REMARK INTRA:                  -0.280
REMARK UNBOUND:                -0.264
REMARK SMILES O=c1cc(-c2ccc(O)c(O)c2)oc2cc(O)cc(O)c12
REMARK SMILES IDX 4 1 3 2 2 3 1 4 21 5 19 6 18 7 16 8 15 9 14 10 13 11 5 12
REMARK SMILES IDX 6 13 7 14 8 15 12 16 10 17 9 18 11 20 20 22 17 24
REMARK H PARENT 9 19 11 21 20 23 17 25
REMARK Flexibility Score: inf
ROOT
ATOM      1  C   UNL     1      33.531 -37.755   7.459  1.00  0.00     0.138 A 
ATOM      2  C   UNL     1      32.387 -37.487   6.689  1.00  0.00     0.100 A 
ATOM      3  C   UNL     1      32.519 -37.261   5.319  1.00  0.00     0.197 A 
ATOM      4  O   UNL     1      31.487 -37.020   4.636  1.00  0.00    -0.289 OA
ATOM      5  C   UNL     1      33.797 -37.303   4.727  1.00  0.00     0.107 A 
ATOM      6  C   UNL     1      34.020 -37.086   3.347  1.00  0.00     0.134 A 
ATOM      7  C   UNL     1      35.326 -37.139   2.836  1.00  0.00     0.093 A 
ATOM      8  C   UNL     1      36.411 -37.402   3.681  1.00  0.00     0.123 A 
ATOM      9  C   UNL     1      36.196 -37.615   5.044  1.00  0.00     0.094 A 
ATOM     10  C   UNL     1      34.903 -37.568   5.571  1.00  0.00     0.146 A 
ATOM     11  O   UNL     1      34.725 -37.776   6.872  1.00  0.00    -0.456 OA
ENDROOT
BRANCH   1  12
ATOM     12  C   UNL     1      33.450 -38.001   8.921  1.00  0.00     0.021 A 
ATOM     13  C   UNL     1      32.635 -39.040   9.403  1.00  0.00     0.016 A 
ATOM     14  C   UNL     1      32.536 -39.288  10.774  1.00  0.00     0.051 A 
ATOM     15  C   UNL     1      33.238 -38.499  11.688  1.00  0.00     0.157 A 
ATOM     16  C   UNL     1      34.146 -37.200   9.847  1.00  0.00     0.062 A 
ATOM     17  C   UNL     1      34.044 -37.446  11.225  1.00  0.00     0.158 A 
BRANCH  15  18
ATOM     18  O   UNL     1      33.119 -38.771  13.051  1.00  0.00    -0.504 OA
ATOM     19  H   UNL     1      33.907 -39.077  13.609  1.00  0.00     0.293 HD
ENDBRANCH  15  18
BRANCH  17  20
ATOM     20  O   UNL     1      34.738 -36.648  12.132  1.00  0.00    -0.504 OA
ATOM     21  H   UNL     1      35.747 -36.559  12.099  1.00  0.00     0.293 HD
ENDBRANCH  17  20
ENDBRANCH   1  12
BRANCH   6  22
ATOM     22  O   UNL     1      32.957 -36.821   2.482  1.00  0.00    -0.507 OA
ATOM     23  H   UNL     1      32.168 -36.251   2.765  1.00  0.00     0.293 HD
ENDBRANCH   6  22
BRANCH   8  24
ATOM     24  O   UNL     1      37.707 -37.454   3.174  1.00  0.00    -0.508 OA
ATOM     25  H   UNL     1      38.236 -38.318   3.156  1.00  0.00     0.293 HD
ENDBRANCH   8  24
TORSDOF 5
ENDMDL
