MODEL 1
REMARK VINA RESULT:    -2.777      0.000      0.000
REMARK INTER + INTRA:          -2.777
REMARK INTER:                  -2.777
REMARK INTRA:                   0.000
REMARK UNBOUND:                 0.000
REMARK SMILES CC(=O)[O-]
REMARK SMILES IDX 1 1 2 2 3 3 4 4
REMARK H PARENT
REMARK Flexibility Score: inf
ROOT
ATOM      1  C   UNL     1      45.970  12.672 -30.610  1.00  0.00     0.063 C 
ATOM      2  C   UNL     1      45.532  12.668 -32.034  1.00  0.00     0.038 C 
ATOM      3  O   UNL     1      44.350  12.355 -32.331  1.00  0.00    -0.550 OA
ATOM      4  O   UNL     1      46.442  12.958 -33.042  1.00  0.00    -0.550 OA
ENDROOT
TORSDOF 0
ENDMDL
MODEL 2
REMARK VINA RESULT:    -2.579      1.615      2.279
REMARK INTER + INTRA:          -2.579
REMARK INTER:                  -2.579
REMARK INTRA:                   0.000
REMARK UNBOUND:                 0.000
REMARK SMILES CC(=O)[O-]
REMARK SMILES IDX 1 1 2 2 3 3 4 4
REMARK H PARENT
REMARK Flexibility Score: inf
ROOT
ATOM      1  C   UNL     1      45.125  13.002 -32.916  1.00  0.00     0.063 C 
ATOM      2  C   UNL     1      45.820  12.736 -31.625  1.00  0.00     0.038 C 
ATOM      3  O   UNL     1      46.740  11.878 -31.568  1.00  0.00    -0.550 OA
ATOM      4  O   UNL     1      45.421  13.396 -30.471  1.00  0.00    -0.550 OA
ENDROOT
TORSDOF 0
ENDMDL
MODEL 3
REMARK VINA RESULT:    -2.290      6.817      7.158
REMARK INTER + INTRA:          -2.290
REMARK INTER:                  -2.290
REMARK INTRA:                   0.000
REMARK UNBOUND:                 0.000
REMARK SMILES CC(=O)[O-]
REMARK SMILES IDX 1 1 2 2 3 3 4 4
REMARK H PARENT
REMARK Flexibility Score: inf
ROOT
ATOM      1  C   UNL     1      38.529  14.604 -35.665  1.00  0.00     0.063 C 
ATOM      2  C   UNL     1      39.963  14.227 -35.816  1.00  0.00     0.038 C 
ATOM      3  O   UNL     1      40.298  13.013 -35.841  1.00  0.00    -0.550 OA
ATOM      4  O   UNL     1      40.939  15.213 -35.876  1.00  0.00    -0.550 OA
ENDROOT
TORSDOF 0
ENDMDL
MODEL 4
REMARK VINA RESULT:    -2.239     17.449     17.918
REMARK INTER + INTRA:          -2.239
REMARK INTER:                  -2.239
REMARK INTRA:                   0.000
REMARK UNBOUND:                 0.000
REMARK SMILES CC(=O)[O-]
REMARK SMILES IDX 1 1 2 2 3 3 4 4
REMARK H PARENT
REMARK Flexibility Score: inf
ROOT
ATOM      1  C   UNL     1      55.211  25.806 -35.665  1.00  0.00     0.063 C 
ATOM      2  C   UNL     1      55.533  27.156 -35.122  1.00  0.00     0.038 C 
ATOM      3  O   UNL     1      55.661  27.324 -33.881  1.00  0.00    -0.550 OA
ATOM      4  O   UNL     1      55.642  28.242 -35.980  1.00  0.00    -0.550 OA
ENDROOT
TORSDOF 0
ENDMDL
MODEL 5
REMARK VINA RESULT:    -2.231     19.393     19.936
REMARK INTER + INTRA:          -2.231
REMARK INTER:                  -2.231
REMARK INTRA:                   0.000
REMARK UNBOUND:                 0.000
REMARK SMILES CC(=O)[O-]
REMARK SMILES IDX 1 1 2 2 3 3 4 4
REMARK H PARENT
REMARK Flexibility Score: inf
ROOT
ATOM      1  C   UNL     1      54.127  27.913 -39.125  1.00  0.00     0.063 C 
ATOM      2  C   UNL     1      54.834  29.030 -38.437  1.00  0.00     0.038 C 
ATOM      3  O   UNL     1      55.104  30.089 -39.063  1.00  0.00    -0.550 OA
ATOM      4  O   UNL     1      55.244  28.887 -37.118  1.00  0.00    -0.550 OA
ENDROOT
TORSDOF 0
ENDMDL
MODEL 6
REMARK VINA RESULT:    -2.182      6.945      7.272
REMARK INTER + INTRA:          -2.182
REMARK INTER:                  -2.182
REMARK INTRA:                   0.000
REMARK UNBOUND:                 0.000
REMARK SMILES CC(=O)[O-]
REMARK SMILES IDX 1 1 2 2 3 3 4 4
REMARK H PARENT
REMARK Flexibility Score: inf
ROOT
ATOM      1  C   UNL     1      41.009  14.858 -36.072  1.00  0.00     0.063 C 
ATOM      2  C   UNL     1      39.710  14.195 -35.765  1.00  0.00     0.038 C 
ATOM      3  O   UNL     1      38.757  14.864 -35.284  1.00  0.00    -0.550 OA
ATOM      4  O   UNL     1      39.563  12.828 -35.960  1.00  0.00    -0.550 OA
ENDROOT
TORSDOF 0
ENDMDL
MODEL 7
REMARK VINA RESULT:    -2.116      7.883      8.488
REMARK INTER + INTRA:          -2.116
REMARK INTER:                  -2.116
REMARK INTRA:                   0.000
REMARK UNBOUND:                 0.000
REMARK SMILES CC(=O)[O-]
REMARK SMILES IDX 1 1 2 2 3 3 4 4
REMARK H PARENT
REMARK Flexibility Score: inf
ROOT
ATOM      1  C   UNL     1      37.687  13.707 -36.822  1.00  0.00     0.063 C 
ATOM      2  C   UNL     1      38.401  14.474 -35.761  1.00  0.00     0.038 C 
ATOM      3  O   UNL     1      37.747  15.127 -34.905  1.00  0.00    -0.550 OA
ATOM      4  O   UNL     1      39.789  14.514 -35.746  1.00  0.00    -0.550 OA
ENDROOT
TORSDOF 0
ENDMDL
MODEL 8
REMARK VINA RESULT:    -2.050     17.607     18.073
REMARK INTER + INTRA:          -2.050
REMARK INTER:                  -2.050
REMARK INTRA:                   0.000
REMARK UNBOUND:                 0.000
REMARK SMILES CC(=O)[O-]
REMARK SMILES IDX 1 1 2 2 3 3 4 4
REMARK H PARENT
REMARK Flexibility Score: inf
ROOT
ATOM      1  C   UNL     1      56.018  27.626 -33.756  1.00  0.00     0.063 C 
ATOM      2  C   UNL     1      55.659  27.286 -35.162  1.00  0.00     0.038 C 
ATOM      3  O   UNL     1      55.650  28.182 -36.046  1.00  0.00    -0.550 OA
ATOM      4  O   UNL     1      55.284  25.990 -35.490  1.00  0.00    -0.550 OA
ENDROOT
TORSDOF 0
ENDMDL
MODEL 9
REMARK VINA RESULT:    -1.907      7.104      7.435
REMARK INTER + INTRA:          -1.907
REMARK INTER:                  -1.907
REMARK INTRA:                   0.000
REMARK UNBOUND:                 0.000
REMARK SMILES CC(=O)[O-]
REMARK SMILES IDX 1 1 2 2 3 3 4 4
REMARK H PARENT
REMARK Flexibility Score: inf
ROOT
ATOM      1  C   UNL     1      45.613  11.875 -25.858  1.00  0.00     0.063 C 
ATOM      2  C   UNL     1      45.023  12.668 -24.743  1.00  0.00     0.038 C 
ATOM      3  O   UNL     1      43.776  12.681 -24.567  1.00  0.00    -0.550 OA
ATOM      4  O   UNL     1      45.842  13.438 -23.928  1.00  0.00    -0.550 OA
ENDROOT
TORSDOF 0
ENDMDL
