MODEL 1
REMARK VINA RESULT:    -5.456      0.000      0.000
REMARK INTER + INTRA:          -5.775
REMARK INTER:                  -5.775
REMARK INTRA:                   0.000
REMARK UNBOUND:                 0.000
REMARK SMILES O=c1ccc2cc(O)c(O)cc2o1
REMARK SMILES IDX 4 1 3 2 2 3 1 4 13 5 12 6 11 7 9 8 7 9 6 10 5 11 8 12 10 14
REMARK H PARENT 8 13 10 15
REMARK Flexibility Score: inf
ROOT
ATOM      1  C   UNL     1      79.363  66.254   2.452  1.00  0.00     0.019 A 
ATOM      2  C   UNL     1      80.627  66.132   1.875  1.00  0.00     0.094 A 
ATOM      3  C   UNL     1      81.516  65.179   2.384  1.00  0.00     0.336 A 
ATOM      4  O   UNL     1      82.662  65.054   1.877  1.00  0.00    -0.246 OA
ATOM      5  O   UNL     1      81.158  64.401   3.402  1.00  0.00    -0.423 OA
ATOM      6  C   UNL     1      79.962  64.484   3.980  1.00  0.00     0.142 A 
ATOM      7  C   UNL     1      79.641  63.640   5.046  1.00  0.00     0.098 A 
ATOM      8  C   UNL     1      78.387  63.716   5.665  1.00  0.00     0.161 A 
ATOM      9  C   UNL     1      77.435  64.659   5.204  1.00  0.00     0.158 A 
ATOM     10  C   UNL     1      77.759  65.503   4.135  1.00  0.00     0.062 A 
ATOM     11  C   UNL     1      79.015  65.422   3.521  1.00  0.00     0.022 A 
ENDROOT
BRANCH   9  12
ATOM     12  O   UNL     1      76.166  64.789   5.774  1.00  0.00    -0.504 OA
ATOM     13  H   UNL     1      75.995  64.829   6.768  1.00  0.00     0.293 HD
ENDBRANCH   9  12
BRANCH   8  14
ATOM     14  O   UNL     1      78.132  62.844   6.725  1.00  0.00    -0.504 OA
ATOM     15  H   UNL     1      77.638  61.967   6.630  1.00  0.00     0.293 HD
ENDBRANCH   8  14
TORSDOF 2
ENDMDL
MODEL 2
REMARK VINA RESULT:    -4.783      1.778      2.353
REMARK INTER + INTRA:          -5.063
REMARK INTER:                  -5.063
REMARK INTRA:                   0.000
REMARK UNBOUND:                 0.000
REMARK SMILES O=c1ccc2cc(O)c(O)cc2o1
REMARK SMILES IDX 4 1 3 2 2 3 1 4 13 5 12 6 11 7 9 8 7 9 6 10 5 11 8 12 10 14
REMARK H PARENT 8 13 10 15
REMARK Flexibility Score: inf
ROOT
ATOM      1  C   UNL     1      80.037  62.567   2.633  1.00  0.00     0.019 A 
ATOM      2  C   UNL     1      80.786  63.496   1.911  1.00  0.00     0.094 A 
ATOM      3  C   UNL     1      81.120  64.713   2.513  1.00  0.00     0.336 A 
ATOM      4  O   UNL     1      81.795  65.565   1.878  1.00  0.00    -0.246 OA
ATOM      5  O   UNL     1      80.729  64.978   3.757  1.00  0.00    -0.423 OA
ATOM      6  C   UNL     1      80.014  64.119   4.481  1.00  0.00     0.142 A 
ATOM      7  C   UNL     1      79.632  64.452   5.783  1.00  0.00     0.098 A 
ATOM      8  C   UNL     1      78.880  63.559   6.556  1.00  0.00     0.161 A 
ATOM      9  C   UNL     1      78.503  62.306   6.012  1.00  0.00     0.158 A 
ATOM     10  C   UNL     1      78.888  61.975   4.707  1.00  0.00     0.062 A 
ATOM     11  C   UNL     1      79.641  62.873   3.939  1.00  0.00     0.022 A 
ENDROOT
BRANCH   9  12
ATOM     12  O   UNL     1      77.754  61.369   6.727  1.00  0.00    -0.504 OA
ATOM     13  H   UNL     1      77.543  60.440   6.392  1.00  0.00     0.293 HD
ENDBRANCH   9  12
BRANCH   8  14
ATOM     14  O   UNL     1      78.530  63.954   7.850  1.00  0.00    -0.504 OA
ATOM     15  H   UNL     1      79.164  64.408   8.493  1.00  0.00     0.293 HD
ENDBRANCH   8  14
TORSDOF 2
ENDMDL
MODEL 3
REMARK VINA RESULT:    -4.176      6.559      9.723
REMARK INTER + INTRA:          -4.421
REMARK INTER:                  -4.421
REMARK INTRA:                   0.000
REMARK UNBOUND:                 0.000
REMARK SMILES O=c1ccc2cc(O)c(O)cc2o1
REMARK SMILES IDX 4 1 3 2 2 3 1 4 13 5 12 6 11 7 9 8 7 9 6 10 5 11 8 12 10 14
REMARK H PARENT 8 13 10 15
REMARK Flexibility Score: inf
ROOT
ATOM      1  C   UNL     1      78.093  59.499  11.854  1.00  0.00     0.019 A 
ATOM      2  C   UNL     1      77.367  58.735  12.767  1.00  0.00     0.094 A 
ATOM      3  C   UNL     1      76.287  57.974  12.308  1.00  0.00     0.336 A 
ATOM      4  O   UNL     1      75.619  57.278  13.117  1.00  0.00    -0.246 OA
ATOM      5  O   UNL     1      75.959  57.981  11.018  1.00  0.00    -0.423 OA
ATOM      6  C   UNL     1      76.626  58.695  10.114  1.00  0.00     0.142 A 
ATOM      7  C   UNL     1      76.237  58.663   8.773  1.00  0.00     0.098 A 
ATOM      8  C   UNL     1      76.928  59.409   7.810  1.00  0.00     0.161 A 
ATOM      9  C   UNL     1      78.033  60.204   8.201  1.00  0.00     0.158 A 
ATOM     10  C   UNL     1      78.422  60.234   9.547  1.00  0.00     0.062 A 
ATOM     11  C   UNL     1      77.726  59.485  10.504  1.00  0.00     0.022 A 
ENDROOT
BRANCH   9  12
ATOM     12  O   UNL     1      78.767  60.972   7.295  1.00  0.00    -0.504 OA
ATOM     13  H   UNL     1      79.744  61.198   7.407  1.00  0.00     0.293 HD
ENDBRANCH   9  12
BRANCH   8  14
ATOM     14  O   UNL     1      76.486  59.331   6.487  1.00  0.00    -0.504 OA
ATOM     15  H   UNL     1      76.865  58.694   5.801  1.00  0.00     0.293 HD
ENDBRANCH   8  14
TORSDOF 2
ENDMDL
MODEL 4
REMARK VINA RESULT:    -4.126      6.638      8.934
REMARK INTER + INTRA:          -4.367
REMARK INTER:                  -4.367
REMARK INTRA:                   0.000
REMARK UNBOUND:                 0.000
REMARK SMILES O=c1ccc2cc(O)c(O)cc2o1
REMARK SMILES IDX 4 1 3 2 2 3 1 4 13 5 12 6 11 7 9 8 7 9 6 10 5 11 8 12 10 14
REMARK H PARENT 8 13 10 15
REMARK Flexibility Score: inf
ROOT
ATOM      1  C   UNL     1      77.729  58.000   8.923  1.00  0.00     0.019 A 
ATOM      2  C   UNL     1      78.054  58.766   7.803  1.00  0.00     0.094 A 
ATOM      3  C   UNL     1      78.340  60.125   7.970  1.00  0.00     0.336 A 
ATOM      4  O   UNL     1      78.635  60.833   6.971  1.00  0.00    -0.246 OA
ATOM      5  O   UNL     1      78.303  60.676   9.180  1.00  0.00    -0.423 OA
ATOM      6  C   UNL     1      77.999  59.982  10.275  1.00  0.00     0.142 A 
ATOM      7  C   UNL     1      77.977  60.615  11.520  1.00  0.00     0.098 A 
ATOM      8  C   UNL     1      77.659  59.898  12.680  1.00  0.00     0.161 A 
ATOM      9  C   UNL     1      77.356  58.517  12.589  1.00  0.00     0.158 A 
ATOM     10  C   UNL     1      77.380  57.885  11.339  1.00  0.00     0.062 A 
ATOM     11  C   UNL     1      77.699  58.608  10.183  1.00  0.00     0.022 A 
ENDROOT
BRANCH   9  12
ATOM     12  O   UNL     1      77.031  57.741  13.703  1.00  0.00    -0.504 OA
ATOM     13  H   UNL     1      77.331  56.786  13.835  1.00  0.00     0.293 HD
ENDBRANCH   9  12
BRANCH   8  14
ATOM     14  O   UNL     1      77.654  60.591  13.892  1.00  0.00    -0.504 OA
ATOM     15  H   UNL     1      78.059  60.238  14.748  1.00  0.00     0.293 HD
ENDBRANCH   8  14
TORSDOF 2
ENDMDL
MODEL 5
REMARK VINA RESULT:    -4.099      5.826      8.836
REMARK INTER + INTRA:          -4.338
REMARK INTER:                  -4.338
REMARK INTRA:                   0.000
REMARK UNBOUND:                 0.000
REMARK SMILES O=c1ccc2cc(O)c(O)cc2o1
REMARK SMILES IDX 4 1 3 2 2 3 1 4 13 5 12 6 11 7 9 8 7 9 6 10 5 11 8 12 10 14
REMARK H PARENT 8 13 10 15
REMARK Flexibility Score: inf
ROOT
ATOM      1  C   UNL     1      77.379  57.388   9.019  1.00  0.00     0.019 A 
ATOM      2  C   UNL     1      77.385  56.879  10.317  1.00  0.00     0.094 A 
ATOM      3  C   UNL     1      77.732  57.724  11.376  1.00  0.00     0.336 A 
ATOM      4  O   UNL     1      77.744  57.283  12.556  1.00  0.00    -0.246 OA
ATOM      5  O   UNL     1      78.051  58.995  11.146  1.00  0.00    -0.423 OA
ATOM      6  C   UNL     1      78.057  59.522   9.923  1.00  0.00     0.142 A 
ATOM      7  C   UNL     1      78.400  60.863   9.742  1.00  0.00     0.098 A 
ATOM      8  C   UNL     1      78.411  61.431   8.461  1.00  0.00     0.161 A 
ATOM      9  C   UNL     1      78.072  60.635   7.339  1.00  0.00     0.158 A 
ATOM     10  C   UNL     1      77.728  59.290   7.525  1.00  0.00     0.062 A 
ATOM     11  C   UNL     1      77.719  58.729   8.808  1.00  0.00     0.022 A 
ENDROOT
BRANCH   9  12
ATOM     12  O   UNL     1      78.062  61.135   6.036  1.00  0.00    -0.504 OA
ATOM     13  H   UNL     1      77.338  60.939   5.360  1.00  0.00     0.293 HD
ENDBRANCH   9  12
BRANCH   8  14
ATOM     14  O   UNL     1      78.764  62.778   8.350  1.00  0.00    -0.504 OA
ATOM     15  H   UNL     1      79.112  63.336   9.118  1.00  0.00     0.293 HD
ENDBRANCH   8  14
TORSDOF 2
ENDMDL
MODEL 6
REMARK VINA RESULT:    -4.039      6.902      9.829
REMARK INTER + INTRA:          -4.275
REMARK INTER:                  -4.275
REMARK INTRA:                   0.000
REMARK UNBOUND:                 0.000
REMARK SMILES O=c1ccc2cc(O)c(O)cc2o1
REMARK SMILES IDX 4 1 3 2 2 3 1 4 13 5 12 6 11 7 9 8 7 9 6 10 5 11 8 12 10 14
REMARK H PARENT 8 13 10 15
REMARK Flexibility Score: inf
ROOT
ATOM      1  C   UNL     1      74.187  58.357   9.170  1.00  0.00     0.019 A 
ATOM      2  C   UNL     1      73.701  57.981  10.422  1.00  0.00     0.094 A 
ATOM      3  C   UNL     1      74.563  58.018  11.524  1.00  0.00     0.336 A 
ATOM      4  O   UNL     1      74.143  57.682  12.662  1.00  0.00    -0.246 OA
ATOM      5  O   UNL     1      75.826  58.407  11.376  1.00  0.00    -0.423 OA
ATOM      6  C   UNL     1      76.330  58.774  10.200  1.00  0.00     0.142 A 
ATOM      7  C   UNL     1      77.665  59.174  10.106  1.00  0.00     0.098 A 
ATOM      8  C   UNL     1      78.209  59.563   8.875  1.00  0.00     0.161 A 
ATOM      9  C   UNL     1      77.396  59.550   7.715  1.00  0.00     0.158 A 
ATOM     10  C   UNL     1      76.058  59.149   7.813  1.00  0.00     0.062 A 
ATOM     11  C   UNL     1      75.521  58.762   9.046  1.00  0.00     0.022 A 
ENDROOT
BRANCH   9  12
ATOM     12  O   UNL     1      77.873  59.925   6.457  1.00  0.00    -0.504 OA
ATOM     13  H   UNL     1      78.748  59.608   6.066  1.00  0.00     0.293 HD
ENDBRANCH   9  12
BRANCH   8  14
ATOM     14  O   UNL     1      79.551  59.951   8.851  1.00  0.00    -0.504 OA
ATOM     15  H   UNL     1      79.942  60.669   9.445  1.00  0.00     0.293 HD
ENDBRANCH   8  14
TORSDOF 2
ENDMDL
MODEL 7
REMARK VINA RESULT:    -4.033      6.662      9.774
REMARK INTER + INTRA:          -4.269
REMARK INTER:                  -4.269
REMARK INTRA:                   0.000
REMARK UNBOUND:                 0.000
REMARK SMILES O=c1ccc2cc(O)c(O)cc2o1
REMARK SMILES IDX 4 1 3 2 2 3 1 4 13 5 12 6 11 7 9 8 7 9 6 10 5 11 8 12 10 14
REMARK H PARENT 8 13 10 15
REMARK Flexibility Score: inf
ROOT
ATOM      1  C   UNL     1      75.410  58.193  10.980  1.00  0.00     0.019 A 
ATOM      2  C   UNL     1      74.069  57.824  10.888  1.00  0.00     0.094 A 
ATOM      3  C   UNL     1      73.399  57.996   9.672  1.00  0.00     0.336 A 
ATOM      4  O   UNL     1      72.188  57.669   9.569  1.00  0.00    -0.246 OA
ATOM      5  O   UNL     1      74.036  58.505   8.621  1.00  0.00    -0.423 OA
ATOM      6  C   UNL     1      75.315  58.869   8.665  1.00  0.00     0.142 A 
ATOM      7  C   UNL     1      75.931  59.398   7.528  1.00  0.00     0.098 A 
ATOM      8  C   UNL     1      77.276  59.786   7.560  1.00  0.00     0.161 A 
ATOM      9  C   UNL     1      78.019  59.641   8.758  1.00  0.00     0.158 A 
ATOM     10  C   UNL     1      77.398  59.111   9.896  1.00  0.00     0.062 A 
ATOM     11  C   UNL     1      76.053  58.725   9.857  1.00  0.00     0.022 A 
ENDROOT
BRANCH   9  12
ATOM     12  O   UNL     1      79.362  60.008   8.860  1.00  0.00    -0.504 OA
ATOM     13  H   UNL     1      79.963  59.744   9.627  1.00  0.00     0.293 HD
ENDBRANCH   9  12
BRANCH   8  14
ATOM     14  O   UNL     1      77.830  60.307   6.388  1.00  0.00    -0.504 OA
ATOM     15  H   UNL     1      77.320  60.422   5.524  1.00  0.00     0.293 HD
ENDBRANCH   8  14
TORSDOF 2
ENDMDL
MODEL 8
REMARK VINA RESULT:    -4.020      6.262      8.446
REMARK INTER + INTRA:          -4.255
REMARK INTER:                  -4.255
REMARK INTRA:                   0.000
REMARK UNBOUND:                 0.000
REMARK SMILES O=c1ccc2cc(O)c(O)cc2o1
REMARK SMILES IDX 4 1 3 2 2 3 1 4 13 5 12 6 11 7 9 8 7 9 6 10 5 11 8 12 10 14
REMARK H PARENT 8 13 10 15
REMARK Flexibility Score: inf
ROOT
ATOM      1  C   UNL     1      78.587  58.799   8.703  1.00  0.00     0.019 A 
ATOM      2  C   UNL     1      78.922  59.552   7.577  1.00  0.00     0.094 A 
ATOM      3  C   UNL     1      77.898  60.068   6.777  1.00  0.00     0.336 A 
ATOM      4  O   UNL     1      78.180  60.750   5.756  1.00  0.00    -0.246 OA
ATOM      5  O   UNL     1      76.624  59.845   7.088  1.00  0.00    -0.423 OA
ATOM      6  C   UNL     1      76.260  59.134   8.152  1.00  0.00     0.142 A 
ATOM      7  C   UNL     1      74.906  58.932   8.429  1.00  0.00     0.098 A 
ATOM      8  C   UNL     1      74.508  58.185   9.546  1.00  0.00     0.161 A 
ATOM      9  C   UNL     1      75.490  57.629  10.402  1.00  0.00     0.158 A 
ATOM     10  C   UNL     1      76.848  57.834  10.122  1.00  0.00     0.062 A 
ATOM     11  C   UNL     1      77.238  58.581   9.004  1.00  0.00     0.022 A 
ENDROOT
BRANCH   9  12
ATOM     12  O   UNL     1      75.166  56.875  11.532  1.00  0.00    -0.504 OA
ATOM     13  H   UNL     1      75.353  57.167  12.479  1.00  0.00     0.293 HD
ENDBRANCH   9  12
BRANCH   8  14
ATOM     14  O   UNL     1      73.138  58.022   9.764  1.00  0.00    -0.504 OA
ATOM     15  H   UNL     1      72.652  57.141   9.669  1.00  0.00     0.293 HD
ENDBRANCH   8  14
TORSDOF 2
ENDMDL
MODEL 9
REMARK VINA RESULT:    -3.916      2.864      5.781
REMARK INTER + INTRA:          -4.145
REMARK INTER:                  -4.145
REMARK INTRA:                   0.000
REMARK UNBOUND:                 0.000
REMARK SMILES O=c1ccc2cc(O)c(O)cc2o1
REMARK SMILES IDX 4 1 3 2 2 3 1 4 13 5 12 6 11 7 9 8 7 9 6 10 5 11 8 12 10 14
REMARK H PARENT 8 13 10 15
REMARK Flexibility Score: inf
ROOT
ATOM      1  C   UNL     1      78.496  59.905   6.310  1.00  0.00     0.019 A 
ATOM      2  C   UNL     1      78.461  59.622   7.675  1.00  0.00     0.094 A 
ATOM      3  C   UNL     1      78.471  60.681   8.588  1.00  0.00     0.336 A 
ATOM      4  O   UNL     1      78.440  60.446   9.825  1.00  0.00    -0.246 OA
ATOM      5  O   UNL     1      78.513  61.939   8.159  1.00  0.00    -0.423 OA
ATOM      6  C   UNL     1      78.546  62.254   6.866  1.00  0.00     0.142 A 
ATOM      7  C   UNL     1      78.588  63.594   6.473  1.00  0.00     0.098 A 
ATOM      8  C   UNL     1      78.624  63.940   5.116  1.00  0.00     0.161 A 
ATOM      9  C   UNL     1      78.617  62.920   4.133  1.00  0.00     0.158 A 
ATOM     10  C   UNL     1      78.574  61.577   4.530  1.00  0.00     0.062 A 
ATOM     11  C   UNL     1      78.539  61.239   5.888  1.00  0.00     0.022 A 
ENDROOT
BRANCH   9  12
ATOM     12  O   UNL     1      78.651  63.193   2.764  1.00  0.00    -0.504 OA
ATOM     13  H   UNL     1      78.870  64.097   2.373  1.00  0.00     0.293 HD
ENDBRANCH   9  12
BRANCH   8  14
ATOM     14  O   UNL     1      78.666  65.298   4.793  1.00  0.00    -0.504 OA
ATOM     15  H   UNL     1      78.015  65.984   5.149  1.00  0.00     0.293 HD
ENDBRANCH   8  14
TORSDOF 2
ENDMDL
