MODEL 1
REMARK VINA RESULT:    21.284      0.000      0.000
REMARK INTER + INTRA:          55.218
REMARK INTER:                  56.122
REMARK INTRA:                  -0.904
REMARK UNBOUND:                -0.904
REMARK SMILES CCCCCCCCCCCCCCCCCCCCCCCCCCCCCC(=O)[O-]
REMARK SMILES IDX 16 1 17 2 18 3 19 4 20 5 21 6 22 7 23 8 24 9 25 10 26 11
REMARK SMILES IDX 27 12 28 13 29 14 30 15 31 16 32 17 15 18 14 19 13 20 12 21
REMARK SMILES IDX 11 22 10 23 9 24 8 25 7 26 6 27 5 28 4 29 3 30 2 31 1 32
REMARK H PARENT
REMARK Flexibility Score: inf
ROOT
ATOM      1  C   UNL     1     -11.577  27.608 -15.590  1.00  0.00     0.000 C 
ENDROOT
BRANCH   1   2
ATOM      2  C   UNL     1     -11.248  26.118 -15.397  1.00  0.00     0.000 C 
BRANCH   2   3
ATOM      3  C   UNL     1      -9.926  25.711 -16.069  1.00  0.00     0.000 C 
BRANCH   3   4
ATOM      4  C   UNL     1      -8.940  25.048 -15.089  1.00  0.00     0.000 C 
BRANCH   4   5
ATOM      5  C   UNL     1      -7.471  25.392 -15.397  1.00  0.00     0.000 C 
BRANCH   5   6
ATOM      6  C   UNL     1      -6.446  24.345 -14.924  1.00  0.00     0.000 C 
BRANCH   6   7
ATOM      7  C   UNL     1      -6.681  22.913 -15.443  1.00  0.00     0.000 C 
BRANCH   7   8
ATOM      8  C   UNL     1      -5.911  21.826 -14.662  1.00  0.00     0.000 C 
BRANCH   8   9
ATOM      9  C   UNL     1      -4.819  22.409 -13.749  1.00  0.00     0.000 C 
BRANCH   9  10
ATOM     10  C   UNL     1      -5.327  22.677 -12.322  1.00  0.00     0.000 C 
BRANCH  10  11
ATOM     11  C   UNL     1      -6.241  21.550 -11.809  1.00  0.00     0.000 C 
BRANCH  11  12
ATOM     12  C   UNL     1      -5.488  20.229 -11.581  1.00  0.00     0.000 C 
BRANCH  12  13
ATOM     13  C   UNL     1      -6.361  19.152 -10.916  1.00  0.00     0.006 C 
BRANCH  13  14
ATOM     14  C   UNL     1      -5.973  17.753 -11.407  1.00  0.00     0.053 C 
BRANCH  14  15
ATOM     15  C   UNL     1      -6.692  17.412 -12.676  1.00  0.00     0.041 C 
ATOM     16  O   UNL     1      -6.991  18.320 -13.497  1.00  0.00    -0.550 OA
ATOM     17  O   UNL     1      -7.008  16.091 -12.969  1.00  0.00    -0.550 OA
ENDBRANCH  14  15
ENDBRANCH  13  14
ENDBRANCH  12  13
ENDBRANCH  11  12
ENDBRANCH  10  11
ENDBRANCH   9  10
ENDBRANCH   8   9
ENDBRANCH   7   8
ENDBRANCH   6   7
ENDBRANCH   5   6
ENDBRANCH   4   5
ENDBRANCH   3   4
ENDBRANCH   2   3
ENDBRANCH   1   2
BRANCH   1  18
ATOM     18  C   UNL     1     -12.982  27.841 -16.181  1.00  0.00     0.000 C 
BRANCH  18  19
ATOM     19  C   UNL     1     -13.963  28.578 -15.252  1.00  0.00     0.000 C 
BRANCH  19  20
ATOM     20  C   UNL     1     -14.479  29.897 -15.852  1.00  0.00     0.000 C 
BRANCH  20  21
ATOM     21  C   UNL     1     -13.590  30.408 -16.998  1.00  0.00     0.000 C 
BRANCH  21  22
ATOM     22  C   UNL     1     -14.403  30.799 -18.243  1.00  0.00     0.000 C 
BRANCH  22  23
ATOM     23  C   UNL     1     -14.158  32.254 -18.682  1.00  0.00     0.000 C 
BRANCH  23  24
ATOM     24  C   UNL     1     -15.384  32.962 -19.291  1.00  0.00    -0.000 C 
BRANCH  24  25
ATOM     25  C   UNL     1     -15.114  34.375 -19.845  1.00  0.00    -0.000 C 
BRANCH  25  26
ATOM     26  C   UNL     1     -15.243  35.515 -18.816  1.00  0.00    -0.000 C 
BRANCH  26  27
ATOM     27  C   UNL     1     -16.659  35.720 -18.249  1.00  0.00    -0.000 C 
BRANCH  27  28
ATOM     28  C   UNL     1     -17.763  35.318 -19.241  1.00  0.00    -0.000 C 
BRANCH  28  29
ATOM     29  C   UNL     1     -19.071  34.915 -18.538  1.00  0.00    -0.000 C 
BRANCH  29  30
ATOM     30  C   UNL     1     -19.973  36.119 -18.232  1.00  0.00    -0.000 C 
BRANCH  30  31
ATOM     31  C   UNL     1     -21.091  35.734 -17.255  1.00  0.00    -0.003 C 
ATOM     32  C   UNL     1     -20.666  35.971 -15.810  1.00  0.00     0.004 C 
ENDBRANCH  30  31
ENDBRANCH  29  30
ENDBRANCH  28  29
ENDBRANCH  27  28
ENDBRANCH  26  27
ENDBRANCH  25  26
ENDBRANCH  24  25
ENDBRANCH  23  24
ENDBRANCH  22  23
ENDBRANCH  21  22
ENDBRANCH  20  21
ENDBRANCH  19  20
ENDBRANCH  18  19
ENDBRANCH   1  18
TORSDOF 28
ENDMDL
MODEL 2
REMARK VINA RESULT:    21.399      1.460      1.934
REMARK INTER + INTRA:          55.522
REMARK INTER:                  56.669
REMARK INTRA:                  -1.147
REMARK UNBOUND:                -0.904
REMARK SMILES CCCCCCCCCCCCCCCCCCCCCCCCCCCCCC(=O)[O-]
REMARK SMILES IDX 16 1 17 2 18 3 19 4 20 5 21 6 22 7 23 8 24 9 25 10 26 11
REMARK SMILES IDX 27 12 28 13 29 14 30 15 31 16 32 17 15 18 14 19 13 20 12 21
REMARK SMILES IDX 11 22 10 23 9 24 8 25 7 26 6 27 5 28 4 29 3 30 2 31 1 32
REMARK H PARENT
REMARK Flexibility Score: inf
ROOT
ATOM      1  C   UNL     1     -11.104  26.874 -14.849  1.00  0.00     0.000 C 
ENDROOT
BRANCH   1   2
ATOM      2  C   UNL     1     -10.446  26.407 -16.159  1.00  0.00     0.000 C 
BRANCH   2   3
ATOM      3  C   UNL     1      -9.320  25.388 -15.926  1.00  0.00     0.000 C 
BRANCH   3   4
ATOM      4  C   UNL     1      -8.383  25.789 -14.771  1.00  0.00     0.000 C 
BRANCH   4   5
ATOM      5  C   UNL     1      -6.933  25.319 -14.987  1.00  0.00     0.000 C 
BRANCH   5   6
ATOM      6  C   UNL     1      -6.554  24.020 -14.253  1.00  0.00     0.000 C 
BRANCH   6   7
ATOM      7  C   UNL     1      -5.858  22.953 -15.121  1.00  0.00     0.000 C 
BRANCH   7   8
ATOM      8  C   UNL     1      -5.770  21.562 -14.458  1.00  0.00     0.000 C 
BRANCH   8   9
ATOM      9  C   UNL     1      -5.771  21.634 -12.920  1.00  0.00     0.000 C 
BRANCH   9  10
ATOM     10  C   UNL     1      -5.907  20.248 -12.267  1.00  0.00     0.000 C 
BRANCH  10  11
ATOM     11  C   UNL     1      -7.053  19.425 -12.883  1.00  0.00     0.000 C 
BRANCH  11  12
ATOM     12  C   UNL     1      -6.560  18.158 -13.600  1.00  0.00     0.000 C 
BRANCH  12  13
ATOM     13  C   UNL     1      -6.957  16.866 -12.867  1.00  0.00     0.006 C 
BRANCH  13  14
ATOM     14  C   UNL     1      -5.785  15.879 -12.823  1.00  0.00     0.053 C 
BRANCH  14  15
ATOM     15  C   UNL     1      -4.868  16.187 -11.679  1.00  0.00     0.041 C 
ATOM     16  O   UNL     1      -3.648  15.877 -11.745  1.00  0.00    -0.550 OA
ATOM     17  O   UNL     1      -5.350  16.841 -10.551  1.00  0.00    -0.550 OA
ENDBRANCH  14  15
ENDBRANCH  13  14
ENDBRANCH  12  13
ENDBRANCH  11  12
ENDBRANCH  10  11
ENDBRANCH   9  10
ENDBRANCH   8   9
ENDBRANCH   7   8
ENDBRANCH   6   7
ENDBRANCH   5   6
ENDBRANCH   4   5
ENDBRANCH   3   4
ENDBRANCH   2   3
ENDBRANCH   1   2
BRANCH   1  18
ATOM     18  C   UNL     1     -12.641  26.939 -14.940  1.00  0.00     0.000 C 
BRANCH  18  19
ATOM     19  C   UNL     1     -13.216  28.330 -15.260  1.00  0.00     0.000 C 
BRANCH  19  20
ATOM     20  C   UNL     1     -13.979  28.370 -16.595  1.00  0.00     0.000 C 
BRANCH  20  21
ATOM     21  C   UNL     1     -14.701  29.709 -16.818  1.00  0.00     0.000 C 
BRANCH  21  22
ATOM     22  C   UNL     1     -13.978  30.604 -17.839  1.00  0.00     0.000 C 
BRANCH  22  23
ATOM     23  C   UNL     1     -14.851  31.772 -18.332  1.00  0.00     0.000 C 
BRANCH  23  24
ATOM     24  C   UNL     1     -14.176  33.156 -18.272  1.00  0.00    -0.000 C 
BRANCH  24  25
ATOM     25  C   UNL     1     -14.033  33.872 -19.629  1.00  0.00    -0.000 C 
BRANCH  25  26
ATOM     26  C   UNL     1     -15.356  34.358 -20.252  1.00  0.00    -0.000 C 
BRANCH  26  27
ATOM     27  C   UNL     1     -16.326  35.038 -19.268  1.00  0.00    -0.000 C 
BRANCH  27  28
ATOM     28  C   UNL     1     -17.317  34.050 -18.629  1.00  0.00    -0.000 C 
BRANCH  28  29
ATOM     29  C   UNL     1     -18.487  34.758 -17.928  1.00  0.00    -0.000 C 
BRANCH  29  30
ATOM     30  C   UNL     1     -19.148  35.826 -18.813  1.00  0.00    -0.000 C 
BRANCH  30  31
ATOM     31  C   UNL     1     -20.674  35.664 -18.821  1.00  0.00    -0.003 C 
ATOM     32  C   UNL     1     -21.075  34.232 -19.158  1.00  0.00     0.004 C 
ENDBRANCH  30  31
ENDBRANCH  29  30
ENDBRANCH  28  29
ENDBRANCH  27  28
ENDBRANCH  26  27
ENDBRANCH  25  26
ENDBRANCH  24  25
ENDBRANCH  23  24
ENDBRANCH  22  23
ENDBRANCH  21  22
ENDBRANCH  20  21
ENDBRANCH  19  20
ENDBRANCH  18  19
ENDBRANCH   1  18
TORSDOF 28
ENDMDL
MODEL 3
REMARK VINA RESULT:    21.490      6.138      8.142
REMARK INTER + INTRA:          55.762
REMARK INTER:                  49.218
REMARK INTRA:                   6.543
REMARK UNBOUND:                -0.904
REMARK SMILES CCCCCCCCCCCCCCCCCCCCCCCCCCCCCC(=O)[O-]
REMARK SMILES IDX 16 1 17 2 18 3 19 4 20 5 21 6 22 7 23 8 24 9 25 10 26 11
REMARK SMILES IDX 27 12 28 13 29 14 30 15 31 16 32 17 15 18 14 19 13 20 12 21
REMARK SMILES IDX 11 22 10 23 9 24 8 25 7 26 6 27 5 28 4 29 3 30 2 31 1 32
REMARK H PARENT
REMARK Flexibility Score: inf
ROOT
ATOM      1  C   UNL     1     -14.011  32.070 -19.321  1.00  0.00     0.000 C 
ENDROOT
BRANCH   1   2
ATOM      2  C   UNL     1     -15.013  31.073 -18.713  1.00  0.00     0.000 C 
BRANCH   2   3
ATOM      3  C   UNL     1     -14.654  30.676 -17.272  1.00  0.00     0.000 C 
BRANCH   3   4
ATOM      4  C   UNL     1     -13.707  29.463 -17.207  1.00  0.00     0.000 C 
BRANCH   4   5
ATOM      5  C   UNL     1     -13.956  28.577 -15.972  1.00  0.00     0.000 C 
BRANCH   5   6
ATOM      6  C   UNL     1     -12.768  27.688 -15.560  1.00  0.00     0.000 C 
BRANCH   6   7
ATOM      7  C   UNL     1     -11.726  27.430 -16.665  1.00  0.00     0.000 C 
BRANCH   7   8
ATOM      8  C   UNL     1     -12.243  27.703 -18.094  1.00  0.00     0.000 C 
BRANCH   8   9
ATOM      9  C   UNL     1     -11.448  26.943 -19.171  1.00  0.00     0.000 C 
BRANCH   9  10
ATOM     10  C   UNL     1     -12.359  26.303 -20.233  1.00  0.00     0.000 C 
BRANCH  10  11
ATOM     11  C   UNL     1     -13.503  25.490 -19.602  1.00  0.00     0.000 C 
BRANCH  11  12
ATOM     12  C   UNL     1     -13.820  24.204 -20.381  1.00  0.00     0.000 C 
BRANCH  12  13
ATOM     13  C   UNL     1     -15.132  23.541 -19.930  1.00  0.00     0.006 C 
BRANCH  13  14
ATOM     14  C   UNL     1     -14.854  22.347 -19.009  1.00  0.00     0.053 C 
BRANCH  14  15
ATOM     15  C   UNL     1     -14.035  21.308 -19.713  1.00  0.00     0.041 C 
ATOM     16  O   UNL     1     -14.413  20.106 -19.722  1.00  0.00    -0.550 OA
ATOM     17  O   UNL     1     -12.872  21.668 -20.381  1.00  0.00    -0.550 OA
ENDBRANCH  14  15
ENDBRANCH  13  14
ENDBRANCH  12  13
ENDBRANCH  11  12
ENDBRANCH  10  11
ENDBRANCH   9  10
ENDBRANCH   8   9
ENDBRANCH   7   8
ENDBRANCH   6   7
ENDBRANCH   5   6
ENDBRANCH   4   5
ENDBRANCH   3   4
ENDBRANCH   2   3
ENDBRANCH   1   2
BRANCH   1  18
ATOM     18  C   UNL     1     -14.646  33.438 -19.641  1.00  0.00     0.000 C 
BRANCH  18  19
ATOM     19  C   UNL     1     -15.918  33.378 -20.504  1.00  0.00     0.000 C 
BRANCH  19  20
ATOM     20  C   UNL     1     -17.050  34.270 -19.966  1.00  0.00     0.000 C 
BRANCH  20  21
ATOM     21  C   UNL     1     -17.946  34.821 -21.087  1.00  0.00     0.000 C 
BRANCH  21  22
ATOM     22  C   UNL     1     -19.220  35.492 -20.545  1.00  0.00     0.000 C 
BRANCH  22  23
ATOM     23  C   UNL     1     -20.129  34.514 -19.779  1.00  0.00     0.000 C 
BRANCH  23  24
ATOM     24  C   UNL     1     -20.244  34.787 -18.266  1.00  0.00    -0.000 C 
BRANCH  24  25
ATOM     25  C   UNL     1     -18.978  34.464 -17.447  1.00  0.00    -0.000 C 
BRANCH  25  26
ATOM     26  C   UNL     1     -18.040  35.661 -17.197  1.00  0.00    -0.000 C 
BRANCH  26  27
ATOM     27  C   UNL     1     -17.231  36.119 -18.424  1.00  0.00    -0.000 C 
BRANCH  27  28
ATOM     28  C   UNL     1     -15.714  36.125 -18.171  1.00  0.00    -0.000 C 
BRANCH  28  29
ATOM     29  C   UNL     1     -15.170  34.731 -17.818  1.00  0.00    -0.000 C 
BRANCH  29  30
ATOM     30  C   UNL     1     -13.964  34.790 -16.868  1.00  0.00    -0.000 C 
BRANCH  30  31
ATOM     31  C   UNL     1     -14.004  36.058 -16.007  1.00  0.00    -0.003 C 
ATOM     32  C   UNL     1     -13.484  35.786 -14.599  1.00  0.00     0.004 C 
ENDBRANCH  30  31
ENDBRANCH  29  30
ENDBRANCH  28  29
ENDBRANCH  27  28
ENDBRANCH  26  27
ENDBRANCH  25  26
ENDBRANCH  24  25
ENDBRANCH  23  24
ENDBRANCH  22  23
ENDBRANCH  21  22
ENDBRANCH  20  21
ENDBRANCH  19  20
ENDBRANCH  18  19
ENDBRANCH   1  18
TORSDOF 28
ENDMDL
MODEL 4
REMARK VINA RESULT:    21.784      5.699     17.527
REMARK INTER + INTRA:          56.537
REMARK INTER:                  57.027
REMARK INTRA:                  -0.490
REMARK UNBOUND:                -0.904
REMARK SMILES CCCCCCCCCCCCCCCCCCCCCCCCCCCCCC(=O)[O-]
REMARK SMILES IDX 16 1 17 2 18 3 19 4 20 5 21 6 22 7 23 8 24 9 25 10 26 11
REMARK SMILES IDX 27 12 28 13 29 14 30 15 31 16 32 17 15 18 14 19 13 20 12 21
REMARK SMILES IDX 11 22 10 23 9 24 8 25 7 26 6 27 5 28 4 29 3 30 2 31 1 32
REMARK H PARENT
REMARK Flexibility Score: inf
ROOT
ATOM      1  C   UNL     1      -8.793  25.948 -15.883  1.00  0.00     0.000 C 
ENDROOT
BRANCH   1   2
ATOM      2  C   UNL     1     -10.153  26.388 -15.314  1.00  0.00     0.000 C 
BRANCH   2   3
ATOM      3  C   UNL     1     -11.090  26.957 -16.391  1.00  0.00     0.000 C 
BRANCH   3   4
ATOM      4  C   UNL     1     -12.317  27.671 -15.796  1.00  0.00     0.000 C 
BRANCH   4   5
ATOM      5  C   UNL     1     -12.837  28.812 -16.690  1.00  0.00     0.000 C 
BRANCH   5   6
ATOM      6  C   UNL     1     -14.268  29.284 -16.376  1.00  0.00     0.000 C 
BRANCH   6   7
ATOM      7  C   UNL     1     -14.980  30.032 -17.520  1.00  0.00     0.000 C 
BRANCH   7   8
ATOM      8  C   UNL     1     -14.160  31.195 -18.118  1.00  0.00     0.000 C 
BRANCH   8   9
ATOM      9  C   UNL     1     -14.646  31.610 -19.518  1.00  0.00     0.000 C 
BRANCH   9  10
ATOM     10  C   UNL     1     -15.724  32.706 -19.465  1.00  0.00     0.000 C 
BRANCH  10  11
ATOM     11  C   UNL     1     -15.449  33.739 -18.357  1.00  0.00     0.000 C 
BRANCH  11  12
ATOM     12  C   UNL     1     -15.584  35.189 -18.848  1.00  0.00     0.000 C 
BRANCH  12  13
ATOM     13  C   UNL     1     -17.048  35.641 -18.975  1.00  0.00     0.006 C 
BRANCH  13  14
ATOM     14  C   UNL     1     -17.987  34.662 -18.262  1.00  0.00     0.053 C 
BRANCH  14  15
ATOM     15  C   UNL     1     -19.274  34.508 -19.016  1.00  0.00     0.041 C 
ATOM     16  O   UNL     1     -19.257  34.270 -20.253  1.00  0.00    -0.550 OA
ATOM     17  O   UNL     1     -20.490  34.600 -18.350  1.00  0.00    -0.550 OA
ENDBRANCH  14  15
ENDBRANCH  13  14
ENDBRANCH  12  13
ENDBRANCH  11  12
ENDBRANCH  10  11
ENDBRANCH   9  10
ENDBRANCH   8   9
ENDBRANCH   7   8
ENDBRANCH   6   7
ENDBRANCH   5   6
ENDBRANCH   4   5
ENDBRANCH   3   4
ENDBRANCH   2   3
ENDBRANCH   1   2
BRANCH   1  18
ATOM     18  C   UNL     1      -8.406  24.514 -15.472  1.00  0.00     0.000 C 
BRANCH  18  19
ATOM     19  C   UNL     1      -7.338  24.420 -14.367  1.00  0.00     0.000 C 
BRANCH  19  20
ATOM     20  C   UNL     1      -6.130  23.559 -14.774  1.00  0.00     0.000 C 
BRANCH  20  21
ATOM     21  C   UNL     1      -5.279  23.134 -13.565  1.00  0.00     0.000 C 
BRANCH  21  22
ATOM     22  C   UNL     1      -5.179  21.605 -13.425  1.00  0.00     0.000 C 
BRANCH  22  23
ATOM     23  C   UNL     1      -6.175  21.034 -12.400  1.00  0.00     0.000 C 
BRANCH  23  24
ATOM     24  C   UNL     1      -6.241  19.495 -12.350  1.00  0.00    -0.000 C 
BRANCH  24  25
ATOM     25  C   UNL     1      -6.883  18.830 -13.583  1.00  0.00    -0.000 C 
BRANCH  25  26
ATOM     26  C   UNL     1      -6.849  17.289 -13.585  1.00  0.00    -0.000 C 
BRANCH  26  27
ATOM     27  C   UNL     1      -6.813  16.638 -12.190  1.00  0.00    -0.000 C 
BRANCH  27  28
ATOM     28  C   UNL     1      -5.451  16.794 -11.494  1.00  0.00    -0.000 C 
BRANCH  28  29
ATOM     29  C   UNL     1      -4.362  15.909 -12.122  1.00  0.00    -0.000 C 
BRANCH  29  30
ATOM     30  C   UNL     1      -3.072  15.878 -11.289  1.00  0.00    -0.000 C 
BRANCH  30  31
ATOM     31  C   UNL     1      -1.980  16.738 -11.936  1.00  0.00    -0.003 C 
ATOM     32  C   UNL     1      -0.974  15.876 -12.692  1.00  0.00     0.004 C 
ENDBRANCH  30  31
ENDBRANCH  29  30
ENDBRANCH  28  29
ENDBRANCH  27  28
ENDBRANCH  26  27
ENDBRANCH  25  26
ENDBRANCH  24  25
ENDBRANCH  23  24
ENDBRANCH  22  23
ENDBRANCH  21  22
ENDBRANCH  20  21
ENDBRANCH  19  20
ENDBRANCH  18  19
ENDBRANCH   1  18
TORSDOF 28
ENDMDL
MODEL 5
REMARK VINA RESULT:    22.004      7.628     15.111
REMARK INTER + INTRA:          57.119
REMARK INTER:                  58.528
REMARK INTRA:                  -1.409
REMARK UNBOUND:                -0.904
REMARK SMILES CCCCCCCCCCCCCCCCCCCCCCCCCCCCCC(=O)[O-]
REMARK SMILES IDX 16 1 17 2 18 3 19 4 20 5 21 6 22 7 23 8 24 9 25 10 26 11
REMARK SMILES IDX 27 12 28 13 29 14 30 15 31 16 32 17 15 18 14 19 13 20 12 21
REMARK SMILES IDX 11 22 10 23 9 24 8 25 7 26 6 27 5 28 4 29 3 30 2 31 1 32
REMARK H PARENT
REMARK Flexibility Score: inf
ROOT
ATOM      1  C   UNL     1     -10.990  26.441 -15.269  1.00  0.00     0.000 C 
ENDROOT
BRANCH   1   2
ATOM      2  C   UNL     1     -12.412  26.993 -15.471  1.00  0.00     0.000 C 
BRANCH   2   3
ATOM      3  C   UNL     1     -12.426  28.499 -15.776  1.00  0.00     0.000 C 
BRANCH   3   4
ATOM      4  C   UNL     1     -13.746  28.965 -16.416  1.00  0.00     0.000 C 
BRANCH   4   5
ATOM      5  C   UNL     1     -13.673  30.406 -16.956  1.00  0.00     0.000 C 
BRANCH   5   6
ATOM      6  C   UNL     1     -14.795  30.790 -17.938  1.00  0.00     0.000 C 
BRANCH   6   7
ATOM      7  C   UNL     1     -14.351  31.641 -19.144  1.00  0.00     0.000 C 
BRANCH   7   8
ATOM      8  C   UNL     1     -15.404  32.670 -19.610  1.00  0.00     0.000 C 
BRANCH   8   9
ATOM      9  C   UNL     1     -15.811  33.652 -18.497  1.00  0.00     0.000 C 
BRANCH   9  10
ATOM     10  C   UNL     1     -15.775  35.117 -18.963  1.00  0.00     0.000 C 
BRANCH  10  11
ATOM     11  C   UNL     1     -17.179  35.658 -19.289  1.00  0.00     0.000 C 
BRANCH  11  12
ATOM     12  C   UNL     1     -17.613  35.358 -20.733  1.00  0.00     0.000 C 
BRANCH  12  13
ATOM     13  C   UNL     1     -18.970  34.639 -20.810  1.00  0.00     0.006 C 
BRANCH  13  14
ATOM     14  C   UNL     1     -20.067  35.465 -20.128  1.00  0.00     0.053 C 
BRANCH  14  15
ATOM     15  C   UNL     1     -20.612  34.747 -18.931  1.00  0.00     0.041 C 
ATOM     16  O   UNL     1     -20.999  33.552 -19.032  1.00  0.00    -0.550 OA
ATOM     17  O   UNL     1     -20.667  35.384 -17.698  1.00  0.00    -0.550 OA
ENDBRANCH  14  15
ENDBRANCH  13  14
ENDBRANCH  12  13
ENDBRANCH  11  12
ENDBRANCH  10  11
ENDBRANCH   9  10
ENDBRANCH   8   9
ENDBRANCH   7   8
ENDBRANCH   6   7
ENDBRANCH   5   6
ENDBRANCH   4   5
ENDBRANCH   3   4
ENDBRANCH   2   3
ENDBRANCH   1   2
BRANCH   1  18
ATOM     18  C   UNL     1     -10.227  26.252 -16.594  1.00  0.00     0.000 C 
BRANCH  18  19
ATOM     19  C   UNL     1     -11.050  25.625 -17.734  1.00  0.00     0.000 C 
BRANCH  19  20
ATOM     20  C   UNL     1     -11.644  26.673 -18.691  1.00  0.00     0.000 C 
BRANCH  20  21
ATOM     21  C   UNL     1     -12.118  26.054 -20.016  1.00  0.00     0.000 C 
BRANCH  21  22
ATOM     22  C   UNL     1     -12.131  24.516 -19.976  1.00  0.00     0.000 C 
BRANCH  22  23
ATOM     23  C   UNL     1     -13.550  23.936 -19.835  1.00  0.00     0.000 C 
BRANCH  23  24
ATOM     24  C   UNL     1     -13.800  22.640 -20.630  1.00  0.00    -0.000 C 
BRANCH  24  25
ATOM     25  C   UNL     1     -14.280  21.441 -19.789  1.00  0.00    -0.000 C 
BRANCH  25  26
ATOM     26  C   UNL     1     -15.240  20.477 -20.513  1.00  0.00    -0.000 C 
BRANCH  26  27
ATOM     27  C   UNL     1     -16.656  20.400 -19.914  1.00  0.00    -0.000 C 
BRANCH  27  28
ATOM     28  C   UNL     1     -17.343  19.049 -20.180  1.00  0.00    -0.000 C 
BRANCH  28  29
ATOM     29  C   UNL     1     -17.711  18.309 -18.884  1.00  0.00    -0.000 C 
BRANCH  29  30
ATOM     30  C   UNL     1     -16.599  18.381 -17.826  1.00  0.00    -0.000 C 
BRANCH  30  31
ATOM     31  C   UNL     1     -16.699  17.207 -16.844  1.00  0.00    -0.003 C 
ATOM     32  C   UNL     1     -16.467  15.875 -17.551  1.00  0.00     0.004 C 
ENDBRANCH  30  31
ENDBRANCH  29  30
ENDBRANCH  28  29
ENDBRANCH  27  28
ENDBRANCH  26  27
ENDBRANCH  25  26
ENDBRANCH  24  25
ENDBRANCH  23  24
ENDBRANCH  22  23
ENDBRANCH  21  22
ENDBRANCH  20  21
ENDBRANCH  19  20
ENDBRANCH  18  19
ENDBRANCH   1  18
TORSDOF 28
ENDMDL
MODEL 6
REMARK VINA RESULT:    23.350      5.534     16.162
REMARK INTER + INTRA:          60.666
REMARK INTER:                  59.628
REMARK INTRA:                   1.038
REMARK UNBOUND:                -0.904
REMARK SMILES CCCCCCCCCCCCCCCCCCCCCCCCCCCCCC(=O)[O-]
REMARK SMILES IDX 16 1 17 2 18 3 19 4 20 5 21 6 22 7 23 8 24 9 25 10 26 11
REMARK SMILES IDX 27 12 28 13 29 14 30 15 31 16 32 17 15 18 14 19 13 20 12 21
REMARK SMILES IDX 11 22 10 23 9 24 8 25 7 26 6 27 5 28 4 29 3 30 2 31 1 32
REMARK H PARENT
REMARK Flexibility Score: inf
ROOT
ATOM      1  C   UNL     1     -13.867  29.051 -17.602  1.00  0.00     0.000 C 
ENDROOT
BRANCH   1   2
ATOM      2  C   UNL     1     -13.675  30.279 -18.510  1.00  0.00     0.000 C 
BRANCH   2   3
ATOM      3  C   UNL     1     -15.007  30.867 -19.000  1.00  0.00     0.000 C 
BRANCH   3   4
ATOM      4  C   UNL     1     -14.859  31.674 -20.303  1.00  0.00     0.000 C 
BRANCH   4   5
ATOM      5  C   UNL     1     -16.056  32.607 -20.569  1.00  0.00     0.000 C 
BRANCH   5   6
ATOM      6  C   UNL     1     -15.740  34.111 -20.479  1.00  0.00     0.000 C 
BRANCH   6   7
ATOM      7  C   UNL     1     -14.952  34.544 -19.228  1.00  0.00     0.000 C 
BRANCH   7   8
ATOM      8  C   UNL     1     -15.436  35.873 -18.608  1.00  0.00     0.000 C 
BRANCH   8   9
ATOM      9  C   UNL     1     -16.931  35.852 -18.246  1.00  0.00     0.000 C 
BRANCH   9  10
ATOM     10  C   UNL     1     -17.812  35.367 -19.411  1.00  0.00     0.000 C 
BRANCH  10  11
ATOM     11  C   UNL     1     -19.303  35.665 -19.174  1.00  0.00     0.000 C 
BRANCH  11  12
ATOM     12  C   UNL     1     -19.600  36.117 -17.735  1.00  0.00     0.000 C 
BRANCH  12  13
ATOM     13  C   UNL     1     -21.016  35.734 -17.271  1.00  0.00     0.006 C 
BRANCH  13  14
ATOM     14  C   UNL     1     -21.119  35.773 -15.742  1.00  0.00     0.053 C 
BRANCH  14  15
ATOM     15  C   UNL     1     -19.788  35.501 -15.108  1.00  0.00     0.041 C 
ATOM     16  O   UNL     1     -18.750  36.061 -15.552  1.00  0.00    -0.550 OA
ATOM     17  O   UNL     1     -19.695  34.652 -14.012  1.00  0.00    -0.550 OA
ENDBRANCH  14  15
ENDBRANCH  13  14
ENDBRANCH  12  13
ENDBRANCH  11  12
ENDBRANCH  10  11
ENDBRANCH   9  10
ENDBRANCH   8   9
ENDBRANCH   7   8
ENDBRANCH   6   7
ENDBRANCH   5   6
ENDBRANCH   4   5
ENDBRANCH   3   4
ENDBRANCH   2   3
ENDBRANCH   1   2
BRANCH   1  18
ATOM     18  C   UNL     1     -13.374  29.288 -16.161  1.00  0.00     0.000 C 
BRANCH  18  19
ATOM     19  C   UNL     1     -13.408  28.048 -15.251  1.00  0.00     0.000 C 
BRANCH  19  20
ATOM     20  C   UNL     1     -12.012  27.621 -14.766  1.00  0.00     0.000 C 
BRANCH  20  21
ATOM     21  C   UNL     1     -11.822  26.096 -14.794  1.00  0.00     0.000 C 
BRANCH  21  22
ATOM     22  C   UNL     1     -10.339  25.687 -14.752  1.00  0.00     0.000 C 
BRANCH  22  23
ATOM     23  C   UNL     1      -9.599  25.998 -16.066  1.00  0.00     0.000 C 
BRANCH  23  24
ATOM     24  C   UNL     1      -8.102  25.631 -16.067  1.00  0.00    -0.000 C 
BRANCH  24  25
ATOM     25  C   UNL     1      -7.429  25.633 -14.681  1.00  0.00    -0.000 C 
BRANCH  25  26
ATOM     26  C   UNL     1      -5.951  25.195 -14.672  1.00  0.00    -0.000 C 
BRANCH  26  27
ATOM     27  C   UNL     1      -5.665  23.891 -13.905  1.00  0.00    -0.000 C 
BRANCH  27  28
ATOM     28  C   UNL     1      -5.517  22.673 -14.833  1.00  0.00    -0.000 C 
BRANCH  28  29
ATOM     29  C   UNL     1      -6.293  21.447 -14.327  1.00  0.00    -0.000 C 
BRANCH  29  30
ATOM     30  C   UNL     1      -5.465  20.577 -13.369  1.00  0.00    -0.000 C 
BRANCH  30  31
ATOM     31  C   UNL     1      -5.540  21.116 -11.935  1.00  0.00    -0.003 C 
ATOM     32  C   UNL     1      -6.350  20.185 -11.038  1.00  0.00     0.004 C 
ENDBRANCH  30  31
ENDBRANCH  29  30
ENDBRANCH  28  29
ENDBRANCH  27  28
ENDBRANCH  26  27
ENDBRANCH  25  26
ENDBRANCH  24  25
ENDBRANCH  23  24
ENDBRANCH  22  23
ENDBRANCH  21  22
ENDBRANCH  20  21
ENDBRANCH  19  20
ENDBRANCH  18  19
ENDBRANCH   1  18
TORSDOF 28
ENDMDL
MODEL 7
REMARK VINA RESULT:    23.367      5.715     16.816
REMARK INTER + INTRA:          60.713
REMARK INTER:                  61.744
REMARK INTRA:                  -1.031
REMARK UNBOUND:                -0.904
REMARK SMILES CCCCCCCCCCCCCCCCCCCCCCCCCCCCCC(=O)[O-]
REMARK SMILES IDX 16 1 17 2 18 3 19 4 20 5 21 6 22 7 23 8 24 9 25 10 26 11
REMARK SMILES IDX 27 12 28 13 29 14 30 15 31 16 32 17 15 18 14 19 13 20 12 21
REMARK SMILES IDX 11 22 10 23 9 24 8 25 7 26 6 27 5 28 4 29 3 30 2 31 1 32
REMARK H PARENT
REMARK Flexibility Score: inf
ROOT
ATOM      1  C   UNL     1     -10.841  25.991 -18.997  1.00  0.00     0.000 C 
ENDROOT
BRANCH   1   2
ATOM      2  C   UNL     1     -12.145  26.804 -18.913  1.00  0.00     0.000 C 
BRANCH   2   3
ATOM      3  C   UNL     1     -11.906  28.319 -19.023  1.00  0.00     0.000 C 
BRANCH   3   4
ATOM      4  C   UNL     1     -12.024  29.040 -17.667  1.00  0.00     0.000 C 
BRANCH   4   5
ATOM      5  C   UNL     1     -13.459  29.508 -17.362  1.00  0.00     0.000 C 
BRANCH   5   6
ATOM      6  C   UNL     1     -14.275  29.949 -18.591  1.00  0.00     0.000 C 
BRANCH   6   7
ATOM      7  C   UNL     1     -15.059  31.264 -18.423  1.00  0.00     0.000 C 
BRANCH   7   8
ATOM      8  C   UNL     1     -14.219  32.535 -18.674  1.00  0.00     0.000 C 
BRANCH   8   9
ATOM      9  C   UNL     1     -15.084  33.788 -18.897  1.00  0.00     0.000 C 
BRANCH   9  10
ATOM     10  C   UNL     1     -15.772  33.790 -20.273  1.00  0.00     0.000 C 
BRANCH  10  11
ATOM     11  C   UNL     1     -16.267  35.192 -20.673  1.00  0.00     0.000 C 
BRANCH  11  12
ATOM     12  C   UNL     1     -17.152  35.841 -19.596  1.00  0.00     0.000 C 
BRANCH  12  13
ATOM     13  C   UNL     1     -18.585  36.111 -20.085  1.00  0.00     0.006 C 
BRANCH  13  14
ATOM     14  C   UNL     1     -19.592  35.229 -19.341  1.00  0.00     0.053 C 
BRANCH  14  15
ATOM     15  C   UNL     1     -19.673  35.610 -17.894  1.00  0.00     0.041 C 
ATOM     16  O   UNL     1     -18.619  35.775 -17.224  1.00  0.00    -0.550 OA
ATOM     17  O   UNL     1     -20.909  35.812 -17.291  1.00  0.00    -0.550 OA
ENDBRANCH  14  15
ENDBRANCH  13  14
ENDBRANCH  12  13
ENDBRANCH  11  12
ENDBRANCH  10  11
ENDBRANCH   9  10
ENDBRANCH   8   9
ENDBRANCH   7   8
ENDBRANCH   6   7
ENDBRANCH   5   6
ENDBRANCH   4   5
ENDBRANCH   3   4
ENDBRANCH   2   3
ENDBRANCH   1   2
BRANCH   1  18
ATOM     18  C   UNL     1     -10.634  25.063 -17.785  1.00  0.00     0.000 C 
BRANCH  18  19
ATOM     19  C   UNL     1     -10.203  25.773 -16.489  1.00  0.00     0.000 C 
BRANCH  19  20
ATOM     20  C   UNL     1      -9.219  24.942 -15.648  1.00  0.00     0.000 C 
BRANCH  20  21
ATOM     21  C   UNL     1      -7.851  25.628 -15.498  1.00  0.00     0.000 C 
BRANCH  21  22
ATOM     22  C   UNL     1      -7.039  25.067 -14.318  1.00  0.00     0.000 C 
BRANCH  22  23
ATOM     23  C   UNL     1      -6.272  23.782 -14.679  1.00  0.00     0.000 C 
BRANCH  23  24
ATOM     24  C   UNL     1      -4.989  23.543 -13.860  1.00  0.00    -0.000 C 
BRANCH  24  25
ATOM     25  C   UNL     1      -5.019  22.300 -12.950  1.00  0.00    -0.000 C 
BRANCH  25  26
ATOM     26  C   UNL     1      -6.417  21.699 -12.711  1.00  0.00    -0.000 C 
BRANCH  26  27
ATOM     27  C   UNL     1      -6.464  20.160 -12.670  1.00  0.00    -0.000 C 
BRANCH  27  28
ATOM     28  C   UNL     1      -5.855  19.579 -11.383  1.00  0.00    -0.000 C 
BRANCH  28  29
ATOM     29  C   UNL     1      -5.932  18.044 -11.334  1.00  0.00    -0.000 C 
BRANCH  29  30
ATOM     30  C   UNL     1      -6.584  17.444 -12.589  1.00  0.00    -0.000 C 
BRANCH  30  31
ATOM     31  C   UNL     1      -5.965  16.084 -12.933  1.00  0.00    -0.003 C 
ATOM     32  C   UNL     1      -4.647  15.875 -12.193  1.00  0.00     0.004 C 
ENDBRANCH  30  31
ENDBRANCH  29  30
ENDBRANCH  28  29
ENDBRANCH  27  28
ENDBRANCH  26  27
ENDBRANCH  25  26
ENDBRANCH  24  25
ENDBRANCH  23  24
ENDBRANCH  22  23
ENDBRANCH  21  22
ENDBRANCH  20  21
ENDBRANCH  19  20
ENDBRANCH  18  19
ENDBRANCH   1  18
TORSDOF 28
ENDMDL
MODEL 8
REMARK VINA RESULT:    24.100      2.071      3.392
REMARK INTER + INTRA:          62.644
REMARK INTER:                  62.619
REMARK INTRA:                   0.025
REMARK UNBOUND:                -0.904
REMARK SMILES CCCCCCCCCCCCCCCCCCCCCCCCCCCCCC(=O)[O-]
REMARK SMILES IDX 16 1 17 2 18 3 19 4 20 5 21 6 22 7 23 8 24 9 25 10 26 11
REMARK SMILES IDX 27 12 28 13 29 14 30 15 31 16 32 17 15 18 14 19 13 20 12 21
REMARK SMILES IDX 11 22 10 23 9 24 8 25 7 26 6 27 5 28 4 29 3 30 2 31 1 32
REMARK H PARENT
REMARK Flexibility Score: inf
ROOT
ATOM      1  C   UNL     1     -10.854  26.386 -14.578  1.00  0.00     0.000 C 
ENDROOT
BRANCH   1   2
ATOM      2  C   UNL     1     -10.034  25.262 -15.235  1.00  0.00     0.000 C 
BRANCH   2   3
ATOM      3  C   UNL     1      -9.235  25.747 -16.456  1.00  0.00     0.000 C 
BRANCH   3   4
ATOM      4  C   UNL     1      -7.827  26.250 -16.086  1.00  0.00     0.000 C 
BRANCH   4   5
ATOM      5  C   UNL     1      -7.386  25.808 -14.678  1.00  0.00     0.000 C 
BRANCH   5   6
ATOM      6  C   UNL     1      -6.567  24.505 -14.633  1.00  0.00     0.000 C 
BRANCH   6   7
ATOM      7  C   UNL     1      -5.665  24.338 -13.394  1.00  0.00     0.000 C 
BRANCH   7   8
ATOM      8  C   UNL     1      -4.931  22.981 -13.328  1.00  0.00     0.000 C 
BRANCH   8   9
ATOM      9  C   UNL     1      -5.631  21.969 -12.404  1.00  0.00     0.000 C 
BRANCH   9  10
ATOM     10  C   UNL     1      -6.417  20.903 -13.187  1.00  0.00     0.000 C 
BRANCH  10  11
ATOM     11  C   UNL     1      -5.608  20.336 -14.368  1.00  0.00     0.000 C 
BRANCH  11  12
ATOM     12  C   UNL     1      -5.577  21.284 -15.578  1.00  0.00     0.000 C 
BRANCH  12  13
ATOM     13  C   UNL     1      -6.129  20.635 -16.858  1.00  0.00     0.006 C 
BRANCH  13  14
ATOM     14  C   UNL     1      -4.999  20.029 -17.696  1.00  0.00     0.053 C 
BRANCH  14  15
ATOM     15  C   UNL     1      -5.215  18.561 -17.906  1.00  0.00     0.041 C 
ATOM     16  O   UNL     1      -5.592  18.131 -19.029  1.00  0.00    -0.550 OA
ATOM     17  O   UNL     1      -4.974  17.663 -16.873  1.00  0.00    -0.550 OA
ENDBRANCH  14  15
ENDBRANCH  13  14
ENDBRANCH  12  13
ENDBRANCH  11  12
ENDBRANCH  10  11
ENDBRANCH   9  10
ENDBRANCH   8   9
ENDBRANCH   7   8
ENDBRANCH   6   7
ENDBRANCH   5   6
ENDBRANCH   4   5
ENDBRANCH   3   4
ENDBRANCH   2   3
ENDBRANCH   1   2
BRANCH   1  18
ATOM     18  C   UNL     1     -12.079  26.802 -15.415  1.00  0.00     0.000 C 
BRANCH  18  19
ATOM     19  C   UNL     1     -12.138  28.295 -15.784  1.00  0.00     0.000 C 
BRANCH  19  20
ATOM     20  C   UNL     1     -13.504  28.718 -16.352  1.00  0.00     0.000 C 
BRANCH  20  21
ATOM     21  C   UNL     1     -13.369  29.606 -17.600  1.00  0.00     0.000 C 
BRANCH  21  22
ATOM     22  C   UNL     1     -14.247  30.868 -17.521  1.00  0.00     0.000 C 
BRANCH  22  23
ATOM     23  C   UNL     1     -14.917  31.213 -18.863  1.00  0.00     0.000 C 
BRANCH  23  24
ATOM     24  C   UNL     1     -15.571  32.607 -18.921  1.00  0.00    -0.000 C 
BRANCH  24  25
ATOM     25  C   UNL     1     -15.363  33.371 -20.243  1.00  0.00    -0.000 C 
BRANCH  25  26
ATOM     26  C   UNL     1     -16.639  33.984 -20.851  1.00  0.00    -0.000 C 
BRANCH  26  27
ATOM     27  C   UNL     1     -17.865  33.988 -19.918  1.00  0.00    -0.000 C 
BRANCH  27  28
ATOM     28  C   UNL     1     -17.937  35.244 -19.034  1.00  0.00    -0.000 C 
BRANCH  28  29
ATOM     29  C   UNL     1     -16.554  35.865 -18.776  1.00  0.00    -0.000 C 
BRANCH  29  30
ATOM     30  C   UNL     1     -16.174  35.865 -17.287  1.00  0.00    -0.000 C 
BRANCH  30  31
ATOM     31  C   UNL     1     -14.702  35.479 -17.097  1.00  0.00    -0.003 C 
ATOM     32  C   UNL     1     -14.009  35.267 -18.439  1.00  0.00     0.004 C 
ENDBRANCH  30  31
ENDBRANCH  29  30
ENDBRANCH  28  29
ENDBRANCH  27  28
ENDBRANCH  26  27
ENDBRANCH  25  26
ENDBRANCH  24  25
ENDBRANCH  23  24
ENDBRANCH  22  23
ENDBRANCH  21  22
ENDBRANCH  20  21
ENDBRANCH  19  20
ENDBRANCH  18  19
ENDBRANCH   1  18
TORSDOF 28
ENDMDL
