MODEL 1
REMARK VINA RESULT:    16.892      0.000      0.000
REMARK INTER + INTRA:          24.044
REMARK INTER:                  24.792
REMARK INTRA:                  -0.747
REMARK UNBOUND:                -0.747
REMARK SMILES O=c1c(O[C@H]2O[C@H](CO)[C@@H](O)[C@H](O)[C@@H]2O)c(-c2ccc(O)c(O)c2)oc2cc(O)cc(O)c12
REMARK SMILES IDX 4 1 3 2 16 3 25 4 2 5 26 6 1 7 33 8 27 9 31 10 28 11 30 12
REMARK SMILES IDX 17 13 18 14 19 15 20 16 24 17 22 18 21 19 23 21 32 23 29 25
REMARK SMILES IDX 5 27 14 28 6 29 12 30 7 31 10 32 15 33 13 35 8 37 9 38 11 40
REMARK H PARENT 21 20 23 22 32 24 29 26 15 34 13 36 9 39 11 41
REMARK Flexibility Score: inf
ROOT
ATOM      1  O   UNL     1     153.884 141.672 149.164  1.00  0.00    -0.454 OA
ENDROOT
BRANCH   1   2
ATOM      2  C   UNL     1     154.742 141.924 148.072  1.00  0.00     0.214 A 
ATOM      3  C   UNL     1     156.099 142.183 148.351  1.00  0.00     0.180 A 
ATOM      4  O   UNL     1     156.934 142.520 147.377  1.00  0.00    -0.452 OA
ATOM      5  C   UNL     1     154.314 141.975 146.724  1.00  0.00     0.239 A 
ATOM      6  C   UNL     1     156.573 142.591 146.102  1.00  0.00     0.146 A 
ATOM      7  O   UNL     1     153.105 141.785 146.448  1.00  0.00    -0.285 OA
ATOM      8  C   UNL     1     155.248 142.276 145.699  1.00  0.00     0.111 A 
ATOM      9  C   UNL     1     157.526 142.990 145.163  1.00  0.00     0.094 A 
ATOM     10  C   UNL     1     154.928 142.329 144.306  1.00  0.00     0.134 A 
ATOM     11  C   UNL     1     157.185 143.100 143.814  1.00  0.00     0.123 A 
ATOM     12  C   UNL     1     155.891 142.777 143.395  1.00  0.00     0.093 A 
BRANCH   3  13
ATOM     13  C   UNL     1     156.625 142.133 149.731  1.00  0.00     0.025 A 
ATOM     14  C   UNL     1     156.629 140.915 150.430  1.00  0.00     0.016 A 
ATOM     15  C   UNL     1     157.134 140.851 151.729  1.00  0.00     0.051 A 
ATOM     16  C   UNL     1     157.622 142.007 152.354  1.00  0.00     0.157 A 
ATOM     17  C   UNL     1     157.104 143.294 150.362  1.00  0.00     0.062 A 
ATOM     18  C   UNL     1     157.601 143.235 151.668  1.00  0.00     0.158 A 
BRANCH  16  19
ATOM     19  O   UNL     1     158.124 141.940 153.649  1.00  0.00    -0.504 OA
ATOM     20  H   UNL     1     157.668 142.418 154.418  1.00  0.00     0.293 HD
ENDBRANCH  16  19
BRANCH  18  21
ATOM     21  O   UNL     1     158.072 144.403 152.266  1.00  0.00    -0.504 OA
ATOM     22  H   UNL     1     157.453 145.064 152.717  1.00  0.00     0.293 HD
ENDBRANCH  18  21
ENDBRANCH   3  13
BRANCH  10  23
ATOM     23  O   UNL     1     153.700 141.932 143.765  1.00  0.00    -0.507 OA
ATOM     24  H   UNL     1     153.413 140.974 143.618  1.00  0.00     0.293 HD
ENDBRANCH  10  23
BRANCH  11  25
ATOM     25  O   UNL     1     158.124 143.522 142.877  1.00  0.00    -0.508 OA
ATOM     26  H   UNL     1     159.116 143.370 143.017  1.00  0.00     0.293 HD
ENDBRANCH  11  25
ENDBRANCH   1   2
BRANCH   1  27
ATOM     27  C   UNL     1     152.909 142.553 149.729  1.00  0.00     0.339 C 
ATOM     28  C   UNL     1     152.602 142.140 151.178  1.00  0.00     0.214 C 
ATOM     29  O   UNL     1     151.725 142.592 148.945  1.00  0.00    -0.332 OA
ATOM     30  C   UNL     1     151.868 140.788 151.195  1.00  0.00     0.180 C 
ATOM     31  C   UNL     1     151.109 141.316 148.851  1.00  0.00     0.179 C 
ATOM     32  C   UNL     1     150.657 140.828 150.248  1.00  0.00     0.177 C 
BRANCH  28  33
ATOM     33  O   UNL     1     151.813 143.134 151.783  1.00  0.00    -0.384 OA
ATOM     34  H   UNL     1     152.220 143.326 152.669  1.00  0.00     0.211 HD
ENDBRANCH  28  33
BRANCH  30  35
ATOM     35  O   UNL     1     151.443 140.482 152.498  1.00  0.00    -0.387 OA
ATOM     36  H   UNL     1     150.457 140.596 152.511  1.00  0.00     0.211 HD
ENDBRANCH  30  35
BRANCH  31  37
ATOM     37  C   UNL     1     149.918 141.437 147.885  1.00  0.00     0.191 C 
BRANCH  37  38
ATOM     38  O   UNL     1     149.546 142.782 147.717  1.00  0.00    -0.394 OA
ATOM     39  H   UNL     1     149.668 143.229 148.595  1.00  0.00     0.210 HD
ENDBRANCH  37  38
ENDBRANCH  31  37
BRANCH  32  40
ATOM     40  O   UNL     1     150.106 139.537 150.149  1.00  0.00    -0.387 OA
ATOM     41  H   UNL     1     150.799 138.963 149.725  1.00  0.00     0.211 HD
ENDBRANCH  32  40
ENDBRANCH   1  27
TORSDOF 12
ENDMDL
