MODEL 1
REMARK VINA RESULT:    -6.306      0.000      0.000
REMARK INTER + INTRA:          -7.706
REMARK INTER:                  -7.412
REMARK INTRA:                  -0.293
REMARK UNBOUND:                -0.293
REMARK SMILES O=c1cc(-c2ccc(O)c(O)c2)oc2cc(O)cc(O)c12
REMARK SMILES IDX 4 1 3 2 2 3 1 4 21 5 19 6 18 7 16 8 15 9 14 10 13 11 5 12
REMARK SMILES IDX 6 13 7 14 8 15 12 16 10 17 9 18 11 20 20 22 17 24
REMARK H PARENT 9 19 11 21 20 23 17 25
REMARK Flexibility Score: inf
ROOT
ATOM      1  C   UNL     1      28.364   2.998  -9.558  1.00  0.00     0.138 A 
ATOM      2  C   UNL     1      27.883   2.121 -10.540  1.00  0.00     0.100 A 
ATOM      3  C   UNL     1      27.595   2.606 -11.817  1.00  0.00     0.197 A 
ATOM      4  O   UNL     1      27.106   1.808 -12.658  1.00  0.00    -0.289 OA
ATOM      5  C   UNL     1      27.822   3.970 -12.119  1.00  0.00     0.107 A 
ATOM      6  C   UNL     1      27.604   4.565 -13.398  1.00  0.00     0.134 A 
ATOM      7  C   UNL     1      27.753   5.950 -13.548  1.00  0.00     0.093 A 
ATOM      8  C   UNL     1      28.170   6.750 -12.481  1.00  0.00     0.123 A 
ATOM      9  C   UNL     1      28.437   6.169 -11.244  1.00  0.00     0.094 A 
ATOM     10  C   UNL     1      28.265   4.796 -11.053  1.00  0.00     0.146 A 
ATOM     11  O   UNL     1      28.517   4.285  -9.853  1.00  0.00    -0.456 OA
ENDROOT
BRANCH   1  12
ATOM     12  C   UNL     1      28.687   2.536  -8.185  1.00  0.00     0.021 A 
ATOM     13  C   UNL     1      29.355   3.364  -7.263  1.00  0.00     0.016 A 
ATOM     14  C   UNL     1      29.637   2.905  -5.973  1.00  0.00     0.051 A 
ATOM     15  C   UNL     1      29.252   1.617  -5.580  1.00  0.00     0.157 A 
ATOM     16  C   UNL     1      28.292   1.249  -7.777  1.00  0.00     0.062 A 
ATOM     17  C   UNL     1      28.574   0.787  -6.486  1.00  0.00     0.158 A 
BRANCH  15  18
ATOM     18  O   UNL     1      29.536   1.163  -4.293  1.00  0.00    -0.504 OA
ATOM     19  H   UNL     1      29.665   0.179  -4.093  1.00  0.00     0.293 HD
ENDBRANCH  15  18
BRANCH  17  20
ATOM     20  O   UNL     1      28.173  -0.499  -6.125  1.00  0.00    -0.504 OA
ATOM     21  H   UNL     1      28.728  -1.083  -5.512  1.00  0.00     0.293 HD
ENDBRANCH  17  20
ENDBRANCH   1  12
BRANCH   6  22
ATOM     22  O   UNL     1      27.268   3.846 -14.548  1.00  0.00    -0.507 OA
ATOM     23  H   UNL     1      26.370   3.877 -15.005  1.00  0.00     0.293 HD
ENDBRANCH   6  22
BRANCH   8  24
ATOM     24  O   UNL     1      28.330   8.124 -12.644  1.00  0.00    -0.508 OA
ATOM     25  H   UNL     1      29.035   8.641 -12.130  1.00  0.00     0.293 HD
ENDBRANCH   8  24
TORSDOF 5
ENDMDL
MODEL 2
REMARK VINA RESULT:    -6.230      4.192      6.416
REMARK INTER + INTRA:          -7.615
REMARK INTER:                  -7.324
REMARK INTRA:                  -0.291
REMARK UNBOUND:                -0.293
REMARK SMILES O=c1cc(-c2ccc(O)c(O)c2)oc2cc(O)cc(O)c12
REMARK SMILES IDX 4 1 3 2 2 3 1 4 21 5 19 6 18 7 16 8 15 9 14 10 13 11 5 12
REMARK SMILES IDX 6 13 7 14 8 15 12 16 10 17 9 18 11 20 20 22 17 24
REMARK H PARENT 9 19 11 21 20 23 17 25
REMARK Flexibility Score: inf
ROOT
ATOM      1  C   UNL     1      27.560   4.512 -14.789  1.00  0.00     0.138 A 
ATOM      2  C   UNL     1      27.181   5.846 -14.997  1.00  0.00     0.100 A 
ATOM      3  C   UNL     1      27.942   6.655 -15.843  1.00  0.00     0.197 A 
ATOM      4  O   UNL     1      27.614   7.864 -15.960  1.00  0.00    -0.289 OA
ATOM      5  C   UNL     1      29.070   6.115 -16.506  1.00  0.00     0.107 A 
ATOM      6  C   UNL     1      29.894   6.835 -17.422  1.00  0.00     0.134 A 
ATOM      7  C   UNL     1      31.052   6.230 -17.929  1.00  0.00     0.093 A 
ATOM      8  C   UNL     1      31.380   4.912 -17.601  1.00  0.00     0.123 A 
ATOM      9  C   UNL     1      30.551   4.185 -16.751  1.00  0.00     0.094 A 
ATOM     10  C   UNL     1      29.409   4.771 -16.202  1.00  0.00     0.146 A 
ATOM     11  O   UNL     1      28.653   4.045 -15.383  1.00  0.00    -0.456 OA
ENDROOT
BRANCH   1  12
ATOM     12  C   UNL     1      26.786   3.607 -13.902  1.00  0.00     0.021 A 
ATOM     13  C   UNL     1      25.386   3.497 -13.998  1.00  0.00     0.016 A 
ATOM     14  C   UNL     1      24.684   2.630 -13.156  1.00  0.00     0.051 A 
ATOM     15  C   UNL     1      25.367   1.853 -12.212  1.00  0.00     0.157 A 
ATOM     16  C   UNL     1      27.466   2.814 -12.961  1.00  0.00     0.062 A 
ATOM     17  C   UNL     1      26.765   1.945 -12.116  1.00  0.00     0.158 A 
BRANCH  15  18
ATOM     18  O   UNL     1      24.663   0.989 -11.374  1.00  0.00    -0.504 OA
ATOM     19  H   UNL     1      23.944   1.328 -10.747  1.00  0.00     0.293 HD
ENDBRANCH  15  18
BRANCH  17  20
ATOM     20  O   UNL     1      27.475   1.181 -11.190  1.00  0.00    -0.504 OA
ATOM     21  H   UNL     1      27.251   0.211 -11.008  1.00  0.00     0.293 HD
ENDBRANCH  17  20
ENDBRANCH   1  12
BRANCH   6  22
ATOM     22  O   UNL     1      29.612   8.125 -17.881  1.00  0.00    -0.507 OA
ATOM     23  H   UNL     1      28.742   8.612 -17.731  1.00  0.00     0.293 HD
ENDBRANCH   6  22
BRANCH   8  24
ATOM     24  O   UNL     1      32.525   4.314 -18.123  1.00  0.00    -0.508 OA
ATOM     25  H   UNL     1      33.360   4.189 -17.563  1.00  0.00     0.293 HD
ENDBRANCH   8  24
TORSDOF 5
ENDMDL
MODEL 3
REMARK VINA RESULT:    -5.911      3.925      7.951
REMARK INTER + INTRA:          -7.242
REMARK INTER:                  -6.979
REMARK INTRA:                  -0.262
REMARK UNBOUND:                -0.293
REMARK SMILES O=c1cc(-c2ccc(O)c(O)c2)oc2cc(O)cc(O)c12
REMARK SMILES IDX 4 1 3 2 2 3 1 4 21 5 19 6 18 7 16 8 15 9 14 10 13 11 5 12
REMARK SMILES IDX 6 13 7 14 8 15 12 16 10 17 9 18 11 20 20 22 17 24
REMARK H PARENT 9 19 11 21 20 23 17 25
REMARK Flexibility Score: inf
ROOT
ATOM      1  C   UNL     1      28.397   5.310 -14.764  1.00  0.00     0.138 A 
ATOM      2  C   UNL     1      27.101   5.518 -15.257  1.00  0.00     0.100 A 
ATOM      3  C   UNL     1      26.036   4.786 -14.731  1.00  0.00     0.197 A 
ATOM      4  O   UNL     1      24.896   4.949 -15.236  1.00  0.00    -0.289 OA
ATOM      5  C   UNL     1      26.267   3.863 -13.683  1.00  0.00     0.107 A 
ATOM      6  C   UNL     1      25.252   3.091 -13.042  1.00  0.00     0.134 A 
ATOM      7  C   UNL     1      25.615   2.125 -12.095  1.00  0.00     0.093 A 
ATOM      8  C   UNL     1      26.950   1.945 -11.724  1.00  0.00     0.123 A 
ATOM      9  C   UNL     1      27.941   2.731 -12.305  1.00  0.00     0.094 A 
ATOM     10  C   UNL     1      27.615   3.680 -13.277  1.00  0.00     0.146 A 
ATOM     11  O   UNL     1      28.594   4.399 -13.817  1.00  0.00    -0.456 OA
ENDROOT
BRANCH   1  12
ATOM     12  C   UNL     1      29.565   6.063 -15.287  1.00  0.00     0.021 A 
ATOM     13  C   UNL     1      30.064   7.204 -14.630  1.00  0.00     0.016 A 
ATOM     14  C   UNL     1      31.171   7.887 -15.140  1.00  0.00     0.051 A 
ATOM     15  C   UNL     1      31.803   7.440 -16.307  1.00  0.00     0.157 A 
ATOM     16  C   UNL     1      30.214   5.612 -16.451  1.00  0.00     0.062 A 
ATOM     17  C   UNL     1      31.322   6.296 -16.963  1.00  0.00     0.158 A 
BRANCH  15  18
ATOM     18  O   UNL     1      32.907   8.125 -16.813  1.00  0.00    -0.504 OA
ATOM     19  H   UNL     1      32.801   8.964 -17.370  1.00  0.00     0.293 HD
ENDBRANCH  15  18
BRANCH  17  20
ATOM     20  O   UNL     1      31.932   5.822 -18.125  1.00  0.00    -0.504 OA
ATOM     21  H   UNL     1      31.513   5.097 -18.694  1.00  0.00     0.293 HD
ENDBRANCH  17  20
ENDBRANCH   1  12
BRANCH   6  22
ATOM     22  O   UNL     1      23.883   3.251 -13.277  1.00  0.00    -0.507 OA
ATOM     23  H   UNL     1      23.183   2.547 -13.103  1.00  0.00     0.293 HD
ENDBRANCH   6  22
BRANCH   8  24
ATOM     24  O   UNL     1      27.299   0.992 -10.770  1.00  0.00    -0.508 OA
ATOM     25  H   UNL     1      27.147   0.002 -10.928  1.00  0.00     0.293 HD
ENDBRANCH   8  24
TORSDOF 5
ENDMDL
MODEL 4
REMARK VINA RESULT:    -5.886      3.977      5.761
REMARK INTER + INTRA:          -7.212
REMARK INTER:                  -6.898
REMARK INTRA:                  -0.315
REMARK UNBOUND:                -0.293
REMARK SMILES O=c1cc(-c2ccc(O)c(O)c2)oc2cc(O)cc(O)c12
REMARK SMILES IDX 4 1 3 2 2 3 1 4 21 5 19 6 18 7 16 8 15 9 14 10 13 11 5 12
REMARK SMILES IDX 6 13 7 14 8 15 12 16 10 17 9 18 11 20 20 22 17 24
REMARK H PARENT 9 19 11 21 20 23 17 25
REMARK Flexibility Score: inf
ROOT
ATOM      1  C   UNL     1      27.057   4.677 -14.473  1.00  0.00     0.138 A 
ATOM      2  C   UNL     1      26.355   5.137 -15.596  1.00  0.00     0.100 A 
ATOM      3  C   UNL     1      26.922   6.121 -16.409  1.00  0.00     0.197 A 
ATOM      4  O   UNL     1      26.242   6.558 -17.373  1.00  0.00    -0.289 OA
ATOM      5  C   UNL     1      28.213   6.620 -16.112  1.00  0.00     0.107 A 
ATOM      6  C   UNL     1      28.906   7.593 -16.893  1.00  0.00     0.134 A 
ATOM      7  C   UNL     1      30.131   8.098 -16.437  1.00  0.00     0.093 A 
ATOM      8  C   UNL     1      30.714   7.621 -15.260  1.00  0.00     0.123 A 
ATOM      9  C   UNL     1      30.070   6.633 -14.520  1.00  0.00     0.094 A 
ATOM     10  C   UNL     1      28.831   6.134 -14.930  1.00  0.00     0.146 A 
ATOM     11  O   UNL     1      28.244   5.202 -14.187  1.00  0.00    -0.456 OA
ENDROOT
BRANCH   1  12
ATOM     12  C   UNL     1      26.502   3.632 -13.576  1.00  0.00     0.021 A 
ATOM     13  C   UNL     1      25.145   3.261 -13.624  1.00  0.00     0.016 A 
ATOM     14  C   UNL     1      24.652   2.267 -12.774  1.00  0.00     0.051 A 
ATOM     15  C   UNL     1      25.505   1.622 -11.869  1.00  0.00     0.157 A 
ATOM     16  C   UNL     1      27.354   2.970 -12.674  1.00  0.00     0.062 A 
ATOM     17  C   UNL     1      26.862   1.975 -11.822  1.00  0.00     0.158 A 
BRANCH  15  18
ATOM     18  O   UNL     1      25.008   0.632 -11.023  1.00  0.00    -0.504 OA
ATOM     19  H   UNL     1      25.415  -0.295 -10.995  1.00  0.00     0.293 HD
ENDBRANCH  15  18
BRANCH  17  20
ATOM     20  O   UNL     1      27.739   1.349 -10.935  1.00  0.00    -0.504 OA
ATOM     21  H   UNL     1      28.123   0.430 -11.118  1.00  0.00     0.293 HD
ENDBRANCH  17  20
ENDBRANCH   1  12
BRANCH   6  22
ATOM     22  O   UNL     1      28.453   8.074 -18.125  1.00  0.00    -0.507 OA
ATOM     23  H   UNL     1      28.831   8.876 -18.604  1.00  0.00     0.293 HD
ENDBRANCH   6  22
BRANCH   8  24
ATOM     24  O   UNL     1      31.940   8.118 -14.823  1.00  0.00    -0.508 OA
ATOM     25  H   UNL     1      31.998   8.816 -14.090  1.00  0.00     0.293 HD
ENDBRANCH   8  24
TORSDOF 5
ENDMDL
MODEL 5
REMARK VINA RESULT:    -5.840      3.216      8.000
REMARK INTER + INTRA:          -7.158
REMARK INTER:                  -6.841
REMARK INTRA:                  -0.317
REMARK UNBOUND:                -0.293
REMARK SMILES O=c1cc(-c2ccc(O)c(O)c2)oc2cc(O)cc(O)c12
REMARK SMILES IDX 4 1 3 2 2 3 1 4 21 5 19 6 18 7 16 8 15 9 14 10 13 11 5 12
REMARK SMILES IDX 6 13 7 14 8 15 12 16 10 17 9 18 11 20 20 22 17 24
REMARK H PARENT 9 19 11 21 20 23 17 25
REMARK Flexibility Score: inf
ROOT
ATOM      1  C   UNL     1      27.472   4.390 -14.570  1.00  0.00     0.138 A 
ATOM      2  C   UNL     1      26.170   3.909 -14.764  1.00  0.00     0.100 A 
ATOM      3  C   UNL     1      25.624   3.004 -13.851  1.00  0.00     0.197 A 
ATOM      4  O   UNL     1      24.478   2.543 -14.086  1.00  0.00    -0.289 OA
ATOM      5  C   UNL     1      26.378   2.605 -12.722  1.00  0.00     0.107 A 
ATOM      6  C   UNL     1      25.910   1.721 -11.705  1.00  0.00     0.134 A 
ATOM      7  C   UNL     1      26.787   1.305 -10.694  1.00  0.00     0.093 A 
ATOM      8  C   UNL     1      28.096   1.791 -10.632  1.00  0.00     0.123 A 
ATOM      9  C   UNL     1      28.544   2.696 -11.589  1.00  0.00     0.094 A 
ATOM     10  C   UNL     1      27.705   3.103 -12.629  1.00  0.00     0.146 A 
ATOM     11  O   UNL     1      28.178   3.957 -13.531  1.00  0.00    -0.456 OA
ENDROOT
BRANCH   1  12
ATOM     12  C   UNL     1      28.099   5.354 -15.509  1.00  0.00     0.021 A 
ATOM     13  C   UNL     1      27.471   5.733 -16.711  1.00  0.00     0.016 A 
ATOM     14  C   UNL     1      28.081   6.650 -17.570  1.00  0.00     0.051 A 
ATOM     15  C   UNL     1      29.322   7.210 -17.243  1.00  0.00     0.157 A 
ATOM     16  C   UNL     1      29.340   5.931 -15.182  1.00  0.00     0.062 A 
ATOM     17  C   UNL     1      29.952   6.850 -16.042  1.00  0.00     0.158 A 
BRANCH  15  18
ATOM     18  O   UNL     1      29.927   8.124 -18.104  1.00  0.00    -0.504 OA
ATOM     19  H   UNL     1      29.382   8.790 -18.639  1.00  0.00     0.293 HD
ENDBRANCH  15  18
BRANCH  17  20
ATOM     20  O   UNL     1      31.187   7.393 -15.685  1.00  0.00    -0.504 OA
ATOM     21  H   UNL     1      31.714   7.987 -16.312  1.00  0.00     0.293 HD
ENDBRANCH  17  20
ENDBRANCH   1  12
BRANCH   6  22
ATOM     22  O   UNL     1      24.598   1.244 -11.626  1.00  0.00    -0.507 OA
ATOM     23  H   UNL     1      24.240   0.661 -10.886  1.00  0.00     0.293 HD
ENDBRANCH   6  22
BRANCH   8  24
ATOM     24  O   UNL     1      28.955   1.384  -9.614  1.00  0.00    -0.508 OA
ATOM     25  H   UNL     1      29.784   0.833  -9.807  1.00  0.00     0.293 HD
ENDBRANCH   8  24
TORSDOF 5
ENDMDL
MODEL 6
REMARK VINA RESULT:    -5.318      3.955      5.767
REMARK INTER + INTRA:          -6.545
REMARK INTER:                  -6.264
REMARK INTRA:                  -0.281
REMARK UNBOUND:                -0.293
REMARK SMILES O=c1cc(-c2ccc(O)c(O)c2)oc2cc(O)cc(O)c12
REMARK SMILES IDX 4 1 3 2 2 3 1 4 21 5 19 6 18 7 16 8 15 9 14 10 13 11 5 12
REMARK SMILES IDX 6 13 7 14 8 15 12 16 10 17 9 18 11 20 20 22 17 24
REMARK H PARENT 9 19 11 21 20 23 17 25
REMARK Flexibility Score: inf
ROOT
ATOM      1  C   UNL     1      27.911   4.595 -13.345  1.00  0.00     0.138 A 
ATOM      2  C   UNL     1      28.808   5.052 -12.370  1.00  0.00     0.100 A 
ATOM      3  C   UNL     1      29.797   5.974 -12.719  1.00  0.00     0.197 A 
ATOM      4  O   UNL     1      30.626   6.317 -11.837  1.00  0.00    -0.289 OA
ATOM      5  C   UNL     1      29.865   6.463 -14.045  1.00  0.00     0.107 A 
ATOM      6  C   UNL     1      30.804   7.435 -14.505  1.00  0.00     0.134 A 
ATOM      7  C   UNL     1      30.852   7.757 -15.867  1.00  0.00     0.093 A 
ATOM      8  C   UNL     1      29.954   7.188 -16.774  1.00  0.00     0.123 A 
ATOM      9  C   UNL     1      28.999   6.280 -16.325  1.00  0.00     0.094 A 
ATOM     10  C   UNL     1      28.949   5.912 -14.979  1.00  0.00     0.146 A 
ATOM     11  O   UNL     1      28.031   5.030 -14.595  1.00  0.00    -0.456 OA
ENDROOT
BRANCH   1  12
ATOM     12  C   UNL     1      26.840   3.617 -13.028  1.00  0.00     0.021 A 
ATOM     13  C   UNL     1      25.576   3.676 -13.646  1.00  0.00     0.016 A 
ATOM     14  C   UNL     1      24.590   2.736 -13.334  1.00  0.00     0.051 A 
ATOM     15  C   UNL     1      24.850   1.718 -12.408  1.00  0.00     0.157 A 
ATOM     16  C   UNL     1      27.097   2.583 -12.109  1.00  0.00     0.062 A 
ATOM     17  C   UNL     1      26.110   1.641 -11.795  1.00  0.00     0.158 A 
BRANCH  15  18
ATOM     18  O   UNL     1      23.864   0.783 -12.101  1.00  0.00    -0.504 OA
ATOM     19  H   UNL     1      23.954  -0.191 -12.364  1.00  0.00     0.293 HD
ENDBRANCH  15  18
BRANCH  17  20
ATOM     20  O   UNL     1      26.403   0.637 -10.872  1.00  0.00    -0.504 OA
ATOM     21  H   UNL     1      26.464  -0.338 -11.140  1.00  0.00     0.293 HD
ENDBRANCH  17  20
ENDBRANCH   1  12
BRANCH   6  22
ATOM     22  O   UNL     1      31.687   8.125 -13.669  1.00  0.00    -0.507 OA
ATOM     23  H   UNL     1      31.441   8.924 -13.106  1.00  0.00     0.293 HD
ENDBRANCH   6  22
BRANCH   8  24
ATOM     24  O   UNL     1      29.999   7.527 -18.125  1.00  0.00    -0.508 OA
ATOM     25  H   UNL     1      29.464   8.303 -18.495  1.00  0.00     0.293 HD
ENDBRANCH   8  24
TORSDOF 5
ENDMDL
MODEL 7
REMARK VINA RESULT:    -5.302      3.513      5.466
REMARK INTER + INTRA:          -6.526
REMARK INTER:                  -6.232
REMARK INTRA:                  -0.294
REMARK UNBOUND:                -0.293
REMARK SMILES O=c1cc(-c2ccc(O)c(O)c2)oc2cc(O)cc(O)c12
REMARK SMILES IDX 4 1 3 2 2 3 1 4 21 5 19 6 18 7 16 8 15 9 14 10 13 11 5 12
REMARK SMILES IDX 6 13 7 14 8 15 12 16 10 17 9 18 11 20 20 22 17 24
REMARK H PARENT 9 19 11 21 20 23 17 25
REMARK Flexibility Score: inf
ROOT
ATOM      1  C   UNL     1      27.494   4.724 -14.168  1.00  0.00     0.138 A 
ATOM      2  C   UNL     1      26.470   5.180 -15.010  1.00  0.00     0.100 A 
ATOM      3  C   UNL     1      26.750   6.147 -15.977  1.00  0.00     0.197 A 
ATOM      4  O   UNL     1      25.798   6.581 -16.676  1.00  0.00    -0.289 OA
ATOM      5  C   UNL     1      28.071   6.635 -16.120  1.00  0.00     0.107 A 
ATOM      6  C   UNL     1      28.482   7.590 -17.098  1.00  0.00     0.134 A 
ATOM      7  C   UNL     1      29.791   8.087 -17.069  1.00  0.00     0.093 A 
ATOM      8  C   UNL     1      30.720   7.617 -16.137  1.00  0.00     0.123 A 
ATOM      9  C   UNL     1      30.343   6.645 -15.215  1.00  0.00     0.094 A 
ATOM     10  C   UNL     1      29.035   6.156 -15.195  1.00  0.00     0.146 A 
ATOM     11  O   UNL     1      28.713   5.239 -14.288  1.00  0.00    -0.456 OA
ENDROOT
BRANCH   1  12
ATOM     12  C   UNL     1      27.251   3.696 -13.124  1.00  0.00     0.021 A 
ATOM     13  C   UNL     1      28.213   3.399 -12.140  1.00  0.00     0.016 A 
ATOM     14  C   UNL     1      27.952   2.433 -11.164  1.00  0.00     0.051 A 
ATOM     15  C   UNL     1      26.727   1.754 -11.149  1.00  0.00     0.157 A 
ATOM     16  C   UNL     1      26.018   3.020 -13.093  1.00  0.00     0.062 A 
ATOM     17  C   UNL     1      25.756   2.052 -12.117  1.00  0.00     0.158 A 
BRANCH  15  18
ATOM     18  O   UNL     1      26.473   0.791 -10.174  1.00  0.00    -0.504 OA
ATOM     19  H   UNL     1      26.838   0.879  -9.233  1.00  0.00     0.293 HD
ENDBRANCH  15  18
BRANCH  17  20
ATOM     20  O   UNL     1      24.524   1.397 -12.126  1.00  0.00    -0.504 OA
ATOM     21  H   UNL     1      23.923   1.394 -12.941  1.00  0.00     0.293 HD
ENDBRANCH  17  20
ENDBRANCH   1  12
BRANCH   6  22
ATOM     22  O   UNL     1      27.658   8.062 -18.124  1.00  0.00    -0.507 OA
ATOM     23  H   UNL     1      26.763   7.669 -18.371  1.00  0.00     0.293 HD
ENDBRANCH   6  22
BRANCH   8  24
ATOM     24  O   UNL     1      32.025   8.105 -16.127  1.00  0.00    -0.508 OA
ATOM     25  H   UNL     1      32.470   8.447 -16.972  1.00  0.00     0.293 HD
ENDBRANCH   8  24
TORSDOF 5
ENDMDL
MODEL 8
REMARK VINA RESULT:    -4.675      2.729      4.971
REMARK INTER + INTRA:          -5.788
REMARK INTER:                  -5.504
REMARK INTRA:                  -0.284
REMARK UNBOUND:                -0.293
REMARK SMILES O=c1cc(-c2ccc(O)c(O)c2)oc2cc(O)cc(O)c12
REMARK SMILES IDX 4 1 3 2 2 3 1 4 21 5 19 6 18 7 16 8 15 9 14 10 13 11 5 12
REMARK SMILES IDX 6 13 7 14 8 15 12 16 10 17 9 18 11 20 20 22 17 24
REMARK H PARENT 9 19 11 21 20 23 17 25
REMARK Flexibility Score: inf
ROOT
ATOM      1  C   UNL     1      28.217   4.626 -13.497  1.00  0.00     0.138 A 
ATOM      2  C   UNL     1      29.380   5.336 -13.825  1.00  0.00     0.100 A 
ATOM      3  C   UNL     1      29.403   6.130 -14.973  1.00  0.00     0.197 A 
ATOM      4  O   UNL     1      30.480   6.705 -15.276  1.00  0.00    -0.289 OA
ATOM      5  C   UNL     1      28.243   6.236 -15.778  1.00  0.00     0.107 A 
ATOM      6  C   UNL     1      28.138   7.047 -16.947  1.00  0.00     0.134 A 
ATOM      7  C   UNL     1      26.978   6.983 -17.729  1.00  0.00     0.093 A 
ATOM      8  C   UNL     1      25.896   6.184 -17.349  1.00  0.00     0.123 A 
ATOM      9  C   UNL     1      25.969   5.431 -16.181  1.00  0.00     0.094 A 
ATOM     10  C   UNL     1      27.126   5.446 -15.398  1.00  0.00     0.146 A 
ATOM     11  O   UNL     1      27.159   4.701 -14.298  1.00  0.00    -0.456 OA
ENDROOT
BRANCH   1  12
ATOM     12  C   UNL     1      28.137   3.769 -12.286  1.00  0.00     0.021 A 
ATOM     13  C   UNL     1      28.414   4.274 -11.002  1.00  0.00     0.016 A 
ATOM     14  C   UNL     1      28.322   3.446  -9.880  1.00  0.00     0.051 A 
ATOM     15  C   UNL     1      27.945   2.104 -10.019  1.00  0.00     0.157 A 
ATOM     16  C   UNL     1      27.746   2.424 -12.416  1.00  0.00     0.062 A 
ATOM     17  C   UNL     1      27.654   1.593 -11.293  1.00  0.00     0.158 A 
BRANCH  15  18
ATOM     18  O   UNL     1      27.855   1.283  -8.897  1.00  0.00    -0.504 OA
ATOM     19  H   UNL     1      28.544   1.319  -8.156  1.00  0.00     0.293 HD
ENDBRANCH  15  18
BRANCH  17  20
ATOM     20  O   UNL     1      27.271   0.262 -11.466  1.00  0.00    -0.504 OA
ATOM     21  H   UNL     1      26.467  -0.131 -10.992  1.00  0.00     0.293 HD
ENDBRANCH  17  20
ENDBRANCH   1  12
BRANCH   6  22
ATOM     22  O   UNL     1      29.125   7.943 -17.368  1.00  0.00    -0.507 OA
ATOM     23  H   UNL     1      28.976   8.925 -17.542  1.00  0.00     0.293 HD
ENDBRANCH   6  22
BRANCH   8  24
ATOM     24  O   UNL     1      24.739   6.139 -18.125  1.00  0.00    -0.508 OA
ATOM     25  H   UNL     1      24.686   5.575 -18.965  1.00  0.00     0.293 HD
ENDBRANCH   8  24
TORSDOF 5
ENDMDL
MODEL 9
REMARK VINA RESULT:    -4.657      5.458      7.026
REMARK INTER + INTRA:          -5.767
REMARK INTER:                  -5.495
REMARK INTRA:                  -0.272
REMARK UNBOUND:                -0.293
REMARK SMILES O=c1cc(-c2ccc(O)c(O)c2)oc2cc(O)cc(O)c12
REMARK SMILES IDX 4 1 3 2 2 3 1 4 21 5 19 6 18 7 16 8 15 9 14 10 13 11 5 12
REMARK SMILES IDX 6 13 7 14 8 15 12 16 10 17 9 18 11 20 20 22 17 24
REMARK H PARENT 9 19 11 21 20 23 17 25
REMARK Flexibility Score: inf
ROOT
ATOM      1  C   UNL     1      28.214   6.473 -14.089  1.00  0.00     0.138 A 
ATOM      2  C   UNL     1      29.326   7.240 -14.463  1.00  0.00     0.100 A 
ATOM      3  C   UNL     1      30.166   6.787 -15.482  1.00  0.00     0.197 A 
ATOM      4  O   UNL     1      31.190   7.466 -15.753  1.00  0.00    -0.289 OA
ATOM      5  C   UNL     1      29.870   5.575 -16.150  1.00  0.00     0.107 A 
ATOM      6  C   UNL     1      30.631   5.036 -17.230  1.00  0.00     0.134 A 
ATOM      7  C   UNL     1      30.310   3.770 -17.737  1.00  0.00     0.093 A 
ATOM      8  C   UNL     1      29.219   3.052 -17.242  1.00  0.00     0.123 A 
ATOM      9  C   UNL     1      28.438   3.594 -16.225  1.00  0.00     0.094 A 
ATOM     10  C   UNL     1      28.753   4.838 -15.675  1.00  0.00     0.146 A 
ATOM     11  O   UNL     1      27.990   5.312 -14.696  1.00  0.00    -0.456 OA
ENDROOT
BRANCH   1  12
ATOM     12  C   UNL     1      27.288   6.908 -13.013  1.00  0.00     0.021 A 
ATOM     13  C   UNL     1      25.892   6.900 -13.190  1.00  0.00     0.016 A 
ATOM     14  C   UNL     1      25.044   7.307 -12.157  1.00  0.00     0.051 A 
ATOM     15  C   UNL     1      25.574   7.720 -10.927  1.00  0.00     0.157 A 
ATOM     16  C   UNL     1      27.811   7.312 -11.771  1.00  0.00     0.062 A 
ATOM     17  C   UNL     1      26.964   7.720 -10.734  1.00  0.00     0.158 A 
BRANCH  15  18
ATOM     18  O   UNL     1      24.724   8.125  -9.899  1.00  0.00    -0.504 OA
ATOM     19  H   UNL     1      24.791   7.731  -8.969  1.00  0.00     0.293 HD
ENDBRANCH  15  18
BRANCH  17  20
ATOM     20  O   UNL     1      27.523   8.121  -9.521  1.00  0.00    -0.504 OA
ATOM     21  H   UNL     1      27.416   7.576  -8.674  1.00  0.00     0.293 HD
ENDBRANCH  17  20
ENDBRANCH   1  12
BRANCH   6  22
ATOM     22  O   UNL     1      31.688   5.708 -17.853  1.00  0.00    -0.507 OA
ATOM     23  H   UNL     1      32.040   6.611 -17.575  1.00  0.00     0.293 HD
ENDBRANCH   6  22
BRANCH   8  24
ATOM     24  O   UNL     1      28.898   1.800 -17.764  1.00  0.00    -0.508 OA
ATOM     25  H   UNL     1      29.509   1.001 -17.640  1.00  0.00     0.293 HD
ENDBRANCH   8  24
TORSDOF 5
ENDMDL
