MODEL 1
REMARK VINA RESULT:    -4.122      0.000      0.000
REMARK INTER + INTRA:         -13.478
REMARK INTER:                  -9.423
REMARK INTRA:                  -4.054
REMARK UNBOUND:                -4.054
REMARK SMILES CCCCCCCCCCCCCCCCCCCCCCCC(=O)[O-]
REMARK SMILES IDX 13 1 14 2 15 3 16 4 17 5 18 6 19 7 20 8 21 9 22 10 23 11
REMARK SMILES IDX 24 12 25 13 26 14 12 15 11 16 10 17 9 18 8 19 7 20 6 21 5 22
REMARK SMILES IDX 4 23 3 24 2 25 1 26
REMARK H PARENT
REMARK Flexibility Score: inf
ROOT
ATOM      1  C   UNL     1      96.708  83.579  78.141  1.00  0.00     0.000 C 
ENDROOT
BRANCH   1   2
ATOM      2  C   UNL     1      96.042  82.666  79.184  1.00  0.00     0.000 C 
BRANCH   2   3
ATOM      3  C   UNL     1      96.996  81.580  79.707  1.00  0.00     0.000 C 
BRANCH   3   4
ATOM      4  C   UNL     1      98.478  81.949  79.522  1.00  0.00     0.000 C 
BRANCH   4   5
ATOM      5  C   UNL     1      99.120  82.496  80.807  1.00  0.00     0.000 C 
BRANCH   5   6
ATOM      6  C   UNL     1      99.525  83.974  80.682  1.00  0.00     0.000 C 
BRANCH   6   7
ATOM      7  C   UNL     1      98.775  84.888  81.668  1.00  0.00     0.000 C 
BRANCH   7   8
ATOM      8  C   UNL     1      97.385  84.382  82.109  1.00  0.00     0.000 C 
BRANCH   8   9
ATOM      9  C   UNL     1      97.064  84.571  83.602  1.00  0.00     0.000 C 
BRANCH   9  10
ATOM     10  C   UNL     1      97.244  83.280  84.420  1.00  0.00     0.006 C 
BRANCH  10  11
ATOM     11  C   UNL     1      98.423  83.375  85.397  1.00  0.00     0.053 C 
BRANCH  11  12
ATOM     12  C   UNL     1      99.728  83.103  84.714  1.00  0.00     0.041 C 
ATOM     13  O   UNL     1     100.660  83.949  84.767  1.00  0.00    -0.550 OA
ATOM     14  O   UNL     1      99.926  81.905  84.040  1.00  0.00    -0.550 OA
ENDBRANCH  11  12
ENDBRANCH  10  11
ENDBRANCH   9  10
ENDBRANCH   8   9
ENDBRANCH   7   8
ENDBRANCH   6   7
ENDBRANCH   5   6
ENDBRANCH   4   5
ENDBRANCH   3   4
ENDBRANCH   2   3
ENDBRANCH   1   2
BRANCH   1  15
ATOM     15  C   UNL     1      96.631  85.072  78.511  1.00  0.00     0.000 C 
BRANCH  15  16
ATOM     16  C   UNL     1      95.265  85.544  79.050  1.00  0.00     0.000 C 
BRANCH  16  17
ATOM     17  C   UNL     1      94.347  86.227  78.015  1.00  0.00     0.000 C 
BRANCH  17  18
ATOM     18  C   UNL     1      94.099  85.420  76.727  1.00  0.00    -0.000 C 
BRANCH  18  19
ATOM     19  C   UNL     1      92.753  84.676  76.736  1.00  0.00    -0.000 C 
BRANCH  19  20
ATOM     20  C   UNL     1      92.901  83.174  77.041  1.00  0.00    -0.000 C 
BRANCH  20  21
ATOM     21  C   UNL     1      92.198  82.693  78.325  1.00  0.00    -0.000 C 
BRANCH  21  22
ATOM     22  C   UNL     1      90.830  83.343  78.600  1.00  0.00    -0.000 C 
BRANCH  22  23
ATOM     23  C   UNL     1      90.669  83.861  80.045  1.00  0.00    -0.000 C 
BRANCH  23  24
ATOM     24  C   UNL     1      91.839  84.756  80.481  1.00  0.00    -0.000 C 
BRANCH  24  25
ATOM     25  C   UNL     1      92.186  84.524  81.956  1.00  0.00    -0.003 C 
ATOM     26  C   UNL     1      93.677  84.248  82.134  1.00  0.00     0.004 C 
ENDBRANCH  24  25
ENDBRANCH  23  24
ENDBRANCH  22  23
ENDBRANCH  21  22
ENDBRANCH  20  21
ENDBRANCH  19  20
ENDBRANCH  18  19
ENDBRANCH  17  18
ENDBRANCH  16  17
ENDBRANCH  15  16
ENDBRANCH   1  15
TORSDOF 22
ENDMDL
MODEL 2
REMARK VINA RESULT:    -3.961      3.509      6.439
REMARK INTER + INTRA:         -13.109
REMARK INTER:                  -8.644
REMARK INTRA:                  -4.465
REMARK UNBOUND:                -4.054
REMARK SMILES CCCCCCCCCCCCCCCCCCCCCCCC(=O)[O-]
REMARK SMILES IDX 13 1 14 2 15 3 16 4 17 5 18 6 19 7 20 8 21 9 22 10 23 11
REMARK SMILES IDX 24 12 25 13 26 14 12 15 11 16 10 17 9 18 8 19 7 20 6 21 5 22
REMARK SMILES IDX 4 23 3 24 2 25 1 26
REMARK H PARENT
REMARK Flexibility Score: inf
ROOT
ATOM      1  C   UNL     1     101.869  85.816  81.824  1.00  0.00     0.000 C 
ENDROOT
BRANCH   1   2
ATOM      2  C   UNL     1     102.087  84.912  80.599  1.00  0.00     0.000 C 
BRANCH   2   3
ATOM      3  C   UNL     1     101.398  83.545  80.750  1.00  0.00     0.000 C 
BRANCH   3   4
ATOM      4  C   UNL     1     100.357  83.524  81.883  1.00  0.00     0.000 C 
BRANCH   4   5
ATOM      5  C   UNL     1      99.257  82.475  81.659  1.00  0.00     0.000 C 
BRANCH   5   6
ATOM      6  C   UNL     1      98.777  82.424  80.199  1.00  0.00     0.000 C 
BRANCH   6   7
ATOM      7  C   UNL     1      97.453  81.659  80.028  1.00  0.00     0.000 C 
BRANCH   7   8
ATOM      8  C   UNL     1      96.537  82.169  78.894  1.00  0.00     0.000 C 
BRANCH   8   9
ATOM      9  C   UNL     1      96.910  83.548  78.323  1.00  0.00     0.000 C 
BRANCH   9  10
ATOM     10  C   UNL     1      95.679  84.389  77.942  1.00  0.00     0.006 C 
BRANCH  10  11
ATOM     11  C   UNL     1      94.367  83.722  78.371  1.00  0.00     0.053 C 
BRANCH  11  12
ATOM     12  C   UNL     1      93.275  83.956  77.373  1.00  0.00     0.041 C 
ATOM     13  O   UNL     1      93.397  84.855  76.499  1.00  0.00    -0.550 OA
ATOM     14  O   UNL     1      92.134  83.166  77.390  1.00  0.00    -0.550 OA
ENDBRANCH  11  12
ENDBRANCH  10  11
ENDBRANCH   9  10
ENDBRANCH   8   9
ENDBRANCH   7   8
ENDBRANCH   6   7
ENDBRANCH   5   6
ENDBRANCH   4   5
ENDBRANCH   3   4
ENDBRANCH   2   3
ENDBRANCH   1   2
BRANCH   1  15
ATOM     15  C   UNL     1     101.397  87.233  81.448  1.00  0.00     0.000 C 
BRANCH  15  16
ATOM     16  C   UNL     1     101.353  87.531  79.935  1.00  0.00     0.000 C 
BRANCH  16  17
ATOM     17  C   UNL     1      99.961  87.879  79.370  1.00  0.00     0.000 C 
BRANCH  17  18
ATOM     18  C   UNL     1      99.030  86.675  79.136  1.00  0.00    -0.000 C 
BRANCH  18  19
ATOM     19  C   UNL     1      97.764  86.719  80.006  1.00  0.00    -0.000 C 
BRANCH  19  20
ATOM     20  C   UNL     1      97.910  85.928  81.319  1.00  0.00    -0.000 C 
BRANCH  20  21
ATOM     21  C   UNL     1      96.604  85.721  82.109  1.00  0.00    -0.000 C 
BRANCH  21  22
ATOM     22  C   UNL     1      95.868  84.400  81.815  1.00  0.00    -0.000 C 
BRANCH  22  23
ATOM     23  C   UNL     1      95.716  83.488  83.050  1.00  0.00    -0.000 C 
BRANCH  23  24
ATOM     24  C   UNL     1      96.122  84.192  84.353  1.00  0.00    -0.000 C 
BRANCH  24  25
ATOM     25  C   UNL     1      97.323  83.493  85.002  1.00  0.00    -0.003 C 
ATOM     26  C   UNL     1      98.571  84.370  84.938  1.00  0.00     0.004 C 
ENDBRANCH  24  25
ENDBRANCH  23  24
ENDBRANCH  22  23
ENDBRANCH  21  22
ENDBRANCH  20  21
ENDBRANCH  19  20
ENDBRANCH  18  19
ENDBRANCH  17  18
ENDBRANCH  16  17
ENDBRANCH  15  16
ENDBRANCH   1  15
TORSDOF 22
ENDMDL
MODEL 3
REMARK VINA RESULT:    -3.916      3.226      5.829
REMARK INTER + INTRA:         -13.007
REMARK INTER:                  -8.704
REMARK INTRA:                  -4.303
REMARK UNBOUND:                -4.054
REMARK SMILES CCCCCCCCCCCCCCCCCCCCCCCC(=O)[O-]
REMARK SMILES IDX 13 1 14 2 15 3 16 4 17 5 18 6 19 7 20 8 21 9 22 10 23 11
REMARK SMILES IDX 24 12 25 13 26 14 12 15 11 16 10 17 9 18 8 19 7 20 6 21 5 22
REMARK SMILES IDX 4 23 3 24 2 25 1 26
REMARK H PARENT
REMARK Flexibility Score: inf
ROOT
ATOM      1  C   UNL     1      98.390  84.261  81.670  1.00  0.00     0.000 C 
ENDROOT
BRANCH   1   2
ATOM      2  C   UNL     1      98.457  82.725  81.625  1.00  0.00     0.000 C 
BRANCH   2   3
ATOM      3  C   UNL     1      99.229  82.207  80.400  1.00  0.00     0.000 C 
BRANCH   3   4
ATOM      4  C   UNL     1      98.321  81.970  79.181  1.00  0.00     0.000 C 
BRANCH   4   5
ATOM      5  C   UNL     1      96.854  81.725  79.571  1.00  0.00     0.000 C 
BRANCH   5   6
ATOM      6  C   UNL     1      95.890  82.715  78.895  1.00  0.00     0.000 C 
BRANCH   6   7
ATOM      7  C   UNL     1      96.587  84.004  78.424  1.00  0.00     0.000 C 
BRANCH   7   8
ATOM      8  C   UNL     1      95.646  85.190  78.122  1.00  0.00     0.000 C 
BRANCH   8   9
ATOM      9  C   UNL     1      94.632  84.948  76.990  1.00  0.00     0.000 C 
BRANCH   9  10
ATOM     10  C   UNL     1      93.172  85.041  77.466  1.00  0.00     0.006 C 
BRANCH  10  11
ATOM     11  C   UNL     1      92.276  83.995  76.793  1.00  0.00     0.053 C 
BRANCH  11  12
ATOM     12  C   UNL     1      91.846  82.932  77.757  1.00  0.00     0.041 C 
ATOM     13  O   UNL     1      92.582  81.933  77.971  1.00  0.00    -0.550 OA
ATOM     14  O   UNL     1      90.644  83.059  78.441  1.00  0.00    -0.550 OA
ENDBRANCH  11  12
ENDBRANCH  10  11
ENDBRANCH   9  10
ENDBRANCH   8   9
ENDBRANCH   7   8
ENDBRANCH   6   7
ENDBRANCH   5   6
ENDBRANCH   4   5
ENDBRANCH   3   4
ENDBRANCH   2   3
ENDBRANCH   1   2
BRANCH   1  15
ATOM     15  C   UNL     1      97.082  84.788  82.289  1.00  0.00     0.000 C 
BRANCH  15  16
ATOM     16  C   UNL     1      95.979  83.728  82.493  1.00  0.00     0.000 C 
BRANCH  16  17
ATOM     17  C   UNL     1      94.541  84.208  82.210  1.00  0.00     0.000 C 
BRANCH  17  18
ATOM     18  C   UNL     1      94.415  85.681  81.780  1.00  0.00    -0.000 C 
BRANCH  18  19
ATOM     19  C   UNL     1      93.068  85.995  81.107  1.00  0.00    -0.000 C 
BRANCH  19  20
ATOM     20  C   UNL     1      92.146  84.766  81.010  1.00  0.00    -0.000 C 
BRANCH  20  21
ATOM     21  C   UNL     1      90.851  84.850  81.840  1.00  0.00    -0.000 C 
BRANCH  21  22
ATOM     22  C   UNL     1      90.630  83.683  82.821  1.00  0.00    -0.000 C 
BRANCH  22  23
ATOM     23  C   UNL     1      91.421  83.826  84.139  1.00  0.00    -0.000 C 
BRANCH  23  24
ATOM     24  C   UNL     1      91.398  85.261  84.684  1.00  0.00    -0.000 C 
BRANCH  24  25
ATOM     25  C   UNL     1      92.800  85.705  85.119  1.00  0.00    -0.003 C 
ATOM     26  C   UNL     1      93.604  84.528  85.668  1.00  0.00     0.004 C 
ENDBRANCH  24  25
ENDBRANCH  23  24
ENDBRANCH  22  23
ENDBRANCH  21  22
ENDBRANCH  20  21
ENDBRANCH  19  20
ENDBRANCH  18  19
ENDBRANCH  17  18
ENDBRANCH  16  17
ENDBRANCH  15  16
ENDBRANCH   1  15
TORSDOF 22
ENDMDL
MODEL 4
REMARK VINA RESULT:    -3.906      3.606      7.229
REMARK INTER + INTRA:         -12.983
REMARK INTER:                  -9.214
REMARK INTRA:                  -3.769
REMARK UNBOUND:                -4.054
REMARK SMILES CCCCCCCCCCCCCCCCCCCCCCCC(=O)[O-]
REMARK SMILES IDX 13 1 14 2 15 3 16 4 17 5 18 6 19 7 20 8 21 9 22 10 23 11
REMARK SMILES IDX 24 12 25 13 26 14 12 15 11 16 10 17 9 18 8 19 7 20 6 21 5 22
REMARK SMILES IDX 4 23 3 24 2 25 1 26
REMARK H PARENT
REMARK Flexibility Score: inf
ROOT
ATOM      1  C   UNL     1     100.891  83.463  80.728  1.00  0.00     0.000 C 
ENDROOT
BRANCH   1   2
ATOM      2  C   UNL     1      99.700  82.537  81.026  1.00  0.00     0.000 C 
BRANCH   2   3
ATOM      3  C   UNL     1      98.836  82.275  79.782  1.00  0.00     0.000 C 
BRANCH   3   4
ATOM      4  C   UNL     1      97.453  81.696  80.129  1.00  0.00     0.000 C 
BRANCH   4   5
ATOM      5  C   UNL     1      96.407  81.958  79.033  1.00  0.00     0.000 C 
BRANCH   5   6
ATOM      6  C   UNL     1      96.510  83.376  78.446  1.00  0.00     0.000 C 
BRANCH   6   7
ATOM      7  C   UNL     1      95.217  84.192  78.615  1.00  0.00     0.000 C 
BRANCH   7   8
ATOM      8  C   UNL     1      94.931  85.217  77.497  1.00  0.00     0.000 C 
BRANCH   8   9
ATOM      9  C   UNL     1      93.695  84.914  76.632  1.00  0.00     0.000 C 
BRANCH   9  10
ATOM     10  C   UNL     1      93.030  83.573  76.989  1.00  0.00     0.006 C 
BRANCH  10  11
ATOM     11  C   UNL     1      91.500  83.655  76.933  1.00  0.00     0.053 C 
BRANCH  11  12
ATOM     12  C   UNL     1      90.894  83.611  78.302  1.00  0.00     0.041 C 
ATOM     13  O   UNL     1      89.680  83.309  78.449  1.00  0.00    -0.550 OA
ATOM     14  O   UNL     1      91.675  83.879  79.418  1.00  0.00    -0.550 OA
ENDBRANCH  11  12
ENDBRANCH  10  11
ENDBRANCH   9  10
ENDBRANCH   8   9
ENDBRANCH   7   8
ENDBRANCH   6   7
ENDBRANCH   5   6
ENDBRANCH   4   5
ENDBRANCH   3   4
ENDBRANCH   2   3
ENDBRANCH   1   2
BRANCH   1  15
ATOM     15  C   UNL     1     101.048  84.594  81.762  1.00  0.00     0.000 C 
BRANCH  15  16
ATOM     16  C   UNL     1     102.075  85.683  81.393  1.00  0.00     0.000 C 
BRANCH  16  17
ATOM     17  C   UNL     1     102.409  85.796  79.892  1.00  0.00     0.000 C 
BRANCH  17  18
ATOM     18  C   UNL     1     102.022  87.133  79.233  1.00  0.00    -0.000 C 
BRANCH  18  19
ATOM     19  C   UNL     1     100.639  87.640  79.675  1.00  0.00    -0.000 C 
BRANCH  19  20
ATOM     20  C   UNL     1      99.490  87.054  78.835  1.00  0.00    -0.000 C 
BRANCH  20  21
ATOM     21  C   UNL     1      98.441  86.250  79.627  1.00  0.00    -0.000 C 
BRANCH  21  22
ATOM     22  C   UNL     1      97.294  87.087  80.222  1.00  0.00    -0.000 C 
BRANCH  22  23
ATOM     23  C   UNL     1      96.622  86.434  81.448  1.00  0.00    -0.000 C 
BRANCH  23  24
ATOM     24  C   UNL     1      97.171  85.029  81.737  1.00  0.00    -0.000 C 
BRANCH  24  25
ATOM     25  C   UNL     1      97.761  84.951  83.150  1.00  0.00    -0.003 C 
ATOM     26  C   UNL     1      98.288  86.311  83.602  1.00  0.00     0.004 C 
ENDBRANCH  24  25
ENDBRANCH  23  24
ENDBRANCH  22  23
ENDBRANCH  21  22
ENDBRANCH  20  21
ENDBRANCH  19  20
ENDBRANCH  18  19
ENDBRANCH  17  18
ENDBRANCH  16  17
ENDBRANCH  15  16
ENDBRANCH   1  15
TORSDOF 22
ENDMDL
MODEL 5
REMARK VINA RESULT:    -3.830      3.375      6.532
REMARK INTER + INTRA:         -12.810
REMARK INTER:                  -8.709
REMARK INTRA:                  -4.101
REMARK UNBOUND:                -4.054
REMARK SMILES CCCCCCCCCCCCCCCCCCCCCCCC(=O)[O-]
REMARK SMILES IDX 13 1 14 2 15 3 16 4 17 5 18 6 19 7 20 8 21 9 22 10 23 11
REMARK SMILES IDX 24 12 25 13 26 14 12 15 11 16 10 17 9 18 8 19 7 20 6 21 5 22
REMARK SMILES IDX 4 23 3 24 2 25 1 26
REMARK H PARENT
REMARK Flexibility Score: inf
ROOT
ATOM      1  C   UNL     1      95.620  82.943  78.917  1.00  0.00     0.000 C 
ENDROOT
BRANCH   1   2
ATOM      2  C   UNL     1      96.308  84.069  78.127  1.00  0.00     0.000 C 
BRANCH   2   3
ATOM      3  C   UNL     1      96.055  85.456  78.742  1.00  0.00     0.000 C 
BRANCH   3   4
ATOM      4  C   UNL     1      97.317  86.336  78.766  1.00  0.00     0.000 C 
BRANCH   4   5
ATOM      5  C   UNL     1      98.501  85.659  79.476  1.00  0.00     0.000 C 
BRANCH   5   6
ATOM      6  C   UNL     1      98.566  86.002  80.974  1.00  0.00     0.000 C 
BRANCH   6   7
ATOM      7  C   UNL     1      99.996  85.951  81.540  1.00  0.00     0.000 C 
BRANCH   7   8
ATOM      8  C   UNL     1     101.049  85.306  80.615  1.00  0.00     0.000 C 
BRANCH   8   9
ATOM      9  C   UNL     1     102.157  86.255  80.125  1.00  0.00     0.000 C 
BRANCH   9  10
ATOM     10  C   UNL     1     101.702  87.723  80.063  1.00  0.00     0.006 C 
BRANCH  10  11
ATOM     11  C   UNL     1     102.096  88.396  78.743  1.00  0.00     0.053 C 
BRANCH  11  12
ATOM     12  C   UNL     1     103.343  89.213  78.890  1.00  0.00     0.041 C 
ATOM     13  O   UNL     1     103.762  89.911  77.928  1.00  0.00    -0.550 OA
ATOM     14  O   UNL     1     104.029  89.225  80.097  1.00  0.00    -0.550 OA
ENDBRANCH  11  12
ENDBRANCH  10  11
ENDBRANCH   9  10
ENDBRANCH   8   9
ENDBRANCH   7   8
ENDBRANCH   6   7
ENDBRANCH   5   6
ENDBRANCH   4   5
ENDBRANCH   3   4
ENDBRANCH   2   3
ENDBRANCH   1   2
BRANCH   1  15
ATOM     15  C   UNL     1      96.595  81.833  79.353  1.00  0.00     0.000 C 
BRANCH  15  16
ATOM     16  C   UNL     1      98.046  82.003  78.860  1.00  0.00     0.000 C 
BRANCH  16  17
ATOM     17  C   UNL     1      99.107  82.153  79.969  1.00  0.00     0.000 C 
BRANCH  17  18
ATOM     18  C   UNL     1      98.561  82.113  81.408  1.00  0.00    -0.000 C 
BRANCH  18  19
ATOM     19  C   UNL     1      99.634  82.424  82.465  1.00  0.00    -0.000 C 
BRANCH  19  20
ATOM     20  C   UNL     1      99.264  81.904  83.866  1.00  0.00    -0.000 C 
BRANCH  20  21
ATOM     21  C   UNL     1      98.957  82.994  84.910  1.00  0.00    -0.000 C 
BRANCH  21  22
ATOM     22  C   UNL     1      98.188  84.214  84.370  1.00  0.00    -0.000 C 
BRANCH  22  23
ATOM     23  C   UNL     1      96.731  84.299  84.870  1.00  0.00    -0.000 C 
BRANCH  23  24
ATOM     24  C   UNL     1      95.758  83.514  83.977  1.00  0.00    -0.000 C 
BRANCH  24  25
ATOM     25  C   UNL     1      95.867  83.967  82.517  1.00  0.00    -0.003 C 
ATOM     26  C   UNL     1      95.078  85.252  82.278  1.00  0.00     0.004 C 
ENDBRANCH  24  25
ENDBRANCH  23  24
ENDBRANCH  22  23
ENDBRANCH  21  22
ENDBRANCH  20  21
ENDBRANCH  19  20
ENDBRANCH  18  19
ENDBRANCH  17  18
ENDBRANCH  16  17
ENDBRANCH  15  16
ENDBRANCH   1  15
TORSDOF 22
ENDMDL
MODEL 6
REMARK VINA RESULT:    -3.817      1.558      4.158
REMARK INTER + INTRA:         -12.781
REMARK INTER:                  -8.785
REMARK INTRA:                  -3.997
REMARK UNBOUND:                -4.054
REMARK SMILES CCCCCCCCCCCCCCCCCCCCCCCC(=O)[O-]
REMARK SMILES IDX 13 1 14 2 15 3 16 4 17 5 18 6 19 7 20 8 21 9 22 10 23 11
REMARK SMILES IDX 24 12 25 13 26 14 12 15 11 16 10 17 9 18 8 19 7 20 6 21 5 22
REMARK SMILES IDX 4 23 3 24 2 25 1 26
REMARK H PARENT
REMARK Flexibility Score: inf
ROOT
ATOM      1  C   UNL     1      91.764  84.249  82.075  1.00  0.00     0.000 C 
ENDROOT
BRANCH   1   2
ATOM      2  C   UNL     1      92.536  83.958  83.372  1.00  0.00     0.000 C 
BRANCH   2   3
ATOM      3  C   UNL     1      93.495  85.099  83.751  1.00  0.00     0.000 C 
BRANCH   3   4
ATOM      4  C   UNL     1      94.976  84.709  83.596  1.00  0.00     0.000 C 
BRANCH   4   5
ATOM      5  C   UNL     1      95.166  83.391  82.828  1.00  0.00     0.000 C 
BRANCH   5   6
ATOM      6  C   UNL     1      96.251  83.492  81.742  1.00  0.00     0.000 C 
BRANCH   6   7
ATOM      7  C   UNL     1      95.968  82.594  80.525  1.00  0.00     0.000 C 
BRANCH   7   8
ATOM      8  C   UNL     1      97.200  82.243  79.663  1.00  0.00     0.000 C 
BRANCH   8   9
ATOM      9  C   UNL     1      98.444  83.113  79.915  1.00  0.00     0.000 C 
BRANCH   9  10
ATOM     10  C   UNL     1      99.657  82.297  80.393  1.00  0.00     0.006 C 
BRANCH  10  11
ATOM     11  C   UNL     1     100.549  83.094  81.352  1.00  0.00     0.053 C 
BRANCH  11  12
ATOM     12  C   UNL     1      99.957  83.164  82.727  1.00  0.00     0.041 C 
ATOM     13  O   UNL     1      99.973  82.152  83.477  1.00  0.00    -0.550 OA
ATOM     14  O   UNL     1      99.411  84.353  83.190  1.00  0.00    -0.550 OA
ENDBRANCH  11  12
ENDBRANCH  10  11
ENDBRANCH   9  10
ENDBRANCH   8   9
ENDBRANCH   7   8
ENDBRANCH   6   7
ENDBRANCH   5   6
ENDBRANCH   4   5
ENDBRANCH   3   4
ENDBRANCH   2   3
ENDBRANCH   1   2
BRANCH   1  15
ATOM     15  C   UNL     1      91.728  85.747  81.719  1.00  0.00     0.000 C 
BRANCH  15  16
ATOM     16  C   UNL     1      92.361  86.114  80.361  1.00  0.00     0.000 C 
BRANCH  16  17
ATOM     17  C   UNL     1      93.698  85.414  80.045  1.00  0.00     0.000 C 
BRANCH  17  18
ATOM     18  C   UNL     1      94.810  86.336  79.511  1.00  0.00    -0.000 C 
BRANCH  18  19
ATOM     19  C   UNL     1      95.624  85.696  78.374  1.00  0.00    -0.000 C 
BRANCH  19  20
ATOM     20  C   UNL     1      94.894  84.516  77.705  1.00  0.00    -0.000 C 
BRANCH  20  21
ATOM     21  C   UNL     1      93.944  84.900  76.555  1.00  0.00    -0.000 C 
BRANCH  21  22
ATOM     22  C   UNL     1      92.540  84.272  76.634  1.00  0.00    -0.000 C 
BRANCH  22  23
ATOM     23  C   UNL     1      92.491  82.970  77.461  1.00  0.00    -0.000 C 
BRANCH  23  24
ATOM     24  C   UNL     1      91.378  82.990  78.520  1.00  0.00    -0.000 C 
BRANCH  24  25
ATOM     25  C   UNL     1      90.257  83.956  78.119  1.00  0.00    -0.003 C 
ATOM     26  C   UNL     1      89.033  83.782  79.014  1.00  0.00     0.004 C 
ENDBRANCH  24  25
ENDBRANCH  23  24
ENDBRANCH  22  23
ENDBRANCH  21  22
ENDBRANCH  20  21
ENDBRANCH  19  20
ENDBRANCH  18  19
ENDBRANCH  17  18
ENDBRANCH  16  17
ENDBRANCH  15  16
ENDBRANCH   1  15
TORSDOF 22
ENDMDL
MODEL 7
REMARK VINA RESULT:    -3.805      3.062      6.049
REMARK INTER + INTRA:         -12.753
REMARK INTER:                  -8.612
REMARK INTRA:                  -4.141
REMARK UNBOUND:                -4.054
REMARK SMILES CCCCCCCCCCCCCCCCCCCCCCCC(=O)[O-]
REMARK SMILES IDX 13 1 14 2 15 3 16 4 17 5 18 6 19 7 20 8 21 9 22 10 23 11
REMARK SMILES IDX 24 12 25 13 26 14 12 15 11 16 10 17 9 18 8 19 7 20 6 21 5 22
REMARK SMILES IDX 4 23 3 24 2 25 1 26
REMARK H PARENT
REMARK Flexibility Score: inf
ROOT
ATOM      1  C   UNL     1      98.059  85.792  81.740  1.00  0.00     0.000 C 
ENDROOT
BRANCH   1   2
ATOM      2  C   UNL     1      98.609  86.054  80.328  1.00  0.00     0.000 C 
BRANCH   2   3
ATOM      3  C   UNL     1     100.134  85.873  80.250  1.00  0.00     0.000 C 
BRANCH   3   4
ATOM      4  C   UNL     1     100.678  84.926  81.334  1.00  0.00     0.000 C 
BRANCH   4   5
ATOM      5  C   UNL     1     100.910  83.499  80.815  1.00  0.00     0.000 C 
BRANCH   5   6
ATOM      6  C   UNL     1      99.750  82.549  81.158  1.00  0.00     0.000 C 
BRANCH   6   7
ATOM      7  C   UNL     1      99.146  81.866  79.918  1.00  0.00     0.000 C 
BRANCH   7   8
ATOM      8  C   UNL     1      98.009  82.647  79.223  1.00  0.00     0.000 C 
BRANCH   8   9
ATOM      9  C   UNL     1      96.636  81.954  79.239  1.00  0.00     0.000 C 
BRANCH   9  10
ATOM     10  C   UNL     1      95.479  82.914  78.912  1.00  0.00     0.006 C 
BRANCH  10  11
ATOM     11  C   UNL     1      95.948  84.133  78.108  1.00  0.00     0.053 C 
BRANCH  11  12
ATOM     12  C   UNL     1      94.795  84.875  77.506  1.00  0.00     0.041 C 
ATOM     13  O   UNL     1      94.050  84.312  76.660  1.00  0.00    -0.550 OA
ATOM     14  O   UNL     1      94.526  86.180  77.897  1.00  0.00    -0.550 OA
ENDBRANCH  11  12
ENDBRANCH  10  11
ENDBRANCH   9  10
ENDBRANCH   8   9
ENDBRANCH   7   8
ENDBRANCH   6   7
ENDBRANCH   5   6
ENDBRANCH   4   5
ENDBRANCH   3   4
ENDBRANCH   2   3
ENDBRANCH   1   2
BRANCH   1  15
ATOM     15  C   UNL     1      96.639  85.195  81.730  1.00  0.00     0.000 C 
BRANCH  15  16
ATOM     16  C   UNL     1      96.489  83.844  82.460  1.00  0.00     0.000 C 
BRANCH  16  17
ATOM     17  C   UNL     1      97.415  83.646  83.677  1.00  0.00     0.000 C 
BRANCH  17  18
ATOM     18  C   UNL     1      96.747  83.860  85.049  1.00  0.00    -0.000 C 
BRANCH  18  19
ATOM     19  C   UNL     1      96.127  85.259  85.200  1.00  0.00    -0.000 C 
BRANCH  19  20
ATOM     20  C   UNL     1      94.614  85.216  85.483  1.00  0.00    -0.000 C 
BRANCH  20  21
ATOM     21  C   UNL     1      94.018  83.805  85.653  1.00  0.00    -0.000 C 
BRANCH  21  22
ATOM     22  C   UNL     1      93.355  83.223  84.391  1.00  0.00    -0.000 C 
BRANCH  22  23
ATOM     23  C   UNL     1      91.870  83.615  84.235  1.00  0.00    -0.000 C 
BRANCH  23  24
ATOM     24  C   UNL     1      91.608  84.419  82.953  1.00  0.00    -0.000 C 
BRANCH  24  25
ATOM     25  C   UNL     1      92.898  84.597  82.145  1.00  0.00    -0.003 C 
ATOM     26  C   UNL     1      92.609  84.624  80.645  1.00  0.00     0.004 C 
ENDBRANCH  24  25
ENDBRANCH  23  24
ENDBRANCH  22  23
ENDBRANCH  21  22
ENDBRANCH  20  21
ENDBRANCH  19  20
ENDBRANCH  18  19
ENDBRANCH  17  18
ENDBRANCH  16  17
ENDBRANCH  15  16
ENDBRANCH   1  15
TORSDOF 22
ENDMDL
MODEL 8
REMARK VINA RESULT:    -3.804      3.319      7.015
REMARK INTER + INTRA:         -12.751
REMARK INTER:                  -8.592
REMARK INTRA:                  -4.159
REMARK UNBOUND:                -4.054
REMARK SMILES CCCCCCCCCCCCCCCCCCCCCCCC(=O)[O-]
REMARK SMILES IDX 13 1 14 2 15 3 16 4 17 5 18 6 19 7 20 8 21 9 22 10 23 11
REMARK SMILES IDX 24 12 25 13 26 14 12 15 11 16 10 17 9 18 8 19 7 20 6 21 5 22
REMARK SMILES IDX 4 23 3 24 2 25 1 26
REMARK H PARENT
REMARK Flexibility Score: inf
ROOT
ATOM      1  C   UNL     1     100.920  85.414  81.799  1.00  0.00     0.000 C 
ENDROOT
BRANCH   1   2
ATOM      2  C   UNL     1     101.684  84.566  80.767  1.00  0.00     0.000 C 
BRANCH   2   3
ATOM      3  C   UNL     1     101.045  83.184  80.556  1.00  0.00     0.000 C 
BRANCH   3   4
ATOM      4  C   UNL     1     100.160  82.750  81.737  1.00  0.00     0.000 C 
BRANCH   4   5
ATOM      5  C   UNL     1      98.803  82.184  81.287  1.00  0.00     0.000 C 
BRANCH   5   6
ATOM      6  C   UNL     1      98.455  82.567  79.839  1.00  0.00     0.000 C 
BRANCH   6   7
ATOM      7  C   UNL     1      97.229  81.812  79.296  1.00  0.00     0.000 C 
BRANCH   7   8
ATOM      8  C   UNL     1      95.977  82.679  79.046  1.00  0.00     0.000 C 
BRANCH   8   9
ATOM      9  C   UNL     1      96.193  83.887  78.116  1.00  0.00     0.000 C 
BRANCH   9  10
ATOM     10  C   UNL     1      94.965  84.812  78.044  1.00  0.00     0.006 C 
BRANCH  10  11
ATOM     11  C   UNL     1      94.199  84.653  76.725  1.00  0.00     0.053 C 
BRANCH  11  12
ATOM     12  C   UNL     1      92.882  83.968  76.931  1.00  0.00     0.041 C 
ATOM     13  O   UNL     1      92.842  82.788  77.369  1.00  0.00    -0.550 OA
ATOM     14  O   UNL     1      91.698  84.643  76.665  1.00  0.00    -0.550 OA
ENDBRANCH  11  12
ENDBRANCH  10  11
ENDBRANCH   9  10
ENDBRANCH   8   9
ENDBRANCH   7   8
ENDBRANCH   6   7
ENDBRANCH   5   6
ENDBRANCH   4   5
ENDBRANCH   3   4
ENDBRANCH   2   3
ENDBRANCH   1   2
BRANCH   1  15
ATOM     15  C   UNL     1      99.953  86.422  81.150  1.00  0.00     0.000 C 
BRANCH  15  16
ATOM     16  C   UNL     1      98.578  86.547  81.837  1.00  0.00     0.000 C 
BRANCH  16  17
ATOM     17  C   UNL     1      97.468  85.643  81.263  1.00  0.00     0.000 C 
BRANCH  17  18
ATOM     18  C   UNL     1      96.069  85.858  81.871  1.00  0.00    -0.000 C 
BRANCH  18  19
ATOM     19  C   UNL     1      95.257  84.557  81.977  1.00  0.00    -0.000 C 
BRANCH  19  20
ATOM     20  C   UNL     1      95.891  83.532  82.935  1.00  0.00    -0.000 C 
BRANCH  20  21
ATOM     21  C   UNL     1      95.945  83.961  84.414  1.00  0.00    -0.000 C 
BRANCH  21  22
ATOM     22  C   UNL     1      97.230  83.557  85.161  1.00  0.00    -0.000 C 
BRANCH  22  23
ATOM     23  C   UNL     1      98.517  84.139  84.539  1.00  0.00    -0.000 C 
BRANCH  23  24
ATOM     24  C   UNL     1      99.786  83.643  85.248  1.00  0.00    -0.000 C 
BRANCH  24  25
ATOM     25  C   UNL     1     100.625  84.821  85.756  1.00  0.00    -0.003 C 
ATOM     26  C   UNL     1     100.029  86.155  85.313  1.00  0.00     0.004 C 
ENDBRANCH  24  25
ENDBRANCH  23  24
ENDBRANCH  22  23
ENDBRANCH  21  22
ENDBRANCH  20  21
ENDBRANCH  19  20
ENDBRANCH  18  19
ENDBRANCH  17  18
ENDBRANCH  16  17
ENDBRANCH  15  16
ENDBRANCH   1  15
TORSDOF 22
ENDMDL
MODEL 9
REMARK VINA RESULT:    -3.786      2.046      3.610
REMARK INTER + INTRA:         -12.710
REMARK INTER:                  -8.970
REMARK INTRA:                  -3.739
REMARK UNBOUND:                -4.054
REMARK SMILES CCCCCCCCCCCCCCCCCCCCCCCC(=O)[O-]
REMARK SMILES IDX 13 1 14 2 15 3 16 4 17 5 18 6 19 7 20 8 21 9 22 10 23 11
REMARK SMILES IDX 24 12 25 13 26 14 12 15 11 16 10 17 9 18 8 19 7 20 6 21 5 22
REMARK SMILES IDX 4 23 3 24 2 25 1 26
REMARK H PARENT
REMARK Flexibility Score: inf
ROOT
ATOM      1  C   UNL     1      94.198  84.531  77.010  1.00  0.00     0.000 C 
ENDROOT
BRANCH   1   2
ATOM      2  C   UNL     1      95.505  84.208  77.753  1.00  0.00     0.000 C 
BRANCH   2   3
ATOM      3  C   UNL     1      95.268  83.360  79.014  1.00  0.00     0.000 C 
BRANCH   3   4
ATOM      4  C   UNL     1      96.188  82.128  79.084  1.00  0.00     0.000 C 
BRANCH   4   5
ATOM      5  C   UNL     1      97.666  82.475  78.847  1.00  0.00     0.000 C 
BRANCH   5   6
ATOM      6  C   UNL     1      98.582  81.954  79.967  1.00  0.00     0.000 C 
BRANCH   6   7
ATOM      7  C   UNL     1      99.089  83.070  80.897  1.00  0.00     0.000 C 
BRANCH   7   8
ATOM      8  C   UNL     1      98.533  84.480  80.600  1.00  0.00     0.000 C 
BRANCH   8   9
ATOM      9  C   UNL     1      97.404  84.947  81.535  1.00  0.00     0.000 C 
BRANCH   9  10
ATOM     10  C   UNL     1      97.110  83.945  82.665  1.00  0.00     0.006 C 
BRANCH  10  11
ATOM     11  C   UNL     1      95.660  83.448  82.634  1.00  0.00     0.053 C 
BRANCH  11  12
ATOM     12  C   UNL     1      95.060  83.409  84.006  1.00  0.00     0.041 C 
ATOM     13  O   UNL     1      95.766  83.673  85.015  1.00  0.00    -0.550 OA
ATOM     14  O   UNL     1      93.715  83.106  84.169  1.00  0.00    -0.550 OA
ENDBRANCH  11  12
ENDBRANCH  10  11
ENDBRANCH   9  10
ENDBRANCH   8   9
ENDBRANCH   7   8
ENDBRANCH   6   7
ENDBRANCH   5   6
ENDBRANCH   4   5
ENDBRANCH   3   4
ENDBRANCH   2   3
ENDBRANCH   1   2
BRANCH   1  15
ATOM     15  C   UNL     1      92.968  83.836  77.626  1.00  0.00     0.000 C 
BRANCH  15  16
ATOM     16  C   UNL     1      91.820  83.539  76.640  1.00  0.00     0.000 C 
BRANCH  16  17
ATOM     17  C   UNL     1      90.532  84.358  76.858  1.00  0.00     0.000 C 
BRANCH  17  18
ATOM     18  C   UNL     1      89.369  83.588  77.509  1.00  0.00    -0.000 C 
BRANCH  18  19
ATOM     19  C   UNL     1      89.653  83.195  78.968  1.00  0.00    -0.000 C 
BRANCH  19  20
ATOM     20  C   UNL     1      89.033  84.174  79.983  1.00  0.00    -0.000 C 
BRANCH  20  21
ATOM     21  C   UNL     1      90.014  85.192  80.595  1.00  0.00    -0.000 C 
BRANCH  21  22
ATOM     22  C   UNL     1      91.491  84.983  80.213  1.00  0.00    -0.000 C 
BRANCH  22  23
ATOM     23  C   UNL     1      92.444  84.940  81.426  1.00  0.00    -0.000 C 
BRANCH  23  24
ATOM     24  C   UNL     1      93.450  86.100  81.423  1.00  0.00    -0.000 C 
BRANCH  24  25
ATOM     25  C   UNL     1      93.608  86.684  80.014  1.00  0.00    -0.003 C 
ATOM     26  C   UNL     1      95.011  87.250  79.807  1.00  0.00     0.004 C 
ENDBRANCH  24  25
ENDBRANCH  23  24
ENDBRANCH  22  23
ENDBRANCH  21  22
ENDBRANCH  20  21
ENDBRANCH  19  20
ENDBRANCH  18  19
ENDBRANCH  17  18
ENDBRANCH  16  17
ENDBRANCH  15  16
ENDBRANCH   1  15
TORSDOF 22
ENDMDL
