MODEL 1
REMARK VINA RESULT:    -6.463      0.000      0.000
REMARK INTER + INTRA:          -6.882
REMARK INTER:                  -6.841
REMARK INTRA:                  -0.041
REMARK UNBOUND:                -0.041
REMARK SMILES CC1=CC[C@H]2[C@@H]3[C@@H](C(C)C)CC[C@@]2(C)[C@H]13
REMARK SMILES IDX 1 1 2 2 3 3 4 4 5 5 6 6 15 7 13 8 12 9 11 10 7 11 14 12 8 13
REMARK SMILES IDX 9 14 10 15
REMARK H PARENT
REMARK Flexibility Score: inf
ROOT
ATOM      1  C   UNL     1     142.703 144.275 164.502  1.00  0.00     0.039 C 
ATOM      2  C   UNL     1     143.265 142.907 164.254  1.00  0.00    -0.073 C 
ATOM      3  C   UNL     1     143.120 141.910 165.165  1.00  0.00    -0.027 C 
ATOM      4  C   UNL     1     143.734 140.538 164.865  1.00  0.00     0.031 C 
ATOM      5  C   UNL     1     144.421 140.544 163.459  1.00  0.00     0.003 C 
ATOM      6  C   UNL     1     143.443 141.212 162.466  1.00  0.00     0.004 C 
ATOM      7  C   UNL     1     144.008 142.566 162.959  1.00  0.00     0.024 C 
ATOM      8  C   UNL     1     145.315 141.792 163.277  1.00  0.00    -0.022 C 
ATOM      9  C   UNL     1     146.175 141.602 161.995  1.00  0.00     0.008 C 
ATOM     10  C   UNL     1     145.309 141.448 160.719  1.00  0.00     0.005 C 
ATOM     11  C   UNL     1     143.870 140.897 160.996  1.00  0.00    -0.005 C 
ATOM     12  C   UNL     1     146.191 142.262 164.462  1.00  0.00     0.012 C 
ENDROOT
BRANCH  11  13
ATOM     13  C   UNL     1     142.845 141.428 159.943  1.00  0.00    -0.014 C 
ATOM     14  C   UNL     1     143.470 141.592 158.545  1.00  0.00     0.007 C 
ATOM     15  C   UNL     1     142.250 142.782 160.378  1.00  0.00     0.007 C 
ENDBRANCH  11  13
TORSDOF 1
ENDMDL
MODEL 2
REMARK VINA RESULT:    -6.462      6.651      8.144
REMARK INTER + INTRA:          -6.881
REMARK INTER:                  -6.839
REMARK INTRA:                  -0.042
REMARK UNBOUND:                -0.041
REMARK SMILES CC1=CC[C@H]2[C@@H]3[C@@H](C(C)C)CC[C@@]2(C)[C@H]13
REMARK SMILES IDX 1 1 2 2 3 3 4 4 5 5 6 6 15 7 13 8 12 9 11 10 7 11 14 12 8 13
REMARK SMILES IDX 9 14 10 15
REMARK H PARENT
REMARK Flexibility Score: inf
ROOT
ATOM      1  C   UNL     1     148.041 146.471 164.489  1.00  0.00     0.039 C 
ATOM      2  C   UNL     1     147.461 147.834 164.260  1.00  0.00    -0.073 C 
ATOM      3  C   UNL     1     147.594 148.822 165.183  1.00  0.00    -0.027 C 
ATOM      4  C   UNL     1     146.961 150.189 164.901  1.00  0.00     0.031 C 
ATOM      5  C   UNL     1     146.271 150.191 163.497  1.00  0.00     0.003 C 
ATOM      6  C   UNL     1     147.257 149.549 162.493  1.00  0.00     0.004 C 
ATOM      7  C   UNL     1     146.711 148.181 162.970  1.00  0.00     0.024 C 
ATOM      8  C   UNL     1     145.394 148.933 163.300  1.00  0.00    -0.022 C 
ATOM      9  C   UNL     1     144.529 149.128 162.022  1.00  0.00     0.008 C 
ATOM     10  C   UNL     1     145.390 149.310 160.747  1.00  0.00     0.005 C 
ATOM     11  C   UNL     1     146.822 149.877 161.029  1.00  0.00    -0.005 C 
ATOM     12  C   UNL     1     144.527 148.437 164.481  1.00  0.00     0.012 C 
ENDROOT
BRANCH  11  13
ATOM     13  C   UNL     1     147.853 149.373 159.967  1.00  0.00    -0.014 C 
ATOM     14  C   UNL     1     147.225 149.212 158.569  1.00  0.00     0.007 C 
ATOM     15  C   UNL     1     148.472 148.026 160.387  1.00  0.00     0.007 C 
ENDBRANCH  11  13
TORSDOF 1
ENDMDL
MODEL 3
REMARK VINA RESULT:    -6.451      3.961      5.756
REMARK INTER + INTRA:          -6.870
REMARK INTER:                  -6.828
REMARK INTRA:                  -0.042
REMARK UNBOUND:                -0.041
REMARK SMILES CC1=CC[C@H]2[C@@H]3[C@@H](C(C)C)CC[C@@]2(C)[C@H]13
REMARK SMILES IDX 1 1 2 2 3 3 4 4 5 5 6 6 15 7 13 8 12 9 11 10 7 11 14 12 8 13
REMARK SMILES IDX 9 14 10 15
REMARK H PARENT
REMARK Flexibility Score: inf
ROOT
ATOM      1  C   UNL     1     146.440 142.722 164.484  1.00  0.00     0.039 C 
ATOM      2  C   UNL     1     147.809 143.285 164.245  1.00  0.00    -0.073 C 
ATOM      3  C   UNL     1     148.798 143.146 165.166  1.00  0.00    -0.027 C 
ATOM      4  C   UNL     1     150.172 143.762 164.876  1.00  0.00     0.031 C 
ATOM      5  C   UNL     1     150.178 144.440 163.466  1.00  0.00     0.003 C 
ATOM      6  C   UNL     1     149.520 143.456 162.472  1.00  0.00     0.004 C 
ATOM      7  C   UNL     1     148.161 144.021 162.949  1.00  0.00     0.024 C 
ATOM      8  C   UNL     1     148.929 145.331 163.267  1.00  0.00    -0.022 C 
ATOM      9  C   UNL     1     149.130 146.184 161.982  1.00  0.00     0.008 C 
ATOM     10  C   UNL     1     149.298 145.312 160.713  1.00  0.00     0.005 C 
ATOM     11  C   UNL     1     149.849 143.876 161.003  1.00  0.00    -0.005 C 
ATOM     12  C   UNL     1     148.448 146.213 164.443  1.00  0.00     0.012 C 
ENDROOT
BRANCH  11  13
ATOM     13  C   UNL     1     149.329 142.844 159.951  1.00  0.00    -0.014 C 
ATOM     14  C   UNL     1     149.175 143.462 158.548  1.00  0.00     0.007 C 
ATOM     15  C   UNL     1     147.974 142.247 160.378  1.00  0.00     0.007 C 
ENDBRANCH  11  13
TORSDOF 1
ENDMDL
MODEL 4
REMARK VINA RESULT:    -6.446      3.945      5.750
REMARK INTER + INTRA:          -6.864
REMARK INTER:                  -6.819
REMARK INTRA:                  -0.045
REMARK UNBOUND:                -0.041
REMARK SMILES CC1=CC[C@H]2[C@@H]3[C@@H](C(C)C)CC[C@@]2(C)[C@H]13
REMARK SMILES IDX 1 1 2 2 3 3 4 4 5 5 6 6 15 7 13 8 12 9 11 10 7 11 14 12 8 13
REMARK SMILES IDX 9 14 10 15
REMARK H PARENT
REMARK Flexibility Score: inf
ROOT
ATOM      1  C   UNL     1     144.263 148.067 164.498  1.00  0.00     0.039 C 
ATOM      2  C   UNL     1     142.902 147.490 164.251  1.00  0.00    -0.073 C 
ATOM      3  C   UNL     1     141.903 147.625 165.161  1.00  0.00    -0.027 C 
ATOM      4  C   UNL     1     140.538 146.994 164.862  1.00  0.00     0.031 C 
ATOM      5  C   UNL     1     140.553 146.304 163.458  1.00  0.00     0.003 C 
ATOM      6  C   UNL     1     141.210 147.288 162.462  1.00  0.00     0.004 C 
ATOM      7  C   UNL     1     142.570 146.740 162.957  1.00  0.00     0.024 C 
ATOM      8  C   UNL     1     141.812 145.425 163.277  1.00  0.00    -0.022 C 
ATOM      9  C   UNL     1     141.632 144.560 161.997  1.00  0.00     0.008 C 
ATOM     10  C   UNL     1     141.468 145.421 160.719  1.00  0.00     0.005 C 
ATOM     11  C   UNL     1     140.900 146.854 160.994  1.00  0.00    -0.005 C 
ATOM     12  C   UNL     1     142.290 144.557 164.465  1.00  0.00     0.012 C 
ENDROOT
BRANCH  11  13
ATOM     13  C   UNL     1     141.420 147.883 159.939  1.00  0.00    -0.014 C 
ATOM     14  C   UNL     1     141.624 147.249 158.550  1.00  0.00     0.007 C 
ATOM     15  C   UNL     1     142.750 148.520 160.389  1.00  0.00     0.007 C 
ENDBRANCH  11  13
TORSDOF 1
ENDMDL
MODEL 5
REMARK VINA RESULT:    -6.322      3.958      6.639
REMARK INTER + INTRA:          -6.733
REMARK INTER:                  -6.428
REMARK INTRA:                  -0.306
REMARK UNBOUND:                -0.041
REMARK SMILES CC1=CC[C@H]2[C@@H]3[C@@H](C(C)C)CC[C@@]2(C)[C@H]13
REMARK SMILES IDX 1 1 2 2 3 3 4 4 5 5 6 6 15 7 13 8 12 9 11 10 7 11 14 12 8 13
REMARK SMILES IDX 9 14 10 15
REMARK H PARENT
REMARK Flexibility Score: inf
ROOT
ATOM      1  C   UNL     1     142.982 144.027 164.849  1.00  0.00     0.039 C 
ATOM      2  C   UNL     1     142.262 145.266 164.408  1.00  0.00    -0.073 C 
ATOM      3  C   UNL     1     141.145 145.698 165.050  1.00  0.00    -0.027 C 
ATOM      4  C   UNL     1     140.439 146.960 164.540  1.00  0.00     0.031 C 
ATOM      5  C   UNL     1     141.216 147.565 163.324  1.00  0.00     0.003 C 
ATOM      6  C   UNL     1     142.717 147.587 163.695  1.00  0.00     0.004 C 
ATOM      7  C   UNL     1     142.761 146.111 163.232  1.00  0.00     0.024 C 
ATOM      8  C   UNL     1     141.581 146.473 162.292  1.00  0.00    -0.022 C 
ATOM      9  C   UNL     1     142.094 147.168 160.998  1.00  0.00     0.008 C 
ATOM     10  C   UNL     1     143.360 148.026 161.248  1.00  0.00     0.005 C 
ATOM     11  C   UNL     1     143.497 148.531 162.724  1.00  0.00    -0.005 C 
ATOM     12  C   UNL     1     140.534 145.387 161.955  1.00  0.00     0.012 C 
ENDROOT
BRANCH  11  13
ATOM     13  C   UNL     1     144.996 148.705 163.128  1.00  0.00    -0.014 C 
ATOM     14  C   UNL     1     145.234 148.450 164.629  1.00  0.00     0.007 C 
ATOM     15  C   UNL     1     145.507 150.118 162.782  1.00  0.00     0.007 C 
ENDBRANCH  11  13
TORSDOF 1
ENDMDL
MODEL 6
REMARK VINA RESULT:    -6.302      4.747      7.126
REMARK INTER + INTRA:          -6.712
REMARK INTER:                  -6.307
REMARK INTRA:                  -0.405
REMARK UNBOUND:                -0.041
REMARK SMILES CC1=CC[C@H]2[C@@H]3[C@@H](C(C)C)CC[C@@]2(C)[C@H]13
REMARK SMILES IDX 1 1 2 2 3 3 4 4 5 5 6 6 15 7 13 8 12 9 11 10 7 11 14 12 8 13
REMARK SMILES IDX 9 14 10 15
REMARK H PARENT
REMARK Flexibility Score: inf
ROOT
ATOM      1  C   UNL     1     148.843 145.967 160.592  1.00  0.00     0.039 C 
ATOM      2  C   UNL     1     149.035 145.696 162.054  1.00  0.00    -0.073 C 
ATOM      3  C   UNL     1     150.254 145.368 162.556  1.00  0.00    -0.027 C 
ATOM      4  C   UNL     1     150.383 145.080 164.057  1.00  0.00     0.031 C 
ATOM      5  C   UNL     1     149.004 145.269 164.769  1.00  0.00     0.003 C 
ATOM      6  C   UNL     1     148.396 146.598 164.263  1.00  0.00     0.004 C 
ATOM      7  C   UNL     1     147.874 145.793 163.049  1.00  0.00     0.024 C 
ATOM      8  C   UNL     1     147.869 144.562 163.992  1.00  0.00    -0.022 C 
ATOM      9  C   UNL     1     146.594 144.547 164.882  1.00  0.00     0.008 C 
ATOM     10  C   UNL     1     146.105 145.973 165.240  1.00  0.00     0.005 C 
ATOM     11  C   UNL     1     147.238 147.054 165.208  1.00  0.00    -0.005 C 
ATOM     12  C   UNL     1     148.138 143.161 163.393  1.00  0.00     0.012 C 
ENDROOT
BRANCH  11  13
ATOM     13  C   UNL     1     146.672 148.461 164.831  1.00  0.00    -0.014 C 
ATOM     14  C   UNL     1     145.276 148.378 164.184  1.00  0.00     0.007 C 
ATOM     15  C   UNL     1     147.618 149.204 163.869  1.00  0.00     0.007 C 
ENDBRANCH  11  13
TORSDOF 1
ENDMDL
MODEL 7
REMARK VINA RESULT:    -6.298      2.262      5.051
REMARK INTER + INTRA:          -6.707
REMARK INTER:                  -6.314
REMARK INTRA:                  -0.394
REMARK UNBOUND:                -0.041
REMARK SMILES CC1=CC[C@H]2[C@@H]3[C@@H](C(C)C)CC[C@@]2(C)[C@H]13
REMARK SMILES IDX 1 1 2 2 3 3 4 4 5 5 6 6 15 7 13 8 12 9 11 10 7 11 14 12 8 13
REMARK SMILES IDX 9 14 10 15
REMARK H PARENT
REMARK Flexibility Score: inf
ROOT
ATOM      1  C   UNL     1     141.873 144.823 160.594  1.00  0.00     0.039 C 
ATOM      2  C   UNL     1     141.693 145.089 162.058  1.00  0.00    -0.073 C 
ATOM      3  C   UNL     1     140.479 145.423 162.569  1.00  0.00    -0.027 C 
ATOM      4  C   UNL     1     140.361 145.705 164.071  1.00  0.00     0.031 C 
ATOM      5  C   UNL     1     141.744 145.503 164.775  1.00  0.00     0.003 C 
ATOM      6  C   UNL     1     142.338 144.172 164.259  1.00  0.00     0.004 C 
ATOM      7  C   UNL     1     142.859 144.978 163.045  1.00  0.00     0.024 C 
ATOM      8  C   UNL     1     142.879 146.206 163.994  1.00  0.00    -0.022 C 
ATOM      9  C   UNL     1     144.159 146.207 164.876  1.00  0.00     0.008 C 
ATOM     10  C   UNL     1     144.639 144.775 165.224  1.00  0.00     0.005 C 
ATOM     11  C   UNL     1     143.499 143.703 165.195  1.00  0.00    -0.005 C 
ATOM     12  C   UNL     1     142.617 147.611 163.403  1.00  0.00     0.012 C 
ENDROOT
BRANCH  11  13
ATOM     13  C   UNL     1     144.052 142.294 164.808  1.00  0.00    -0.014 C 
ATOM     14  C   UNL     1     145.464 142.365 164.195  1.00  0.00     0.007 C 
ATOM     15  C   UNL     1     143.118 141.581 163.812  1.00  0.00     0.007 C 
ENDBRANCH  11  13
TORSDOF 1
ENDMDL
MODEL 8
REMARK VINA RESULT:    -6.297      1.905      4.967
REMARK INTER + INTRA:          -6.707
REMARK INTER:                  -6.308
REMARK INTRA:                  -0.398
REMARK UNBOUND:                -0.041
REMARK SMILES CC1=CC[C@H]2[C@@H]3[C@@H](C(C)C)CC[C@@]2(C)[C@H]13
REMARK SMILES IDX 1 1 2 2 3 3 4 4 5 5 6 6 15 7 13 8 12 9 11 10 7 11 14 12 8 13
REMARK SMILES IDX 9 14 10 15
REMARK H PARENT
REMARK Flexibility Score: inf
ROOT
ATOM      1  C   UNL     1     145.943 141.822 160.630  1.00  0.00     0.039 C 
ATOM      2  C   UNL     1     145.665 141.663 162.095  1.00  0.00    -0.073 C 
ATOM      3  C   UNL     1     145.318 140.460 162.620  1.00  0.00    -0.027 C 
ATOM      4  C   UNL     1     145.025 140.365 164.122  1.00  0.00     0.031 C 
ATOM      5  C   UNL     1     145.234 141.755 164.807  1.00  0.00     0.003 C 
ATOM      6  C   UNL     1     146.573 142.332 164.292  1.00  0.00     0.004 C 
ATOM      7  C   UNL     1     145.779 142.842 163.066  1.00  0.00     0.024 C 
ATOM      8  C   UNL     1     144.546 142.885 164.006  1.00  0.00    -0.022 C 
ATOM      9  C   UNL     1     144.549 144.178 164.871  1.00  0.00     0.008 C 
ATOM     10  C   UNL     1     145.982 144.651 165.222  1.00  0.00     0.005 C 
ATOM     11  C   UNL     1     147.045 143.501 165.215  1.00  0.00    -0.005 C 
ATOM     12  C   UNL     1     143.142 142.626 163.409  1.00  0.00     0.012 C 
ENDROOT
BRANCH  11  13
ATOM     13  C   UNL     1     148.461 144.038 164.831  1.00  0.00    -0.014 C 
ATOM     14  C   UNL     1     148.404 145.433 164.178  1.00  0.00     0.007 C 
ATOM     15  C   UNL     1     149.181 143.074 163.869  1.00  0.00     0.007 C 
ENDBRANCH  11  13
TORSDOF 1
ENDMDL
MODEL 9
REMARK VINA RESULT:    -6.274      4.878      7.170
REMARK INTER + INTRA:          -6.683
REMARK INTER:                  -6.291
REMARK INTRA:                  -0.392
REMARK UNBOUND:                -0.041
REMARK SMILES CC1=CC[C@H]2[C@@H]3[C@@H](C(C)C)CC[C@@]2(C)[C@H]13
REMARK SMILES IDX 1 1 2 2 3 3 4 4 5 5 6 6 15 7 13 8 12 9 11 10 7 11 14 12 8 13
REMARK SMILES IDX 9 14 10 15
REMARK H PARENT
REMARK Flexibility Score: inf
ROOT
ATOM      1  C   UNL     1     144.801 148.899 160.645  1.00  0.00     0.039 C 
ATOM      2  C   UNL     1     145.095 149.057 162.107  1.00  0.00    -0.073 C 
ATOM      3  C   UNL     1     145.446 150.261 162.629  1.00  0.00    -0.027 C 
ATOM      4  C   UNL     1     145.755 150.356 164.127  1.00  0.00     0.031 C 
ATOM      5  C   UNL     1     145.557 148.965 164.814  1.00  0.00     0.003 C 
ATOM      6  C   UNL     1     144.214 148.385 164.315  1.00  0.00     0.004 C 
ATOM      7  C   UNL     1     144.995 147.877 163.079  1.00  0.00     0.024 C 
ATOM      8  C   UNL     1     146.239 147.837 164.005  1.00  0.00    -0.022 C 
ATOM      9  C   UNL     1     146.248 146.544 164.869  1.00  0.00     0.008 C 
ATOM     10  C   UNL     1     144.821 146.067 165.236  1.00  0.00     0.005 C 
ATOM     11  C   UNL     1     143.755 147.214 165.242  1.00  0.00    -0.005 C 
ATOM     12  C   UNL     1     147.635 148.099 163.392  1.00  0.00     0.012 C 
ENDROOT
BRANCH  11  13
ATOM     13  C   UNL     1     142.336 146.674 164.873  1.00  0.00    -0.014 C 
ATOM     14  C   UNL     1     142.387 145.268 164.246  1.00  0.00     0.007 C 
ATOM     15  C   UNL     1     141.614 147.623 163.897  1.00  0.00     0.007 C 
ENDBRANCH  11  13
TORSDOF 1
ENDMDL
