MODEL 1
REMARK VINA RESULT:    -4.506      0.000      0.000
REMARK INTER + INTRA:          -5.795
REMARK INTER:                  -5.560
REMARK INTRA:                  -0.235
REMARK UNBOUND:                -0.235
REMARK SMILES C=CC[C@H](C)C(=O)CC
REMARK SMILES IDX 4 1 5 2 6 3 7 4 8 5 9 6 3 7 2 8 1 9
REMARK H PARENT
REMARK Flexibility Score: inf
ROOT
ATOM      1  C   UNL     1     -25.420  19.730 -32.919  1.00  0.00     0.057 C 
ATOM      2  C   UNL     1     -25.159  18.505 -32.030  1.00  0.00     0.016 C 
ENDROOT
BRANCH   1   3
ATOM      3  C   UNL     1     -26.792  19.646 -33.556  1.00  0.00     0.135 C 
ATOM      4  O   UNL     1     -27.409  18.591 -33.500  1.00  0.00    -0.299 OA
BRANCH   3   5
ATOM      5  C   UNL     1     -27.435  20.832 -34.232  1.00  0.00     0.072 C 
ATOM      6  C   UNL     1     -27.738  21.936 -33.223  1.00  0.00     0.012 C 
ENDBRANCH   3   5
ENDBRANCH   1   3
BRANCH   1   7
ATOM      7  C   UNL     1     -24.329  19.903 -33.997  1.00  0.00     0.038 C 
BRANCH   7   8
ATOM      8  C   UNL     1     -23.068  20.511 -33.442  1.00  0.00    -0.034 C 
ATOM      9  C   UNL     1     -23.091  21.364 -32.413  1.00  0.00     0.004 C 
ENDBRANCH   7   8
ENDBRANCH   1   7
TORSDOF 4
ENDMDL
MODEL 2
REMARK VINA RESULT:    -4.422      1.247      3.754
REMARK INTER + INTRA:          -5.691
REMARK INTER:                  -5.483
REMARK INTRA:                  -0.208
REMARK UNBOUND:                -0.235
REMARK SMILES C=CC[C@H](C)C(=O)CC
REMARK SMILES IDX 4 1 5 2 6 3 7 4 8 5 9 6 3 7 2 8 1 9
REMARK H PARENT
REMARK Flexibility Score: inf
ROOT
ATOM      1  C   UNL     1     -25.495  20.017 -33.421  1.00  0.00     0.057 C 
ATOM      2  C   UNL     1     -24.945  19.893 -34.849  1.00  0.00     0.016 C 
ENDROOT
BRANCH   1   3
ATOM      3  C   UNL     1     -24.609  19.275 -32.441  1.00  0.00     0.135 C 
ATOM      4  O   UNL     1     -25.055  18.294 -31.862  1.00  0.00    -0.299 OA
BRANCH   3   5
ATOM      5  C   UNL     1     -23.183  19.691 -32.177  1.00  0.00     0.072 C 
ATOM      6  C   UNL     1     -23.064  21.211 -32.100  1.00  0.00     0.012 C 
ENDBRANCH   3   5
ENDBRANCH   1   3
BRANCH   1   7
ATOM      7  C   UNL     1     -26.954  19.523 -33.319  1.00  0.00     0.038 C 
BRANCH   7   8
ATOM      8  C   UNL     1     -27.947  20.596 -33.676  1.00  0.00    -0.034 C 
ATOM      9  C   UNL     1     -27.857  21.833 -33.177  1.00  0.00     0.004 C 
ENDBRANCH   7   8
ENDBRANCH   1   7
TORSDOF 4
ENDMDL
MODEL 3
REMARK VINA RESULT:    -4.197      6.864      8.874
REMARK INTER + INTRA:          -5.413
REMARK INTER:                  -5.070
REMARK INTRA:                  -0.343
REMARK UNBOUND:                -0.235
REMARK SMILES C=CC[C@H](C)C(=O)CC
REMARK SMILES IDX 4 1 5 2 6 3 7 4 8 5 9 6 3 7 2 8 1 9
REMARK H PARENT
REMARK Flexibility Score: inf
ROOT
ATOM      1  C   UNL     1     -27.226  13.134 -30.603  1.00  0.00     0.057 C 
ATOM      2  C   UNL     1     -26.352  14.364 -30.320  1.00  0.00     0.016 C 
ENDROOT
BRANCH   1   3
ATOM      3  C   UNL     1     -26.816  12.474 -31.903  1.00  0.00     0.135 C 
ATOM      4  O   UNL     1     -26.389  13.169 -32.814  1.00  0.00    -0.299 OA
BRANCH   3   5
ATOM      5  C   UNL     1     -26.889  10.979 -32.101  1.00  0.00     0.072 C 
ATOM      6  C   UNL     1     -27.974  10.616 -33.110  1.00  0.00     0.012 C 
ENDBRANCH   3   5
ENDBRANCH   1   3
BRANCH   1   7
ATOM      7  C   UNL     1     -28.729  13.485 -30.620  1.00  0.00     0.038 C 
BRANCH   7   8
ATOM      8  C   UNL     1     -29.499  12.754 -29.553  1.00  0.00    -0.034 C 
ATOM      9  C   UNL     1     -28.918  12.340 -28.423  1.00  0.00     0.004 C 
ENDBRANCH   7   8
ENDBRANCH   1   7
TORSDOF 4
ENDMDL
MODEL 4
REMARK VINA RESULT:    -4.159     11.242     12.453
REMARK INTER + INTRA:          -5.366
REMARK INTER:                  -5.039
REMARK INTRA:                  -0.327
REMARK UNBOUND:                -0.235
REMARK SMILES C=CC[C@H](C)C(=O)CC
REMARK SMILES IDX 4 1 5 2 6 3 7 4 8 5 9 6 3 7 2 8 1 9
REMARK H PARENT
REMARK Flexibility Score: inf
ROOT
ATOM      1  C   UNL     1     -15.071  13.656 -31.785  1.00  0.00     0.057 C 
ATOM      2  C   UNL     1     -14.518  13.320 -33.178  1.00  0.00     0.016 C 
ENDROOT
BRANCH   1   3
ATOM      3  C   UNL     1     -16.585  13.698 -31.806  1.00  0.00     0.135 C 
ATOM      4  O   UNL     1     -17.149  14.407 -32.628  1.00  0.00    -0.299 OA
BRANCH   3   5
ATOM      5  C   UNL     1     -17.422  12.868 -30.864  1.00  0.00     0.072 C 
ATOM      6  C   UNL     1     -16.540  12.105 -29.880  1.00  0.00     0.012 C 
ENDBRANCH   3   5
ENDBRANCH   1   3
BRANCH   1   7
ATOM      7  C   UNL     1     -14.497  14.981 -31.240  1.00  0.00     0.038 C 
BRANCH   7   8
ATOM      8  C   UNL     1     -13.442  14.758 -30.189  1.00  0.00    -0.034 C 
ATOM      9  C   UNL     1     -12.165  14.530 -30.510  1.00  0.00     0.004 C 
ENDBRANCH   7   8
ENDBRANCH   1   7
TORSDOF 4
ENDMDL
MODEL 5
REMARK VINA RESULT:    -4.143      2.067      3.846
REMARK INTER + INTRA:          -5.347
REMARK INTER:                  -4.990
REMARK INTRA:                  -0.357
REMARK UNBOUND:                -0.235
REMARK SMILES C=CC[C@H](C)C(=O)CC
REMARK SMILES IDX 4 1 5 2 6 3 7 4 8 5 9 6 3 7 2 8 1 9
REMARK H PARENT
REMARK Flexibility Score: inf
ROOT
ATOM      1  C   UNL     1     -24.031  19.255 -33.407  1.00  0.00     0.057 C 
ATOM      2  C   UNL     1     -24.685  18.657 -32.152  1.00  0.00     0.016 C 
ENDROOT
BRANCH   1   3
ATOM      3  C   UNL     1     -22.887  20.172 -33.028  1.00  0.00     0.135 C 
ATOM      4  O   UNL     1     -21.965  20.329 -33.816  1.00  0.00    -0.299 OA
BRANCH   3   5
ATOM      5  C   UNL     1     -22.862  20.922 -31.719  1.00  0.00     0.072 C 
ATOM      6  C   UNL     1     -23.247  22.385 -31.922  1.00  0.00     0.012 C 
ENDBRANCH   3   5
ENDBRANCH   1   3
BRANCH   1   7
ATOM      7  C   UNL     1     -25.054  19.997 -34.294  1.00  0.00     0.038 C 
BRANCH   7   8
ATOM      8  C   UNL     1     -26.416  20.071 -33.657  1.00  0.00    -0.034 C 
ATOM      9  C   UNL     1     -27.314  20.992 -34.019  1.00  0.00     0.004 C 
ENDBRANCH   7   8
ENDBRANCH   1   7
TORSDOF 4
ENDMDL
MODEL 6
REMARK VINA RESULT:    -4.051      1.531      2.081
REMARK INTER + INTRA:          -5.233
REMARK INTER:                  -5.036
REMARK INTRA:                  -0.197
REMARK UNBOUND:                -0.235
REMARK SMILES C=CC[C@H](C)C(=O)CC
REMARK SMILES IDX 4 1 5 2 6 3 7 4 8 5 9 6 3 7 2 8 1 9
REMARK H PARENT
REMARK Flexibility Score: inf
ROOT
ATOM      1  C   UNL     1     -26.556  20.023 -33.708  1.00  0.00     0.057 C 
ATOM      2  C   UNL     1     -26.827  21.515 -33.465  1.00  0.00     0.016 C 
ENDROOT
BRANCH   1   3
ATOM      3  C   UNL     1     -27.709  19.181 -33.203  1.00  0.00     0.135 C 
ATOM      4  O   UNL     1     -27.470  18.194 -32.521  1.00  0.00    -0.299 OA
BRANCH   3   5
ATOM      5  C   UNL     1     -29.147  19.537 -33.491  1.00  0.00     0.072 C 
ATOM      6  C   UNL     1     -29.978  19.522 -32.212  1.00  0.00     0.012 C 
ENDBRANCH   3   5
ENDBRANCH   1   3
BRANCH   1   7
ATOM      7  C   UNL     1     -25.226  19.566 -33.071  1.00  0.00     0.038 C 
BRANCH   7   8
ATOM      8  C   UNL     1     -24.027  20.158 -33.762  1.00  0.00    -0.034 C 
ATOM      9  C   UNL     1     -23.043  20.753 -33.081  1.00  0.00     0.004 C 
ENDBRANCH   7   8
ENDBRANCH   1   7
TORSDOF 4
ENDMDL
MODEL 7
REMARK VINA RESULT:    -4.029     11.869     13.406
REMARK INTER + INTRA:          -5.206
REMARK INTER:                  -4.984
REMARK INTRA:                  -0.222
REMARK UNBOUND:                -0.235
REMARK SMILES C=CC[C@H](C)C(=O)CC
REMARK SMILES IDX 4 1 5 2 6 3 7 4 8 5 9 6 3 7 2 8 1 9
REMARK H PARENT
REMARK Flexibility Score: inf
ROOT
ATOM      1  C   UNL     1     -13.874  14.517 -31.694  1.00  0.00     0.057 C 
ATOM      2  C   UNL     1     -14.393  15.543 -30.676  1.00  0.00     0.016 C 
ENDROOT
BRANCH   1   3
ATOM      3  C   UNL     1     -14.976  13.558 -32.094  1.00  0.00     0.135 C 
ATOM      4  O   UNL     1     -15.406  13.591 -33.239  1.00  0.00    -0.299 OA
BRANCH   3   5
ATOM      5  C   UNL     1     -15.541  12.540 -31.134  1.00  0.00     0.072 C 
ATOM      6  C   UNL     1     -17.006  12.839 -30.824  1.00  0.00     0.012 C 
ENDBRANCH   3   5
ENDBRANCH   1   3
BRANCH   1   7
ATOM      7  C   UNL     1     -12.647  13.746 -31.162  1.00  0.00     0.038 C 
BRANCH   7   8
ATOM      8  C   UNL     1     -11.496  14.659 -30.834  1.00  0.00    -0.034 C 
ATOM      9  C   UNL     1     -10.521  14.908 -31.714  1.00  0.00     0.004 C 
ENDBRANCH   7   8
ENDBRANCH   1   7
TORSDOF 4
ENDMDL
MODEL 8
REMARK VINA RESULT:    -3.956      7.102      8.907
REMARK INTER + INTRA:          -5.115
REMARK INTER:                  -4.645
REMARK INTRA:                  -0.470
REMARK UNBOUND:                -0.235
REMARK SMILES C=CC[C@H](C)C(=O)CC
REMARK SMILES IDX 4 1 5 2 6 3 7 4 8 5 9 6 3 7 2 8 1 9
REMARK H PARENT
REMARK Flexibility Score: inf
ROOT
ATOM      1  C   UNL     1     -28.074  12.233 -31.359  1.00  0.00     0.057 C 
ATOM      2  C   UNL     1     -27.675  10.775 -31.088  1.00  0.00     0.016 C 
ENDROOT
BRANCH   1   3
ATOM      3  C   UNL     1     -26.847  13.086 -31.604  1.00  0.00     0.135 C 
ATOM      4  O   UNL     1     -26.335  13.085 -32.715  1.00  0.00    -0.299 OA
BRANCH   3   5
ATOM      5  C   UNL     1     -26.251  13.961 -30.528  1.00  0.00     0.072 C 
ATOM      6  C   UNL     1     -25.169  13.213 -29.755  1.00  0.00     0.012 C 
ENDBRANCH   3   5
ENDBRANCH   1   3
BRANCH   1   7
ATOM      7  C   UNL     1     -28.927  12.820 -30.215  1.00  0.00     0.038 C 
BRANCH   7   8
ATOM      8  C   UNL     1     -28.966  11.919 -29.009  1.00  0.00    -0.034 C 
ATOM      9  C   UNL     1     -28.345  12.239 -27.870  1.00  0.00     0.004 C 
ENDBRANCH   7   8
ENDBRANCH   1   7
TORSDOF 4
ENDMDL
MODEL 9
REMARK VINA RESULT:    -3.898     12.678     14.252
REMARK INTER + INTRA:          -5.044
REMARK INTER:                  -4.735
REMARK INTRA:                  -0.309
REMARK UNBOUND:                -0.235
REMARK SMILES C=CC[C@H](C)C(=O)CC
REMARK SMILES IDX 4 1 5 2 6 3 7 4 8 5 9 6 3 7 2 8 1 9
REMARK H PARENT
REMARK Flexibility Score: inf
ROOT
ATOM      1  C   UNL     1     -12.538  14.416 -29.880  1.00  0.00     0.057 C 
ATOM      2  C   UNL     1     -12.906  13.369 -28.818  1.00  0.00     0.016 C 
ENDROOT
BRANCH   1   3
ATOM      3  C   UNL     1     -13.774  14.880 -30.624  1.00  0.00     0.135 C 
ATOM      4  O   UNL     1     -14.427  15.809 -30.170  1.00  0.00    -0.299 OA
BRANCH   3   5
ATOM      5  C   UNL     1     -14.208  14.251 -31.925  1.00  0.00     0.072 C 
ATOM      6  C   UNL     1     -15.576  13.589 -31.780  1.00  0.00     0.012 C 
ENDBRANCH   3   5
ENDBRANCH   1   3
BRANCH   1   7
ATOM      7  C   UNL     1     -11.474  13.889 -30.866  1.00  0.00     0.038 C 
BRANCH   7   8
ATOM      8  C   UNL     1     -10.612  14.992 -31.420  1.00  0.00    -0.034 C 
ATOM      9  C   UNL     1     -10.240  15.018 -32.704  1.00  0.00     0.004 C 
ENDBRANCH   7   8
ENDBRANCH   1   7
TORSDOF 4
ENDMDL
