MODEL 1
REMARK VINA RESULT:    24.777      0.000      0.000
REMARK INTER + INTRA:          29.720
REMARK INTER:                  29.846
REMARK INTRA:                  -0.127
REMARK UNBOUND:                -0.127
REMARK SMILES Oc1cc(O)c2cc(O)c(-c3ccc(O)c(O)c3)[o+]c2c1.[Cl-]
REMARK SMILES IDX 10 1 19 2 20 3 21 4 2 5 3 6 4 7 6 8 7 9 8 10 11 11 12 12
REMARK SMILES IDX 13 13 14 14 18 15 16 16 15 17 17 19 9 21 1 23 5 25
REMARK H PARENT 15 18 17 20 9 22 1 24 5 26
REMARK Flexibility Score: inf
ROOT
ATOM      1  C   UNL     1       7.237   3.413  19.068  1.00  0.00     0.402 A 
ATOM      2  O   UNL     1       6.719   4.624  18.883  1.00  0.00    -0.202 OA
ATOM      3  C   UNL     1       7.449   5.688  18.564  1.00  0.00     0.368 A 
ATOM      4  C   UNL     1       6.814   6.920  18.386  1.00  0.00     0.162 A 
ATOM      5  C   UNL     1       7.554   8.053  18.048  1.00  0.00     0.128 A 
ATOM      6  C   UNL     1       8.940   7.956  17.886  1.00  0.00     0.093 A 
ATOM      7  C   UNL     1       9.602   6.734  18.059  1.00  0.00     0.136 A 
ATOM      8  C   UNL     1       8.852   5.580  18.405  1.00  0.00     0.125 A 
ATOM      9  C   UNL     1       9.430   4.316  18.611  1.00  0.00     0.078 A 
ATOM     10  C   UNL     1       8.627   3.225  18.954  1.00  0.00     0.223 A 
ENDROOT
BRANCH   1  11
ATOM     11  C   UNL     1       6.317   2.303  19.411  1.00  0.00     0.087 A 
ATOM     12  C   UNL     1       6.468   1.567  20.598  1.00  0.00     0.022 A 
ATOM     13  C   UNL     1       5.603   0.510  20.890  1.00  0.00     0.051 A 
ATOM     14  C   UNL     1       4.584   0.162  19.992  1.00  0.00     0.157 A 
ATOM     15  C   UNL     1       5.308   1.937  18.506  1.00  0.00     0.068 A 
ATOM     16  C   UNL     1       4.439   0.879  18.793  1.00  0.00     0.158 A 
BRANCH  14  17
ATOM     17  O   UNL     1       3.720  -0.893  20.286  1.00  0.00    -0.504 OA
ATOM     18  H   UNL     1       3.200  -1.371  19.560  1.00  0.00     0.293 HD
ENDBRANCH  14  17
BRANCH  16  19
ATOM     19  O   UNL     1       3.439   0.554  17.875  1.00  0.00    -0.504 OA
ATOM     20  H   UNL     1       3.486   0.844  16.905  1.00  0.00     0.293 HD
ENDBRANCH  16  19
ENDBRANCH   1  11
BRANCH  10  21
ATOM     21  O   UNL     1       9.207   1.982  19.208  1.00  0.00    -0.500 OA
ATOM     22  H   UNL     1       8.969   1.162  18.660  1.00  0.00     0.294 HD
ENDBRANCH  10  21
BRANCH   5  23
ATOM     23  O   UNL     1       6.903   9.272  17.876  1.00  0.00    -0.507 OA
ATOM     24  H   UNL     1       5.968   9.324  17.490  1.00  0.00     0.293 HD
ENDBRANCH   5  23
BRANCH   7  25
ATOM     25  O   UNL     1      10.988   6.719  17.876  1.00  0.00    -0.507 OA
ATOM     26  H   UNL     1      11.589   7.519  18.007  1.00  0.00     0.293 HD
ENDBRANCH   7  25
TORSDOF 6
ENDMDL
MODEL 2
REMARK VINA RESULT:    25.216      1.677      6.829
REMARK INTER + INTRA:          30.249
REMARK INTER:                  29.756
REMARK INTRA:                   0.493
REMARK UNBOUND:                -0.127
REMARK SMILES Oc1cc(O)c2cc(O)c(-c3ccc(O)c(O)c3)[o+]c2c1.[Cl-]
REMARK SMILES IDX 10 1 19 2 20 3 21 4 2 5 3 6 4 7 6 8 7 9 8 10 11 11 12 12
REMARK SMILES IDX 13 13 14 14 18 15 16 16 15 17 17 19 9 21 1 23 5 25
REMARK H PARENT 15 18 17 20 9 22 1 24 5 26
REMARK Flexibility Score: inf
ROOT
ATOM      1  C   UNL     1       7.800   4.491  17.939  1.00  0.00     0.402 A 
ATOM      2  O   UNL     1       6.673   3.784  17.920  1.00  0.00    -0.202 OA
ATOM      3  C   UNL     1       6.645   2.456  17.914  1.00  0.00     0.368 A 
ATOM      4  C   UNL     1       5.410   1.801  17.898  1.00  0.00     0.162 A 
ATOM      5  C   UNL     1       5.351   0.408  17.894  1.00  0.00     0.128 A 
ATOM      6  C   UNL     1       6.533  -0.340  17.907  1.00  0.00     0.093 A 
ATOM      7  C   UNL     1       7.783   0.290  17.924  1.00  0.00     0.136 A 
ATOM      8  C   UNL     1       7.847   1.708  17.925  1.00  0.00     0.125 A 
ATOM      9  C   UNL     1       9.055   2.427  17.928  1.00  0.00     0.078 A 
ATOM     10  C   UNL     1       9.040   3.824  17.924  1.00  0.00     0.223 A 
ENDROOT
BRANCH   1  11
ATOM     11  C   UNL     1       7.700   5.969  17.954  1.00  0.00     0.087 A 
ATOM     12  C   UNL     1       6.454   6.618  17.941  1.00  0.00     0.022 A 
ATOM     13  C   UNL     1       6.384   8.013  17.931  1.00  0.00     0.051 A 
ATOM     14  C   UNL     1       7.557   8.780  17.920  1.00  0.00     0.157 A 
ATOM     15  C   UNL     1       8.872   6.741  17.921  1.00  0.00     0.068 A 
ATOM     16  C   UNL     1       8.806   8.139  17.911  1.00  0.00     0.158 A 
BRANCH  14  17
ATOM     17  O   UNL     1       7.484  10.172  17.912  1.00  0.00    -0.504 OA
ATOM     18  H   UNL     1       7.331  10.692  17.055  1.00  0.00     0.293 HD
ENDBRANCH  14  17
BRANCH  16  19
ATOM     19  O   UNL     1       9.993   8.872  17.892  1.00  0.00    -0.504 OA
ATOM     20  H   UNL     1      10.761   8.668  18.521  1.00  0.00     0.293 HD
ENDBRANCH  16  19
ENDBRANCH   1  11
BRANCH  10  21
ATOM     21  O   UNL     1      10.237   4.537  17.876  1.00  0.00    -0.500 OA
ATOM     22  H   UNL     1      11.126   4.075  17.719  1.00  0.00     0.294 HD
ENDBRANCH  10  21
BRANCH   5  23
ATOM     23  O   UNL     1       4.110  -0.227  17.877  1.00  0.00    -0.507 OA
ATOM     24  H   UNL     1       3.588  -0.392  18.729  1.00  0.00     0.293 HD
ENDBRANCH   5  23
BRANCH   7  25
ATOM     25  O   UNL     1       8.917  -0.527  17.940  1.00  0.00    -0.507 OA
ATOM     26  H   UNL     1       9.781  -0.314  17.464  1.00  0.00     0.293 HD
ENDBRANCH   7  25
TORSDOF 6
ENDMDL
