MODEL 1
REMARK VINA RESULT:    -7.860      0.000      0.000
REMARK INTER + INTRA:         -10.038
REMARK INTER:                  -9.698
REMARK INTRA:                  -0.340
REMARK UNBOUND:                -0.340
REMARK SMILES O=c1c(O)c(-c2cc(O)c(O)c(O)c2)oc2cc(O)cc(O)c12
REMARK SMILES IDX 5 1 3 2 2 3 1 4 23 5 21 6 20 7 18 8 17 9 16 10 15 11 6 12
REMARK SMILES IDX 7 13 8 14 14 15 10 16 12 17 9 18 11 20 13 22 4 24 22 26
REMARK SMILES IDX 19 28
REMARK H PARENT 9 19 11 21 13 23 4 25 22 27 19 29
REMARK Flexibility Score: inf
ROOT
ATOM      1  C   UNL     1     -14.841   7.474  -5.860  1.00  0.00     0.180 A 
ATOM      2  C   UNL     1     -16.153   7.727  -5.418  1.00  0.00     0.208 A 
ATOM      3  C   UNL     1     -16.582   9.058  -5.293  1.00  0.00     0.238 A 
ATOM      4  O   UNL     1     -17.759   9.297  -4.908  1.00  0.00    -0.285 OA
ATOM      5  C   UNL     1     -15.690  10.109  -5.593  1.00  0.00     0.111 A 
ATOM      6  C   UNL     1     -16.042  11.476  -5.489  1.00  0.00     0.134 A 
ATOM      7  C   UNL     1     -15.093  12.464  -5.797  1.00  0.00     0.093 A 
ATOM      8  C   UNL     1     -13.804  12.111  -6.203  1.00  0.00     0.123 A 
ATOM      9  C   UNL     1     -13.451  10.762  -6.307  1.00  0.00     0.094 A 
ATOM     10  C   UNL     1     -14.382   9.763  -6.006  1.00  0.00     0.146 A 
ATOM     11  O   UNL     1     -14.023   8.490  -6.119  1.00  0.00    -0.452 OA
ENDROOT
BRANCH   1  12
ATOM     12  C   UNL     1     -14.322   6.098  -6.035  1.00  0.00     0.029 A 
ATOM     13  C   UNL     1     -14.371   5.498  -7.301  1.00  0.00     0.062 A 
ATOM     14  C   UNL     1     -13.910   4.192  -7.499  1.00  0.00     0.162 A 
ATOM     15  C   UNL     1     -13.834   5.358  -4.948  1.00  0.00     0.062 A 
ATOM     16  C   UNL     1     -13.396   3.458  -6.402  1.00  0.00     0.200 A 
ATOM     17  C   UNL     1     -13.370   4.052  -5.127  1.00  0.00     0.162 A 
BRANCH  14  18
ATOM     18  O   UNL     1     -13.981   3.667  -8.791  1.00  0.00    -0.504 OA
ATOM     19  H   UNL     1     -13.863   2.689  -9.014  1.00  0.00     0.293 HD
ENDBRANCH  14  18
BRANCH  16  20
ATOM     20  O   UNL     1     -12.914   2.152  -6.538  1.00  0.00    -0.502 OA
ATOM     21  H   UNL     1     -12.677   1.551  -5.763  1.00  0.00     0.293 HD
ENDBRANCH  16  20
BRANCH  17  22
ATOM     22  O   UNL     1     -12.887   3.355  -4.018  1.00  0.00    -0.504 OA
ATOM     23  H   UNL     1     -11.899   3.193  -3.868  1.00  0.00     0.293 HD
ENDBRANCH  17  22
ENDBRANCH   1  12
BRANCH   2  24
ATOM     24  O   UNL     1     -17.001   6.670  -5.080  1.00  0.00    -0.502 OA
ATOM     25  H   UNL     1     -17.955   6.610  -5.418  1.00  0.00     0.293 HD
ENDBRANCH   2  24
BRANCH   6  26
ATOM     26  O   UNL     1     -17.321  11.860  -5.085  1.00  0.00    -0.507 OA
ATOM     27  H   UNL     1     -17.681  11.631  -4.166  1.00  0.00     0.293 HD
ENDBRANCH   6  26
BRANCH   8  28
ATOM     28  O   UNL     1     -12.881  13.111  -6.501  1.00  0.00    -0.508 OA
ATOM     29  H   UNL     1     -12.688  13.865  -5.852  1.00  0.00     0.293 HD
ENDBRANCH   8  28
TORSDOF 7
ENDMDL
MODEL 2
REMARK VINA RESULT:    -7.739      0.749      1.909
REMARK INTER + INTRA:          -9.888
REMARK INTER:                  -9.780
REMARK INTRA:                  -0.108
REMARK UNBOUND:                -0.340
REMARK SMILES O=c1c(O)c(-c2cc(O)c(O)c(O)c2)oc2cc(O)cc(O)c12
REMARK SMILES IDX 5 1 3 2 2 3 1 4 23 5 21 6 20 7 18 8 17 9 16 10 15 11 6 12
REMARK SMILES IDX 7 13 8 14 14 15 10 16 12 17 9 18 11 20 13 22 4 24 22 26
REMARK SMILES IDX 19 28
REMARK H PARENT 9 19 11 21 13 23 4 25 22 27 19 29
REMARK Flexibility Score: inf
ROOT
ATOM      1  C   UNL     1     -14.718   7.262  -5.464  1.00  0.00     0.180 A 
ATOM      2  C   UNL     1     -15.764   7.557  -4.569  1.00  0.00     0.208 A 
ATOM      3  C   UNL     1     -16.056   8.900  -4.286  1.00  0.00     0.238 A 
ATOM      4  O   UNL     1     -16.998   9.177  -3.494  1.00  0.00    -0.285 OA
ATOM      5  C   UNL     1     -15.290   9.921  -4.884  1.00  0.00     0.111 A 
ATOM      6  C   UNL     1     -15.517  11.298  -4.648  1.00  0.00     0.134 A 
ATOM      7  C   UNL     1     -14.702  12.255  -5.275  1.00  0.00     0.093 A 
ATOM      8  C   UNL     1     -13.669  11.862  -6.128  1.00  0.00     0.123 A 
ATOM      9  C   UNL     1     -13.440  10.502  -6.365  1.00  0.00     0.094 A 
ATOM     10  C   UNL     1     -14.241   9.534  -5.751  1.00  0.00     0.146 A 
ATOM     11  O   UNL     1     -14.006   8.251  -5.997  1.00  0.00    -0.452 OA
ENDROOT
BRANCH   1  12
ATOM     12  C   UNL     1     -14.362   5.871  -5.827  1.00  0.00     0.029 A 
ATOM     13  C   UNL     1     -13.969   4.975  -4.823  1.00  0.00     0.062 A 
ATOM     14  C   UNL     1     -13.605   3.660  -5.131  1.00  0.00     0.162 A 
ATOM     15  C   UNL     1     -14.354   5.444  -7.163  1.00  0.00     0.062 A 
ATOM     16  C   UNL     1     -13.622   3.228  -6.480  1.00  0.00     0.200 A 
ATOM     17  C   UNL     1     -13.994   4.134  -7.489  1.00  0.00     0.162 A 
BRANCH  14  18
ATOM     18  O   UNL     1     -13.236   2.824  -4.075  1.00  0.00    -0.504 OA
ATOM     19  H   UNL     1     -12.323   2.407  -3.974  1.00  0.00     0.293 HD
ENDBRANCH  14  18
BRANCH  16  20
ATOM     20  O   UNL     1     -13.277   1.924  -6.849  1.00  0.00    -0.502 OA
ATOM     21  H   UNL     1     -12.815   1.683  -7.714  1.00  0.00     0.293 HD
ENDBRANCH  16  20
BRANCH  17  22
ATOM     22  O   UNL     1     -14.006   3.751  -8.831  1.00  0.00    -0.504 OA
ATOM     23  H   UNL     1     -13.893   4.416  -9.586  1.00  0.00     0.293 HD
ENDBRANCH  17  22
ENDBRANCH   1  12
BRANCH   2  24
ATOM     24  O   UNL     1     -16.477   6.526  -3.951  1.00  0.00    -0.502 OA
ATOM     25  H   UNL     1     -16.030   5.681  -3.617  1.00  0.00     0.293 HD
ENDBRANCH   2  24
BRANCH   6  26
ATOM     26  O   UNL     1     -16.540  11.724  -3.799  1.00  0.00    -0.507 OA
ATOM     27  H   UNL     1     -16.640  12.696  -3.531  1.00  0.00     0.293 HD
ENDBRANCH   6  26
BRANCH   8  28
ATOM     28  O   UNL     1     -12.875  12.831  -6.737  1.00  0.00    -0.508 OA
ATOM     29  H   UNL     1     -12.626  13.689  -6.258  1.00  0.00     0.293 HD
ENDBRANCH   8  28
TORSDOF 7
ENDMDL
MODEL 3
REMARK VINA RESULT:    -6.873      2.340      7.844
REMARK INTER + INTRA:          -8.821
REMARK INTER:                  -8.719
REMARK INTRA:                  -0.102
REMARK UNBOUND:                -0.340
REMARK SMILES O=c1c(O)c(-c2cc(O)c(O)c(O)c2)oc2cc(O)cc(O)c12
REMARK SMILES IDX 5 1 3 2 2 3 1 4 23 5 21 6 20 7 18 8 17 9 16 10 15 11 6 12
REMARK SMILES IDX 7 13 8 14 14 15 10 16 12 17 9 18 11 20 13 22 4 24 22 26
REMARK SMILES IDX 19 28
REMARK H PARENT 9 19 11 21 13 23 4 25 22 27 19 29
REMARK Flexibility Score: inf
ROOT
ATOM      1  C   UNL     1     -14.115   5.087  -5.343  1.00  0.00     0.180 A 
ATOM      2  C   UNL     1     -14.050   4.894  -6.736  1.00  0.00     0.208 A 
ATOM      3  C   UNL     1     -13.777   3.609  -7.231  1.00  0.00     0.238 A 
ATOM      4  O   UNL     1     -13.728   3.422  -8.477  1.00  0.00    -0.285 OA
ATOM      5  C   UNL     1     -13.555   2.548  -6.329  1.00  0.00     0.111 A 
ATOM      6  C   UNL     1     -13.271   1.225  -6.746  1.00  0.00     0.134 A 
ATOM      7  C   UNL     1     -13.052   0.225  -5.785  1.00  0.00     0.093 A 
ATOM      8  C   UNL     1     -13.112   0.522  -4.422  1.00  0.00     0.123 A 
ATOM      9  C   UNL     1     -13.393   1.827  -4.004  1.00  0.00     0.094 A 
ATOM     10  C   UNL     1     -13.615   2.836  -4.945  1.00  0.00     0.146 A 
ATOM     11  O   UNL     1     -13.885   4.066  -4.523  1.00  0.00    -0.452 OA
ENDROOT
BRANCH   1  12
ATOM     12  C   UNL     1     -14.417   6.408  -4.746  1.00  0.00     0.029 A 
ATOM     13  C   UNL     1     -15.536   6.549  -3.913  1.00  0.00     0.062 A 
ATOM     14  C   UNL     1     -15.864   7.787  -3.348  1.00  0.00     0.162 A 
ATOM     15  C   UNL     1     -13.640   7.538  -5.041  1.00  0.00     0.062 A 
ATOM     16  C   UNL     1     -15.061   8.919  -3.631  1.00  0.00     0.200 A 
ATOM     17  C   UNL     1     -13.953   8.782  -4.486  1.00  0.00     0.162 A 
BRANCH  14  18
ATOM     18  O   UNL     1     -16.987   7.845  -2.520  1.00  0.00    -0.504 OA
ATOM     19  H   UNL     1     -17.929   7.656  -2.827  1.00  0.00     0.293 HD
ENDBRANCH  14  18
BRANCH  16  20
ATOM     20  O   UNL     1     -15.334  10.179  -3.091  1.00  0.00    -0.502 OA
ATOM     21  H   UNL     1     -16.208  10.432  -2.652  1.00  0.00     0.293 HD
ENDBRANCH  16  20
BRANCH  17  22
ATOM     22  O   UNL     1     -13.148   9.878  -4.802  1.00  0.00    -0.504 OA
ATOM     23  H   UNL     1     -13.069  10.238  -5.745  1.00  0.00     0.293 HD
ENDBRANCH  17  22
ENDBRANCH   1  12
BRANCH   2  24
ATOM     24  O   UNL     1     -14.225   5.972  -7.608  1.00  0.00    -0.502 OA
ATOM     25  H   UNL     1     -14.265   6.931  -7.284  1.00  0.00     0.293 HD
ENDBRANCH   2  24
BRANCH   6  26
ATOM     26  O   UNL     1     -13.203   0.897  -8.101  1.00  0.00    -0.507 OA
ATOM     27  H   UNL     1     -13.765   1.377  -8.794  1.00  0.00     0.293 HD
ENDBRANCH   6  26
BRANCH   8  28
ATOM     28  O   UNL     1     -12.890  -0.489  -3.489  1.00  0.00    -0.508 OA
ATOM     29  H   UNL     1     -12.514  -0.289  -2.570  1.00  0.00     0.293 HD
ENDBRANCH   8  28
TORSDOF 7
ENDMDL
MODEL 4
REMARK VINA RESULT:    -5.986      1.451      3.333
REMARK INTER + INTRA:          -7.726
REMARK INTER:                  -7.653
REMARK INTRA:                  -0.073
REMARK UNBOUND:                -0.340
REMARK SMILES O=c1c(O)c(-c2cc(O)c(O)c(O)c2)oc2cc(O)cc(O)c12
REMARK SMILES IDX 5 1 3 2 2 3 1 4 23 5 21 6 20 7 18 8 17 9 16 10 15 11 6 12
REMARK SMILES IDX 7 13 8 14 14 15 10 16 12 17 9 18 11 20 13 22 4 24 22 26
REMARK SMILES IDX 19 28
REMARK H PARENT 9 19 11 21 13 23 4 25 22 27 19 29
REMARK Flexibility Score: inf
ROOT
ATOM      1  C   UNL     1     -14.462   8.040  -5.642  1.00  0.00     0.180 A 
ATOM      2  C   UNL     1     -13.767   9.034  -6.356  1.00  0.00     0.208 A 
ATOM      3  C   UNL     1     -14.002  10.383  -6.045  1.00  0.00     0.238 A 
ATOM      4  O   UNL     1     -13.376  11.282  -6.671  1.00  0.00    -0.285 OA
ATOM      5  C   UNL     1     -14.938  10.715  -5.045  1.00  0.00     0.111 A 
ATOM      6  C   UNL     1     -15.236  12.048  -4.675  1.00  0.00     0.134 A 
ATOM      7  C   UNL     1     -16.189  12.296  -3.675  1.00  0.00     0.093 A 
ATOM      8  C   UNL     1     -16.848  11.240  -3.041  1.00  0.00     0.123 A 
ATOM      9  C   UNL     1     -16.558   9.921  -3.402  1.00  0.00     0.094 A 
ATOM     10  C   UNL     1     -15.611   9.653  -4.395  1.00  0.00     0.146 A 
ATOM     11  O   UNL     1     -15.349   8.391  -4.715  1.00  0.00    -0.452 OA
ENDROOT
BRANCH   1  12
ATOM     12  C   UNL     1     -14.254   6.597  -5.898  1.00  0.00     0.029 A 
ATOM     13  C   UNL     1     -13.854   5.760  -4.847  1.00  0.00     0.062 A 
ATOM     14  C   UNL     1     -13.627   4.395  -5.057  1.00  0.00     0.162 A 
ATOM     15  C   UNL     1     -14.393   6.056  -7.185  1.00  0.00     0.062 A 
ATOM     16  C   UNL     1     -13.792   3.851  -6.354  1.00  0.00     0.200 A 
ATOM     17  C   UNL     1     -14.170   4.695  -7.413  1.00  0.00     0.162 A 
BRANCH  14  18
ATOM     18  O   UNL     1     -13.242   3.625  -3.958  1.00  0.00    -0.504 OA
ATOM     19  H   UNL     1     -12.653   3.959  -3.209  1.00  0.00     0.293 HD
ENDBRANCH  14  18
BRANCH  16  20
ATOM     20  O   UNL     1     -13.587   2.494  -6.624  1.00  0.00    -0.502 OA
ATOM     21  H   UNL     1     -13.719   2.070  -7.531  1.00  0.00     0.293 HD
ENDBRANCH  16  20
BRANCH  17  22
ATOM     22  O   UNL     1     -14.326   4.199  -8.708  1.00  0.00    -0.504 OA
ATOM     23  H   UNL     1     -15.191   3.780  -9.028  1.00  0.00     0.293 HD
ENDBRANCH  17  22
ENDBRANCH   1  12
BRANCH   2  24
ATOM     24  O   UNL     1     -12.880   8.681  -7.376  1.00  0.00    -0.502 OA
ATOM     25  H   UNL     1     -13.015   7.860  -7.953  1.00  0.00     0.293 HD
ENDBRANCH   2  24
BRANCH   6  26
ATOM     26  O   UNL     1     -14.596  13.125  -5.291  1.00  0.00    -0.507 OA
ATOM     27  H   UNL     1     -14.883  13.465  -6.201  1.00  0.00     0.293 HD
ENDBRANCH   6  26
BRANCH   8  28
ATOM     28  O   UNL     1     -17.791  11.514  -2.053  1.00  0.00    -0.508 OA
ATOM     29  H   UNL     1     -18.706  11.080  -2.058  1.00  0.00     0.293 HD
ENDBRANCH   8  28
TORSDOF 7
ENDMDL
MODEL 5
REMARK VINA RESULT:    -5.798      2.367      4.071
REMARK INTER + INTRA:          -7.493
REMARK INTER:                  -7.699
REMARK INTRA:                   0.206
REMARK UNBOUND:                -0.340
REMARK SMILES O=c1c(O)c(-c2cc(O)c(O)c(O)c2)oc2cc(O)cc(O)c12
REMARK SMILES IDX 5 1 3 2 2 3 1 4 23 5 21 6 20 7 18 8 17 9 16 10 15 11 6 12
REMARK SMILES IDX 7 13 8 14 14 15 10 16 12 17 9 18 11 20 13 22 4 24 22 26
REMARK SMILES IDX 19 28
REMARK H PARENT 9 19 11 21 13 23 4 25 22 27 19 29
REMARK Flexibility Score: inf
ROOT
ATOM      1  C   UNL     1     -14.307   4.529  -5.347  1.00  0.00     0.180 A 
ATOM      2  C   UNL     1     -13.936   5.297  -6.467  1.00  0.00     0.208 A 
ATOM      3  C   UNL     1     -14.325   6.645  -6.525  1.00  0.00     0.238 A 
ATOM      4  O   UNL     1     -13.990   7.345  -7.519  1.00  0.00    -0.285 OA
ATOM      5  C   UNL     1     -15.091   7.194  -5.476  1.00  0.00     0.111 A 
ATOM      6  C   UNL     1     -15.527   8.541  -5.460  1.00  0.00     0.134 A 
ATOM      7  C   UNL     1     -16.295   9.011  -4.383  1.00  0.00     0.093 A 
ATOM      8  C   UNL     1     -16.636   8.162  -3.327  1.00  0.00     0.123 A 
ATOM      9  C   UNL     1     -16.208   6.830  -3.338  1.00  0.00     0.094 A 
ATOM     10  C   UNL     1     -15.441   6.344  -4.401  1.00  0.00     0.146 A 
ATOM     11  O   UNL     1     -15.043   5.077  -4.384  1.00  0.00    -0.452 OA
ENDROOT
BRANCH   1  12
ATOM     12  C   UNL     1     -13.918   3.108  -5.204  1.00  0.00     0.029 A 
ATOM     13  C   UNL     1     -13.895   2.282  -6.337  1.00  0.00     0.062 A 
ATOM     14  C   UNL     1     -13.554   0.929  -6.237  1.00  0.00     0.162 A 
ATOM     15  C   UNL     1     -13.627   2.552  -3.950  1.00  0.00     0.062 A 
ATOM     16  C   UNL     1     -13.237   0.379  -4.971  1.00  0.00     0.200 A 
ATOM     17  C   UNL     1     -13.283   1.202  -3.831  1.00  0.00     0.162 A 
BRANCH  14  18
ATOM     18  O   UNL     1     -13.543   0.174  -7.412  1.00  0.00    -0.504 OA
ATOM     19  H   UNL     1     -13.302   0.541  -8.321  1.00  0.00     0.293 HD
ENDBRANCH  14  18
BRANCH  16  20
ATOM     20  O   UNL     1     -12.882  -0.963  -4.809  1.00  0.00    -0.502 OA
ATOM     21  H   UNL     1     -12.821  -1.430  -3.916  1.00  0.00     0.293 HD
ENDBRANCH  16  20
BRANCH  17  22
ATOM     22  O   UNL     1     -12.995   0.693  -2.564  1.00  0.00    -0.504 OA
ATOM     23  H   UNL     1     -12.143   0.183  -2.366  1.00  0.00     0.293 HD
ENDBRANCH  17  22
ENDBRANCH   1  12
BRANCH   2  24
ATOM     24  O   UNL     1     -13.219   4.716  -7.516  1.00  0.00    -0.502 OA
ATOM     25  H   UNL     1     -13.671   4.217  -8.273  1.00  0.00     0.293 HD
ENDBRANCH   2  24
BRANCH   6  26
ATOM     26  O   UNL     1     -15.205   9.414  -6.501  1.00  0.00    -0.507 OA
ATOM     27  H   UNL     1     -15.694   9.388  -7.388  1.00  0.00     0.293 HD
ENDBRANCH   6  26
BRANCH   8  28
ATOM     28  O   UNL     1     -17.400   8.653  -2.271  1.00  0.00    -0.508 OA
ATOM     29  H   UNL     1     -18.318   9.055  -2.423  1.00  0.00     0.293 HD
ENDBRANCH   8  28
TORSDOF 7
ENDMDL
MODEL 6
REMARK VINA RESULT:    -5.728      2.830      8.747
REMARK INTER + INTRA:          -7.407
REMARK INTER:                  -7.174
REMARK INTRA:                  -0.233
REMARK UNBOUND:                -0.340
REMARK SMILES O=c1c(O)c(-c2cc(O)c(O)c(O)c2)oc2cc(O)cc(O)c12
REMARK SMILES IDX 5 1 3 2 2 3 1 4 23 5 21 6 20 7 18 8 17 9 16 10 15 11 6 12
REMARK SMILES IDX 7 13 8 14 14 15 10 16 12 17 9 18 11 20 13 22 4 24 22 26
REMARK SMILES IDX 19 28
REMARK H PARENT 9 19 11 21 13 23 4 25 22 27 19 29
REMARK Flexibility Score: inf
ROOT
ATOM      1  C   UNL     1     -13.933   3.237  -6.201  1.00  0.00     0.180 A 
ATOM      2  C   UNL     1     -13.482   2.622  -7.385  1.00  0.00     0.208 A 
ATOM      3  C   UNL     1     -13.270   1.234  -7.390  1.00  0.00     0.238 A 
ATOM      4  O   UNL     1     -12.877   0.671  -8.447  1.00  0.00    -0.285 OA
ATOM      5  C   UNL     1     -13.491   0.491  -6.212  1.00  0.00     0.111 A 
ATOM      6  C   UNL     1     -13.297  -0.909  -6.132  1.00  0.00     0.134 A 
ATOM      7  C   UNL     1     -13.530  -1.575  -4.919  1.00  0.00     0.093 A 
ATOM      8  C   UNL     1     -13.952  -0.871  -3.789  1.00  0.00     0.123 A 
ATOM      9  C   UNL     1     -14.145   0.512  -3.862  1.00  0.00     0.094 A 
ATOM     10  C   UNL     1     -13.920   1.194  -5.061  1.00  0.00     0.146 A 
ATOM     11  O   UNL     1     -14.117   2.507  -5.105  1.00  0.00    -0.452 OA
ENDROOT
BRANCH   1  12
ATOM     12  C   UNL     1     -14.198   4.692  -6.123  1.00  0.00     0.029 A 
ATOM     13  C   UNL     1     -13.442   5.485  -5.249  1.00  0.00     0.062 A 
ATOM     14  C   UNL     1     -13.679   6.859  -5.132  1.00  0.00     0.162 A 
ATOM     15  C   UNL     1     -15.230   5.287  -6.864  1.00  0.00     0.062 A 
ATOM     16  C   UNL     1     -14.707   7.458  -5.901  1.00  0.00     0.200 A 
ATOM     17  C   UNL     1     -15.481   6.658  -6.760  1.00  0.00     0.162 A 
BRANCH  14  18
ATOM     18  O   UNL     1     -12.877   7.583  -4.248  1.00  0.00    -0.504 OA
ATOM     19  H   UNL     1     -13.019   7.616  -3.249  1.00  0.00     0.293 HD
ENDBRANCH  14  18
BRANCH  16  20
ATOM     20  O   UNL     1     -14.986   8.827  -5.834  1.00  0.00    -0.502 OA
ATOM     21  H   UNL     1     -15.823   9.215  -5.425  1.00  0.00     0.293 HD
ENDBRANCH  16  20
BRANCH  17  22
ATOM     22  O   UNL     1     -16.513   7.209  -7.521  1.00  0.00    -0.504 OA
ATOM     23  H   UNL     1     -16.736   6.880  -8.452  1.00  0.00     0.293 HD
ENDBRANCH  17  22
ENDBRANCH   1  12
BRANCH   2  24
ATOM     24  O   UNL     1     -13.223   3.387  -8.525  1.00  0.00    -0.502 OA
ATOM     25  H   UNL     1     -13.638   4.300  -8.672  1.00  0.00     0.293 HD
ENDBRANCH   2  24
BRANCH   6  26
ATOM     26  O   UNL     1     -12.875  -1.641  -7.243  1.00  0.00    -0.507 OA
ATOM     27  H   UNL     1     -12.182  -1.279  -7.888  1.00  0.00     0.293 HD
ENDBRANCH   6  26
BRANCH   8  28
ATOM     28  O   UNL     1     -14.175  -1.556  -2.597  1.00  0.00    -0.508 OA
ATOM     29  H   UNL     1     -13.434  -1.700  -1.921  1.00  0.00     0.293 HD
ENDBRANCH   8  28
TORSDOF 7
ENDMDL
MODEL 7
REMARK VINA RESULT:    -5.348      3.026      8.865
REMARK INTER + INTRA:          -6.938
REMARK INTER:                  -7.120
REMARK INTRA:                   0.182
REMARK UNBOUND:                -0.340
REMARK SMILES O=c1c(O)c(-c2cc(O)c(O)c(O)c2)oc2cc(O)cc(O)c12
REMARK SMILES IDX 5 1 3 2 2 3 1 4 23 5 21 6 20 7 18 8 17 9 16 10 15 11 6 12
REMARK SMILES IDX 7 13 8 14 14 15 10 16 12 17 9 18 11 20 13 22 4 24 22 26
REMARK SMILES IDX 19 28
REMARK H PARENT 9 19 11 21 13 23 4 25 22 27 19 29
REMARK Flexibility Score: inf
ROOT
ATOM      1  C   UNL     1     -13.697   2.779  -5.842  1.00  0.00     0.180 A 
ATOM      2  C   UNL     1     -13.622   2.062  -4.633  1.00  0.00     0.208 A 
ATOM      3  C   UNL     1     -13.380   0.680  -4.677  1.00  0.00     0.238 A 
ATOM      4  O   UNL     1     -13.299   0.030  -3.599  1.00  0.00    -0.285 OA
ATOM      5  C   UNL     1     -13.239   0.037  -5.924  1.00  0.00     0.111 A 
ATOM      6  C   UNL     1     -12.998  -1.352  -6.056  1.00  0.00     0.134 A 
ATOM      7  C   UNL     1     -12.879  -1.919  -7.334  1.00  0.00     0.093 A 
ATOM      8  C   UNL     1     -12.996  -1.126  -8.479  1.00  0.00     0.123 A 
ATOM      9  C   UNL     1     -13.234   0.246  -8.355  1.00  0.00     0.094 A 
ATOM     10  C   UNL     1     -13.355   0.830  -7.090  1.00  0.00     0.146 A 
ATOM     11  O   UNL     1     -13.574   2.137  -7.000  1.00  0.00    -0.452 OA
ENDROOT
BRANCH   1  12
ATOM     12  C   UNL     1     -13.930   4.241  -5.876  1.00  0.00     0.029 A 
ATOM     13  C   UNL     1     -13.361   5.054  -4.886  1.00  0.00     0.062 A 
ATOM     14  C   UNL     1     -13.577   6.436  -4.874  1.00  0.00     0.162 A 
ATOM     15  C   UNL     1     -14.757   4.827  -6.846  1.00  0.00     0.062 A 
ATOM     16  C   UNL     1     -14.393   7.025  -5.870  1.00  0.00     0.200 A 
ATOM     17  C   UNL     1     -14.984   6.206  -6.850  1.00  0.00     0.162 A 
BRANCH  14  18
ATOM     18  O   UNL     1     -12.966   7.180  -3.862  1.00  0.00    -0.504 OA
ATOM     19  H   UNL     1     -11.967   7.276  -3.752  1.00  0.00     0.293 HD
ENDBRANCH  14  18
BRANCH  16  20
ATOM     20  O   UNL     1     -14.639   8.400  -5.915  1.00  0.00    -0.502 OA
ATOM     21  H   UNL     1     -14.380   8.998  -6.686  1.00  0.00     0.293 HD
ENDBRANCH  16  20
BRANCH  17  22
ATOM     22  O   UNL     1     -15.808   6.746  -7.837  1.00  0.00    -0.504 OA
ATOM     23  H   UNL     1     -15.599   6.660  -8.825  1.00  0.00     0.293 HD
ENDBRANCH  17  22
ENDBRANCH   1  12
BRANCH   2  24
ATOM     24  O   UNL     1     -13.814   2.714  -3.412  1.00  0.00    -0.502 OA
ATOM     25  H   UNL     1     -13.052   3.138  -2.897  1.00  0.00     0.293 HD
ENDBRANCH   2  24
BRANCH   6  26
ATOM     26  O   UNL     1     -12.878  -2.170  -4.932  1.00  0.00    -0.507 OA
ATOM     27  H   UNL     1     -13.431  -3.012  -4.824  1.00  0.00     0.293 HD
ENDBRANCH   6  26
BRANCH   8  28
ATOM     28  O   UNL     1     -12.875  -1.714  -9.736  1.00  0.00    -0.508 OA
ATOM     29  H   UNL     1     -12.517  -2.656  -9.848  1.00  0.00     0.293 HD
ENDBRANCH   8  28
TORSDOF 7
ENDMDL
