MODEL 1
REMARK VINA RESULT:    -5.360      0.000      0.000
REMARK INTER + INTRA:          -6.954
REMARK INTER:                  -6.457
REMARK INTRA:                  -0.497
REMARK UNBOUND:                -0.497
REMARK SMILES CCCCc1oc(O)c2ccccc12
REMARK SMILES IDX 4 1 5 2 7 3 6 4 9 5 14 6 10 7 13 8 11 9 12 10 8 11 3 13 2 14
REMARK SMILES IDX 1 15
REMARK H PARENT 8 12
REMARK Flexibility Score: inf
ROOT
ATOM      1  C   UNL     1       9.283 -13.544  -5.195  1.00  0.00     0.076 C 
ENDROOT
BRANCH   1   2
ATOM      2  C   UNL     1       7.995 -14.296  -5.327  1.00  0.00     0.116 A 
ATOM      3  C   UNL     1       6.558 -15.712  -6.056  1.00  0.00     0.290 A 
ATOM      4  O   UNL     1       7.801 -15.289  -6.177  1.00  0.00    -0.430 OA
ATOM      5  C   UNL     1       5.905 -14.968  -5.095  1.00  0.00     0.066 A 
ATOM      6  C   UNL     1       6.822 -14.062  -4.631  1.00  0.00     0.027 A 
ATOM      7  C   UNL     1       4.599 -15.011  -4.608  1.00  0.00     0.016 A 
ATOM      8  C   UNL     1       6.497 -13.129  -3.646  1.00  0.00     0.012 A 
ATOM      9  C   UNL     1       4.243 -14.084  -3.611  1.00  0.00     0.001 A 
ATOM     10  C   UNL     1       5.187 -13.147  -3.132  1.00  0.00     0.001 A 
BRANCH   3  11
ATOM     11  O   UNL     1       6.016 -16.752  -6.805  1.00  0.00    -0.480 OA
ATOM     12  H   UNL     1       6.216 -17.719  -6.582  1.00  0.00     0.297 HD
ENDBRANCH   3  11
ENDBRANCH   1   2
BRANCH   1  13
ATOM     13  C   UNL     1      10.414 -14.490  -4.771  1.00  0.00     0.008 C 
BRANCH  13  14
ATOM     14  C   UNL     1      10.186 -15.090  -3.375  1.00  0.00    -0.003 C 
ATOM     15  C   UNL     1       9.893 -14.029  -2.315  1.00  0.00     0.004 C 
ENDBRANCH  13  14
ENDBRANCH   1  13
TORSDOF 4
ENDMDL
MODEL 2
REMARK VINA RESULT:    -5.312      1.377      4.348
REMARK INTER + INTRA:          -6.896
REMARK INTER:                  -6.625
REMARK INTRA:                  -0.271
REMARK UNBOUND:                -0.497
REMARK SMILES CCCCc1oc(O)c2ccccc12
REMARK SMILES IDX 4 1 5 2 7 3 6 4 9 5 14 6 10 7 13 8 11 9 12 10 8 11 3 13 2 14
REMARK SMILES IDX 1 15
REMARK H PARENT 8 12
REMARK Flexibility Score: inf
ROOT
ATOM      1  C   UNL     1       5.408 -13.180  -4.411  1.00  0.00     0.076 C 
ENDROOT
BRANCH   1   2
ATOM      2  C   UNL     1       6.461 -14.212  -4.677  1.00  0.00     0.116 A 
ATOM      3  C   UNL     1       7.410 -15.953  -5.496  1.00  0.00     0.290 A 
ATOM      4  O   UNL     1       6.312 -15.222  -5.516  1.00  0.00    -0.430 OA
ATOM      5  C   UNL     1       8.315 -15.408  -4.610  1.00  0.00     0.066 A 
ATOM      6  C   UNL     1       7.709 -14.297  -4.085  1.00  0.00     0.027 A 
ATOM      7  C   UNL     1       9.597 -15.799  -4.226  1.00  0.00     0.016 A 
ATOM      8  C   UNL     1       8.340 -13.497  -3.132  1.00  0.00     0.012 A 
ATOM      9  C   UNL     1      10.261 -15.009  -3.268  1.00  0.00     0.001 A 
ATOM     10  C   UNL     1       9.636 -13.864  -2.724  1.00  0.00     0.001 A 
BRANCH   3  11
ATOM     11  O   UNL     1       7.593 -17.098  -6.265  1.00  0.00    -0.480 OA
ATOM     12  H   UNL     1       6.860 -17.448  -6.870  1.00  0.00     0.297 HD
ENDBRANCH   3  11
ENDBRANCH   1   2
BRANCH   1  13
ATOM     13  C   UNL     1       4.368 -13.175  -5.538  1.00  0.00     0.008 C 
BRANCH  13  14
ATOM     14  C   UNL     1       3.035 -13.811  -5.112  1.00  0.00    -0.003 C 
ATOM     15  C   UNL     1       2.922 -13.990  -3.599  1.00  0.00     0.004 C 
ENDBRANCH  13  14
ENDBRANCH   1  13
TORSDOF 4
ENDMDL
MODEL 3
REMARK VINA RESULT:    -5.235      1.973      4.773
REMARK INTER + INTRA:          -6.803
REMARK INTER:                  -6.289
REMARK INTRA:                  -0.514
REMARK UNBOUND:                -0.497
REMARK SMILES CCCCc1oc(O)c2ccccc12
REMARK SMILES IDX 4 1 5 2 7 3 6 4 9 5 14 6 10 7 13 8 11 9 12 10 8 11 3 13 2 14
REMARK SMILES IDX 1 15
REMARK H PARENT 8 12
REMARK Flexibility Score: inf
ROOT
ATOM      1  C   UNL     1       6.373 -14.091  -3.718  1.00  0.00     0.076 C 
ENDROOT
BRANCH   1   2
ATOM      2  C   UNL     1       7.708 -14.572  -4.197  1.00  0.00     0.116 A 
ATOM      3  C   UNL     1       9.699 -15.368  -4.136  1.00  0.00     0.290 A 
ATOM      4  O   UNL     1       8.644 -15.068  -3.406  1.00  0.00    -0.430 OA
ATOM      5  C   UNL     1       9.454 -15.056  -5.457  1.00  0.00     0.066 A 
ATOM      6  C   UNL     1       8.184 -14.546  -5.496  1.00  0.00     0.027 A 
ATOM      7  C   UNL     1      10.237 -15.173  -6.605  1.00  0.00     0.016 A 
ATOM      8  C   UNL     1       7.604 -14.109  -6.687  1.00  0.00     0.012 A 
ATOM      9  C   UNL     1       9.678 -14.744  -7.823  1.00  0.00     0.001 A 
ATOM     10  C   UNL     1       8.368 -14.214  -7.865  1.00  0.00     0.001 A 
BRANCH   3  11
ATOM     11  O   UNL     1      10.870 -15.914  -3.620  1.00  0.00    -0.480 OA
ATOM     12  H   UNL     1      11.341 -16.681  -4.083  1.00  0.00     0.297 HD
ENDBRANCH   3  11
ENDBRANCH   1   2
BRANCH   1  13
ATOM     13  C   UNL     1       5.376 -15.256  -3.656  1.00  0.00     0.008 C 
BRANCH  13  14
ATOM     14  C   UNL     1       4.600 -15.437  -4.970  1.00  0.00    -0.003 C 
ATOM     15  C   UNL     1       4.001 -14.130  -5.488  1.00  0.00     0.004 C 
ENDBRANCH  13  14
ENDBRANCH   1  13
TORSDOF 4
ENDMDL
MODEL 4
REMARK VINA RESULT:    -5.083      1.296      2.037
REMARK INTER + INTRA:          -6.620
REMARK INTER:                  -6.311
REMARK INTRA:                  -0.309
REMARK UNBOUND:                -0.497
REMARK SMILES CCCCc1oc(O)c2ccccc12
REMARK SMILES IDX 4 1 5 2 7 3 6 4 9 5 14 6 10 7 13 8 11 9 12 10 8 11 3 13 2 14
REMARK SMILES IDX 1 15
REMARK H PARENT 8 12
REMARK Flexibility Score: inf
ROOT
ATOM      1  C   UNL     1       9.958 -15.501  -4.556  1.00  0.00     0.076 C 
ENDROOT
BRANCH   1   2
ATOM      2  C   UNL     1       8.502 -15.490  -4.909  1.00  0.00     0.116 A 
ATOM      3  C   UNL     1       6.671 -15.992  -5.905  1.00  0.00     0.290 A 
ATOM      4  O   UNL     1       7.957 -16.271  -5.824  1.00  0.00    -0.430 OA
ATOM      5  C   UNL     1       6.356 -14.987  -5.015  1.00  0.00     0.066 A 
ATOM      6  C   UNL     1       7.526 -14.665  -4.380  1.00  0.00     0.027 A 
ATOM      7  C   UNL     1       5.156 -14.339  -4.725  1.00  0.00     0.016 A 
ATOM      8  C   UNL     1       7.582 -13.664  -3.409  1.00  0.00     0.012 A 
ATOM      9  C   UNL     1       5.181 -13.327  -3.747  1.00  0.00     0.001 A 
ATOM     10  C   UNL     1       6.388 -12.991  -3.092  1.00  0.00     0.001 A 
BRANCH   3  11
ATOM     11  O   UNL     1       5.791 -16.632  -6.774  1.00  0.00    -0.480 OA
ATOM     12  H   UNL     1       6.098 -17.397  -7.363  1.00  0.00     0.297 HD
ENDBRANCH   3  11
ENDBRANCH   1   2
BRANCH   1  13
ATOM     13  C   UNL     1      10.702 -14.400  -5.322  1.00  0.00     0.008 C 
BRANCH  13  14
ATOM     14  C   UNL     1      10.769 -14.676  -6.832  1.00  0.00    -0.003 C 
ATOM     15  C   UNL     1      11.726 -13.735  -7.564  1.00  0.00     0.004 C 
ENDBRANCH  13  14
ENDBRANCH   1  13
TORSDOF 4
ENDMDL
MODEL 5
REMARK VINA RESULT:    -4.991      2.506      4.020
REMARK INTER + INTRA:          -6.509
REMARK INTER:                  -6.002
REMARK INTRA:                  -0.507
REMARK UNBOUND:                -0.497
REMARK SMILES CCCCc1oc(O)c2ccccc12
REMARK SMILES IDX 4 1 5 2 7 3 6 4 9 5 14 6 10 7 13 8 11 9 12 10 8 11 3 13 2 14
REMARK SMILES IDX 1 15
REMARK H PARENT 8 12
REMARK Flexibility Score: inf
ROOT
ATOM      1  C   UNL     1      10.892 -14.746  -6.633  1.00  0.00     0.076 C 
ENDROOT
BRANCH   1   2
ATOM      2  C   UNL     1      10.096 -14.613  -5.371  1.00  0.00     0.116 A 
ATOM      3  C   UNL     1       9.654 -14.290  -3.297  1.00  0.00     0.290 A 
ATOM      4  O   UNL     1      10.617 -14.297  -4.198  1.00  0.00    -0.430 OA
ATOM      5  C   UNL     1       8.456 -14.617  -3.895  1.00  0.00     0.066 A 
ATOM      6  C   UNL     1       8.738 -14.826  -5.219  1.00  0.00     0.027 A 
ATOM      7  C   UNL     1       7.164 -14.753  -3.386  1.00  0.00     0.016 A 
ATOM      8  C   UNL     1       7.748 -15.190  -6.132  1.00  0.00     0.012 A 
ATOM      9  C   UNL     1       6.143 -15.116  -4.284  1.00  0.00     0.001 A 
ATOM     10  C   UNL     1       6.433 -15.334  -5.651  1.00  0.00     0.001 A 
BRANCH   3  11
ATOM     11  O   UNL     1       9.853 -13.996  -1.951  1.00  0.00    -0.480 OA
ATOM     12  H   UNL     1       9.285 -13.307  -1.474  1.00  0.00     0.297 HD
ENDBRANCH   3  11
ENDBRANCH   1   2
BRANCH   1  13
ATOM     13  C   UNL     1      10.975 -13.396  -7.358  1.00  0.00     0.008 C 
BRANCH  13  14
ATOM     14  C   UNL     1      10.151 -13.373  -8.655  1.00  0.00    -0.003 C 
ATOM     15  C   UNL     1       9.877 -14.772  -9.206  1.00  0.00     0.004 C 
ENDBRANCH  13  14
ENDBRANCH   1  13
TORSDOF 4
ENDMDL
MODEL 6
REMARK VINA RESULT:    -4.918     10.423     12.001
REMARK INTER + INTRA:          -6.422
REMARK INTER:                  -6.187
REMARK INTRA:                  -0.235
REMARK UNBOUND:                -0.497
REMARK SMILES CCCCc1oc(O)c2ccccc12
REMARK SMILES IDX 4 1 5 2 7 3 6 4 9 5 14 6 10 7 13 8 11 9 12 10 8 11 3 13 2 14
REMARK SMILES IDX 1 15
REMARK H PARENT 8 12
REMARK Flexibility Score: inf
ROOT
ATOM      1  C   UNL     1       2.284 -22.633   2.235  1.00  0.00     0.076 C 
ENDROOT
BRANCH   1   2
ATOM      2  C   UNL     1       2.045 -23.592   1.109  1.00  0.00     0.116 A 
ATOM      3  C   UNL     1       1.586 -25.423   0.089  1.00  0.00     0.290 A 
ATOM      4  O   UNL     1       1.687 -24.853   1.274  1.00  0.00    -0.430 OA
ATOM      5  C   UNL     1       1.893 -24.506  -0.894  1.00  0.00     0.066 A 
ATOM      6  C   UNL     1       2.188 -23.337  -0.243  1.00  0.00     0.027 A 
ATOM      7  C   UNL     1       1.943 -24.608  -2.284  1.00  0.00     0.016 A 
ATOM      8  C   UNL     1       2.559 -22.185  -0.936  1.00  0.00     0.012 A 
ATOM      9  C   UNL     1       2.310 -23.461  -3.011  1.00  0.00     0.001 A 
ATOM     10  C   UNL     1       2.618 -22.254  -2.340  1.00  0.00     0.001 A 
BRANCH   3  11
ATOM     11  O   UNL     1       1.226 -26.753  -0.104  1.00  0.00    -0.480 OA
ATOM     12  H   UNL     1       1.718 -27.504   0.363  1.00  0.00     0.297 HD
ENDBRANCH   3  11
ENDBRANCH   1   2
BRANCH   1  13
ATOM     13  C   UNL     1       1.028 -21.791   2.496  1.00  0.00     0.008 C 
BRANCH  13  14
ATOM     14  C   UNL     1       1.013 -21.177   3.904  1.00  0.00    -0.003 C 
ATOM     15  C   UNL     1       1.194 -19.660   3.890  1.00  0.00     0.004 C 
ENDBRANCH  13  14
ENDBRANCH   1  13
TORSDOF 4
ENDMDL
MODEL 7
REMARK VINA RESULT:    -4.819      2.443      4.465
REMARK INTER + INTRA:          -6.302
REMARK INTER:                  -5.797
REMARK INTRA:                  -0.505
REMARK UNBOUND:                -0.497
REMARK SMILES CCCCc1oc(O)c2ccccc12
REMARK SMILES IDX 4 1 5 2 7 3 6 4 9 5 14 6 10 7 13 8 11 9 12 10 8 11 3 13 2 14
REMARK SMILES IDX 1 15
REMARK H PARENT 8 12
REMARK Flexibility Score: inf
ROOT
ATOM      1  C   UNL     1       8.292 -15.488  -4.685  1.00  0.00     0.076 C 
ENDROOT
BRANCH   1   2
ATOM      2  C   UNL     1       8.282 -15.046  -6.116  1.00  0.00     0.116 A 
ATOM      3  C   UNL     1       7.537 -14.590  -8.075  1.00  0.00     0.290 A 
ATOM      4  O   UNL     1       7.195 -14.991  -6.866  1.00  0.00    -0.430 OA
ATOM      5  C   UNL     1       8.898 -14.376  -8.126  1.00  0.00     0.066 A 
ATOM      6  C   UNL     1       9.375 -14.670  -6.877  1.00  0.00     0.027 A 
ATOM      7  C   UNL     1       9.740 -13.961  -9.158  1.00  0.00     0.016 A 
ATOM      8  C   UNL     1      10.732 -14.574  -6.567  1.00  0.00     0.012 A 
ATOM      9  C   UNL     1      11.114 -13.851  -8.875  1.00  0.00     0.001 A 
ATOM     10  C   UNL     1      11.608 -14.157  -7.586  1.00  0.00     0.001 A 
BRANCH   3  11
ATOM     11  O   UNL     1       6.633 -14.421  -9.120  1.00  0.00    -0.480 OA
ATOM     12  H   UNL     1       6.931 -14.061 -10.019  1.00  0.00     0.297 HD
ENDBRANCH   3  11
ENDBRANCH   1   2
BRANCH   1  13
ATOM     13  C   UNL     1       8.076 -14.289  -3.753  1.00  0.00     0.008 C 
BRANCH  13  14
ATOM     14  C   UNL     1       9.370 -13.850  -3.049  1.00  0.00    -0.003 C 
ATOM     15  C   UNL     1      10.289 -15.024  -2.716  1.00  0.00     0.004 C 
ENDBRANCH  13  14
ENDBRANCH   1  13
TORSDOF 4
ENDMDL
MODEL 8
REMARK VINA RESULT:    -4.691      2.760      4.550
REMARK INTER + INTRA:          -6.148
REMARK INTER:                  -5.803
REMARK INTRA:                  -0.345
REMARK UNBOUND:                -0.497
REMARK SMILES CCCCc1oc(O)c2ccccc12
REMARK SMILES IDX 4 1 5 2 7 3 6 4 9 5 14 6 10 7 13 8 11 9 12 10 8 11 3 13 2 14
REMARK SMILES IDX 1 15
REMARK H PARENT 8 12
REMARK Flexibility Score: inf
ROOT
ATOM      1  C   UNL     1       8.770 -15.767  -4.715  1.00  0.00     0.076 C 
ENDROOT
BRANCH   1   2
ATOM      2  C   UNL     1       9.472 -15.060  -5.835  1.00  0.00     0.116 A 
ATOM      3  C   UNL     1      11.047 -14.112  -6.940  1.00  0.00     0.290 A 
ATOM      4  O   UNL     1      10.756 -14.746  -5.821  1.00  0.00    -0.430 OA
ATOM      5  C   UNL     1       9.914 -14.000  -7.719  1.00  0.00     0.066 A 
ATOM      6  C   UNL     1       8.908 -14.604  -7.012  1.00  0.00     0.027 A 
ATOM      7  C   UNL     1       9.693 -13.419  -8.967  1.00  0.00     0.016 A 
ATOM      8  C   UNL     1       7.603 -14.666  -7.501  1.00  0.00     0.012 A 
ATOM      9  C   UNL     1       8.386 -13.470  -9.488  1.00  0.00     0.001 A 
ATOM     10  C   UNL     1       7.346 -14.090  -8.759  1.00  0.00     0.001 A 
BRANCH   3  11
ATOM     11  O   UNL     1      12.317 -13.637  -7.255  1.00  0.00    -0.480 OA
ATOM     12  H   UNL     1      12.635 -13.585  -8.215  1.00  0.00     0.297 HD
ENDBRANCH   3  11
ENDBRANCH   1   2
BRANCH   1  13
ATOM     13  C   UNL     1       8.097 -14.752  -3.782  1.00  0.00     0.008 C 
BRANCH  13  14
ATOM     14  C   UNL     1       9.114 -13.907  -3.000  1.00  0.00    -0.003 C 
ATOM     15  C   UNL     1      10.168 -14.756  -2.292  1.00  0.00     0.004 C 
ENDBRANCH  13  14
ENDBRANCH   1  13
TORSDOF 4
ENDMDL
MODEL 9
REMARK VINA RESULT:    -4.656      1.387      4.501
REMARK INTER + INTRA:          -6.106
REMARK INTER:                  -5.801
REMARK INTRA:                  -0.305
REMARK UNBOUND:                -0.497
REMARK SMILES CCCCc1oc(O)c2ccccc12
REMARK SMILES IDX 4 1 5 2 7 3 6 4 9 5 14 6 10 7 13 8 11 9 12 10 8 11 3 13 2 14
REMARK SMILES IDX 1 15
REMARK H PARENT 8 12
REMARK Flexibility Score: inf
ROOT
ATOM      1  C   UNL     1       5.213 -14.000  -3.005  1.00  0.00     0.076 C 
ENDROOT
BRANCH   1   2
ATOM      2  C   UNL     1       5.970 -14.693  -4.095  1.00  0.00     0.116 A 
ATOM      3  C   UNL     1       6.351 -15.921  -5.813  1.00  0.00     0.290 A 
ATOM      4  O   UNL     1       5.406 -15.440  -5.029  1.00  0.00    -0.430 OA
ATOM      5  C   UNL     1       7.584 -15.480  -5.378  1.00  0.00     0.066 A 
ATOM      6  C   UNL     1       7.341 -14.699  -4.281  1.00  0.00     0.027 A 
ATOM      7  C   UNL     1       8.876 -15.708  -5.851  1.00  0.00     0.016 A 
ATOM      8  C   UNL     1       8.376 -14.089  -3.570  1.00  0.00     0.012 A 
ATOM      9  C   UNL     1       9.941 -15.104  -5.156  1.00  0.00     0.001 A 
ATOM     10  C   UNL     1       9.692 -14.299  -4.021  1.00  0.00     0.001 A 
BRANCH   3  11
ATOM     11  O   UNL     1       6.107 -16.750  -6.904  1.00  0.00    -0.480 OA
ATOM     12  H   UNL     1       6.838 -16.974  -7.567  1.00  0.00     0.297 HD
ENDBRANCH   3  11
ENDBRANCH   1   2
BRANCH   1  13
ATOM     13  C   UNL     1       4.346 -12.877  -3.587  1.00  0.00     0.008 C 
BRANCH  13  14
ATOM     14  C   UNL     1       2.849 -13.226  -3.583  1.00  0.00    -0.003 C 
ATOM     15  C   UNL     1       2.353 -13.715  -4.944  1.00  0.00     0.004 C 
ENDBRANCH  13  14
ENDBRANCH   1  13
TORSDOF 4
ENDMDL
