MODEL 1
REMARK VINA RESULT:    -3.601      0.000      0.000
REMARK INTER + INTRA:          -5.581
REMARK INTER:                  -5.075
REMARK INTRA:                  -0.507
REMARK UNBOUND:                -0.507
REMARK SMILES CCCCCCCCC(=O)[O-]
REMARK SMILES IDX 6 1 7 2 8 3 9 4 10 5 11 6 5 7 4 8 3 9 2 10 1 11
REMARK H PARENT
REMARK Flexibility Score: inf
ROOT
ATOM      1  C   UNL     1     145.331 129.484 114.587  1.00  0.00     0.000 C 
ENDROOT
BRANCH   1   2
ATOM      2  C   UNL     1     145.971 129.936 115.911  1.00  0.00     0.006 C 
BRANCH   2   3
ATOM      3  C   UNL     1     146.814 131.206 115.743  1.00  0.00     0.053 C 
BRANCH   3   4
ATOM      4  C   UNL     1     146.099 132.420 116.254  1.00  0.00     0.041 C 
ATOM      5  O   UNL     1     144.842 132.432 116.322  1.00  0.00    -0.550 OA
ATOM      6  O   UNL     1     146.823 133.523 116.689  1.00  0.00    -0.550 OA
ENDBRANCH   3   4
ENDBRANCH   2   3
ENDBRANCH   1   2
BRANCH   1   7
ATOM      7  C   UNL     1     145.606 128.006 114.270  1.00  0.00     0.000 C 
BRANCH   7   8
ATOM      8  C   UNL     1     144.724 127.051 115.089  1.00  0.00    -0.000 C 
BRANCH   8   9
ATOM      9  C   UNL     1     143.250 127.478 115.027  1.00  0.00    -0.000 C 
BRANCH   9  10
ATOM     10  C   UNL     1     142.592 127.533 116.415  1.00  0.00    -0.003 C 
ATOM     11  C   UNL     1     143.562 127.186 117.544  1.00  0.00     0.004 C 
ENDBRANCH   9  10
ENDBRANCH   8   9
ENDBRANCH   7   8
ENDBRANCH   1   7
TORSDOF 7
ENDMDL
MODEL 2
REMARK VINA RESULT:    -3.497      3.232      4.326
REMARK INTER + INTRA:          -5.435
REMARK INTER:                  -4.849
REMARK INTRA:                  -0.585
REMARK UNBOUND:                -0.507
REMARK SMILES CCCCCCCCC(=O)[O-]
REMARK SMILES IDX 6 1 7 2 8 3 9 4 10 5 11 6 5 7 4 8 3 9 2 10 1 11
REMARK H PARENT
REMARK Flexibility Score: inf
ROOT
ATOM      1  C   UNL     1     145.979 127.142 116.735  1.00  0.00     0.000 C 
ENDROOT
BRANCH   1   2
ATOM      2  C   UNL     1     145.220 126.897 118.050  1.00  0.00     0.006 C 
BRANCH   2   3
ATOM      3  C   UNL     1     144.806 128.207 118.733  1.00  0.00     0.053 C 
BRANCH   3   4
ATOM      4  C   UNL     1     145.287 128.270 120.151  1.00  0.00     0.041 C 
ATOM      5  O   UNL     1     146.517 128.188 120.407  1.00  0.00    -0.550 OA
ATOM      6  O   UNL     1     144.380 128.457 121.186  1.00  0.00    -0.550 OA
ENDBRANCH   3   4
ENDBRANCH   2   3
ENDBRANCH   1   2
BRANCH   1   7
ATOM      7  C   UNL     1     145.103 126.910 115.494  1.00  0.00     0.000 C 
BRANCH   7   8
ATOM      8  C   UNL     1     145.659 127.602 114.239  1.00  0.00    -0.000 C 
BRANCH   8   9
ATOM      9  C   UNL     1     145.465 129.123 114.322  1.00  0.00    -0.000 C 
BRANCH   9  10
ATOM     10  C   UNL     1     144.030 129.515 114.708  1.00  0.00    -0.003 C 
ATOM     11  C   UNL     1     143.983 130.574 115.809  1.00  0.00     0.004 C 
ENDBRANCH   9  10
ENDBRANCH   8   9
ENDBRANCH   7   8
ENDBRANCH   1   7
TORSDOF 7
ENDMDL
MODEL 3
REMARK VINA RESULT:    -3.443     20.050     21.247
REMARK INTER + INTRA:          -5.359
REMARK INTER:                  -4.542
REMARK INTRA:                  -0.817
REMARK UNBOUND:                -0.507
REMARK SMILES CCCCCCCCC(=O)[O-]
REMARK SMILES IDX 6 1 7 2 8 3 9 4 10 5 11 6 5 7 4 8 3 9 2 10 1 11
REMARK H PARENT
REMARK Flexibility Score: inf
ROOT
ATOM      1  C   UNL     1     127.961 141.912 115.126  1.00  0.00     0.000 C 
ENDROOT
BRANCH   1   2
ATOM      2  C   UNL     1     127.710 141.933 116.643  1.00  0.00     0.006 C 
BRANCH   2   3
ATOM      3  C   UNL     1     128.986 142.240 117.437  1.00  0.00     0.053 C 
BRANCH   3   4
ATOM      4  C   UNL     1     128.855 143.503 118.234  1.00  0.00     0.041 C 
ATOM      5  O   UNL     1     128.624 144.596 117.653  1.00  0.00    -0.550 OA
ATOM      6  O   UNL     1     128.950 143.466 119.619  1.00  0.00    -0.550 OA
ENDBRANCH   3   4
ENDBRANCH   2   3
ENDBRANCH   1   2
BRANCH   1   7
ATOM      7  C   UNL     1     127.780 143.292 114.476  1.00  0.00     0.000 C 
BRANCH   7   8
ATOM      8  C   UNL     1     129.055 143.790 113.778  1.00  0.00    -0.000 C 
BRANCH   8   9
ATOM      9  C   UNL     1     130.183 142.753 113.894  1.00  0.00    -0.000 C 
BRANCH   9  10
ATOM     10  C   UNL     1     131.333 143.230 114.794  1.00  0.00    -0.003 C 
ATOM     11  C   UNL     1     131.150 144.669 115.275  1.00  0.00     0.004 C 
ENDBRANCH   9  10
ENDBRANCH   8   9
ENDBRANCH   7   8
ENDBRANCH   1   7
TORSDOF 7
ENDMDL
MODEL 4
REMARK VINA RESULT:    -3.435      2.155      2.555
REMARK INTER + INTRA:          -5.347
REMARK INTER:                  -4.754
REMARK INTRA:                  -0.593
REMARK UNBOUND:                -0.507
REMARK SMILES CCCCCCCCC(=O)[O-]
REMARK SMILES IDX 6 1 7 2 8 3 9 4 10 5 11 6 5 7 4 8 3 9 2 10 1 11
REMARK H PARENT
REMARK Flexibility Score: inf
ROOT
ATOM      1  C   UNL     1     145.281 129.559 114.580  1.00  0.00     0.000 C 
ENDROOT
BRANCH   1   2
ATOM      2  C   UNL     1     146.285 130.162 115.577  1.00  0.00     0.006 C 
BRANCH   2   3
ATOM      3  C   UNL     1     145.592 130.762 116.807  1.00  0.00     0.053 C 
BRANCH   3   4
ATOM      4  C   UNL     1     145.123 129.700 117.754  1.00  0.00     0.041 C 
ATOM      5  O   UNL     1     143.946 129.724 118.200  1.00  0.00    -0.550 OA
ATOM      6  O   UNL     1     145.974 128.662 118.114  1.00  0.00    -0.550 OA
ENDBRANCH   3   4
ENDBRANCH   2   3
ENDBRANCH   1   2
BRANCH   1   7
ATOM      7  C   UNL     1     145.466 128.045 114.395  1.00  0.00     0.000 C 
BRANCH   7   8
ATOM      8  C   UNL     1     144.350 127.226 115.061  1.00  0.00    -0.000 C 
BRANCH   8   9
ATOM      9  C   UNL     1     143.043 128.031 115.122  1.00  0.00    -0.000 C 
BRANCH   9  10
ATOM     10  C   UNL     1     141.796 127.133 115.134  1.00  0.00    -0.003 C 
ATOM     11  C   UNL     1     140.507 127.908 114.861  1.00  0.00     0.004 C 
ENDBRANCH   9  10
ENDBRANCH   8   9
ENDBRANCH   7   8
ENDBRANCH   1   7
TORSDOF 7
ENDMDL
MODEL 5
REMARK VINA RESULT:    -3.427      2.871      4.489
REMARK INTER + INTRA:          -5.335
REMARK INTER:                  -4.835
REMARK INTRA:                  -0.500
REMARK UNBOUND:                -0.507
REMARK SMILES CCCCCCCCC(=O)[O-]
REMARK SMILES IDX 6 1 7 2 8 3 9 4 10 5 11 6 5 7 4 8 3 9 2 10 1 11
REMARK H PARENT
REMARK Flexibility Score: inf
ROOT
ATOM      1  C   UNL     1     144.083 127.278 116.366  1.00  0.00     0.000 C 
ENDROOT
BRANCH   1   2
ATOM      2  C   UNL     1     144.292 126.881 117.837  1.00  0.00     0.006 C 
BRANCH   2   3
ATOM      3  C   UNL     1     145.665 127.314 118.366  1.00  0.00     0.053 C 
BRANCH   3   4
ATOM      4  C   UNL     1     145.566 127.938 119.725  1.00  0.00     0.041 C 
ATOM      5  O   UNL     1     144.485 128.457 120.106  1.00  0.00    -0.550 OA
ATOM      6  O   UNL     1     146.657 127.911 120.584  1.00  0.00    -0.550 OA
ENDBRANCH   3   4
ENDBRANCH   2   3
ENDBRANCH   1   2
BRANCH   1   7
ATOM      7  C   UNL     1     145.380 127.208 115.545  1.00  0.00     0.000 C 
BRANCH   7   8
ATOM      8  C   UNL     1     145.412 128.233 114.400  1.00  0.00    -0.000 C 
BRANCH   8   9
ATOM      9  C   UNL     1     145.117 129.647 114.924  1.00  0.00    -0.000 C 
BRANCH   9  10
ATOM     10  C   UNL     1     146.233 130.185 115.833  1.00  0.00    -0.003 C 
ATOM     11  C   UNL     1     146.217 131.709 115.950  1.00  0.00     0.004 C 
ENDBRANCH   9  10
ENDBRANCH   8   9
ENDBRANCH   7   8
ENDBRANCH   1   7
TORSDOF 7
ENDMDL
MODEL 6
REMARK VINA RESULT:    -3.423      3.105      4.370
REMARK INTER + INTRA:          -5.330
REMARK INTER:                  -5.079
REMARK INTRA:                  -0.251
REMARK UNBOUND:                -0.507
REMARK SMILES CCCCCCCCC(=O)[O-]
REMARK SMILES IDX 6 1 7 2 8 3 9 4 10 5 11 6 5 7 4 8 3 9 2 10 1 11
REMARK H PARENT
REMARK Flexibility Score: inf
ROOT
ATOM      1  C   UNL     1     143.138 127.626 115.715  1.00  0.00     0.000 C 
ENDROOT
BRANCH   1   2
ATOM      2  C   UNL     1     144.349 127.616 114.765  1.00  0.00     0.006 C 
BRANCH   2   3
ATOM      3  C   UNL     1     145.663 127.334 115.505  1.00  0.00     0.053 C 
BRANCH   3   4
ATOM      4  C   UNL     1     145.931 128.353 116.570  1.00  0.00     0.041 C 
ATOM      5  O   UNL     1     146.068 129.567 116.265  1.00  0.00    -0.550 OA
ATOM      6  O   UNL     1     145.992 127.967 117.903  1.00  0.00    -0.550 OA
ENDBRANCH   3   4
ENDBRANCH   2   3
ENDBRANCH   1   2
BRANCH   1   7
ATOM      7  C   UNL     1     141.877 127.030 115.071  1.00  0.00     0.000 C 
BRANCH   7   8
ATOM      8  C   UNL     1     140.655 127.954 115.197  1.00  0.00    -0.000 C 
BRANCH   8   9
ATOM      9  C   UNL     1     139.350 127.148 115.120  1.00  0.00    -0.000 C 
BRANCH   9  10
ATOM     10  C   UNL     1     138.695 127.216 113.732  1.00  0.00    -0.003 C 
ATOM     11  C   UNL     1     138.762 128.612 113.114  1.00  0.00     0.004 C 
ENDBRANCH   9  10
ENDBRANCH   8   9
ENDBRANCH   7   8
ENDBRANCH   1   7
TORSDOF 7
ENDMDL
MODEL 7
REMARK VINA RESULT:    -3.407      2.819      3.997
REMARK INTER + INTRA:          -5.308
REMARK INTER:                  -4.395
REMARK INTRA:                  -0.913
REMARK UNBOUND:                -0.507
REMARK SMILES CCCCCCCCC(=O)[O-]
REMARK SMILES IDX 6 1 7 2 8 3 9 4 10 5 11 6 5 7 4 8 3 9 2 10 1 11
REMARK H PARENT
REMARK Flexibility Score: inf
ROOT
ATOM      1  C   UNL     1     145.462 131.032 117.018  1.00  0.00     0.000 C 
ENDROOT
BRANCH   1   2
ATOM      2  C   UNL     1     144.468 130.080 117.706  1.00  0.00     0.006 C 
BRANCH   2   3
ATOM      3  C   UNL     1     145.143 129.213 118.777  1.00  0.00     0.053 C 
BRANCH   3   4
ATOM      4  C   UNL     1     145.208 127.773 118.368  1.00  0.00     0.041 C 
ATOM      5  O   UNL     1     146.263 127.306 117.866  1.00  0.00    -0.550 OA
ATOM      6  O   UNL     1     144.116 126.940 118.575  1.00  0.00    -0.550 OA
ENDBRANCH   3   4
ENDBRANCH   2   3
ENDBRANCH   1   2
BRANCH   1   7
ATOM      7  C   UNL     1     146.076 130.428 115.746  1.00  0.00     0.000 C 
BRANCH   7   8
ATOM      8  C   UNL     1     145.040 129.695 114.880  1.00  0.00    -0.000 C 
BRANCH   8   9
ATOM      9  C   UNL     1     145.536 128.290 114.507  1.00  0.00    -0.000 C 
BRANCH   9  10
ATOM     10  C   UNL     1     144.486 127.201 114.779  1.00  0.00    -0.003 C 
ATOM     11  C   UNL     1     143.119 127.777 115.149  1.00  0.00     0.004 C 
ENDBRANCH   9  10
ENDBRANCH   8   9
ENDBRANCH   7   8
ENDBRANCH   1   7
TORSDOF 7
ENDMDL
MODEL 8
REMARK VINA RESULT:    -3.312     14.468     16.181
REMARK INTER + INTRA:          -5.174
REMARK INTER:                  -4.615
REMARK INTRA:                  -0.559
REMARK UNBOUND:                -0.507
REMARK SMILES CCCCCCCCC(=O)[O-]
REMARK SMILES IDX 6 1 7 2 8 3 9 4 10 5 11 6 5 7 4 8 3 9 2 10 1 11
REMARK H PARENT
REMARK Flexibility Score: inf
ROOT
ATOM      1  C   UNL     1     129.030 130.176 115.446  1.00  0.00     0.000 C 
ENDROOT
BRANCH   1   2
ATOM      2  C   UNL     1     130.084 129.103 115.122  1.00  0.00     0.006 C 
BRANCH   2   3
ATOM      3  C   UNL     1     129.918 127.848 115.989  1.00  0.00     0.053 C 
BRANCH   3   4
ATOM      4  C   UNL     1     129.950 128.174 117.452  1.00  0.00     0.041 C 
ATOM      5  O   UNL     1     128.986 127.850 118.193  1.00  0.00    -0.550 OA
ATOM      6  O   UNL     1     131.062 128.801 118.001  1.00  0.00    -0.550 OA
ENDBRANCH   3   4
ENDBRANCH   2   3
ENDBRANCH   1   2
BRANCH   1   7
ATOM      7  C   UNL     1     127.911 130.242 114.396  1.00  0.00     0.000 C 
BRANCH   7   8
ATOM      8  C   UNL     1     127.952 131.534 113.566  1.00  0.00    -0.000 C 
BRANCH   8   9
ATOM      9  C   UNL     1     129.061 132.471 114.068  1.00  0.00    -0.000 C 
BRANCH   9  10
ATOM     10  C   UNL     1     130.106 132.782 112.985  1.00  0.00    -0.003 C 
ATOM     11  C   UNL     1     131.420 132.030 113.197  1.00  0.00     0.004 C 
ENDBRANCH   9  10
ENDBRANCH   8   9
ENDBRANCH   7   8
ENDBRANCH   1   7
TORSDOF 7
ENDMDL
