MODEL 1
REMARK VINA RESULT:    -3.164      0.000      0.000
REMARK INTER + INTRA:          -4.175
REMARK INTER:                  -4.089
REMARK INTRA:                  -0.086
REMARK UNBOUND:                -0.086
REMARK SMILES CCCCCCC(=O)[O-]
REMARK SMILES IDX 5 1 6 2 7 3 8 4 9 5 4 6 3 7 2 8 1 9
REMARK H PARENT
REMARK Flexibility Score: inf
ROOT
ATOM      1  C   UNL     1       0.161   0.355  -8.674  1.00  0.00     0.006 C 
ENDROOT
BRANCH   1   2
ATOM      2  C   UNL     1      -1.204  -0.163  -8.206  1.00  0.00     0.053 C 
BRANCH   2   3
ATOM      3  C   UNL     1      -1.117  -0.828  -6.867  1.00  0.00     0.041 C 
ATOM      4  O   UNL     1       0.005  -1.065  -6.348  1.00  0.00    -0.550 OA
ATOM      5  O   UNL     1      -2.277  -1.158  -6.178  1.00  0.00    -0.550 OA
ENDBRANCH   2   3
ENDBRANCH   1   2
BRANCH   1   6
ATOM      6  C   UNL     1       0.133   1.856  -9.001  1.00  0.00     0.000 C 
BRANCH   6   7
ATOM      7  C   UNL     1       1.534   2.366  -9.360  1.00  0.00    -0.000 C 
BRANCH   7   8
ATOM      8  C   UNL     1       1.518   3.874  -9.630  1.00  0.00    -0.003 C 
ATOM      9  C   UNL     1       2.918   4.470  -9.524  1.00  0.00     0.004 C 
ENDBRANCH   7   8
ENDBRANCH   6   7
ENDBRANCH   1   6
TORSDOF 5
ENDMDL
MODEL 2
REMARK VINA RESULT:    -3.127      6.113      6.567
REMARK INTER + INTRA:          -4.127
REMARK INTER:                  -4.039
REMARK INTRA:                  -0.088
REMARK UNBOUND:                -0.086
REMARK SMILES CCCCCCC(=O)[O-]
REMARK SMILES IDX 5 1 6 2 7 3 8 4 9 5 4 6 3 7 2 8 1 9
REMARK H PARENT
REMARK Flexibility Score: inf
ROOT
ATOM      1  C   UNL     1       4.910  -1.086  -5.165  1.00  0.00     0.006 C 
ENDROOT
BRANCH   1   2
ATOM      2  C   UNL     1       4.546  -2.329  -4.343  1.00  0.00     0.053 C 
BRANCH   2   3
ATOM      3  C   UNL     1       3.353  -2.087  -3.470  1.00  0.00     0.041 C 
ATOM      4  O   UNL     1       2.191  -2.271  -3.918  1.00  0.00    -0.550 OA
ATOM      5  O   UNL     1       3.527  -1.689  -2.150  1.00  0.00    -0.550 OA
ENDBRANCH   2   3
ENDBRANCH   1   2
BRANCH   1   6
ATOM      6  C   UNL     1       5.555   0.011  -4.306  1.00  0.00     0.000 C 
BRANCH   6   7
ATOM      7  C   UNL     1       6.039   1.178  -5.177  1.00  0.00    -0.000 C 
BRANCH   7   8
ATOM      8  C   UNL     1       7.215   1.905  -4.518  1.00  0.00    -0.003 C 
ATOM      9  C   UNL     1       6.810   3.299  -4.048  1.00  0.00     0.004 C 
ENDBRANCH   7   8
ENDBRANCH   6   7
ENDBRANCH   1   6
TORSDOF 5
ENDMDL
MODEL 3
REMARK VINA RESULT:    -3.084      6.195      6.631
REMARK INTER + INTRA:          -4.072
REMARK INTER:                  -3.951
REMARK INTRA:                  -0.121
REMARK UNBOUND:                -0.086
REMARK SMILES CCCCCCC(=O)[O-]
REMARK SMILES IDX 5 1 6 2 7 3 8 4 9 5 4 6 3 7 2 8 1 9
REMARK H PARENT
REMARK Flexibility Score: inf
ROOT
ATOM      1  C   UNL     1       5.274  -0.349  -4.019  1.00  0.00     0.006 C 
ENDROOT
BRANCH   1   2
ATOM      2  C   UNL     1       4.539  -1.647  -4.377  1.00  0.00     0.053 C 
BRANCH   2   3
ATOM      3  C   UNL     1       3.401  -1.917  -3.441  1.00  0.00     0.041 C 
ATOM      4  O   UNL     1       3.551  -1.766  -2.200  1.00  0.00    -0.550 OA
ATOM      5  O   UNL     1       2.165  -2.304  -3.943  1.00  0.00    -0.550 OA
ENDBRANCH   2   3
ENDBRANCH   1   2
BRANCH   1   6
ATOM      6  C   UNL     1       6.299   0.053  -5.090  1.00  0.00     0.000 C 
BRANCH   6   7
ATOM      7  C   UNL     1       6.335   1.576  -5.273  1.00  0.00    -0.000 C 
BRANCH   7   8
ATOM      8  C   UNL     1       7.209   2.238  -4.203  1.00  0.00    -0.003 C 
ATOM      9  C   UNL     1       6.783   3.683  -3.960  1.00  0.00     0.004 C 
ENDBRANCH   7   8
ENDBRANCH   6   7
ENDBRANCH   1   6
TORSDOF 5
ENDMDL
MODEL 4
REMARK VINA RESULT:    -3.022      5.842      6.299
REMARK INTER + INTRA:          -3.991
REMARK INTER:                  -3.859
REMARK INTRA:                  -0.133
REMARK UNBOUND:                -0.086
REMARK SMILES CCCCCCC(=O)[O-]
REMARK SMILES IDX 5 1 6 2 7 3 8 4 9 5 4 6 3 7 2 8 1 9
REMARK H PARENT
REMARK Flexibility Score: inf
ROOT
ATOM      1  C   UNL     1       5.355  -0.431  -3.949  1.00  0.00     0.006 C 
ENDROOT
BRANCH   1   2
ATOM      2  C   UNL     1       4.549  -1.643  -4.429  1.00  0.00     0.053 C 
BRANCH   2   3
ATOM      3  C   UNL     1       3.408  -1.951  -3.508  1.00  0.00     0.041 C 
ATOM      4  O   UNL     1       3.497  -1.690  -2.279  1.00  0.00    -0.550 OA
ATOM      5  O   UNL     1       2.234  -2.496  -4.013  1.00  0.00    -0.550 OA
ENDBRANCH   2   3
ENDBRANCH   1   2
BRANCH   1   6
ATOM      6  C   UNL     1       5.684   0.539  -5.093  1.00  0.00     0.000 C 
BRANCH   6   7
ATOM      7  C   UNL     1       6.497   1.736  -4.584  1.00  0.00    -0.000 C 
BRANCH   7   8
ATOM      8  C   UNL     1       7.093   2.532  -5.750  1.00  0.00    -0.003 C 
ATOM      9  C   UNL     1       6.553   2.039  -7.088  1.00  0.00     0.004 C 
ENDBRANCH   7   8
ENDBRANCH   6   7
ENDBRANCH   1   6
TORSDOF 5
ENDMDL
MODEL 5
REMARK VINA RESULT:    -2.984      1.632      2.427
REMARK INTER + INTRA:          -3.943
REMARK INTER:                  -3.693
REMARK INTRA:                  -0.250
REMARK UNBOUND:                -0.086
REMARK SMILES CCCCCCC(=O)[O-]
REMARK SMILES IDX 5 1 6 2 7 3 8 4 9 5 4 6 3 7 2 8 1 9
REMARK H PARENT
REMARK Flexibility Score: inf
ROOT
ATOM      1  C   UNL     1      -2.608   0.090  -8.883  1.00  0.00     0.006 C 
ENDROOT
BRANCH   1   2
ATOM      2  C   UNL     1      -2.042  -1.189  -8.254  1.00  0.00     0.053 C 
BRANCH   2   3
ATOM      3  C   UNL     1      -1.827  -1.034  -6.780  1.00  0.00     0.041 C 
ATOM      4  O   UNL     1      -2.718  -1.393  -5.967  1.00  0.00    -0.550 OA
ATOM      5  O   UNL     1      -0.626  -0.524  -6.303  1.00  0.00    -0.550 OA
ENDBRANCH   2   3
ENDBRANCH   1   2
BRANCH   1   6
ATOM      6  C   UNL     1      -1.605   0.766  -9.829  1.00  0.00     0.000 C 
BRANCH   6   7
ATOM      7  C   UNL     1      -1.682   2.294  -9.712  1.00  0.00    -0.000 C 
BRANCH   7   8
ATOM      8  C   UNL     1      -0.326   2.884  -9.311  1.00  0.00    -0.003 C 
ATOM      9  C   UNL     1       0.713   1.788  -9.103  1.00  0.00     0.004 C 
ENDBRANCH   7   8
ENDBRANCH   6   7
ENDBRANCH   1   6
TORSDOF 5
ENDMDL
MODEL 6
REMARK VINA RESULT:    -2.977      1.385      1.773
REMARK INTER + INTRA:          -3.934
REMARK INTER:                  -3.778
REMARK INTRA:                  -0.156
REMARK UNBOUND:                -0.086
REMARK SMILES CCCCCCC(=O)[O-]
REMARK SMILES IDX 5 1 6 2 7 3 8 4 9 5 4 6 3 7 2 8 1 9
REMARK H PARENT
REMARK Flexibility Score: inf
ROOT
ATOM      1  C   UNL     1       0.891   0.054  -8.897  1.00  0.00     0.006 C 
ENDROOT
BRANCH   1   2
ATOM      2  C   UNL     1       0.041  -1.118  -8.392  1.00  0.00     0.053 C 
BRANCH   2   3
ATOM      3  C   UNL     1      -0.024  -1.153  -6.896  1.00  0.00     0.041 C 
ATOM      4  O   UNL     1       0.921  -1.654  -6.231  1.00  0.00    -0.550 OA
ATOM      5  O   UNL     1      -1.114  -0.601  -6.234  1.00  0.00    -0.550 OA
ENDBRANCH   2   3
ENDBRANCH   1   2
BRANCH   1   6
ATOM      6  C   UNL     1       0.113   1.378  -8.900  1.00  0.00     0.000 C 
BRANCH   6   7
ATOM      7  C   UNL     1       0.977   2.523  -9.444  1.00  0.00    -0.000 C 
BRANCH   7   8
ATOM      8  C   UNL     1       0.191   3.838  -9.478  1.00  0.00    -0.003 C 
ATOM      9  C   UNL     1      -1.298   3.585  -9.688  1.00  0.00     0.004 C 
ENDBRANCH   7   8
ENDBRANCH   6   7
ENDBRANCH   1   6
TORSDOF 5
ENDMDL
MODEL 7
REMARK VINA RESULT:    -2.970      5.371      5.899
REMARK INTER + INTRA:          -3.925
REMARK INTER:                  -3.759
REMARK INTRA:                  -0.166
REMARK UNBOUND:                -0.086
REMARK SMILES CCCCCCC(=O)[O-]
REMARK SMILES IDX 5 1 6 2 7 3 8 4 9 5 4 6 3 7 2 8 1 9
REMARK H PARENT
REMARK Flexibility Score: inf
ROOT
ATOM      1  C   UNL     1       5.335  -0.435  -4.034  1.00  0.00     0.006 C 
ENDROOT
BRANCH   1   2
ATOM      2  C   UNL     1       4.420  -1.567  -4.517  1.00  0.00     0.053 C 
BRANCH   2   3
ATOM      3  C   UNL     1       3.374  -1.908  -3.501  1.00  0.00     0.041 C 
ATOM      4  O   UNL     1       2.236  -2.302  -3.869  1.00  0.00    -0.550 OA
ATOM      5  O   UNL     1       3.668  -1.823  -2.146  1.00  0.00    -0.550 OA
ENDBRANCH   2   3
ENDBRANCH   1   2
BRANCH   1   6
ATOM      6  C   UNL     1       5.710   0.533  -5.166  1.00  0.00     0.000 C 
BRANCH   6   7
ATOM      7  C   UNL     1       5.390  -0.074  -6.538  1.00  0.00    -0.000 C 
BRANCH   7   8
ATOM      8  C   UNL     1       5.351   1.007  -7.623  1.00  0.00    -0.003 C 
ATOM      9  C   UNL     1       4.226   0.748  -8.620  1.00  0.00     0.004 C 
ENDBRANCH   7   8
ENDBRANCH   6   7
ENDBRANCH   1   6
TORSDOF 5
ENDMDL
MODEL 8
REMARK VINA RESULT:    -2.952      5.576      5.974
REMARK INTER + INTRA:          -3.902
REMARK INTER:                  -3.687
REMARK INTRA:                  -0.215
REMARK UNBOUND:                -0.086
REMARK SMILES CCCCCCC(=O)[O-]
REMARK SMILES IDX 5 1 6 2 7 3 8 4 9 5 4 6 3 7 2 8 1 9
REMARK H PARENT
REMARK Flexibility Score: inf
ROOT
ATOM      1  C   UNL     1       4.851  -1.598  -3.992  1.00  0.00     0.006 C 
ENDROOT
BRANCH   1   2
ATOM      2  C   UNL     1       4.016  -1.996  -5.216  1.00  0.00     0.053 C 
BRANCH   2   3
ATOM      3  C   UNL     1       2.593  -2.284  -4.847  1.00  0.00     0.041 C 
ATOM      4  O   UNL     1       2.230  -2.246  -3.642  1.00  0.00    -0.550 OA
ATOM      5  O   UNL     1       1.661  -2.563  -5.838  1.00  0.00    -0.550 OA
ENDBRANCH   2   3
ENDBRANCH   1   2
BRANCH   1   6
ATOM      6  C   UNL     1       5.480  -0.206  -4.145  1.00  0.00     0.000 C 
BRANCH   6   7
ATOM      7  C   UNL     1       5.663   0.156  -5.625  1.00  0.00    -0.000 C 
BRANCH   7   8
ATOM      8  C   UNL     1       6.402   1.489  -5.778  1.00  0.00    -0.003 C 
ATOM      9  C   UNL     1       6.709   2.110  -4.418  1.00  0.00     0.004 C 
ENDBRANCH   7   8
ENDBRANCH   6   7
ENDBRANCH   1   6
TORSDOF 5
ENDMDL
MODEL 9
REMARK VINA RESULT:    -2.884      7.563      8.761
REMARK INTER + INTRA:          -3.813
REMARK INTER:                  -3.448
REMARK INTRA:                  -0.365
REMARK UNBOUND:                -0.086
REMARK SMILES CCCCCCC(=O)[O-]
REMARK SMILES IDX 5 1 6 2 7 3 8 4 9 5 4 6 3 7 2 8 1 9
REMARK H PARENT
REMARK Flexibility Score: inf
ROOT
ATOM      1  C   UNL     1      -3.917  -3.017  -4.762  1.00  0.00     0.006 C 
ENDROOT
BRANCH   1   2
ATOM      2  C   UNL     1      -4.336  -4.379  -4.196  1.00  0.00     0.053 C 
BRANCH   2   3
ATOM      3  C   UNL     1      -3.917  -4.539  -2.767  1.00  0.00     0.041 C 
ATOM      4  O   UNL     1      -4.771  -4.468  -1.844  1.00  0.00    -0.550 OA
ATOM      5  O   UNL     1      -2.588  -4.800  -2.457  1.00  0.00    -0.550 OA
ENDBRANCH   2   3
ENDBRANCH   1   2
BRANCH   1   6
ATOM      6  C   UNL     1      -4.768  -1.868  -4.203  1.00  0.00     0.000 C 
BRANCH   6   7
ATOM      7  C   UNL     1      -6.097  -1.748  -4.960  1.00  0.00    -0.000 C 
BRANCH   7   8
ATOM      8  C   UNL     1      -7.283  -2.067  -4.044  1.00  0.00    -0.003 C 
ATOM      9  C   UNL     1      -6.969  -1.718  -2.592  1.00  0.00     0.004 C 
ENDBRANCH   7   8
ENDBRANCH   6   7
ENDBRANCH   1   6
TORSDOF 5
ENDMDL
