MODEL 1
REMARK VINA RESULT:    -4.232      0.000      0.000
REMARK INTER + INTRA:          -6.354
REMARK INTER:                  -6.459
REMARK INTRA:                   0.105
REMARK UNBOUND:                 0.105
REMARK SMILES CC1=CCC[C@@H](C)C(=O)C[C@H](C(C)C)C(=O)C1
REMARK SMILES IDX 8 1 9 2 6 3 7 4 5 5 4 6 3 7 2 8 1 9 10 11 11 12 15 13 16 14
REMARK SMILES IDX 17 15 12 17 13 18 14 19
REMARK H PARENT
REMARK Flexibility Score: 70.00
ROOT
ATOM      1  C   UNL     1     -13.726  11.963 -29.999  1.00  0.00     0.136 C 
ATOM      2  O   UNL     1     -12.644  11.607 -30.443  1.00  0.00    -0.299 OA
ENDROOT
BRANCH   1   3
ATOM      3  C   UNL     1     -13.892  11.993 -28.482  1.00  0.00     0.053 C 
ATOM      4  C   UNL     1     -12.695  11.448 -27.682  1.00  0.00     0.016 C 
BRANCH   3   5
ATOM      5  C   UNL     1     -15.231  11.352 -28.028  1.00  0.00     0.015 C 
BRANCH   5   6
ATOM      6  C   UNL     1     -16.303  12.338 -27.537  1.00  0.00     0.028 C 
BRANCH   6   7
ATOM      7  C   UNL     1     -17.534  12.316 -28.407  1.00  0.00    -0.028 C 
ATOM      8  C   UNL     1     -17.847  13.220 -29.364  1.00  0.00    -0.070 CG0
ATOM      9  C   UNL     1     -19.133  13.019 -30.127  1.00  0.00     0.039 C 
ATOM     10  G   UNL     1     -16.959  14.392 -29.742  1.00  0.00     0.000 G0
ENDBRANCH   6   7
ENDBRANCH   5   6
ENDBRANCH   3   5
ENDBRANCH   1   3
BRANCH   1  11
ATOM     11  C   UNL     1     -14.847  12.228 -30.987  1.00  0.00     0.087 C 
BRANCH  11  12
ATOM     12  C   UNL     1     -14.972  13.703 -31.457  1.00  0.00     0.066 C 
BRANCH  12  13
ATOM     13  C   UNL     1     -16.371  14.233 -31.148  1.00  0.00     0.140 C 
ATOM     14  O   UNL     1     -17.067  14.573 -32.096  1.00  0.00    -0.299 OA
BRANCH  13  15
ATOM     15  C   UNL     1     -16.946  14.403 -29.757  1.00  0.00     0.106 CG0
ATOM     16  G   UNL     1     -17.829  13.227 -29.376  1.00  0.00     0.000 G0
ENDBRANCH  13  15
ENDBRANCH  12  13
BRANCH  12  17
ATOM     17  C   UNL     1     -13.784  14.636 -31.042  1.00  0.00    -0.006 C 
ATOM     18  C   UNL     1     -12.655  14.631 -32.092  1.00  0.00     0.008 C 
ATOM     19  C   UNL     1     -14.255  16.094 -30.867  1.00  0.00     0.008 C 
ENDBRANCH  12  17
ENDBRANCH  11  12
ENDBRANCH   1  11
TORSDOF 1
ENDMDL
MODEL 2
REMARK VINA RESULT:    -2.092     11.070     13.643
REMARK INTER + INTRA:          -3.087
REMARK INTER:                  -3.296
REMARK INTRA:                   0.209
REMARK UNBOUND:                 0.105
REMARK SMILES CC1=CCC[C@@H](C)C(=O)C[C@H](C(C)C)C(=O)C1
REMARK SMILES IDX 8 1 9 2 6 3 7 4 5 5 4 6 3 7 2 8 1 9 10 11 11 12 15 13 16 14
REMARK SMILES IDX 17 15 12 17 13 18 14 19
REMARK H PARENT
REMARK Flexibility Score: 70.00
ROOT
ATOM      1  C   UNL     1     -28.166  18.786 -32.566  1.00  0.00     0.136 C 
ATOM      2  O   UNL     1     -28.166  17.657 -33.035  1.00  0.00    -0.299 OA
ENDROOT
BRANCH   1   3
ATOM      3  C   UNL     1     -29.222  19.764 -33.075  1.00  0.00     0.053 C 
ATOM      4  C   UNL     1     -30.586  19.134 -33.413  1.00  0.00     0.016 C 
BRANCH   3   5
ATOM      5  C   UNL     1     -28.690  20.647 -34.235  1.00  0.00     0.015 C 
BRANCH   5   6
ATOM      6  C   UNL     1     -27.319  21.299 -33.993  1.00  0.00     0.028 C 
BRANCH   6   7
ATOM      7  C   UNL     1     -26.224  20.624 -34.781  1.00  0.00    -0.028 C 
ATOM      8  C   UNL     1     -25.031  20.212 -34.292  1.00  0.00    -0.070 CG0
ATOM      9  C   UNL     1     -24.068  19.556 -35.249  1.00  0.00     0.039 C 
ATOM     10  G   UNL     1     -24.630  20.331 -32.832  1.00  0.00     0.000 G0
ENDBRANCH   6   7
ENDBRANCH   5   6
ENDBRANCH   3   5
ENDBRANCH   1   3
BRANCH   1  11
ATOM     11  C   UNL     1     -27.046  19.159 -31.612  1.00  0.00     0.087 C 
BRANCH  11  12
ATOM     12  C   UNL     1     -25.817  18.210 -31.642  1.00  0.00     0.066 C 
BRANCH  12  13
ATOM     13  C   UNL     1     -24.590  18.961 -32.157  1.00  0.00     0.140 C 
ATOM     14  O   UNL     1     -23.497  18.434 -31.994  1.00  0.00    -0.299 OA
BRANCH  13  15
ATOM     15  C   UNL     1     -24.623  20.322 -32.821  1.00  0.00     0.106 CG0
ATOM     16  G   UNL     1     -25.036  20.216 -34.279  1.00  0.00     0.000 G0
ENDBRANCH  13  15
ENDBRANCH  12  13
BRANCH  12  17
ATOM     17  C   UNL     1     -25.599  17.362 -30.343  1.00  0.00    -0.006 C 
ATOM     18  C   UNL     1     -26.286  17.997 -29.118  1.00  0.00     0.008 C 
ATOM     19  C   UNL     1     -26.159  15.935 -30.508  1.00  0.00     0.008 C 
ENDBRANCH  12  17
ENDBRANCH  11  12
ENDBRANCH   1  11
TORSDOF 1
ENDMDL
MODEL 3
REMARK VINA RESULT:    -1.951     10.705     12.570
REMARK INTER + INTRA:          -2.872
REMARK INTER:                  -2.887
REMARK INTRA:                   0.015
REMARK UNBOUND:                 0.105
REMARK SMILES CC1=CCC[C@@H](C)C(=O)C[C@H](C(C)C)C(=O)C1
REMARK SMILES IDX 8 1 9 2 6 3 7 4 5 5 4 6 3 7 2 8 1 9 10 11 11 12 15 13 16 14
REMARK SMILES IDX 17 15 12 17 13 18 14 19
REMARK H PARENT
REMARK Flexibility Score: 70.00
ROOT
ATOM      1  C   UNL     1     -25.770  20.250 -34.721  1.00  0.00     0.136 C 
ATOM      2  O   UNL     1     -25.490  20.828 -35.762  1.00  0.00    -0.299 OA
ENDROOT
BRANCH   1   3
ATOM      3  C   UNL     1     -27.174  20.452 -34.155  1.00  0.00     0.053 C 
ATOM      4  C   UNL     1     -27.305  21.587 -33.123  1.00  0.00     0.016 C 
BRANCH   3   5
ATOM      5  C   UNL     1     -27.791  19.125 -33.638  1.00  0.00     0.015 C 
BRANCH   5   6
ATOM      6  C   UNL     1     -28.026  19.053 -32.121  1.00  0.00     0.028 C 
BRANCH   6   7
ATOM      7  C   UNL     1     -27.725  17.684 -31.565  1.00  0.00    -0.028 C 
ATOM      8  C   UNL     1     -26.617  17.334 -30.872  1.00  0.00    -0.070 CG0
ATOM      9  C   UNL     1     -26.504  15.905 -30.401  1.00  0.00     0.039 C 
ATOM     10  G   UNL     1     -25.508  18.305 -30.505  1.00  0.00     0.000 G0
ENDBRANCH   6   7
ENDBRANCH   5   6
ENDBRANCH   3   5
ENDBRANCH   1   3
BRANCH   1  11
ATOM     11  C   UNL     1     -24.668  19.481 -34.017  1.00  0.00     0.087 C 
BRANCH  11  12
ATOM     12  C   UNL     1     -24.499  19.812 -32.509  1.00  0.00     0.066 C 
BRANCH  12  13
ATOM     13  C   UNL     1     -24.564  18.529 -31.682  1.00  0.00     0.140 C 
ATOM     14  O   UNL     1     -23.821  17.611 -32.005  1.00  0.00    -0.299 OA
BRANCH  13  15
ATOM     15  C   UNL     1     -25.503  18.295 -30.516  1.00  0.00     0.106 CG0
ATOM     16  G   UNL     1     -26.607  17.319 -30.883  1.00  0.00     0.000 G0
ENDBRANCH  13  15
ENDBRANCH  12  13
BRANCH  12  17
ATOM     17  C   UNL     1     -23.317  20.781 -32.168  1.00  0.00    -0.006 C 
ATOM     18  C   UNL     1     -23.706  22.259 -32.374  1.00  0.00     0.008 C 
ATOM     19  C   UNL     1     -22.863  20.615 -30.704  1.00  0.00     0.008 C 
ENDBRANCH  12  17
ENDBRANCH  11  12
ENDBRANCH   1  11
TORSDOF 1
ENDMDL
MODEL 4
REMARK VINA RESULT:    -1.589     10.075     12.967
REMARK INTER + INTRA:          -2.320
REMARK INTER:                  -2.464
REMARK INTRA:                   0.143
REMARK UNBOUND:                 0.105
REMARK SMILES CC1=CCC[C@@H](C)C(=O)C[C@H](C(C)C)C(=O)C1
REMARK SMILES IDX 8 1 9 2 6 3 7 4 5 5 4 6 3 7 2 8 1 9 10 11 11 12 15 13 16 14
REMARK SMILES IDX 17 15 12 17 13 18 14 19
REMARK H PARENT
REMARK Flexibility Score: 70.00
ROOT
ATOM      1  C   UNL     1     -27.784  18.745 -32.593  1.00  0.00     0.136 C 
ATOM      2  O   UNL     1     -28.155  18.053 -33.530  1.00  0.00    -0.299 OA
ENDROOT
BRANCH   1   3
ATOM      3  C   UNL     1     -27.633  20.245 -32.837  1.00  0.00     0.053 C 
ATOM      4  C   UNL     1     -28.879  21.088 -32.514  1.00  0.00     0.016 C 
BRANCH   3   5
ATOM      5  C   UNL     1     -27.077  20.553 -34.253  1.00  0.00     0.015 C 
BRANCH   5   6
ATOM      6  C   UNL     1     -25.658  20.034 -34.533  1.00  0.00     0.028 C 
BRANCH   6   7
ATOM      7  C   UNL     1     -24.625  20.716 -33.672  1.00  0.00    -0.028 C 
ATOM      8  C   UNL     1     -23.858  20.122 -32.728  1.00  0.00    -0.070 CG0
ATOM      9  C   UNL     1     -22.879  20.985 -31.971  1.00  0.00     0.039 C 
ATOM     10  G   UNL     1     -23.896  18.635 -32.423  1.00  0.00     0.000 G0
ENDBRANCH   6   7
ENDBRANCH   5   6
ENDBRANCH   3   5
ENDBRANCH   1   3
BRANCH   1  11
ATOM     11  C   UNL     1     -27.390  18.045 -31.305  1.00  0.00     0.087 C 
BRANCH  11  12
ATOM     12  C   UNL     1     -26.011  17.333 -31.342  1.00  0.00     0.066 C 
BRANCH  12  13
ATOM     13  C   UNL     1     -24.887  18.366 -31.274  1.00  0.00     0.140 C 
ATOM     14  O   UNL     1     -24.801  19.038 -30.255  1.00  0.00    -0.299 OA
BRANCH  13  15
ATOM     15  C   UNL     1     -23.896  18.643 -32.385  1.00  0.00     0.106 CG0
ATOM     16  G   UNL     1     -23.850  20.122 -32.729  1.00  0.00     0.000 G0
ENDBRANCH  13  15
ENDBRANCH  12  13
BRANCH  12  17
ATOM     17  C   UNL     1     -25.868  16.108 -30.377  1.00  0.00    -0.006 C 
ATOM     18  C   UNL     1     -27.170  15.285 -30.295  1.00  0.00     0.008 C 
ATOM     19  C   UNL     1     -24.743  15.161 -30.840  1.00  0.00     0.008 C 
ENDBRANCH  12  17
ENDBRANCH  11  12
ENDBRANCH   1  11
TORSDOF 1
ENDMDL
MODEL 5
REMARK VINA RESULT:    -1.539      1.387      2.094
REMARK INTER + INTRA:          -2.244
REMARK INTER:                  -4.902
REMARK INTRA:                   2.658
REMARK UNBOUND:                 0.105
REMARK SMILES CC1=CCC[C@@H](C)C(=O)C[C@H](C(C)C)C(=O)C1
REMARK SMILES IDX 8 1 9 2 6 3 7 4 5 5 4 6 3 7 2 8 1 9 10 11 11 12 15 13 16 14
REMARK SMILES IDX 17 15 12 17 13 18 14 19
REMARK H PARENT
REMARK Flexibility Score: 70.00
ROOT
ATOM      1  C   UNL     1     -13.060  13.590 -31.940  1.00  0.00     0.136 C 
ATOM      2  O   UNL     1     -12.182  14.111 -32.613  1.00  0.00    -0.299 OA
ENDROOT
BRANCH   1   3
ATOM      3  C   UNL     1     -12.629  12.768 -30.728  1.00  0.00     0.053 C 
ATOM      4  C   UNL     1     -11.209  12.178 -30.810  1.00  0.00     0.016 C 
BRANCH   3   5
ATOM      5  C   UNL     1     -13.681  11.693 -30.347  1.00  0.00     0.015 C 
BRANCH   5   6
ATOM      6  C   UNL     1     -14.190  11.749 -28.898  1.00  0.00     0.028 C 
BRANCH   6   7
ATOM      7  C   UNL     1     -15.671  11.485 -28.806  1.00  0.00    -0.028 C 
ATOM      8  C   UNL     1     -16.655  12.394 -28.998  1.00  0.00    -0.070 CG0
ATOM      9  C   UNL     1     -18.082  11.926 -28.860  1.00  0.00     0.039 C 
ATOM     10  G   UNL     1     -16.404  13.840 -29.389  1.00  0.00     0.000 G0
ENDBRANCH   6   7
ENDBRANCH   5   6
ENDBRANCH   3   5
ENDBRANCH   1   3
BRANCH   1  11
ATOM     11  C   UNL     1     -14.492  13.702 -32.431  1.00  0.00     0.087 C 
BRANCH  11  12
ATOM     12  C   UNL     1     -15.359  14.756 -31.689  1.00  0.00     0.066 C 
BRANCH  12  13
ATOM     13  C   UNL     1     -16.452  14.059 -30.881  1.00  0.00     0.140 C 
ATOM     14  O   UNL     1     -17.435  13.659 -31.490  1.00  0.00    -0.299 OA
BRANCH  13  15
ATOM     15  C   UNL     1     -16.426  13.860 -29.380  1.00  0.00     0.106 CG0
ATOM     16  G   UNL     1     -16.635  12.402 -29.011  1.00  0.00     0.000 G0
ENDBRANCH  13  15
ENDBRANCH  12  13
BRANCH  12  17
ATOM     17  C   UNL     1     -14.554  15.865 -30.930  1.00  0.00    -0.006 C 
ATOM     18  C   UNL     1     -13.525  15.261 -29.953  1.00  0.00     0.008 C 
ATOM     19  C   UNL     1     -13.790  16.773 -31.914  1.00  0.00     0.008 C 
ENDBRANCH  12  17
ENDBRANCH  11  12
ENDBRANCH   1  11
TORSDOF 1
ENDMDL
