MODEL 1
REMARK VINA RESULT:    -7.900      0.000      0.000
REMARK INTER + INTRA:          -9.362
REMARK INTER:                  -9.054
REMARK INTRA:                  -0.308
REMARK UNBOUND:                -0.308
REMARK SMILES O=C1C[C@@H](c2ccc(O)cc2)Oc2cc(O)cc(O)c21
REMARK SMILES IDX 3 1 4 2 12 3 13 4 14 5 15 6 17 7 18 8 20 9 2 10 1 11 5 12
REMARK SMILES IDX 6 13 11 14 7 15 10 16 8 17 9 18 19 20 16 22
REMARK H PARENT 9 19 19 21 16 23
REMARK Flexibility Score: inf
ROOT
ATOM      1  C   UNL     1      49.348  58.129   7.349  1.00  0.00     0.131 C 
ATOM      2  C   UNL     1      50.344  58.660   6.311  1.00  0.00     0.211 C 
ATOM      3  O   UNL     1      50.205  57.944   5.085  1.00  0.00    -0.484 OA
ATOM      4  C   UNL     1      48.949  57.672   4.530  1.00  0.00     0.138 A 
ATOM      5  C   UNL     1      48.877  57.263   3.197  1.00  0.00     0.093 A 
ATOM      6  C   UNL     1      47.639  57.010   2.604  1.00  0.00     0.123 A 
ATOM      7  C   UNL     1      46.469  57.183   3.344  1.00  0.00     0.093 A 
ATOM      8  C   UNL     1      46.516  57.600   4.681  1.00  0.00     0.133 A 
ATOM      9  C   UNL     1      47.777  57.803   5.309  1.00  0.00     0.102 A 
ATOM     10  C   UNL     1      47.963  58.066   6.767  1.00  0.00     0.174 C 
ATOM     11  O   UNL     1      46.986  58.130   7.557  1.00  0.00    -0.294 OA
ENDROOT
BRANCH   2  12
ATOM     12  C   UNL     1      51.760  58.547   6.821  1.00  0.00    -0.007 A 
ATOM     13  C   UNL     1      52.028  58.558   8.202  1.00  0.00     0.011 A 
ATOM     14  C   UNL     1      52.834  58.485   5.916  1.00  0.00     0.011 A 
ATOM     15  C   UNL     1      53.344  58.484   8.666  1.00  0.00     0.046 A 
ATOM     16  C   UNL     1      54.150  58.410   6.385  1.00  0.00     0.046 A 
ATOM     17  C   UNL     1      54.407  58.408   7.762  1.00  0.00     0.115 A 
BRANCH  17  18
ATOM     18  O   UNL     1      55.714  58.334   8.240  1.00  0.00    -0.508 OA
ATOM     19  H   UNL     1      56.507  58.306   7.610  1.00  0.00     0.293 HD
ENDBRANCH  17  18
ENDBRANCH   2  12
BRANCH   8  20
ATOM     20  O   UNL     1      45.290  57.808   5.320  1.00  0.00    -0.507 OA
ATOM     21  H   UNL     1      44.878  58.714   5.485  1.00  0.00     0.293 HD
ENDBRANCH   8  20
BRANCH   6  22
ATOM     22  O   UNL     1      47.557  56.597   1.276  1.00  0.00    -0.508 OA
ATOM     23  H   UNL     1      47.042  57.132   0.586  1.00  0.00     0.293 HD
ENDBRANCH   6  22
TORSDOF 4
ENDMDL
MODEL 2
REMARK VINA RESULT:    -7.775      7.544      9.412
REMARK INTER + INTRA:          -9.220
REMARK INTER:                  -8.916
REMARK INTRA:                  -0.304
REMARK UNBOUND:                -0.308
REMARK SMILES O=C1C[C@@H](c2ccc(O)cc2)Oc2cc(O)cc(O)c21
REMARK SMILES IDX 3 1 4 2 12 3 13 4 14 5 15 6 17 7 18 8 20 9 2 10 1 11 5 12
REMARK SMILES IDX 6 13 11 14 7 15 10 16 8 17 9 18 19 20 16 22
REMARK H PARENT 9 19 19 21 16 23
REMARK Flexibility Score: inf
ROOT
ATOM      1  C   UNL     1      52.735  63.102  -0.712  1.00  0.00     0.131 C 
ATOM      2  C   UNL     1      52.689  61.991   0.343  1.00  0.00     0.211 C 
ATOM      3  O   UNL     1      53.326  62.426   1.542  1.00  0.00    -0.484 OA
ATOM      4  C   UNL     1      53.083  63.691   2.089  1.00  0.00     0.138 A 
ATOM      5  C   UNL     1      53.471  63.941   3.407  1.00  0.00     0.093 A 
ATOM      6  C   UNL     1      53.219  65.184   3.990  1.00  0.00     0.123 A 
ATOM      7  C   UNL     1      52.562  66.172   3.258  1.00  0.00     0.093 A 
ATOM      8  C   UNL     1      52.156  65.942   1.938  1.00  0.00     0.133 A 
ATOM      9  C   UNL     1      52.462  64.699   1.316  1.00  0.00     0.102 A 
ATOM     10  C   UNL     1      52.249  64.402  -0.132  1.00  0.00     0.174 C 
ATOM     11  O   UNL     1      51.768  65.258  -0.919  1.00  0.00    -0.294 OA
ENDROOT
BRANCH   2  12
ATOM     12  C   UNL     1      53.350  60.736  -0.171  1.00  0.00    -0.007 A 
ATOM     13  C   UNL     1      53.571  60.555  -1.549  1.00  0.00     0.011 A 
ATOM     14  C   UNL     1      53.703  59.707   0.719  1.00  0.00     0.011 A 
ATOM     15  C   UNL     1      54.156  59.377  -2.022  1.00  0.00     0.046 A 
ATOM     16  C   UNL     1      54.289  58.530   0.242  1.00  0.00     0.046 A 
ATOM     17  C   UNL     1      54.519  58.363  -1.130  1.00  0.00     0.115 A 
BRANCH  17  18
ATOM     18  O   UNL     1      55.101  57.195  -1.616  1.00  0.00    -0.508 OA
ATOM     19  H   UNL     1      54.910  56.293  -1.194  1.00  0.00     0.293 HD
ENDBRANCH  17  18
ENDBRANCH   2  12
BRANCH   8  20
ATOM     20  O   UNL     1      51.447  66.969   1.307  1.00  0.00    -0.507 OA
ATOM     21  H   UNL     1      51.513  67.944   1.554  1.00  0.00     0.293 HD
ENDBRANCH   8  20
BRANCH   6  22
ATOM     22  O   UNL     1      53.607  65.445   5.304  1.00  0.00    -0.508 OA
ATOM     23  H   UNL     1      53.806  64.695   5.955  1.00  0.00     0.293 HD
ENDBRANCH   6  22
TORSDOF 4
ENDMDL
MODEL 3
REMARK VINA RESULT:    -7.606      8.537     10.345
REMARK INTER + INTRA:          -9.026
REMARK INTER:                  -8.719
REMARK INTRA:                  -0.307
REMARK UNBOUND:                -0.308
REMARK SMILES O=C1C[C@@H](c2ccc(O)cc2)Oc2cc(O)cc(O)c21
REMARK SMILES IDX 3 1 4 2 12 3 13 4 14 5 15 6 17 7 18 8 20 9 2 10 1 11 5 12
REMARK SMILES IDX 6 13 11 14 7 15 10 16 8 17 9 18 19 20 16 22
REMARK H PARENT 9 19 19 21 16 23
REMARK Flexibility Score: inf
ROOT
ATOM      1  C   UNL     1      48.969  66.994   2.617  1.00  0.00     0.131 C 
ATOM      2  C   UNL     1      48.040  65.885   3.126  1.00  0.00     0.211 C 
ATOM      3  O   UNL     1      47.927  64.852   2.149  1.00  0.00    -0.484 OA
ATOM      4  C   UNL     1      49.048  64.345   1.481  1.00  0.00     0.138 A 
ATOM      5  C   UNL     1      48.930  63.139   0.787  1.00  0.00     0.093 A 
ATOM      6  C   UNL     1      50.035  62.593   0.133  1.00  0.00     0.123 A 
ATOM      7  C   UNL     1      51.266  63.247   0.188  1.00  0.00     0.093 A 
ATOM      8  C   UNL     1      51.410  64.454   0.884  1.00  0.00     0.133 A 
ATOM      9  C   UNL     1      50.275  65.048   1.503  1.00  0.00     0.102 A 
ATOM     10  C   UNL     1      50.260  66.411   2.112  1.00  0.00     0.174 C 
ATOM     11  O   UNL     1      51.282  67.144   2.118  1.00  0.00    -0.294 OA
ENDROOT
BRANCH   2  12
ATOM     12  C   UNL     1      46.675  66.439   3.456  1.00  0.00    -0.007 A 
ATOM     13  C   UNL     1      46.513  67.797   3.783  1.00  0.00     0.011 A 
ATOM     14  C   UNL     1      45.558  65.588   3.493  1.00  0.00     0.011 A 
ATOM     15  C   UNL     1      45.251  68.297   4.118  1.00  0.00     0.046 A 
ATOM     16  C   UNL     1      44.296  66.092   3.827  1.00  0.00     0.046 A 
ATOM     17  C   UNL     1      44.140  67.448   4.139  1.00  0.00     0.115 A 
BRANCH  17  18
ATOM     18  O   UNL     1      42.889  67.961   4.474  1.00  0.00    -0.508 OA
ATOM     19  H   UNL     1      42.661  68.222   5.426  1.00  0.00     0.293 HD
ENDBRANCH  17  18
ENDBRANCH   2  12
BRANCH   8  20
ATOM     20  O   UNL     1      52.696  65.002   0.937  1.00  0.00    -0.507 OA
ATOM     21  H   UNL     1      53.073  65.496   1.730  1.00  0.00     0.293 HD
ENDBRANCH   8  20
BRANCH   6  22
ATOM     22  O   UNL     1      49.926  61.392  -0.566  1.00  0.00    -0.508 OA
ATOM     23  H   UNL     1      50.608  60.651  -0.454  1.00  0.00     0.293 HD
ENDBRANCH   6  22
TORSDOF 4
ENDMDL
MODEL 4
REMARK VINA RESULT:    -7.541      7.560      8.540
REMARK INTER + INTRA:          -8.951
REMARK INTER:                  -8.641
REMARK INTRA:                  -0.310
REMARK UNBOUND:                -0.308
REMARK SMILES O=C1C[C@@H](c2ccc(O)cc2)Oc2cc(O)cc(O)c21
REMARK SMILES IDX 3 1 4 2 12 3 13 4 14 5 15 6 17 7 18 8 20 9 2 10 1 11 5 12
REMARK SMILES IDX 6 13 11 14 7 15 10 16 8 17 9 18 19 20 16 22
REMARK H PARENT 9 19 19 21 16 23
REMARK Flexibility Score: inf
ROOT
ATOM      1  C   UNL     1      51.359  61.835  -0.132  1.00  0.00     0.131 C 
ATOM      2  C   UNL     1      52.741  62.485  -0.002  1.00  0.00     0.211 C 
ATOM      3  O   UNL     1      53.703  61.516   0.410  1.00  0.00    -0.484 OA
ATOM      4  C   UNL     1      53.764  60.245  -0.174  1.00  0.00     0.138 A 
ATOM      5  C   UNL     1      54.903  59.464   0.030  1.00  0.00     0.093 A 
ATOM      6  C   UNL     1      55.007  58.203  -0.559  1.00  0.00     0.123 A 
ATOM      7  C   UNL     1      53.974  57.730  -1.369  1.00  0.00     0.093 A 
ATOM      8  C   UNL     1      52.824  58.498  -1.593  1.00  0.00     0.133 A 
ATOM      9  C   UNL     1      52.686  59.759  -0.948  1.00  0.00     0.102 A 
ATOM     10  C   UNL     1      51.440  60.583  -0.961  1.00  0.00     0.174 C 
ATOM     11  O   UNL     1      50.402  60.203  -1.562  1.00  0.00    -0.294 OA
ENDROOT
BRANCH   2  12
ATOM     12  C   UNL     1      52.705  63.630   0.981  1.00  0.00    -0.007 A 
ATOM     13  C   UNL     1      53.410  63.554   2.196  1.00  0.00     0.011 A 
ATOM     14  C   UNL     1      51.918  64.764   0.716  1.00  0.00     0.011 A 
ATOM     15  C   UNL     1      53.347  64.605   3.116  1.00  0.00     0.046 A 
ATOM     16  C   UNL     1      51.858  65.813   1.639  1.00  0.00     0.046 A 
ATOM     17  C   UNL     1      52.574  65.736   2.840  1.00  0.00     0.115 A 
BRANCH  17  18
ATOM     18  O   UNL     1      52.522  66.776   3.766  1.00  0.00    -0.508 OA
ATOM     19  H   UNL     1      53.242  66.896   4.469  1.00  0.00     0.293 HD
ENDBRANCH  17  18
ENDBRANCH   2  12
BRANCH   8  20
ATOM     20  O   UNL     1      51.873  57.968  -2.470  1.00  0.00    -0.507 OA
ATOM     21  H   UNL     1      52.016  57.842  -3.460  1.00  0.00     0.293 HD
ENDBRANCH   8  20
BRANCH   6  22
ATOM     22  O   UNL     1      56.139  57.414  -0.358  1.00  0.00    -0.508 OA
ATOM     23  H   UNL     1      57.035  57.665  -0.758  1.00  0.00     0.293 HD
ENDBRANCH   6  22
TORSDOF 4
ENDMDL
MODEL 5
REMARK VINA RESULT:    -7.478      1.778      6.917
REMARK INTER + INTRA:          -8.879
REMARK INTER:                  -8.568
REMARK INTRA:                  -0.310
REMARK UNBOUND:                -0.308
REMARK SMILES O=C1C[C@@H](c2ccc(O)cc2)Oc2cc(O)cc(O)c21
REMARK SMILES IDX 3 1 4 2 12 3 13 4 14 5 15 6 17 7 18 8 20 9 2 10 1 11 5 12
REMARK SMILES IDX 6 13 11 14 7 15 10 16 8 17 9 18 19 20 16 22
REMARK H PARENT 9 19 19 21 16 23
REMARK Flexibility Score: inf
ROOT
ATOM      1  C   UNL     1      50.183  60.060   6.704  1.00  0.00     0.131 C 
ATOM      2  C   UNL     1      50.043  58.534   6.658  1.00  0.00     0.211 C 
ATOM      3  O   UNL     1      51.289  57.938   6.299  1.00  0.00    -0.484 OA
ATOM      4  C   UNL     1      52.495  58.346   6.879  1.00  0.00     0.138 A 
ATOM      5  C   UNL     1      53.620  57.531   6.739  1.00  0.00     0.093 A 
ATOM      6  C   UNL     1      54.832  57.896   7.328  1.00  0.00     0.123 A 
ATOM      7  C   UNL     1      54.912  59.073   8.074  1.00  0.00     0.093 A 
ATOM      8  C   UNL     1      53.796  59.903   8.234  1.00  0.00     0.133 A 
ATOM      9  C   UNL     1      52.573  59.567   7.588  1.00  0.00     0.102 A 
ATOM     10  C   UNL     1      51.375  60.457   7.531  1.00  0.00     0.174 C 
ATOM     11  O   UNL     1      51.369  61.594   8.069  1.00  0.00    -0.294 OA
ENDROOT
BRANCH   2  12
ATOM     12  C   UNL     1      48.970  58.123   5.680  1.00  0.00    -0.007 A 
ATOM     13  C   UNL     1      49.300  57.409   4.513  1.00  0.00     0.011 A 
ATOM     14  C   UNL     1      47.634  58.500   5.897  1.00  0.00     0.011 A 
ATOM     15  C   UNL     1      48.305  57.059   3.595  1.00  0.00     0.046 A 
ATOM     16  C   UNL     1      46.641  58.147   4.977  1.00  0.00     0.046 A 
ATOM     17  C   UNL     1      46.975  57.424   3.825  1.00  0.00     0.115 A 
BRANCH  17  18
ATOM     18  O   UNL     1      45.995  57.067   2.901  1.00  0.00    -0.508 OA
ATOM     19  H   UNL     1      45.083  56.740   3.197  1.00  0.00     0.293 HD
ENDBRANCH  17  18
ENDBRANCH   2  12
BRANCH   8  20
ATOM     20  O   UNL     1      53.957  61.026   9.052  1.00  0.00    -0.507 OA
ATOM     21  H   UNL     1      54.842  61.466   9.249  1.00  0.00     0.293 HD
ENDBRANCH   8  20
BRANCH   6  22
ATOM     22  O   UNL     1      55.961  57.091   7.190  1.00  0.00    -0.508 OA
ATOM     23  H   UNL     1      56.881  57.421   7.456  1.00  0.00     0.293 HD
ENDBRANCH   6  22
TORSDOF 4
ENDMDL
MODEL 6
REMARK VINA RESULT:    -7.202      1.707      3.101
REMARK INTER + INTRA:          -8.562
REMARK INTER:                  -8.277
REMARK INTRA:                  -0.286
REMARK UNBOUND:                -0.308
REMARK SMILES O=C1C[C@@H](c2ccc(O)cc2)Oc2cc(O)cc(O)c21
REMARK SMILES IDX 3 1 4 2 12 3 13 4 14 5 15 6 17 7 18 8 20 9 2 10 1 11 5 12
REMARK SMILES IDX 6 13 11 14 7 15 10 16 8 17 9 18 19 20 16 22
REMARK H PARENT 9 19 19 21 16 23
REMARK Flexibility Score: inf
ROOT
ATOM      1  C   UNL     1      51.737  59.348   4.270  1.00  0.00     0.131 C 
ATOM      2  C   UNL     1      51.680  58.602   5.608  1.00  0.00     0.211 C 
ATOM      3  O   UNL     1      50.347  58.607   6.117  1.00  0.00    -0.484 OA
ATOM      4  C   UNL     1      49.246  58.323   5.301  1.00  0.00     0.138 A 
ATOM      5  C   UNL     1      48.021  58.027   5.901  1.00  0.00     0.093 A 
ATOM      6  C   UNL     1      46.910  57.715   5.116  1.00  0.00     0.123 A 
ATOM      7  C   UNL     1      47.031  57.681   3.727  1.00  0.00     0.093 A 
ATOM      8  C   UNL     1      48.251  57.967   3.102  1.00  0.00     0.133 A 
ATOM      9  C   UNL     1      49.373  58.345   3.892  1.00  0.00     0.102 A 
ATOM     10  C   UNL     1      50.666  58.847   3.340  1.00  0.00     0.174 C 
ATOM     11  O   UNL     1      50.853  58.971   2.102  1.00  0.00    -0.294 OA
ENDROOT
BRANCH   2  12
ATOM     12  C   UNL     1      52.620  59.225   6.610  1.00  0.00    -0.007 A 
ATOM     13  C   UNL     1      52.434  60.553   7.038  1.00  0.00     0.011 A 
ATOM     14  C   UNL     1      53.728  58.503   7.085  1.00  0.00     0.011 A 
ATOM     15  C   UNL     1      53.327  61.135   7.942  1.00  0.00     0.046 A 
ATOM     16  C   UNL     1      54.619  59.088   7.990  1.00  0.00     0.046 A 
ATOM     17  C   UNL     1      54.418  60.406   8.422  1.00  0.00     0.115 A 
BRANCH  17  18
ATOM     18  O   UNL     1      55.299  60.999   9.324  1.00  0.00    -0.508 OA
ATOM     19  H   UNL     1      55.347  62.006   9.433  1.00  0.00     0.293 HD
ENDBRANCH  17  18
ENDBRANCH   2  12
BRANCH   8  20
ATOM     20  O   UNL     1      48.291  57.844   1.710  1.00  0.00    -0.507 OA
ATOM     21  H   UNL     1      47.914  57.065   1.194  1.00  0.00     0.293 HD
ENDBRANCH   8  20
BRANCH   6  22
ATOM     22  O   UNL     1      45.681  57.423   5.707  1.00  0.00    -0.508 OA
ATOM     23  H   UNL     1      45.189  56.561   5.503  1.00  0.00     0.293 HD
ENDBRANCH   6  22
TORSDOF 4
ENDMDL
MODEL 7
REMARK VINA RESULT:    -7.157      5.567      8.496
REMARK INTER + INTRA:          -8.512
REMARK INTER:                  -8.200
REMARK INTRA:                  -0.312
REMARK UNBOUND:                -0.308
REMARK SMILES O=C1C[C@@H](c2ccc(O)cc2)Oc2cc(O)cc(O)c21
REMARK SMILES IDX 3 1 4 2 12 3 13 4 14 5 15 6 17 7 18 8 20 9 2 10 1 11 5 12
REMARK SMILES IDX 6 13 11 14 7 15 10 16 8 17 9 18 19 20 16 22
REMARK H PARENT 9 19 19 21 16 23
REMARK Flexibility Score: inf
ROOT
ATOM      1  C   UNL     1      44.478  61.300   3.762  1.00  0.00     0.131 C 
ATOM      2  C   UNL     1      45.538  62.380   3.519  1.00  0.00     0.211 C 
ATOM      3  O   UNL     1      46.449  62.430   4.616  1.00  0.00    -0.484 OA
ATOM      4  C   UNL     1      46.991  61.268   5.177  1.00  0.00     0.138 A 
ATOM      5  C   UNL     1      48.101  61.379   6.016  1.00  0.00     0.093 A 
ATOM      6  C   UNL     1      48.681  60.237   6.571  1.00  0.00     0.123 A 
ATOM      7  C   UNL     1      48.158  58.979   6.271  1.00  0.00     0.093 A 
ATOM      8  C   UNL     1      47.049  58.842   5.426  1.00  0.00     0.133 A 
ATOM      9  C   UNL     1      46.416  60.005   4.905  1.00  0.00     0.102 A 
ATOM     10  C   UNL     1      45.128  60.000   4.149  1.00  0.00     0.174 C 
ATOM     11  O   UNL     1      44.502  58.933   3.917  1.00  0.00    -0.294 OA
ENDROOT
BRANCH   2  12
ATOM     12  C   UNL     1      44.893  63.729   3.319  1.00  0.00    -0.007 A 
ATOM     13  C   UNL     1      43.668  63.843   2.636  1.00  0.00     0.011 A 
ATOM     14  C   UNL     1      45.538  64.895   3.765  1.00  0.00     0.011 A 
ATOM     15  C   UNL     1      43.090  65.099   2.426  1.00  0.00     0.046 A 
ATOM     16  C   UNL     1      44.957  66.150   3.554  1.00  0.00     0.046 A 
ATOM     17  C   UNL     1      43.730  66.253   2.886  1.00  0.00     0.115 A 
BRANCH  17  18
ATOM     18  O   UNL     1      43.142  67.498   2.670  1.00  0.00    -0.508 OA
ATOM     19  H   UNL     1      43.491  68.133   1.961  1.00  0.00     0.293 HD
ENDBRANCH  17  18
ENDBRANCH   2  12
BRANCH   8  20
ATOM     20  O   UNL     1      46.637  57.538   5.133  1.00  0.00    -0.507 OA
ATOM     21  H   UNL     1      47.018  56.709   5.561  1.00  0.00     0.293 HD
ENDBRANCH   8  20
BRANCH   6  22
ATOM     22  O   UNL     1      49.787  60.339   7.413  1.00  0.00    -0.508 OA
ATOM     23  H   UNL     1      50.729  60.187   7.070  1.00  0.00     0.293 HD
ENDBRANCH   6  22
TORSDOF 4
ENDMDL
MODEL 8
REMARK VINA RESULT:    -7.077      2.660      3.334
REMARK INTER + INTRA:          -8.419
REMARK INTER:                  -8.110
REMARK INTRA:                  -0.310
REMARK UNBOUND:                -0.308
REMARK SMILES O=C1C[C@@H](c2ccc(O)cc2)Oc2cc(O)cc(O)c21
REMARK SMILES IDX 3 1 4 2 12 3 13 4 14 5 15 6 17 7 18 8 20 9 2 10 1 11 5 12
REMARK SMILES IDX 6 13 11 14 7 15 10 16 8 17 9 18 19 20 16 22
REMARK H PARENT 9 19 19 21 16 23
REMARK Flexibility Score: inf
ROOT
ATOM      1  C   UNL     1      50.229  58.510   6.080  1.00  0.00     0.131 C 
ATOM      2  C   UNL     1      50.269  59.558   7.199  1.00  0.00     0.211 C 
ATOM      3  O   UNL     1      49.728  60.793   6.733  1.00  0.00    -0.484 OA
ATOM      4  C   UNL     1      48.540  60.846   5.996  1.00  0.00     0.138 A 
ATOM      5  C   UNL     1      47.894  62.074   5.845  1.00  0.00     0.093 A 
ATOM      6  C   UNL     1      46.694  62.156   5.137  1.00  0.00     0.123 A 
ATOM      7  C   UNL     1      46.130  61.002   4.594  1.00  0.00     0.093 A 
ATOM      8  C   UNL     1      46.756  59.757   4.737  1.00  0.00     0.133 A 
ATOM      9  C   UNL     1      48.010  59.675   5.406  1.00  0.00     0.102 A 
ATOM     10  C   UNL     1      48.858  58.448   5.464  1.00  0.00     0.174 C 
ATOM     11  O   UNL     1      48.508  57.374   4.909  1.00  0.00    -0.294 OA
ENDROOT
BRANCH   2  12
ATOM     12  C   UNL     1      51.681  59.762   7.691  1.00  0.00    -0.007 A 
ATOM     13  C   UNL     1      52.033  60.928   8.396  1.00  0.00     0.011 A 
ATOM     14  C   UNL     1      52.675  58.812   7.402  1.00  0.00     0.011 A 
ATOM     15  C   UNL     1      53.349  61.125   8.822  1.00  0.00     0.046 A 
ATOM     16  C   UNL     1      53.991  59.012   7.831  1.00  0.00     0.046 A 
ATOM     17  C   UNL     1      54.330  60.169   8.544  1.00  0.00     0.115 A 
BRANCH  17  18
ATOM     18  O   UNL     1      55.638  60.380   8.975  1.00  0.00    -0.508 OA
ATOM     19  H   UNL     1      55.964  60.025   9.867  1.00  0.00     0.293 HD
ENDBRANCH  17  18
ENDBRANCH   2  12
BRANCH   8  20
ATOM     20  O   UNL     1      46.083  58.649   4.214  1.00  0.00    -0.507 OA
ATOM     21  H   UNL     1      45.207  58.694   3.718  1.00  0.00     0.293 HD
ENDBRANCH   8  20
BRANCH   6  22
ATOM     22  O   UNL     1      46.044  63.379   4.978  1.00  0.00    -0.508 OA
ATOM     23  H   UNL     1      46.074  64.091   5.699  1.00  0.00     0.293 HD
ENDBRANCH   6  22
TORSDOF 4
ENDMDL
MODEL 9
REMARK VINA RESULT:    -7.025      7.507      8.703
REMARK INTER + INTRA:          -8.359
REMARK INTER:                  -8.058
REMARK INTRA:                  -0.301
REMARK UNBOUND:                -0.308
REMARK SMILES O=C1C[C@@H](c2ccc(O)cc2)Oc2cc(O)cc(O)c21
REMARK SMILES IDX 3 1 4 2 12 3 13 4 14 5 15 6 17 7 18 8 20 9 2 10 1 11 5 12
REMARK SMILES IDX 6 13 11 14 7 15 10 16 8 17 9 18 19 20 16 22
REMARK H PARENT 9 19 19 21 16 23
REMARK Flexibility Score: inf
ROOT
ATOM      1  C   UNL     1      52.879  62.076   0.428  1.00  0.00     0.131 C 
ATOM      2  C   UNL     1      51.904  61.637  -0.671  1.00  0.00     0.211 C 
ATOM      3  O   UNL     1      50.560  61.734  -0.201  1.00  0.00    -0.484 OA
ATOM      4  C   UNL     1      50.104  62.856   0.500  1.00  0.00     0.138 A 
ATOM      5  C   UNL     1      48.728  63.042   0.651  1.00  0.00     0.093 A 
ATOM      6  C   UNL     1      48.239  64.164   1.322  1.00  0.00     0.123 A 
ATOM      7  C   UNL     1      49.130  65.110   1.829  1.00  0.00     0.093 A 
ATOM      8  C   UNL     1      50.514  64.949   1.683  1.00  0.00     0.133 A 
ATOM      9  C   UNL     1      51.022  63.778   1.053  1.00  0.00     0.102 A 
ATOM     10  C   UNL     1      52.466  63.405   1.001  1.00  0.00     0.174 C 
ATOM     11  O   UNL     1      53.355  64.124   1.526  1.00  0.00    -0.294 OA
ENDROOT
BRANCH   2  12
ATOM     12  C   UNL     1      52.198  60.226  -1.115  1.00  0.00    -0.007 A 
ATOM     13  C   UNL     1      51.338  59.562  -2.009  1.00  0.00     0.011 A 
ATOM     14  C   UNL     1      53.308  59.538  -0.596  1.00  0.00     0.011 A 
ATOM     15  C   UNL     1      51.600  58.243  -2.393  1.00  0.00     0.046 A 
ATOM     16  C   UNL     1      53.567  58.219  -0.983  1.00  0.00     0.046 A 
ATOM     17  C   UNL     1      52.714  57.570  -1.884  1.00  0.00     0.115 A 
BRANCH  17  18
ATOM     18  O   UNL     1      52.962  56.256  -2.276  1.00  0.00    -0.508 OA
ATOM     19  H   UNL     1      52.229  55.556  -2.276  1.00  0.00     0.293 HD
ENDBRANCH  17  18
ENDBRANCH   2  12
BRANCH   8  20
ATOM     20  O   UNL     1      51.324  65.981   2.166  1.00  0.00    -0.507 OA
ATOM     21  H   UNL     1      51.142  66.503   3.009  1.00  0.00     0.293 HD
ENDBRANCH   8  20
BRANCH   6  22
ATOM     22  O   UNL     1      46.868  64.356   1.481  1.00  0.00    -0.508 OA
ATOM     23  H   UNL     1      46.193  63.810   0.958  1.00  0.00     0.293 HD
ENDBRANCH   6  22
TORSDOF 4
ENDMDL
