MODEL 1
REMARK VINA RESULT:    -4.478      0.000      0.000
REMARK INTER + INTRA:          -6.553
REMARK INTER:                  -6.049
REMARK INTRA:                  -0.505
REMARK UNBOUND:                -0.505
REMARK SMILES O=C[C@H](O)[C@@H](O)[C@@H](O)CO
REMARK SMILES IDX 7 1 9 2 10 3 5 5 3 6 2 7 1 8 4 9 6 11 8 13
REMARK H PARENT 10 4 4 10 6 12 8 14
REMARK Flexibility Score: inf
ROOT
ATOM      1  C   UNL     1      -1.451  -3.128  -5.747  1.00  0.00     0.171 C 
ENDROOT
BRANCH   1   2
ATOM      2  C   UNL     1      -1.445  -2.883  -7.272  1.00  0.00     0.190 C 
BRANCH   2   3
ATOM      3  O   UNL     1      -1.563  -1.515  -7.558  1.00  0.00    -0.394 OA
ATOM      4  H   UNL     1      -0.702  -1.093  -7.302  1.00  0.00     0.210 HD
ENDBRANCH   2   3
ENDBRANCH   1   2
BRANCH   1   5
ATOM      5  C   UNL     1      -2.856  -3.413  -5.147  1.00  0.00     0.181 C 
BRANCH   5   6
ATOM      6  C   UNL     1      -3.019  -2.990  -3.663  1.00  0.00     0.209 C 
BRANCH   6   7
ATOM      7  C   UNL     1      -2.925  -4.179  -2.740  1.00  0.00     0.258 C 
ATOM      8  O   UNL     1      -2.132  -5.076  -2.975  1.00  0.00    -0.300 OA
ENDBRANCH   6   7
BRANCH   6   9
ATOM      9  O   UNL     1      -4.227  -2.304  -3.445  1.00  0.00    -0.383 OA
ATOM     10  H   UNL     1      -4.887  -2.955  -3.089  1.00  0.00     0.211 HD
ENDBRANCH   6   9
ENDBRANCH   5   6
BRANCH   5  11
ATOM     11  O   UNL     1      -3.836  -2.772  -5.926  1.00  0.00    -0.387 OA
ATOM     12  H   UNL     1      -4.112  -3.415  -6.633  1.00  0.00     0.211 HD
ENDBRANCH   5  11
ENDBRANCH   1   5
BRANCH   1  13
ATOM     13  O   UNL     1      -0.530  -4.128  -5.383  1.00  0.00    -0.388 OA
ATOM     14  H   UNL     1       0.235  -4.093  -6.014  1.00  0.00     0.211 HD
ENDBRANCH   1  13
TORSDOF 8
ENDMDL
MODEL 2
REMARK VINA RESULT:    -4.065      1.490      2.403
REMARK INTER + INTRA:          -5.996
REMARK INTER:                  -5.287
REMARK INTRA:                  -0.709
REMARK UNBOUND:                -0.505
REMARK SMILES O=C[C@H](O)[C@@H](O)[C@@H](O)CO
REMARK SMILES IDX 7 1 9 2 10 3 5 5 3 6 2 7 1 8 4 9 6 11 8 13
REMARK H PARENT 10 4 4 10 6 12 8 14
REMARK Flexibility Score: inf
ROOT
ATOM      1  C   UNL     1      -1.276  -2.710  -7.047  1.00  0.00     0.171 C 
ENDROOT
BRANCH   1   2
ATOM      2  C   UNL     1      -0.838  -2.523  -8.516  1.00  0.00     0.190 C 
BRANCH   2   3
ATOM      3  O   UNL     1      -1.890  -2.014  -9.291  1.00  0.00    -0.394 OA
ATOM      4  H   UNL     1      -1.495  -1.710 -10.150  1.00  0.00     0.210 HD
ENDBRANCH   2   3
ENDBRANCH   1   2
BRANCH   1   5
ATOM      5  C   UNL     1      -2.182  -3.950  -6.800  1.00  0.00     0.181 C 
BRANCH   5   6
ATOM      6  C   UNL     1      -2.593  -4.159  -5.319  1.00  0.00     0.209 C 
BRANCH   6   7
ATOM      7  C   UNL     1      -3.317  -2.954  -4.774  1.00  0.00     0.258 C 
ATOM      8  O   UNL     1      -4.350  -2.571  -5.300  1.00  0.00    -0.300 OA
ENDBRANCH   6   7
BRANCH   6   9
ATOM      9  O   UNL     1      -1.485  -4.464  -4.507  1.00  0.00    -0.383 OA
ATOM     10  H   UNL     1      -0.801  -4.900  -5.078  1.00  0.00     0.211 HD
ENDBRANCH   6   9
ENDBRANCH   5   6
BRANCH   5  11
ATOM     11  O   UNL     1      -3.337  -3.851  -7.597  1.00  0.00    -0.387 OA
ATOM     12  H   UNL     1      -4.062  -4.333  -7.118  1.00  0.00     0.211 HD
ENDBRANCH   5  11
ENDBRANCH   1   5
BRANCH   1  13
ATOM     13  O   UNL     1      -0.172  -2.705  -6.176  1.00  0.00    -0.388 OA
ATOM     14  H   UNL     1      -0.162  -3.564  -5.679  1.00  0.00     0.211 HD
ENDBRANCH   1  13
TORSDOF 8
ENDMDL
MODEL 3
REMARK VINA RESULT:    -3.937      2.532      3.430
REMARK INTER + INTRA:          -5.823
REMARK INTER:                  -4.944
REMARK INTRA:                  -0.879
REMARK UNBOUND:                -0.505
REMARK SMILES O=C[C@H](O)[C@@H](O)[C@@H](O)CO
REMARK SMILES IDX 7 1 9 2 10 3 5 5 3 6 2 7 1 8 4 9 6 11 8 13
REMARK H PARENT 10 4 4 10 6 12 8 14
REMARK Flexibility Score: inf
ROOT
ATOM      1  C   UNL     1      -1.196  -2.827  -7.144  1.00  0.00     0.171 C 
ENDROOT
BRANCH   1   2
ATOM      2  C   UNL     1      -0.817  -2.425  -8.586  1.00  0.00     0.190 C 
BRANCH   2   3
ATOM      3  O   UNL     1      -1.965  -2.191  -9.358  1.00  0.00    -0.394 OA
ATOM      4  H   UNL     1      -2.158  -1.220  -9.299  1.00  0.00     0.210 HD
ENDBRANCH   2   3
ENDBRANCH   1   2
BRANCH   1   5
ATOM      5  C   UNL     1      -1.776  -4.263  -7.009  1.00  0.00     0.181 C 
BRANCH   5   6
ATOM      6  C   UNL     1      -3.282  -4.315  -6.637  1.00  0.00     0.209 C 
BRANCH   6   7
ATOM      7  C   UNL     1      -4.115  -4.812  -7.793  1.00  0.00     0.258 C 
ATOM      8  O   UNL     1      -4.119  -4.203  -8.850  1.00  0.00    -0.300 OA
ENDBRANCH   6   7
BRANCH   6   9
ATOM      9  O   UNL     1      -3.756  -3.065  -6.203  1.00  0.00    -0.383 OA
ATOM     10  H   UNL     1      -4.293  -3.212  -5.381  1.00  0.00     0.211 HD
ENDBRANCH   6   9
ENDBRANCH   5   6
BRANCH   5  11
ATOM     11  O   UNL     1      -1.566  -4.967  -8.209  1.00  0.00    -0.387 OA
ATOM     12  H   UNL     1      -0.735  -4.605  -8.617  1.00  0.00     0.211 HD
ENDBRANCH   5  11
ENDBRANCH   1   5
BRANCH   1  13
ATOM     13  O   UNL     1      -0.125  -2.626  -6.255  1.00  0.00    -0.388 OA
ATOM     14  H   UNL     1       0.077  -1.654  -6.224  1.00  0.00     0.211 HD
ENDBRANCH   1  13
TORSDOF 8
ENDMDL
MODEL 4
REMARK VINA RESULT:    -3.914      1.190      4.012
REMARK INTER + INTRA:          -5.791
REMARK INTER:                  -5.102
REMARK INTRA:                  -0.689
REMARK UNBOUND:                -0.505
REMARK SMILES O=C[C@H](O)[C@@H](O)[C@@H](O)CO
REMARK SMILES IDX 7 1 9 2 10 3 5 5 3 6 2 7 1 8 4 9 6 11 8 13
REMARK H PARENT 10 4 4 10 6 12 8 14
REMARK Flexibility Score: inf
ROOT
ATOM      1  C   UNL     1      -2.646  -4.040  -4.425  1.00  0.00     0.171 C 
ENDROOT
BRANCH   1   2
ATOM      2  C   UNL     1      -3.123  -3.261  -3.180  1.00  0.00     0.190 C 
BRANCH   2   3
ATOM      3  O   UNL     1      -4.124  -2.339  -3.520  1.00  0.00    -0.394 OA
ATOM      4  H   UNL     1      -3.666  -1.540  -3.890  1.00  0.00     0.210 HD
ENDBRANCH   2   3
ENDBRANCH   1   2
BRANCH   1   5
ATOM      5  C   UNL     1      -2.581  -3.193  -5.727  1.00  0.00     0.181 C 
BRANCH   5   6
ATOM      6  C   UNL     1      -1.482  -3.637  -6.729  1.00  0.00     0.209 C 
BRANCH   6   7
ATOM      7  C   UNL     1      -1.340  -2.650  -7.860  1.00  0.00     0.258 C 
ATOM      8  O   UNL     1      -2.147  -2.649  -8.776  1.00  0.00    -0.300 OA
ENDBRANCH   6   7
BRANCH   6   9
ATOM      9  O   UNL     1      -1.730  -4.924  -7.239  1.00  0.00    -0.383 OA
ATOM     10  H   UNL     1      -1.059  -5.104  -7.948  1.00  0.00     0.211 HD
ENDBRANCH   6   9
ENDBRANCH   5   6
BRANCH   5  11
ATOM     11  O   UNL     1      -3.834  -3.220  -6.365  1.00  0.00    -0.387 OA
ATOM     12  H   UNL     1      -3.857  -2.451  -6.995  1.00  0.00     0.211 HD
ENDBRANCH   5  11
ENDBRANCH   1   5
BRANCH   1  13
ATOM     13  O   UNL     1      -1.425  -4.697  -4.185  1.00  0.00    -0.388 OA
ATOM     14  H   UNL     1      -1.210  -4.613  -3.220  1.00  0.00     0.211 HD
ENDBRANCH   1  13
TORSDOF 8
ENDMDL
MODEL 5
REMARK VINA RESULT:    -3.861      2.601      3.803
REMARK INTER + INTRA:          -5.720
REMARK INTER:                  -5.310
REMARK INTRA:                  -0.410
REMARK UNBOUND:                -0.505
REMARK SMILES O=C[C@H](O)[C@@H](O)[C@@H](O)CO
REMARK SMILES IDX 7 1 9 2 10 3 5 5 3 6 2 7 1 8 4 9 6 11 8 13
REMARK H PARENT 10 4 4 10 6 12 8 14
REMARK Flexibility Score: inf
ROOT
ATOM      1  C   UNL     1      -1.091  -2.737  -7.390  1.00  0.00     0.171 C 
ENDROOT
BRANCH   1   2
ATOM      2  C   UNL     1      -0.631  -3.082  -5.957  1.00  0.00     0.190 C 
BRANCH   2   3
ATOM      3  O   UNL     1       0.704  -2.700  -5.755  1.00  0.00    -0.394 OA
ATOM      4  H   UNL     1       0.736  -2.214  -4.890  1.00  0.00     0.210 HD
ENDBRANCH   2   3
ENDBRANCH   1   2
BRANCH   1   5
ATOM      5  C   UNL     1      -1.967  -3.829  -8.065  1.00  0.00     0.181 C 
BRANCH   5   6
ATOM      6  C   UNL     1      -3.082  -4.410  -7.155  1.00  0.00     0.209 C 
BRANCH   6   7
ATOM      7  C   UNL     1      -3.989  -5.338  -7.924  1.00  0.00     0.258 C 
ATOM      8  O   UNL     1      -4.832  -4.882  -8.680  1.00  0.00    -0.300 OA
ENDBRANCH   6   7
BRANCH   6   9
ATOM      9  O   UNL     1      -3.838  -3.395  -6.542  1.00  0.00    -0.383 OA
ATOM     10  H   UNL     1      -4.288  -3.788  -5.748  1.00  0.00     0.211 HD
ENDBRANCH   6   9
ENDBRANCH   5   6
BRANCH   5  11
ATOM     11  O   UNL     1      -2.544  -3.308  -9.237  1.00  0.00    -0.387 OA
ATOM     12  H   UNL     1      -2.230  -2.369  -9.324  1.00  0.00     0.211 HD
ENDBRANCH   5  11
ENDBRANCH   1   5
BRANCH   1  13
ATOM     13  O   UNL     1      -1.719  -1.478  -7.439  1.00  0.00    -0.388 OA
ATOM     14  H   UNL     1      -2.192  -1.331  -6.579  1.00  0.00     0.211 HD
ENDBRANCH   1  13
TORSDOF 8
ENDMDL
MODEL 6
REMARK VINA RESULT:    -3.842      2.082      3.675
REMARK INTER + INTRA:          -5.695
REMARK INTER:                  -5.204
REMARK INTRA:                  -0.490
REMARK UNBOUND:                -0.505
REMARK SMILES O=C[C@H](O)[C@@H](O)[C@@H](O)CO
REMARK SMILES IDX 7 1 9 2 10 3 5 5 3 6 2 7 1 8 4 9 6 11 8 13
REMARK H PARENT 10 4 4 10 6 12 8 14
REMARK Flexibility Score: inf
ROOT
ATOM      1  C   UNL     1      -0.523  -3.029  -9.155  1.00  0.00     0.171 C 
ENDROOT
BRANCH   1   2
ATOM      2  C   UNL     1      -0.528  -2.011 -10.316  1.00  0.00     0.190 C 
BRANCH   2   3
ATOM      3  O   UNL     1      -1.839  -1.630 -10.641  1.00  0.00    -0.394 OA
ATOM      4  H   UNL     1      -1.769  -0.830 -11.224  1.00  0.00     0.210 HD
ENDBRANCH   2   3
ENDBRANCH   1   2
BRANCH   1   5
ATOM      5  C   UNL     1      -1.459  -2.657  -7.971  1.00  0.00     0.181 C 
BRANCH   5   6
ATOM      6  C   UNL     1      -1.151  -3.409  -6.648  1.00  0.00     0.209 C 
BRANCH   6   7
ATOM      7  C   UNL     1      -2.371  -3.484  -5.764  1.00  0.00     0.258 C 
ATOM      8  O   UNL     1      -3.361  -2.821  -6.029  1.00  0.00    -0.300 OA
ENDBRANCH   6   7
BRANCH   6   9
ATOM      9  O   UNL     1      -0.083  -2.820  -5.949  1.00  0.00    -0.383 OA
ATOM     10  H   UNL     1       0.378  -3.536  -5.439  1.00  0.00     0.211 HD
ENDBRANCH   6   9
ENDBRANCH   5   6
BRANCH   5  11
ATOM     11  O   UNL     1      -1.399  -1.270  -7.745  1.00  0.00    -0.387 OA
ATOM     12  H   UNL     1      -2.107  -1.052  -7.082  1.00  0.00     0.211 HD
ENDBRANCH   5  11
ENDBRANCH   1   5
BRANCH   1  13
ATOM     13  O   UNL     1      -0.776  -4.334  -9.613  1.00  0.00    -0.388 OA
ATOM     14  H   UNL     1      -0.046  -4.925  -9.294  1.00  0.00     0.211 HD
ENDBRANCH   1  13
TORSDOF 8
ENDMDL
MODEL 7
REMARK VINA RESULT:    -3.810      1.547      2.402
REMARK INTER + INTRA:          -5.651
REMARK INTER:                  -4.888
REMARK INTRA:                  -0.763
REMARK UNBOUND:                -0.505
REMARK SMILES O=C[C@H](O)[C@@H](O)[C@@H](O)CO
REMARK SMILES IDX 7 1 9 2 10 3 5 5 3 6 2 7 1 8 4 9 6 11 8 13
REMARK H PARENT 10 4 4 10 6 12 8 14
REMARK Flexibility Score: inf
ROOT
ATOM      1  C   UNL     1      -2.446  -3.847  -7.575  1.00  0.00     0.171 C 
ENDROOT
BRANCH   1   2
ATOM      2  C   UNL     1      -1.947  -3.543  -9.005  1.00  0.00     0.190 C 
BRANCH   2   3
ATOM      3  O   UNL     1      -1.905  -2.160  -9.236  1.00  0.00    -0.394 OA
ATOM      4  H   UNL     1      -1.009  -1.847  -8.944  1.00  0.00     0.210 HD
ENDBRANCH   2   3
ENDBRANCH   1   2
BRANCH   1   5
ATOM      5  C   UNL     1      -1.935  -2.857  -6.492  1.00  0.00     0.181 C 
BRANCH   5   6
ATOM      6  C   UNL     1      -2.279  -3.265  -5.035  1.00  0.00     0.209 C 
BRANCH   6   7
ATOM      7  C   UNL     1      -1.829  -4.674  -4.739  1.00  0.00     0.258 C 
ATOM      8  O   UNL     1      -0.639  -4.935  -4.673  1.00  0.00    -0.300 OA
ENDBRANCH   6   7
BRANCH   6   9
ATOM      9  O   UNL     1      -3.653  -3.131  -4.766  1.00  0.00    -0.383 OA
ATOM     10  H   UNL     1      -3.799  -2.233  -4.367  1.00  0.00     0.211 HD
ENDBRANCH   6   9
ENDBRANCH   5   6
BRANCH   5  11
ATOM     11  O   UNL     1      -0.543  -2.703  -6.618  1.00  0.00    -0.387 OA
ATOM     12  H   UNL     1      -0.389  -1.943  -7.241  1.00  0.00     0.211 HD
ENDBRANCH   5  11
ENDBRANCH   1   5
BRANCH   1  13
ATOM     13  O   UNL     1      -3.847  -3.967  -7.535  1.00  0.00    -0.388 OA
ATOM     14  H   UNL     1      -4.150  -4.383  -8.383  1.00  0.00     0.211 HD
ENDBRANCH   1  13
TORSDOF 8
ENDMDL
MODEL 8
REMARK VINA RESULT:    -3.738      1.245      1.854
REMARK INTER + INTRA:          -5.553
REMARK INTER:                  -5.076
REMARK INTRA:                  -0.477
REMARK UNBOUND:                -0.505
REMARK SMILES O=C[C@H](O)[C@@H](O)[C@@H](O)CO
REMARK SMILES IDX 7 1 9 2 10 3 5 5 3 6 2 7 1 8 4 9 6 11 8 13
REMARK H PARENT 10 4 4 10 6 12 8 14
REMARK Flexibility Score: inf
ROOT
ATOM      1  C   UNL     1      -1.748  -3.828  -7.197  1.00  0.00     0.171 C 
ENDROOT
BRANCH   1   2
ATOM      2  C   UNL     1      -0.789  -2.646  -7.460  1.00  0.00     0.190 C 
BRANCH   2   3
ATOM      3  O   UNL     1      -1.505  -1.465  -7.705  1.00  0.00    -0.394 OA
ATOM      4  H   UNL     1      -0.933  -0.896  -8.282  1.00  0.00     0.210 HD
ENDBRANCH   2   3
ENDBRANCH   1   2
BRANCH   1   5
ATOM      5  C   UNL     1      -2.011  -4.118  -5.693  1.00  0.00     0.181 C 
BRANCH   5   6
ATOM      6  C   UNL     1      -2.894  -3.060  -4.979  1.00  0.00     0.209 C 
BRANCH   6   7
ATOM      7  C   UNL     1      -3.074  -3.391  -3.518  1.00  0.00     0.258 C 
ATOM      8  O   UNL     1      -2.470  -4.329  -3.024  1.00  0.00    -0.300 OA
ENDBRANCH   6   7
BRANCH   6   9
ATOM      9  O   UNL     1      -4.148  -2.921  -5.600  1.00  0.00    -0.383 OA
ATOM     10  H   UNL     1      -4.020  -2.386  -6.427  1.00  0.00     0.211 HD
ENDBRANCH   6   9
ENDBRANCH   5   6
BRANCH   5  11
ATOM     11  O   UNL     1      -2.602  -5.387  -5.557  1.00  0.00    -0.387 OA
ATOM     12  H   UNL     1      -1.978  -6.044  -5.968  1.00  0.00     0.211 HD
ENDBRANCH   5  11
ENDBRANCH   1   5
BRANCH   1  13
ATOM     13  O   UNL     1      -2.955  -3.678  -7.905  1.00  0.00    -0.388 OA
ATOM     14  H   UNL     1      -2.874  -2.886  -8.496  1.00  0.00     0.211 HD
ENDBRANCH   1  13
TORSDOF 8
ENDMDL
MODEL 9
REMARK VINA RESULT:    -3.675      1.882      4.872
REMARK INTER + INTRA:          -5.468
REMARK INTER:                  -4.995
REMARK INTRA:                  -0.473
REMARK UNBOUND:                -0.505
REMARK SMILES O=C[C@H](O)[C@@H](O)[C@@H](O)CO
REMARK SMILES IDX 7 1 9 2 10 3 5 5 3 6 2 7 1 8 4 9 6 11 8 13
REMARK H PARENT 10 4 4 10 6 12 8 14
REMARK Flexibility Score: inf
ROOT
ATOM      1  C   UNL     1      -1.980  -3.248  -6.146  1.00  0.00     0.171 C 
ENDROOT
BRANCH   1   2
ATOM      2  C   UNL     1      -1.703  -4.712  -5.738  1.00  0.00     0.190 C 
BRANCH   2   3
ATOM      3  O   UNL     1      -0.759  -4.772  -4.702  1.00  0.00    -0.394 OA
ATOM      4  H   UNL     1      -0.365  -3.865  -4.619  1.00  0.00     0.210 HD
ENDBRANCH   2   3
ENDBRANCH   1   2
BRANCH   1   5
ATOM      5  C   UNL     1      -1.275  -2.804  -7.458  1.00  0.00     0.181 C 
BRANCH   5   6
ATOM      6  C   UNL     1      -1.703  -3.601  -8.719  1.00  0.00     0.209 C 
BRANCH   6   7
ATOM      7  C   UNL     1      -1.171  -2.962  -9.978  1.00  0.00     0.258 C 
ATOM      8  O   UNL     1      -1.855  -2.162 -10.594  1.00  0.00    -0.300 OA
ENDBRANCH   6   7
BRANCH   6   9
ATOM      9  O   UNL     1      -3.100  -3.738  -8.801  1.00  0.00    -0.383 OA
ATOM     10  H   UNL     1      -3.442  -3.018  -9.393  1.00  0.00     0.211 HD
ENDBRANCH   6   9
ENDBRANCH   5   6
BRANCH   5  11
ATOM     11  O   UNL     1      -1.505  -1.433  -7.671  1.00  0.00    -0.387 OA
ATOM     12  H   UNL     1      -1.075  -1.196  -8.535  1.00  0.00     0.211 HD
ENDBRANCH   5  11
ENDBRANCH   1   5
BRANCH   1  13
ATOM     13  O   UNL     1      -3.360  -2.980  -6.194  1.00  0.00    -0.388 OA
ATOM     14  H   UNL     1      -3.631  -2.580  -5.327  1.00  0.00     0.211 HD
ENDBRANCH   1  13
TORSDOF 8
ENDMDL
