MODEL 1
REMARK VINA RESULT:    -4.539      0.000      0.000
REMARK INTER + INTRA:         -10.525
REMARK INTER:                  -8.785
REMARK INTRA:                  -1.740
REMARK UNBOUND:                -1.740
REMARK SMILES CCCCCC=CCC=CCCCCCCCCOC(C)=O
REMARK SMILES IDX 12 1 11 2 10 3 9 4 8 5 7 6 6 7 5 8 4 9 3 10 2 11 1 12 13 13
REMARK SMILES IDX 14 14 15 15 16 16 17 17 18 18 19 19 20 20 22 21 21 22
REMARK H PARENT
REMARK Flexibility Score: inf
ROOT
ATOM      1  C   UNL     1       3.858 -16.027  32.747  1.00  0.00     0.004 C 
ENDROOT
BRANCH   1   2
ATOM      2  C   UNL     1       2.380 -16.439  32.701  1.00  0.00     0.027 C 
BRANCH   2   3
ATOM      3  C   UNL     1       1.620 -15.800  33.837  1.00  0.00    -0.031 C 
ATOM      4  C   UNL     1       0.324 -16.032  34.123  1.00  0.00    -0.027 C 
BRANCH   4   5
ATOM      5  C   UNL     1      -0.553 -17.004  33.379  1.00  0.00     0.054 C 
BRANCH   5   6
ATOM      6  C   UNL     1      -0.490 -18.375  33.994  1.00  0.00    -0.027 C 
ATOM      7  C   UNL     1      -0.144 -19.443  33.264  1.00  0.00    -0.031 C 
BRANCH   7   8
ATOM      8  C   UNL     1      -0.095 -20.824  33.862  1.00  0.00     0.027 C 
BRANCH   8   9
ATOM      9  C   UNL     1       0.928 -21.728  33.160  1.00  0.00     0.004 C 
BRANCH   9  10
ATOM     10  C   UNL     1       1.942 -20.918  32.335  1.00  0.00     0.000 C 
BRANCH  10  11
ATOM     11  C   UNL     1       2.774 -21.801  31.394  1.00  0.00    -0.003 C 
ATOM     12  C   UNL     1       3.207 -21.072  30.122  1.00  0.00     0.004 C 
ENDBRANCH  10  11
ENDBRANCH   9  10
ENDBRANCH   8   9
ENDBRANCH   7   8
ENDBRANCH   5   6
ENDBRANCH   4   5
ENDBRANCH   2   3
ENDBRANCH   1   2
BRANCH   1  13
ATOM     13  C   UNL     1       4.529 -16.074  31.366  1.00  0.00     0.000 C 
BRANCH  13  14
ATOM     14  C   UNL     1       3.550 -16.453  30.242  1.00  0.00     0.000 C 
BRANCH  14  15
ATOM     15  C   UNL     1       3.358 -15.305  29.227  1.00  0.00     0.000 C 
BRANCH  15  16
ATOM     16  C   UNL     1       1.924 -15.207  28.681  1.00  0.00     0.003 C 
BRANCH  16  17
ATOM     17  C   UNL     1       0.865 -15.145  29.790  1.00  0.00     0.042 C 
BRANCH  17  18
ATOM     18  C   UNL     1      -0.305 -16.084  29.486  1.00  0.00     0.233 C 
BRANCH  18  19
ATOM     19  O   UNL     1      -1.422 -15.345  28.997  1.00  0.00    -0.466 OA
BRANCH  19  20
ATOM     20  C   UNL     1      -2.399 -14.786  29.829  1.00  0.00     0.302 C 
ATOM     21  O   UNL     1      -3.124 -15.517  30.557  1.00  0.00    -0.253 OA
ATOM     22  C   UNL     1      -2.564 -13.306  29.877  1.00  0.00     0.139 C 
ENDBRANCH  19  20
ENDBRANCH  18  19
ENDBRANCH  17  18
ENDBRANCH  16  17
ENDBRANCH  15  16
ENDBRANCH  14  15
ENDBRANCH  13  14
ENDBRANCH   1  13
TORSDOF 16
ENDMDL
MODEL 2
REMARK VINA RESULT:    -4.383     12.562     15.449
REMARK INTER + INTRA:         -10.222
REMARK INTER:                  -7.186
REMARK INTRA:                  -3.035
REMARK UNBOUND:                -1.740
REMARK SMILES CCCCCC=CCC=CCCCCCCCCOC(C)=O
REMARK SMILES IDX 12 1 11 2 10 3 9 4 8 5 7 6 6 7 5 8 4 9 3 10 2 11 1 12 13 13
REMARK SMILES IDX 14 14 15 15 16 16 17 17 18 18 19 19 20 20 22 21 21 22
REMARK H PARENT
REMARK Flexibility Score: inf
ROOT
ATOM      1  C   UNL     1       2.434 -16.549  17.200  1.00  0.00     0.004 C 
ENDROOT
BRANCH   1   2
ATOM      2  C   UNL     1       2.848 -15.320  16.379  1.00  0.00     0.027 C 
BRANCH   2   3
ATOM      3  C   UNL     1       2.424 -15.481  14.940  1.00  0.00    -0.031 C 
ATOM      4  C   UNL     1       1.267 -15.025  14.422  1.00  0.00    -0.027 C 
BRANCH   4   5
ATOM      5  C   UNL     1       0.238 -14.240  15.193  1.00  0.00     0.054 C 
BRANCH   5   6
ATOM      6  C   UNL     1      -0.887 -15.124  15.655  1.00  0.00    -0.027 C 
ATOM      7  C   UNL     1      -1.046 -16.356  15.152  1.00  0.00    -0.031 C 
BRANCH   7   8
ATOM      8  C   UNL     1      -2.179 -17.245  15.591  1.00  0.00     0.027 C 
BRANCH   8   9
ATOM      9  C   UNL     1      -1.808 -18.734  15.536  1.00  0.00     0.004 C 
BRANCH   9  10
ATOM     10  C   UNL     1      -0.517 -18.976  14.737  1.00  0.00     0.000 C 
BRANCH  10  11
ATOM     11  C   UNL     1       0.618 -19.535  15.607  1.00  0.00    -0.003 C 
ATOM     12  C   UNL     1       2.000 -19.335  14.983  1.00  0.00     0.004 C 
ENDBRANCH  10  11
ENDBRANCH   9  10
ENDBRANCH   8   9
ENDBRANCH   7   8
ENDBRANCH   5   6
ENDBRANCH   4   5
ENDBRANCH   2   3
ENDBRANCH   1   2
BRANCH   1  13
ATOM     13  C   UNL     1       2.486 -16.295  18.714  1.00  0.00     0.000 C 
BRANCH  13  14
ATOM     14  C   UNL     1       1.326 -16.964  19.469  1.00  0.00     0.000 C 
BRANCH  14  15
ATOM     15  C   UNL     1       0.167 -17.356  18.527  1.00  0.00     0.000 C 
BRANCH  15  16
ATOM     16  C   UNL     1      -1.195 -17.440  19.236  1.00  0.00     0.003 C 
BRANCH  16  17
ATOM     17  C   UNL     1      -1.296 -18.635  20.193  1.00  0.00     0.042 C 
BRANCH  17  18
ATOM     18  C   UNL     1      -2.276 -19.684  19.660  1.00  0.00     0.233 C 
BRANCH  18  19
ATOM     19  O   UNL     1      -1.703 -20.388  18.561  1.00  0.00    -0.466 OA
BRANCH  19  20
ATOM     20  C   UNL     1      -1.782 -21.778  18.411  1.00  0.00     0.302 C 
ATOM     21  O   UNL     1      -2.555 -22.463  19.134  1.00  0.00    -0.253 OA
ATOM     22  C   UNL     1      -0.964 -22.451  17.363  1.00  0.00     0.139 C 
ENDBRANCH  19  20
ENDBRANCH  18  19
ENDBRANCH  17  18
ENDBRANCH  16  17
ENDBRANCH  15  16
ENDBRANCH  14  15
ENDBRANCH  13  14
ENDBRANCH   1  13
TORSDOF 16
ENDMDL
MODEL 3
REMARK VINA RESULT:    -4.193     12.516     14.532
REMARK INTER + INTRA:          -9.854
REMARK INTER:                  -7.302
REMARK INTRA:                  -2.552
REMARK UNBOUND:                -1.740
REMARK SMILES CCCCCC=CCC=CCCCCCCCCOC(C)=O
REMARK SMILES IDX 12 1 11 2 10 3 9 4 8 5 7 6 6 7 5 8 4 9 3 10 2 11 1 12 13 13
REMARK SMILES IDX 14 14 15 15 16 16 17 17 18 18 19 19 20 20 22 21 21 22
REMARK H PARENT
REMARK Flexibility Score: inf
ROOT
ATOM      1  C   UNL     1       2.493 -16.071  18.457  1.00  0.00     0.004 C 
ENDROOT
BRANCH   1   2
ATOM      2  C   UNL     1       1.453 -16.942  19.173  1.00  0.00     0.027 C 
BRANCH   2   3
ATOM      3  C   UNL     1       0.077 -16.692  18.606  1.00  0.00    -0.031 C 
ATOM      4  C   UNL     1      -1.059 -17.251  19.067  1.00  0.00    -0.027 C 
BRANCH   4   5
ATOM      5  C   UNL     1      -1.135 -18.176  20.252  1.00  0.00     0.054 C 
BRANCH   5   6
ATOM      6  C   UNL     1      -1.951 -19.399  19.935  1.00  0.00    -0.027 C 
ATOM      7  C   UNL     1      -1.698 -20.133  18.843  1.00  0.00    -0.031 C 
BRANCH   7   8
ATOM      8  C   UNL     1      -2.519 -21.348  18.503  1.00  0.00     0.027 C 
BRANCH   8   9
ATOM      9  C   UNL     1      -1.670 -22.625  18.430  1.00  0.00     0.004 C 
BRANCH   9  10
ATOM     10  C   UNL     1      -1.506 -23.125  16.985  1.00  0.00     0.000 C 
BRANCH  10  11
ATOM     11  C   UNL     1      -0.360 -22.421  16.244  1.00  0.00    -0.003 C 
ATOM     12  C   UNL     1       1.016 -22.970  16.617  1.00  0.00     0.004 C 
ENDBRANCH  10  11
ENDBRANCH   9  10
ENDBRANCH   8   9
ENDBRANCH   7   8
ENDBRANCH   5   6
ENDBRANCH   4   5
ENDBRANCH   2   3
ENDBRANCH   1   2
BRANCH   1  13
ATOM     13  C   UNL     1       1.921 -15.358  17.222  1.00  0.00     0.000 C 
BRANCH  13  14
ATOM     14  C   UNL     1       2.712 -15.664  15.940  1.00  0.00     0.000 C 
BRANCH  14  15
ATOM     15  C   UNL     1       3.028 -17.168  15.796  1.00  0.00     0.000 C 
BRANCH  15  16
ATOM     16  C   UNL     1       1.991 -17.933  14.956  1.00  0.00     0.003 C 
BRANCH  16  17
ATOM     17  C   UNL     1       1.127 -18.883  15.796  1.00  0.00     0.042 C 
BRANCH  17  18
ATOM     18  C   UNL     1      -0.360 -18.692  15.485  1.00  0.00     0.233 C 
BRANCH  18  19
ATOM     19  O   UNL     1      -0.608 -17.363  15.035  1.00  0.00    -0.466 OA
BRANCH  19  20
ATOM     20  C   UNL     1      -1.685 -16.587  15.482  1.00  0.00     0.302 C 
ATOM     21  O   UNL     1      -1.568 -15.341  15.628  1.00  0.00    -0.253 OA
ATOM     22  C   UNL     1      -2.995 -17.241  15.759  1.00  0.00     0.139 C 
ENDBRANCH  19  20
ENDBRANCH  18  19
ENDBRANCH  17  18
ENDBRANCH  16  17
ENDBRANCH  15  16
ENDBRANCH  14  15
ENDBRANCH  13  14
ENDBRANCH   1  13
TORSDOF 16
ENDMDL
MODEL 4
REMARK VINA RESULT:    -4.107     12.673     14.926
REMARK INTER + INTRA:          -9.687
REMARK INTER:                  -6.893
REMARK INTRA:                  -2.795
REMARK UNBOUND:                -1.740
REMARK SMILES CCCCCC=CCC=CCCCCCCCCOC(C)=O
REMARK SMILES IDX 12 1 11 2 10 3 9 4 8 5 7 6 6 7 5 8 4 9 3 10 2 11 1 12 13 13
REMARK SMILES IDX 14 14 15 15 16 16 17 17 18 18 19 19 20 20 22 21 21 22
REMARK H PARENT
REMARK Flexibility Score: inf
ROOT
ATOM      1  C   UNL     1      -0.547 -17.857  17.504  1.00  0.00     0.004 C 
ENDROOT
BRANCH   1   2
ATOM      2  C   UNL     1      -0.602 -17.027  18.793  1.00  0.00     0.027 C 
BRANCH   2   3
ATOM      3  C   UNL     1      -0.295 -17.892  19.990  1.00  0.00    -0.031 C 
ATOM      4  C   UNL     1      -1.195 -18.657  20.638  1.00  0.00    -0.027 C 
BRANCH   4   5
ATOM      5  C   UNL     1      -2.639 -18.802  20.236  1.00  0.00     0.054 C 
BRANCH   5   6
ATOM      6  C   UNL     1      -2.865 -20.078  19.472  1.00  0.00    -0.027 C 
ATOM      7  C   UNL     1      -1.837 -20.863  19.123  1.00  0.00    -0.031 C 
BRANCH   7   8
ATOM      8  C   UNL     1      -2.046 -22.133  18.341  1.00  0.00     0.027 C 
BRANCH   8   9
ATOM      9  C   UNL     1      -1.090 -22.246  17.146  1.00  0.00     0.004 C 
BRANCH   9  10
ATOM     10  C   UNL     1      -1.553 -21.390  15.955  1.00  0.00     0.000 C 
BRANCH  10  11
ATOM     11  C   UNL     1      -0.442 -21.175  14.917  1.00  0.00    -0.003 C 
ATOM     12  C   UNL     1       0.851 -20.639  15.532  1.00  0.00     0.004 C 
ENDBRANCH  10  11
ENDBRANCH   9  10
ENDBRANCH   8   9
ENDBRANCH   7   8
ENDBRANCH   5   6
ENDBRANCH   4   5
ENDBRANCH   2   3
ENDBRANCH   1   2
BRANCH   1  13
ATOM     13  C   UNL     1      -1.847 -17.775  16.690  1.00  0.00     0.000 C 
BRANCH  13  14
ATOM     14  C   UNL     1      -1.594 -17.683  15.175  1.00  0.00     0.000 C 
BRANCH  14  15
ATOM     15  C   UNL     1      -0.523 -16.627  14.827  1.00  0.00     0.000 C 
BRANCH  15  16
ATOM     16  C   UNL     1      -0.853 -15.223  15.361  1.00  0.00     0.003 C 
BRANCH  16  17
ATOM     17  C   UNL     1       0.269 -14.209  15.105  1.00  0.00     0.042 C 
BRANCH  17  18
ATOM     18  C   UNL     1       1.544 -14.909  14.627  1.00  0.00     0.233 C 
BRANCH  18  19
ATOM     19  O   UNL     1       2.552 -14.849  15.633  1.00  0.00    -0.466 OA
BRANCH  19  20
ATOM     20  C   UNL     1       2.606 -15.729  16.721  1.00  0.00     0.302 C 
ATOM     21  O   UNL     1       2.730 -16.971  16.542  1.00  0.00    -0.253 OA
ATOM     22  C   UNL     1       2.547 -15.187  18.107  1.00  0.00     0.139 C 
ENDBRANCH  19  20
ENDBRANCH  18  19
ENDBRANCH  17  18
ENDBRANCH  16  17
ENDBRANCH  15  16
ENDBRANCH  14  15
ENDBRANCH  13  14
ENDBRANCH   1  13
TORSDOF 16
ENDMDL
MODEL 5
REMARK VINA RESULT:    -4.085     12.754     15.741
REMARK INTER + INTRA:          -9.645
REMARK INTER:                  -6.852
REMARK INTRA:                  -2.794
REMARK UNBOUND:                -1.740
REMARK SMILES CCCCCC=CCC=CCCCCCCCCOC(C)=O
REMARK SMILES IDX 12 1 11 2 10 3 9 4 8 5 7 6 6 7 5 8 4 9 3 10 2 11 1 12 13 13
REMARK SMILES IDX 14 14 15 15 16 16 17 17 18 18 19 19 20 20 22 21 21 22
REMARK H PARENT
REMARK Flexibility Score: inf
ROOT
ATOM      1  C   UNL     1       0.532 -17.104  19.101  1.00  0.00     0.004 C 
ENDROOT
BRANCH   1   2
ATOM      2  C   UNL     1       1.994 -16.638  19.093  1.00  0.00     0.027 C 
BRANCH   2   3
ATOM      3  C   UNL     1       2.171 -15.478  18.144  1.00  0.00    -0.031 C 
ATOM      4  C   UNL     1       2.618 -15.580  16.878  1.00  0.00    -0.027 C 
BRANCH   4   5
ATOM      5  C   UNL     1       2.966 -16.878  16.197  1.00  0.00     0.054 C 
BRANCH   5   6
ATOM      6  C   UNL     1       1.798 -17.409  15.411  1.00  0.00    -0.027 C 
ATOM      7  C   UNL     1       1.028 -18.391  15.898  1.00  0.00    -0.031 C 
BRANCH   7   8
ATOM      8  C   UNL     1      -0.131 -18.945  15.114  1.00  0.00     0.027 C 
BRANCH   8   9
ATOM      9  C   UNL     1      -1.130 -17.855  14.701  1.00  0.00     0.004 C 
BRANCH   9  10
ATOM     10  C   UNL     1      -2.103 -17.504  15.838  1.00  0.00     0.000 C 
BRANCH  10  11
ATOM     11  C   UNL     1      -2.335 -15.992  15.970  1.00  0.00    -0.003 C 
ATOM     12  C   UNL     1      -1.075 -15.230  16.380  1.00  0.00     0.004 C 
ENDBRANCH  10  11
ENDBRANCH   9  10
ENDBRANCH   8   9
ENDBRANCH   7   8
ENDBRANCH   5   6
ENDBRANCH   4   5
ENDBRANCH   2   3
ENDBRANCH   1   2
BRANCH   1  13
ATOM     13  C   UNL     1       0.159 -17.859  20.386  1.00  0.00     0.000 C 
BRANCH  13  14
ATOM     14  C   UNL     1      -1.318 -18.285  20.417  1.00  0.00     0.000 C 
BRANCH  14  15
ATOM     15  C   UNL     1      -1.781 -18.881  19.069  1.00  0.00     0.000 C 
BRANCH  15  16
ATOM     16  C   UNL     1      -1.963 -20.407  19.106  1.00  0.00     0.003 C 
BRANCH  16  17
ATOM     17  C   UNL     1      -1.903 -21.049  17.714  1.00  0.00     0.042 C 
BRANCH  17  18
ATOM     18  C   UNL     1      -1.332 -22.468  17.788  1.00  0.00     0.233 C 
BRANCH  18  19
ATOM     19  O   UNL     1      -1.116 -22.987  16.477  1.00  0.00    -0.466 OA
BRANCH  19  20
ATOM     20  C   UNL     1      -0.049 -22.594  15.660  1.00  0.00     0.302 C 
ATOM     21  O   UNL     1       1.073 -22.305  16.156  1.00  0.00    -0.253 OA
ATOM     22  C   UNL     1      -0.236 -22.544  14.182  1.00  0.00     0.139 C 
ENDBRANCH  19  20
ENDBRANCH  18  19
ENDBRANCH  17  18
ENDBRANCH  16  17
ENDBRANCH  15  16
ENDBRANCH  14  15
ENDBRANCH  13  14
ENDBRANCH   1  13
TORSDOF 16
ENDMDL
MODEL 6
REMARK VINA RESULT:    -4.082     12.676     15.231
REMARK INTER + INTRA:          -9.639
REMARK INTER:                  -6.696
REMARK INTRA:                  -2.943
REMARK UNBOUND:                -1.740
REMARK SMILES CCCCCC=CCC=CCCCCCCCCOC(C)=O
REMARK SMILES IDX 12 1 11 2 10 3 9 4 8 5 7 6 6 7 5 8 4 9 3 10 2 11 1 12 13 13
REMARK SMILES IDX 14 14 15 15 16 16 17 17 18 18 19 19 20 20 22 21 21 22
REMARK H PARENT
REMARK Flexibility Score: inf
ROOT
ATOM      1  C   UNL     1       0.164 -14.529  16.145  1.00  0.00     0.004 C 
ENDROOT
BRANCH   1   2
ATOM      2  C   UNL     1       1.502 -15.279  16.184  1.00  0.00     0.027 C 
BRANCH   2   3
ATOM      3  C   UNL     1       1.270 -16.770  16.191  1.00  0.00    -0.031 C 
ATOM      4  C   UNL     1       1.162 -17.527  17.300  1.00  0.00    -0.027 C 
BRANCH   4   5
ATOM      5  C   UNL     1       1.210 -16.991  18.708  1.00  0.00     0.054 C 
BRANCH   5   6
ATOM      6  C   UNL     1      -0.142 -17.061  19.362  1.00  0.00    -0.027 C 
ATOM      7  C   UNL     1      -0.594 -18.206  19.891  1.00  0.00    -0.031 C 
BRANCH   7   8
ATOM      8  C   UNL     1      -1.953 -18.294  20.532  1.00  0.00     0.027 C 
BRANCH   8   9
ATOM      9  C   UNL     1      -2.827 -19.386  19.897  1.00  0.00     0.004 C 
BRANCH   9  10
ATOM     10  C   UNL     1      -1.996 -20.375  19.061  1.00  0.00     0.000 C 
BRANCH  10  11
ATOM     11  C   UNL     1      -2.666 -21.751  18.940  1.00  0.00    -0.003 C 
ATOM     12  C   UNL     1      -1.660 -22.887  18.749  1.00  0.00     0.004 C 
ENDBRANCH  10  11
ENDBRANCH   9  10
ENDBRANCH   8   9
ENDBRANCH   7   8
ENDBRANCH   5   6
ENDBRANCH   4   5
ENDBRANCH   2   3
ENDBRANCH   1   2
BRANCH   1  13
ATOM     13  C   UNL     1      -0.982 -15.390  15.589  1.00  0.00     0.000 C 
BRANCH  13  14
ATOM     14  C   UNL     1      -2.128 -15.575  16.597  1.00  0.00     0.000 C 
BRANCH  14  15
ATOM     15  C   UNL     1      -2.613 -17.039  16.664  1.00  0.00     0.000 C 
BRANCH  15  16
ATOM     16  C   UNL     1      -2.228 -17.868  15.427  1.00  0.00     0.003 C 
BRANCH  16  17
ATOM     17  C   UNL     1      -1.614 -19.227  15.788  1.00  0.00     0.042 C 
BRANCH  17  18
ATOM     18  C   UNL     1      -0.900 -19.845  14.583  1.00  0.00     0.233 C 
BRANCH  18  19
ATOM     19  O   UNL     1      -0.420 -21.148  14.902  1.00  0.00    -0.466 OA
BRANCH  19  20
ATOM     20  C   UNL     1       0.825 -21.385  15.498  1.00  0.00     0.302 C 
ATOM     21  O   UNL     1       1.736 -20.513  15.462  1.00  0.00    -0.253 OA
ATOM     22  C   UNL     1       1.066 -22.673  16.208  1.00  0.00     0.139 C 
ENDBRANCH  19  20
ENDBRANCH  18  19
ENDBRANCH  17  18
ENDBRANCH  16  17
ENDBRANCH  15  16
ENDBRANCH  14  15
ENDBRANCH  13  14
ENDBRANCH   1  13
TORSDOF 16
ENDMDL
MODEL 7
REMARK VINA RESULT:    -4.026     12.703     15.118
REMARK INTER + INTRA:          -9.531
REMARK INTER:                  -6.913
REMARK INTRA:                  -2.618
REMARK UNBOUND:                -1.740
REMARK SMILES CCCCCC=CCC=CCCCCCCCCOC(C)=O
REMARK SMILES IDX 12 1 11 2 10 3 9 4 8 5 7 6 6 7 5 8 4 9 3 10 2 11 1 12 13 13
REMARK SMILES IDX 14 14 15 15 16 16 17 17 18 18 19 19 20 20 22 21 21 22
REMARK H PARENT
REMARK Flexibility Score: inf
ROOT
ATOM      1  C   UNL     1      -0.780 -16.804  16.652  1.00  0.00     0.004 C 
ENDROOT
BRANCH   1   2
ATOM      2  C   UNL     1      -1.828 -17.207  17.698  1.00  0.00     0.027 C 
BRANCH   2   3
ATOM      3  C   UNL     1      -1.199 -17.289  19.067  1.00  0.00    -0.031 C 
ATOM      4  C   UNL     1      -1.502 -18.213  19.999  1.00  0.00    -0.027 C 
BRANCH   4   5
ATOM      5  C   UNL     1      -2.484 -19.338  19.799  1.00  0.00     0.054 C 
BRANCH   5   6
ATOM      6  C   UNL     1      -1.824 -20.526  19.153  1.00  0.00    -0.027 C 
ATOM      7  C   UNL     1      -2.093 -20.857  17.883  1.00  0.00    -0.031 C 
BRANCH   7   8
ATOM      8  C   UNL     1      -1.456 -22.055  17.231  1.00  0.00     0.027 C 
BRANCH   8   9
ATOM      9  C   UNL     1      -0.421 -21.659  16.168  1.00  0.00     0.004 C 
BRANCH   9  10
ATOM     10  C   UNL     1      -0.705 -20.268  15.578  1.00  0.00     0.000 C 
BRANCH  10  11
ATOM     11  C   UNL     1       0.480 -19.716  14.772  1.00  0.00    -0.003 C 
ATOM     12  C   UNL     1       1.829 -20.241  15.263  1.00  0.00     0.004 C 
ENDBRANCH  10  11
ENDBRANCH   9  10
ENDBRANCH   8   9
ENDBRANCH   7   8
ENDBRANCH   5   6
ENDBRANCH   4   5
ENDBRANCH   2   3
ENDBRANCH   1   2
BRANCH   1  13
ATOM     13  C   UNL     1      -0.694 -15.282  16.456  1.00  0.00     0.000 C 
BRANCH  13  14
ATOM     14  C   UNL     1      -0.408 -14.886  14.999  1.00  0.00     0.000 C 
BRANCH  14  15
ATOM     15  C   UNL     1       0.491 -15.915  14.280  1.00  0.00     0.000 C 
BRANCH  15  16
ATOM     16  C   UNL     1       1.947 -15.448  14.121  1.00  0.00     0.003 C 
BRANCH  16  17
ATOM     17  C   UNL     1       2.966 -16.518  14.535  1.00  0.00     0.042 C 
BRANCH  17  18
ATOM     18  C   UNL     1       2.933 -16.751  16.048  1.00  0.00     0.233 C 
BRANCH  18  19
ATOM     19  O   UNL     1       2.874 -15.508  16.742  1.00  0.00    -0.466 OA
BRANCH  19  20
ATOM     20  C   UNL     1       2.592 -15.402  18.110  1.00  0.00     0.302 C 
ATOM     21  O   UNL     1       2.604 -14.282  18.688  1.00  0.00    -0.253 OA
ATOM     22  C   UNL     1       2.244 -16.627  18.884  1.00  0.00     0.139 C 
ENDBRANCH  19  20
ENDBRANCH  18  19
ENDBRANCH  17  18
ENDBRANCH  16  17
ENDBRANCH  15  16
ENDBRANCH  14  15
ENDBRANCH  13  14
ENDBRANCH   1  13
TORSDOF 16
ENDMDL
MODEL 8
REMARK VINA RESULT:    -3.968     12.959     15.746
REMARK INTER + INTRA:          -9.420
REMARK INTER:                  -6.794
REMARK INTRA:                  -2.626
REMARK UNBOUND:                -1.740
REMARK SMILES CCCCCC=CCC=CCCCCCCCCOC(C)=O
REMARK SMILES IDX 12 1 11 2 10 3 9 4 8 5 7 6 6 7 5 8 4 9 3 10 2 11 1 12 13 13
REMARK SMILES IDX 14 14 15 15 16 16 17 17 18 18 19 19 20 20 22 21 21 22
REMARK H PARENT
REMARK Flexibility Score: inf
ROOT
ATOM      1  C   UNL     1       1.541 -17.157  15.541  1.00  0.00     0.004 C 
ENDROOT
BRANCH   1   2
ATOM      2  C   UNL     1       2.876 -16.737  16.170  1.00  0.00     0.027 C 
BRANCH   2   3
ATOM      3  C   UNL     1       2.699 -15.485  16.993  1.00  0.00    -0.031 C 
ATOM      4  C   UNL     1       2.317 -15.460  18.285  1.00  0.00    -0.027 C 
BRANCH   4   5
ATOM      5  C   UNL     1       2.055 -16.685  19.121  1.00  0.00     0.054 C 
BRANCH   5   6
ATOM      6  C   UNL     1       0.608 -17.090  19.053  1.00  0.00    -0.027 C 
ATOM      7  C   UNL     1       0.026 -17.740  20.070  1.00  0.00    -0.031 C 
BRANCH   7   8
ATOM      8  C   UNL     1      -1.416 -18.168  20.008  1.00  0.00     0.027 C 
BRANCH   8   9
ATOM      9  C   UNL     1      -1.676 -19.176  18.879  1.00  0.00     0.004 C 
BRANCH   9  10
ATOM     10  C   UNL     1      -2.781 -18.698  17.923  1.00  0.00     0.000 C 
BRANCH  10  11
ATOM     11  C   UNL     1      -2.455 -17.344  17.276  1.00  0.00    -0.003 C 
ATOM     12  C   UNL     1      -2.319 -17.429  15.756  1.00  0.00     0.004 C 
ENDBRANCH  10  11
ENDBRANCH   9  10
ENDBRANCH   8   9
ENDBRANCH   7   8
ENDBRANCH   5   6
ENDBRANCH   4   5
ENDBRANCH   2   3
ENDBRANCH   1   2
BRANCH   1  13
ATOM     13  C   UNL     1       1.715 -18.191  14.419  1.00  0.00     0.000 C 
BRANCH  13  14
ATOM     14  C   UNL     1       0.621 -19.272  14.432  1.00  0.00     0.000 C 
BRANCH  14  15
ATOM     15  C   UNL     1       0.405 -19.864  15.842  1.00  0.00     0.000 C 
BRANCH  15  16
ATOM     16  C   UNL     1      -0.646 -20.986  15.879  1.00  0.00     0.003 C 
BRANCH  16  17
ATOM     17  C   UNL     1      -0.128 -22.266  16.549  1.00  0.00     0.042 C 
BRANCH  17  18
ATOM     18  C   UNL     1       0.984 -22.910  15.716  1.00  0.00     0.233 C 
BRANCH  18  19
ATOM     19  O   UNL     1       2.144 -23.125  16.517  1.00  0.00    -0.466 OA
BRANCH  19  20
ATOM     20  C   UNL     1       3.396 -22.573  16.221  1.00  0.00     0.302 C 
ATOM     21  O   UNL     1       4.409 -22.857  16.916  1.00  0.00    -0.253 OA
ATOM     22  C   UNL     1       3.539 -21.661  15.051  1.00  0.00     0.139 C 
ENDBRANCH  19  20
ENDBRANCH  18  19
ENDBRANCH  17  18
ENDBRANCH  16  17
ENDBRANCH  15  16
ENDBRANCH  14  15
ENDBRANCH  13  14
ENDBRANCH   1  13
TORSDOF 16
ENDMDL
MODEL 9
REMARK VINA RESULT:    -3.959     13.051     15.710
REMARK INTER + INTRA:          -9.402
REMARK INTER:                  -5.925
REMARK INTRA:                  -3.477
REMARK UNBOUND:                -1.740
REMARK SMILES CCCCCC=CCC=CCCCCCCCCOC(C)=O
REMARK SMILES IDX 12 1 11 2 10 3 9 4 8 5 7 6 6 7 5 8 4 9 3 10 2 11 1 12 13 13
REMARK SMILES IDX 14 14 15 15 16 16 17 17 18 18 19 19 20 20 22 21 21 22
REMARK H PARENT
REMARK Flexibility Score: inf
ROOT
ATOM      1  C   UNL     1       1.724 -14.912  15.379  1.00  0.00     0.004 C 
ENDROOT
BRANCH   1   2
ATOM      2  C   UNL     1       0.355 -14.267  15.128  1.00  0.00     0.027 C 
BRANCH   2   3
ATOM      3  C   UNL     1      -0.632 -15.300  14.642  1.00  0.00    -0.031 C 
ATOM      4  C   UNL     1      -1.554 -15.907  15.415  1.00  0.00    -0.027 C 
BRANCH   4   5
ATOM      5  C   UNL     1      -1.772 -15.611  16.876  1.00  0.00     0.054 C 
BRANCH   5   6
ATOM      6  C   UNL     1      -1.721 -16.869  17.698  1.00  0.00    -0.027 C 
ATOM      7  C   UNL     1      -0.928 -16.957  18.775  1.00  0.00    -0.031 C 
BRANCH   7   8
ATOM      8  C   UNL     1      -0.852 -18.217  19.595  1.00  0.00     0.027 C 
BRANCH   8   9
ATOM      9  C   UNL     1      -2.236 -18.701  20.051  1.00  0.00     0.004 C 
BRANCH   9  10
ATOM     10  C   UNL     1      -2.567 -20.098  19.502  1.00  0.00     0.000 C 
BRANCH  10  11
ATOM     11  C   UNL     1      -1.702 -20.476  18.291  1.00  0.00    -0.003 C 
ATOM     12  C   UNL     1      -2.484 -20.475  16.978  1.00  0.00     0.004 C 
ENDBRANCH  10  11
ENDBRANCH   9  10
ENDBRANCH   8   9
ENDBRANCH   7   8
ENDBRANCH   5   6
ENDBRANCH   4   5
ENDBRANCH   2   3
ENDBRANCH   1   2
BRANCH   1  13
ATOM     13  C   UNL     1       1.958 -15.251  16.859  1.00  0.00     0.000 C 
BRANCH  13  14
ATOM     14  C   UNL     1       2.275 -16.738  17.085  1.00  0.00     0.000 C 
BRANCH  14  15
ATOM     15  C   UNL     1       1.982 -17.593  15.833  1.00  0.00     0.000 C 
BRANCH  15  16
ATOM     16  C   UNL     1       0.940 -18.698  16.078  1.00  0.00     0.003 C 
BRANCH  16  17
ATOM     17  C   UNL     1       0.274 -19.186  14.785  1.00  0.00     0.042 C 
BRANCH  17  18
ATOM     18  C   UNL     1       0.424 -20.702  14.628  1.00  0.00     0.233 C 
BRANCH  18  19
ATOM     19  O   UNL     1       1.745 -21.110  14.975  1.00  0.00    -0.466 OA
BRANCH  19  20
ATOM     20  C   UNL     1       2.020 -22.185  15.828  1.00  0.00     0.302 C 
ATOM     21  O   UNL     1       3.207 -22.485  16.129  1.00  0.00    -0.253 OA
ATOM     22  C   UNL     1       0.893 -22.966  16.412  1.00  0.00     0.139 C 
ENDBRANCH  19  20
ENDBRANCH  18  19
ENDBRANCH  17  18
ENDBRANCH  16  17
ENDBRANCH  15  16
ENDBRANCH  14  15
ENDBRANCH  13  14
ENDBRANCH   1  13
TORSDOF 16
ENDMDL
