MODEL 1
REMARK VINA RESULT:    -3.558      0.000      0.000
REMARK INTER + INTRA:          -4.299
REMARK INTER:                  -4.286
REMARK INTRA:                  -0.013
REMARK UNBOUND:                -0.013
REMARK SMILES OCC(O)CO
REMARK SMILES IDX 3 1 5 2 6 3 2 5 1 6 4 8
REMARK H PARENT 6 4 1 7 4 9
REMARK Flexibility Score: inf
ROOT
ATOM      1  C   UNL     1     126.085 115.203 129.486  1.00  0.00     0.165 C 
ENDROOT
BRANCH   1   2
ATOM      2  C   UNL     1     125.246 115.889 130.581  1.00  0.00     0.190 C 
BRANCH   2   3
ATOM      3  O   UNL     1     123.935 115.391 130.593  1.00  0.00    -0.394 OA
ATOM      4  H   UNL     1     123.981 114.460 130.249  1.00  0.00     0.210 HD
ENDBRANCH   2   3
ENDBRANCH   1   2
BRANCH   1   5
ATOM      5  C   UNL     1     126.273 113.699 129.742  1.00  0.00     0.190 C 
BRANCH   5   6
ATOM      6  O   UNL     1     126.249 112.983 128.537  1.00  0.00    -0.394 OA
ATOM      7  H   UNL     1     125.301 112.963 128.247  1.00  0.00     0.210 HD
ENDBRANCH   5   6
ENDBRANCH   1   5
BRANCH   1   8
ATOM      8  O   UNL     1     125.521 115.424 128.217  1.00  0.00    -0.388 OA
ATOM      9  H   UNL     1     125.900 114.751 127.594  1.00  0.00     0.211 HD
ENDBRANCH   1   8
TORSDOF 5
ENDMDL
MODEL 2
REMARK VINA RESULT:    -3.544     14.422     15.739
REMARK INTER + INTRA:          -4.282
REMARK INTER:                  -4.060
REMARK INTRA:                  -0.222
REMARK UNBOUND:                -0.013
REMARK SMILES OCC(O)CO
REMARK SMILES IDX 3 1 5 2 6 3 2 5 1 6 4 8
REMARK H PARENT 6 4 1 7 4 9
REMARK Flexibility Score: inf
ROOT
ATOM      1  C   UNL     1     111.819 122.958 130.650  1.00  0.00     0.165 C 
ENDROOT
BRANCH   1   2
ATOM      2  C   UNL     1     113.191 122.263 130.750  1.00  0.00     0.190 C 
BRANCH   2   3
ATOM      3  O   UNL     1     114.229 123.161 130.463  1.00  0.00    -0.394 OA
ATOM      4  H   UNL     1     114.717 122.792 129.681  1.00  0.00     0.210 HD
ENDBRANCH   2   3
ENDBRANCH   1   2
BRANCH   1   5
ATOM      5  C   UNL     1     111.283 123.001 129.210  1.00  0.00     0.190 C 
BRANCH   5   6
ATOM      6  O   UNL     1     112.336 123.121 128.292  1.00  0.00    -0.394 OA
ATOM      7  H   UNL     1     113.169 122.968 128.807  1.00  0.00     0.210 HD
ENDBRANCH   5   6
ENDBRANCH   1   5
BRANCH   1   8
ATOM      8  O   UNL     1     110.889 122.345 131.508  1.00  0.00    -0.388 OA
ATOM      9  H   UNL     1     111.394 121.921 132.250  1.00  0.00     0.211 HD
ENDBRANCH   1   8
TORSDOF 5
ENDMDL
MODEL 3
REMARK VINA RESULT:    -3.481     14.659     15.741
REMARK INTER + INTRA:          -4.206
REMARK INTER:                  -3.983
REMARK INTRA:                  -0.223
REMARK UNBOUND:                -0.013
REMARK SMILES OCC(O)CO
REMARK SMILES IDX 3 1 5 2 6 3 2 5 1 6 4 8
REMARK H PARENT 6 4 1 7 4 9
REMARK Flexibility Score: inf
ROOT
ATOM      1  C   UNL     1     111.870 122.368 130.637  1.00  0.00     0.165 C 
ENDROOT
BRANCH   1   2
ATOM      2  C   UNL     1     111.322 123.071 129.381  1.00  0.00     0.190 C 
BRANCH   2   3
ATOM      3  O   UNL     1     112.297 123.128 128.373  1.00  0.00    -0.394 OA
ATOM      4  H   UNL     1     112.113 123.949 127.845  1.00  0.00     0.210 HD
ENDBRANCH   2   3
ENDBRANCH   1   2
BRANCH   1   5
ATOM      5  C   UNL     1     113.052 123.122 131.267  1.00  0.00     0.190 C 
BRANCH   5   6
ATOM      6  O   UNL     1     114.229 122.899 130.539  1.00  0.00    -0.394 OA
ATOM      7  H   UNL     1     114.898 122.566 131.191  1.00  0.00     0.210 HD
ENDBRANCH   5   6
ENDBRANCH   1   5
BRANCH   1   8
ATOM      8  O   UNL     1     110.847 122.172 131.582  1.00  0.00    -0.388 OA
ATOM      9  H   UNL     1     110.006 121.993 131.086  1.00  0.00     0.211 HD
ENDBRANCH   1   8
TORSDOF 5
ENDMDL
MODEL 4
REMARK VINA RESULT:    -3.426      1.732      2.652
REMARK INTER + INTRA:          -4.140
REMARK INTER:                  -3.993
REMARK INTRA:                  -0.146
REMARK UNBOUND:                -0.013
REMARK SMILES OCC(O)CO
REMARK SMILES IDX 3 1 5 2 6 3 2 5 1 6 4 8
REMARK H PARENT 6 4 1 7 4 9
REMARK Flexibility Score: inf
ROOT
ATOM      1  C   UNL     1     125.308 114.751 130.159  1.00  0.00     0.165 C 
ENDROOT
BRANCH   1   2
ATOM      2  C   UNL     1     126.433 114.388 129.170  1.00  0.00     0.190 C 
BRANCH   2   3
ATOM      3  O   UNL     1     126.345 113.043 128.784  1.00  0.00    -0.394 OA
ATOM      4  H   UNL     1     125.501 112.949 128.269  1.00  0.00     0.210 HD
ENDBRANCH   2   3
ENDBRANCH   1   2
BRANCH   1   5
ATOM      5  C   UNL     1     125.811 114.866 131.607  1.00  0.00     0.190 C 
BRANCH   5   6
ATOM      6  O   UNL     1     126.737 113.853 131.893  1.00  0.00    -0.394 OA
ATOM      7  H   UNL     1     126.984 113.451 131.021  1.00  0.00     0.210 HD
ENDBRANCH   5   6
ENDBRANCH   1   5
BRANCH   1   8
ATOM      8  O   UNL     1     124.662 115.935 129.762  1.00  0.00    -0.388 OA
ATOM      9  H   UNL     1     124.623 116.538 130.550  1.00  0.00     0.211 HD
ENDBRANCH   1   8
TORSDOF 5
ENDMDL
MODEL 5
REMARK VINA RESULT:    -3.416      1.455      2.223
REMARK INTER + INTRA:          -4.128
REMARK INTER:                  -3.924
REMARK INTRA:                  -0.204
REMARK UNBOUND:                -0.013
REMARK SMILES OCC(O)CO
REMARK SMILES IDX 3 1 5 2 6 3 2 5 1 6 4 8
REMARK H PARENT 6 4 1 7 4 9
REMARK Flexibility Score: inf
ROOT
ATOM      1  C   UNL     1     126.607 114.294 129.421  1.00  0.00     0.165 C 
ENDROOT
BRANCH   1   2
ATOM      2  C   UNL     1     125.857 115.484 128.791  1.00  0.00     0.190 C 
BRANCH   2   3
ATOM      3  O   UNL     1     124.755 115.854 129.576  1.00  0.00    -0.394 OA
ATOM      4  H   UNL     1     124.102 115.108 129.518  1.00  0.00     0.210 HD
ENDBRANCH   2   3
ENDBRANCH   1   2
BRANCH   1   5
ATOM      5  C   UNL     1     126.301 114.131 130.919  1.00  0.00     0.190 C 
BRANCH   5   6
ATOM      6  O   UNL     1     126.566 115.321 131.612  1.00  0.00    -0.394 OA
ATOM      7  H   UNL     1     127.002 115.928 130.961  1.00  0.00     0.210 HD
ENDBRANCH   5   6
ENDBRANCH   1   5
BRANCH   1   8
ATOM      8  O   UNL     1     126.326 113.106 128.724  1.00  0.00    -0.388 OA
ATOM      9  H   UNL     1     127.191 112.679 128.490  1.00  0.00     0.211 HD
ENDBRANCH   1   8
TORSDOF 5
ENDMDL
MODEL 6
REMARK VINA RESULT:    -3.410      1.399      2.296
REMARK INTER + INTRA:          -4.121
REMARK INTER:                  -4.115
REMARK INTRA:                  -0.006
REMARK UNBOUND:                -0.013
REMARK SMILES OCC(O)CO
REMARK SMILES IDX 3 1 5 2 6 3 2 5 1 6 4 8
REMARK H PARENT 6 4 1 7 4 9
REMARK Flexibility Score: inf
ROOT
ATOM      1  C   UNL     1     125.890 114.094 129.700  1.00  0.00     0.165 C 
ENDROOT
BRANCH   1   2
ATOM      2  C   UNL     1     126.483 114.016 131.120  1.00  0.00     0.190 C 
BRANCH   2   3
ATOM      3  O   UNL     1     126.140 115.151 131.869  1.00  0.00    -0.394 OA
ATOM      4  H   UNL     1     125.588 114.833 132.631  1.00  0.00     0.210 HD
ENDBRANCH   2   3
ENDBRANCH   1   2
BRANCH   1   5
ATOM      5  C   UNL     1     126.334 115.357 128.944  1.00  0.00     0.190 C 
BRANCH   5   6
ATOM      6  O   UNL     1     125.507 115.591 127.837  1.00  0.00    -0.394 OA
ATOM      7  H   UNL     1     126.082 115.483 127.036  1.00  0.00     0.210 HD
ENDBRANCH   5   6
ENDBRANCH   1   5
BRANCH   1   8
ATOM      8  O   UNL     1     126.207 112.939 128.965  1.00  0.00    -0.388 OA
ATOM      9  H   UNL     1     125.371 112.604 128.548  1.00  0.00     0.211 HD
ENDBRANCH   1   8
TORSDOF 5
ENDMDL
MODEL 7
REMARK VINA RESULT:    -3.370      1.957      2.154
REMARK INTER + INTRA:          -4.072
REMARK INTER:                  -4.070
REMARK INTRA:                  -0.002
REMARK UNBOUND:                -0.013
REMARK SMILES OCC(O)CO
REMARK SMILES IDX 3 1 5 2 6 3 2 5 1 6 4 8
REMARK H PARENT 6 4 1 7 4 9
REMARK Flexibility Score: inf
ROOT
ATOM      1  C   UNL     1     125.956 114.485 130.684  1.00  0.00     0.165 C 
ENDROOT
BRANCH   1   2
ATOM      2  C   UNL     1     125.488 115.922 130.981  1.00  0.00     0.190 C 
BRANCH   2   3
ATOM      3  O   UNL     1     126.404 116.586 131.811  1.00  0.00    -0.394 OA
ATOM      4  H   UNL     1     126.783 117.331 131.276  1.00  0.00     0.210 HD
ENDBRANCH   2   3
ENDBRANCH   1   2
BRANCH   1   5
ATOM      5  C   UNL     1     126.652 114.362 129.318  1.00  0.00     0.190 C 
BRANCH   5   6
ATOM      6  O   UNL     1     126.352 113.132 128.717  1.00  0.00    -0.394 OA
ATOM      7  H   UNL     1     127.045 112.989 128.022  1.00  0.00     0.210 HD
ENDBRANCH   5   6
ENDBRANCH   1   5
BRANCH   1   8
ATOM      8  O   UNL     1     126.792 114.013 131.711  1.00  0.00    -0.388 OA
ATOM      9  H   UNL     1     126.321 114.152 132.574  1.00  0.00     0.211 HD
ENDBRANCH   1   8
TORSDOF 5
ENDMDL
MODEL 8
REMARK VINA RESULT:    -3.308      1.375      2.903
REMARK INTER + INTRA:          -3.998
REMARK INTER:                  -3.777
REMARK INTRA:                  -0.222
REMARK UNBOUND:                -0.013
REMARK SMILES OCC(O)CO
REMARK SMILES IDX 3 1 5 2 6 3 2 5 1 6 4 8
REMARK H PARENT 6 4 1 7 4 9
REMARK Flexibility Score: inf
ROOT
ATOM      1  C   UNL     1     126.463 114.688 130.617  1.00  0.00     0.165 C 
ENDROOT
BRANCH   1   2
ATOM      2  C   UNL     1     126.391 114.611 129.080  1.00  0.00     0.190 C 
BRANCH   2   3
ATOM      3  O   UNL     1     125.460 113.645 128.669  1.00  0.00    -0.394 OA
ATOM      4  H   UNL     1     124.560 114.024 128.849  1.00  0.00     0.210 HD
ENDBRANCH   2   3
ENDBRANCH   1   2
BRANCH   1   5
ATOM      5  C   UNL     1     125.359 115.575 131.215  1.00  0.00     0.190 C 
BRANCH   5   6
ATOM      6  O   UNL     1     124.271 115.674 130.336  1.00  0.00    -0.394 OA
ATOM      7  H   UNL     1     124.476 115.074 129.574  1.00  0.00     0.210 HD
ENDBRANCH   5   6
ENDBRANCH   1   5
BRANCH   1   8
ATOM      8  O   UNL     1     126.424 113.400 131.180  1.00  0.00    -0.388 OA
ATOM      9  H   UNL     1     125.777 112.858 130.656  1.00  0.00     0.211 HD
ENDBRANCH   1   8
TORSDOF 5
ENDMDL
MODEL 9
REMARK VINA RESULT:    -3.303     14.897     15.532
REMARK INTER + INTRA:          -3.992
REMARK INTER:                  -3.989
REMARK INTRA:                  -0.003
REMARK UNBOUND:                -0.013
REMARK SMILES OCC(O)CO
REMARK SMILES IDX 3 1 5 2 6 3 2 5 1 6 4 8
REMARK H PARENT 6 4 1 7 4 9
REMARK Flexibility Score: inf
ROOT
ATOM      1  C   UNL     1     112.405 122.329 129.973  1.00  0.00     0.165 C 
ENDROOT
BRANCH   1   2
ATOM      2  C   UNL     1     111.462 122.712 131.129  1.00  0.00     0.190 C 
BRANCH   2   3
ATOM      3  O   UNL     1     112.078 123.628 131.995  1.00  0.00    -0.394 OA
ATOM      4  H   UNL     1     111.980 123.262 132.913  1.00  0.00     0.210 HD
ENDBRANCH   2   3
ENDBRANCH   1   2
BRANCH   1   5
ATOM      5  C   UNL     1     111.844 122.728 128.598  1.00  0.00     0.190 C 
BRANCH   5   6
ATOM      6  O   UNL     1     112.589 122.139 127.567  1.00  0.00    -0.394 OA
ATOM      7  H   UNL     1     113.480 121.934 127.953  1.00  0.00     0.210 HD
ENDBRANCH   5   6
ENDBRANCH   1   5
BRANCH   1   8
ATOM      8  O   UNL     1     113.682 122.885 130.168  1.00  0.00    -0.388 OA
ATOM      9  H   UNL     1     114.090 123.030 129.275  1.00  0.00     0.211 HD
ENDBRANCH   1   8
TORSDOF 5
ENDMDL
