MODEL 1
REMARK VINA RESULT:    -3.480      0.000      0.000
REMARK INTER + INTRA:         -10.169
REMARK INTER:                  -7.548
REMARK INTRA:                  -2.621
REMARK UNBOUND:                -2.621
REMARK SMILES CCCCCCCCCCCCCCCCCCCCCC(=O)[O-]
REMARK SMILES IDX 12 1 11 2 10 3 9 4 8 5 7 6 6 7 5 8 4 9 3 10 2 11 1 12 13 13
REMARK SMILES IDX 14 14 15 15 16 16 17 17 18 18 19 19 20 20 21 21 22 22 23 23
REMARK SMILES IDX 24 24
REMARK H PARENT
REMARK Flexibility Score: inf
ROOT
ATOM      1  C   UNL     1      63.906  40.816  16.069  1.00  0.00     0.000 C 
ENDROOT
BRANCH   1   2
ATOM      2  C   UNL     1      64.661  42.044  15.530  1.00  0.00     0.000 C 
BRANCH   2   3
ATOM      3  C   UNL     1      63.702  43.174  15.099  1.00  0.00     0.000 C 
BRANCH   3   4
ATOM      4  C   UNL     1      64.190  44.581  15.480  1.00  0.00    -0.000 C 
BRANCH   4   5
ATOM      5  C   UNL     1      63.280  45.271  16.510  1.00  0.00    -0.000 C 
BRANCH   5   6
ATOM      6  C   UNL     1      62.068  44.405  16.897  1.00  0.00    -0.000 C 
BRANCH   6   7
ATOM      7  C   UNL     1      61.083  45.151  17.815  1.00  0.00    -0.000 C 
BRANCH   7   8
ATOM      8  C   UNL     1      59.669  44.545  17.793  1.00  0.00    -0.000 C 
BRANCH   8   9
ATOM      9  C   UNL     1      58.716  45.155  16.749  1.00  0.00    -0.000 C 
BRANCH   9  10
ATOM     10  C   UNL     1      58.033  44.094  15.870  1.00  0.00    -0.000 C 
BRANCH  10  11
ATOM     11  C   UNL     1      56.690  43.625  16.449  1.00  0.00    -0.003 C 
ATOM     12  C   UNL     1      56.824  42.366  17.306  1.00  0.00     0.004 C 
ENDBRANCH  10  11
ENDBRANCH   9  10
ENDBRANCH   8   9
ENDBRANCH   7   8
ENDBRANCH   6   7
ENDBRANCH   5   6
ENDBRANCH   4   5
ENDBRANCH   3   4
ENDBRANCH   2   3
ENDBRANCH   1   2
BRANCH   1  13
ATOM     13  C   UNL     1      64.009  40.681  17.596  1.00  0.00     0.000 C 
BRANCH  13  14
ATOM     14  C   UNL     1      64.811  41.823  18.237  1.00  0.00     0.000 C 
BRANCH  14  15
ATOM     15  C   UNL     1      63.991  42.531  19.326  1.00  0.00     0.000 C 
BRANCH  15  16
ATOM     16  C   UNL     1      62.683  41.787  19.648  1.00  0.00     0.000 C 
BRANCH  16  17
ATOM     17  C   UNL     1      61.704  42.656  20.459  1.00  0.00     0.000 C 
BRANCH  17  18
ATOM     18  C   UNL     1      60.378  41.938  20.754  1.00  0.00     0.000 C 
BRANCH  18  19
ATOM     19  C   UNL     1      60.578  40.556  21.393  1.00  0.00     0.000 C 
BRANCH  19  20
ATOM     20  C   UNL     1      59.257  39.772  21.429  1.00  0.00     0.006 C 
BRANCH  20  21
ATOM     21  C   UNL     1      58.115  40.525  20.734  1.00  0.00     0.053 C 
BRANCH  21  22
ATOM     22  C   UNL     1      56.925  39.644  20.504  1.00  0.00     0.041 C 
ATOM     23  O   UNL     1      56.426  39.544  19.353  1.00  0.00    -0.550 OA
ATOM     24  O   UNL     1      56.392  38.906  21.553  1.00  0.00    -0.550 OA
ENDBRANCH  21  22
ENDBRANCH  20  21
ENDBRANCH  19  20
ENDBRANCH  18  19
ENDBRANCH  17  18
ENDBRANCH  16  17
ENDBRANCH  15  16
ENDBRANCH  14  15
ENDBRANCH  13  14
ENDBRANCH   1  13
TORSDOF 20
ENDMDL
MODEL 2
REMARK VINA RESULT:    -3.478      8.437     13.311
REMARK INTER + INTRA:         -10.167
REMARK INTER:                  -7.140
REMARK INTRA:                  -3.027
REMARK UNBOUND:                -2.621
REMARK SMILES CCCCCCCCCCCCCCCCCCCCCC(=O)[O-]
REMARK SMILES IDX 12 1 11 2 10 3 9 4 8 5 7 6 6 7 5 8 4 9 3 10 2 11 1 12 13 13
REMARK SMILES IDX 14 14 15 15 16 16 17 17 18 18 19 19 20 20 21 21 22 22 23 23
REMARK SMILES IDX 24 24
REMARK H PARENT
REMARK Flexibility Score: inf
ROOT
ATOM      1  C   UNL     1      50.736  49.719  14.632  1.00  0.00     0.000 C 
ENDROOT
BRANCH   1   2
ATOM      2  C   UNL     1      51.348  48.326  14.864  1.00  0.00     0.000 C 
BRANCH   2   3
ATOM      3  C   UNL     1      50.960  47.328  13.752  1.00  0.00     0.000 C 
BRANCH   3   4
ATOM      4  C   UNL     1      50.971  45.859  14.206  1.00  0.00    -0.000 C 
BRANCH   4   5
ATOM      5  C   UNL     1      50.066  45.603  15.423  1.00  0.00    -0.000 C 
BRANCH   5   6
ATOM      6  C   UNL     1      48.587  45.908  15.131  1.00  0.00    -0.000 C 
BRANCH   6   7
ATOM      7  C   UNL     1      47.891  46.619  16.305  1.00  0.00    -0.000 C 
BRANCH   7   8
ATOM      8  C   UNL     1      46.435  46.161  16.504  1.00  0.00    -0.000 C 
BRANCH   8   9
ATOM      9  C   UNL     1      46.049  44.876  15.749  1.00  0.00    -0.000 C 
BRANCH   9  10
ATOM     10  C   UNL     1      46.022  43.634  16.657  1.00  0.00    -0.000 C 
BRANCH  10  11
ATOM     11  C   UNL     1      46.828  42.462  16.077  1.00  0.00    -0.003 C 
ATOM     12  C   UNL     1      48.277  42.444  16.565  1.00  0.00     0.004 C 
ENDBRANCH  10  11
ENDBRANCH   9  10
ENDBRANCH   8   9
ENDBRANCH   7   8
ENDBRANCH   6   7
ENDBRANCH   5   6
ENDBRANCH   4   5
ENDBRANCH   3   4
ENDBRANCH   2   3
ENDBRANCH   1   2
BRANCH   1  13
ATOM     13  C   UNL     1      49.743  49.742  13.459  1.00  0.00     0.000 C 
BRANCH  13  14
ATOM     14  C   UNL     1      50.137  50.752  12.371  1.00  0.00     0.000 C 
BRANCH  14  15
ATOM     15  C   UNL     1      50.648  50.038  11.112  1.00  0.00     0.000 C 
BRANCH  15  16
ATOM     16  C   UNL     1      52.135  50.324  10.841  1.00  0.00     0.000 C 
BRANCH  16  17
ATOM     17  C   UNL     1      53.063  49.446  11.700  1.00  0.00     0.000 C 
BRANCH  17  18
ATOM     18  C   UNL     1      53.950  50.268  12.648  1.00  0.00     0.000 C 
BRANCH  18  19
ATOM     19  C   UNL     1      54.727  49.394  13.644  1.00  0.00     0.000 C 
BRANCH  19  20
ATOM     20  C   UNL     1      54.610  47.907  13.277  1.00  0.00     0.006 C 
BRANCH  20  21
ATOM     21  C   UNL     1      55.911  47.139  13.541  1.00  0.00     0.053 C 
BRANCH  21  22
ATOM     22  C   UNL     1      55.763  46.161  14.666  1.00  0.00     0.041 C 
ATOM     23  O   UNL     1      54.657  46.040  15.257  1.00  0.00    -0.550 OA
ATOM     24  O   UNL     1      56.833  45.356  15.037  1.00  0.00    -0.550 OA
ENDBRANCH  21  22
ENDBRANCH  20  21
ENDBRANCH  19  20
ENDBRANCH  18  19
ENDBRANCH  17  18
ENDBRANCH  16  17
ENDBRANCH  15  16
ENDBRANCH  14  15
ENDBRANCH  13  14
ENDBRANCH   1  13
TORSDOF 20
ENDMDL
MODEL 3
REMARK VINA RESULT:    -3.456      6.223     10.462
REMARK INTER + INTRA:         -10.118
REMARK INTER:                  -6.406
REMARK INTRA:                  -3.712
REMARK UNBOUND:                -2.621
REMARK SMILES CCCCCCCCCCCCCCCCCCCCCC(=O)[O-]
REMARK SMILES IDX 12 1 11 2 10 3 9 4 8 5 7 6 6 7 5 8 4 9 3 10 2 11 1 12 13 13
REMARK SMILES IDX 14 14 15 15 16 16 17 17 18 18 19 19 20 20 21 21 22 22 23 23
REMARK SMILES IDX 24 24
REMARK H PARENT
REMARK Flexibility Score: inf
ROOT
ATOM      1  C   UNL     1      53.828  49.541  12.514  1.00  0.00     0.000 C 
ENDROOT
BRANCH   1   2
ATOM      2  C   UNL     1      52.956  50.208  11.436  1.00  0.00     0.000 C 
BRANCH   2   3
ATOM      3  C   UNL     1      51.623  50.734  12.009  1.00  0.00     0.000 C 
BRANCH   3   4
ATOM      4  C   UNL     1      50.541  49.651  12.157  1.00  0.00    -0.000 C 
BRANCH   4   5
ATOM      5  C   UNL     1      49.871  49.662  13.541  1.00  0.00    -0.000 C 
BRANCH   5   6
ATOM      6  C   UNL     1      50.504  48.646  14.509  1.00  0.00    -0.000 C 
BRANCH   6   7
ATOM      7  C   UNL     1      51.177  47.475  13.772  1.00  0.00    -0.000 C 
BRANCH   7   8
ATOM      8  C   UNL     1      51.892  46.500  14.724  1.00  0.00    -0.000 C 
BRANCH   8   9
ATOM      9  C   UNL     1      53.415  46.701  14.835  1.00  0.00    -0.000 C 
BRANCH   9  10
ATOM     10  C   UNL     1      53.899  46.819  16.290  1.00  0.00    -0.000 C 
BRANCH  10  11
ATOM     11  C   UNL     1      54.058  48.278  16.742  1.00  0.00    -0.003 C 
ATOM     12  C   UNL     1      52.885  48.763  17.595  1.00  0.00     0.004 C 
ENDBRANCH  10  11
ENDBRANCH   9  10
ENDBRANCH   8   9
ENDBRANCH   7   8
ENDBRANCH   6   7
ENDBRANCH   5   6
ENDBRANCH   4   5
ENDBRANCH   3   4
ENDBRANCH   2   3
ENDBRANCH   1   2
BRANCH   1  13
ATOM     13  C   UNL     1      53.875  50.349  13.820  1.00  0.00     0.000 C 
BRANCH  13  14
ATOM     14  C   UNL     1      55.300  50.780  14.197  1.00  0.00     0.000 C 
BRANCH  14  15
ATOM     15  C   UNL     1      56.346  49.994  13.394  1.00  0.00     0.000 C 
BRANCH  15  16
ATOM     16  C   UNL     1      57.035  48.907  14.238  1.00  0.00     0.000 C 
BRANCH  16  17
ATOM     17  C   UNL     1      57.056  47.542  13.525  1.00  0.00     0.000 C 
BRANCH  17  18
ATOM     18  C   UNL     1      57.183  46.363  14.503  1.00  0.00     0.000 C 
BRANCH  18  19
ATOM     19  C   UNL     1      57.608  46.801  15.912  1.00  0.00     0.000 C 
BRANCH  19  20
ATOM     20  C   UNL     1      57.623  45.605  16.876  1.00  0.00     0.006 C 
BRANCH  20  21
ATOM     21  C   UNL     1      57.743  44.265  16.138  1.00  0.00     0.053 C 
BRANCH  21  22
ATOM     22  C   UNL     1      56.656  43.313  16.533  1.00  0.00     0.041 C 
ATOM     23  O   UNL     1      55.459  43.556  16.227  1.00  0.00    -0.550 OA
ATOM     24  O   UNL     1      56.969  42.138  17.206  1.00  0.00    -0.550 OA
ENDBRANCH  21  22
ENDBRANCH  20  21
ENDBRANCH  19  20
ENDBRANCH  18  19
ENDBRANCH  17  18
ENDBRANCH  16  17
ENDBRANCH  15  16
ENDBRANCH  14  15
ENDBRANCH  13  14
ENDBRANCH   1  13
TORSDOF 20
ENDMDL
MODEL 4
REMARK VINA RESULT:    -3.419      7.029      9.158
REMARK INTER + INTRA:         -10.037
REMARK INTER:                  -6.664
REMARK INTRA:                  -3.373
REMARK UNBOUND:                -2.621
REMARK SMILES CCCCCCCCCCCCCCCCCCCCCC(=O)[O-]
REMARK SMILES IDX 12 1 11 2 10 3 9 4 8 5 7 6 6 7 5 8 4 9 3 10 2 11 1 12 13 13
REMARK SMILES IDX 14 14 15 15 16 16 17 17 18 18 19 19 20 20 21 21 22 22 23 23
REMARK SMILES IDX 24 24
REMARK H PARENT
REMARK Flexibility Score: inf
ROOT
ATOM      1  C   UNL     1      60.404  34.259  14.962  1.00  0.00     0.000 C 
ENDROOT
BRANCH   1   2
ATOM      2  C   UNL     1      61.264  34.093  13.696  1.00  0.00     0.000 C 
BRANCH   2   3
ATOM      3  C   UNL     1      60.445  34.299  12.405  1.00  0.00     0.000 C 
BRANCH   3   4
ATOM      4  C   UNL     1      59.682  33.044  11.947  1.00  0.00    -0.000 C 
BRANCH   4   5
ATOM      5  C   UNL     1      58.159  33.177  12.112  1.00  0.00    -0.000 C 
BRANCH   5   6
ATOM      6  C   UNL     1      57.701  34.645  12.180  1.00  0.00    -0.000 C 
BRANCH   6   7
ATOM      7  C   UNL     1      56.244  34.783  12.657  1.00  0.00    -0.000 C 
BRANCH   7   8
ATOM      8  C   UNL     1      55.759  36.244  12.684  1.00  0.00    -0.000 C 
BRANCH   8   9
ATOM      9  C   UNL     1      55.433  36.794  14.085  1.00  0.00    -0.000 C 
BRANCH   9  10
ATOM     10  C   UNL     1      53.943  37.132  14.263  1.00  0.00    -0.000 C 
BRANCH  10  11
ATOM     11  C   UNL     1      53.266  36.264  15.334  1.00  0.00    -0.003 C 
ATOM     12  C   UNL     1      53.008  34.834  14.858  1.00  0.00     0.004 C 
ENDBRANCH  10  11
ENDBRANCH   9  10
ENDBRANCH   8   9
ENDBRANCH   7   8
ENDBRANCH   6   7
ENDBRANCH   5   6
ENDBRANCH   4   5
ENDBRANCH   3   4
ENDBRANCH   2   3
ENDBRANCH   1   2
BRANCH   1  13
ATOM     13  C   UNL     1      60.053  32.916  15.620  1.00  0.00     0.000 C 
BRANCH  13  14
ATOM     14  C   UNL     1      58.544  32.748  15.853  1.00  0.00     0.000 C 
BRANCH  14  15
ATOM     15  C   UNL     1      57.832  34.109  15.865  1.00  0.00     0.000 C 
BRANCH  15  16
ATOM     16  C   UNL     1      56.367  33.997  16.323  1.00  0.00     0.000 C 
BRANCH  16  17
ATOM     17  C   UNL     1      55.985  35.101  17.326  1.00  0.00     0.000 C 
BRANCH  17  18
ATOM     18  C   UNL     1      57.082  36.165  17.487  1.00  0.00     0.000 C 
BRANCH  18  19
ATOM     19  C   UNL     1      56.608  37.395  18.275  1.00  0.00     0.000 C 
BRANCH  19  20
ATOM     20  C   UNL     1      55.907  38.402  17.351  1.00  0.00     0.006 C 
BRANCH  20  21
ATOM     21  C   UNL     1      55.998  39.839  17.881  1.00  0.00     0.053 C 
BRANCH  21  22
ATOM     22  C   UNL     1      54.686  40.554  17.778  1.00  0.00     0.041 C 
ATOM     23  O   UNL     1      54.656  41.788  17.527  1.00  0.00    -0.550 OA
ATOM     24  O   UNL     1      53.495  39.852  17.922  1.00  0.00    -0.550 OA
ENDBRANCH  21  22
ENDBRANCH  20  21
ENDBRANCH  19  20
ENDBRANCH  18  19
ENDBRANCH  17  18
ENDBRANCH  16  17
ENDBRANCH  15  16
ENDBRANCH  14  15
ENDBRANCH  13  14
ENDBRANCH   1  13
TORSDOF 20
ENDMDL
MODEL 5
REMARK VINA RESULT:    -3.416      6.660     11.076
REMARK INTER + INTRA:         -10.032
REMARK INTER:                  -6.214
REMARK INTRA:                  -3.818
REMARK UNBOUND:                -2.621
REMARK SMILES CCCCCCCCCCCCCCCCCCCCCC(=O)[O-]
REMARK SMILES IDX 12 1 11 2 10 3 9 4 8 5 7 6 6 7 5 8 4 9 3 10 2 11 1 12 13 13
REMARK SMILES IDX 14 14 15 15 16 16 17 17 18 18 19 19 20 20 21 21 22 22 23 23
REMARK SMILES IDX 24 24
REMARK H PARENT
REMARK Flexibility Score: inf
ROOT
ATOM      1  C   UNL     1      49.899  50.276  12.840  1.00  0.00     0.000 C 
ENDROOT
BRANCH   1   2
ATOM      2  C   UNL     1      50.575  50.076  11.471  1.00  0.00     0.000 C 
BRANCH   2   3
ATOM      3  C   UNL     1      51.866  49.237  11.577  1.00  0.00     0.000 C 
BRANCH   3   4
ATOM      4  C   UNL     1      53.119  50.065  11.908  1.00  0.00    -0.000 C 
BRANCH   4   5
ATOM      5  C   UNL     1      54.015  49.397  12.964  1.00  0.00    -0.000 C 
BRANCH   5   6
ATOM      6  C   UNL     1      53.558  47.968  13.304  1.00  0.00    -0.000 C 
BRANCH   6   7
ATOM      7  C   UNL     1      54.737  47.040  13.645  1.00  0.00    -0.000 C 
BRANCH   7   8
ATOM      8  C   UNL     1      56.072  47.794  13.783  1.00  0.00    -0.000 C 
BRANCH   8   9
ATOM      9  C   UNL     1      57.289  46.907  14.102  1.00  0.00    -0.000 C 
BRANCH   9  10
ATOM     10  C   UNL     1      57.248  46.324  15.525  1.00  0.00    -0.000 C 
BRANCH  10  11
ATOM     11  C   UNL     1      57.736  44.869  15.580  1.00  0.00    -0.003 C 
ATOM     12  C   UNL     1      58.317  44.492  16.944  1.00  0.00     0.004 C 
ENDBRANCH  10  11
ENDBRANCH   9  10
ENDBRANCH   8   9
ENDBRANCH   7   8
ENDBRANCH   6   7
ENDBRANCH   5   6
ENDBRANCH   4   5
ENDBRANCH   3   4
ENDBRANCH   2   3
ENDBRANCH   1   2
BRANCH   1  13
ATOM     13  C   UNL     1      50.076  49.065  13.769  1.00  0.00     0.000 C 
BRANCH  13  14
ATOM     14  C   UNL     1      50.780  49.428  15.086  1.00  0.00     0.000 C 
BRANCH  14  15
ATOM     15  C   UNL     1      51.245  50.892  15.078  1.00  0.00     0.000 C 
BRANCH  15  16
ATOM     16  C   UNL     1      52.464  51.121  15.988  1.00  0.00     0.000 C 
BRANCH  16  17
ATOM     17  C   UNL     1      52.785  49.890  16.855  1.00  0.00     0.000 C 
BRANCH  17  18
ATOM     18  C   UNL     1      54.224  49.387  16.664  1.00  0.00     0.000 C 
BRANCH  18  19
ATOM     19  C   UNL     1      54.519  48.109  17.463  1.00  0.00     0.000 C 
BRANCH  19  20
ATOM     20  C   UNL     1      53.619  46.953  17.000  1.00  0.00     0.006 C 
BRANCH  20  21
ATOM     21  C   UNL     1      54.150  45.586  17.451  1.00  0.00     0.053 C 
BRANCH  21  22
ATOM     22  C   UNL     1      53.671  44.481  16.560  1.00  0.00     0.041 C 
ATOM     23  O   UNL     1      52.473  44.455  16.172  1.00  0.00    -0.550 OA
ATOM     24  O   UNL     1      54.557  43.502  16.125  1.00  0.00    -0.550 OA
ENDBRANCH  21  22
ENDBRANCH  20  21
ENDBRANCH  19  20
ENDBRANCH  18  19
ENDBRANCH  17  18
ENDBRANCH  16  17
ENDBRANCH  15  16
ENDBRANCH  14  15
ENDBRANCH  13  14
ENDBRANCH   1  13
TORSDOF 20
ENDMDL
MODEL 6
REMARK VINA RESULT:    -3.414      8.672     12.749
REMARK INTER + INTRA:         -10.028
REMARK INTER:                  -6.437
REMARK INTRA:                  -3.591
REMARK UNBOUND:                -2.621
REMARK SMILES CCCCCCCCCCCCCCCCCCCCCC(=O)[O-]
REMARK SMILES IDX 12 1 11 2 10 3 9 4 8 5 7 6 6 7 5 8 4 9 3 10 2 11 1 12 13 13
REMARK SMILES IDX 14 14 15 15 16 16 17 17 18 18 19 19 20 20 21 21 22 22 23 23
REMARK SMILES IDX 24 24
REMARK H PARENT
REMARK Flexibility Score: inf
ROOT
ATOM      1  C   UNL     1      50.359  50.043  14.169  1.00  0.00     0.000 C 
ENDROOT
BRANCH   1   2
ATOM      2  C   UNL     1      49.755  48.669  13.825  1.00  0.00     0.000 C 
BRANCH   2   3
ATOM      3  C   UNL     1      50.798  47.536  13.919  1.00  0.00     0.000 C 
BRANCH   3   4
ATOM      4  C   UNL     1      51.575  47.516  15.245  1.00  0.00    -0.000 C 
BRANCH   4   5
ATOM      5  C   UNL     1      52.514  46.304  15.370  1.00  0.00    -0.000 C 
BRANCH   5   6
ATOM      6  C   UNL     1      52.793  45.925  16.835  1.00  0.00    -0.000 C 
BRANCH   6   7
ATOM      7  C   UNL     1      52.073  44.631  17.253  1.00  0.00    -0.000 C 
BRANCH   7   8
ATOM      8  C   UNL     1      51.404  43.909  16.070  1.00  0.00    -0.000 C 
BRANCH   8   9
ATOM      9  C   UNL     1      49.879  43.736  16.194  1.00  0.00    -0.000 C 
BRANCH   9  10
ATOM     10  C   UNL     1      49.110  44.343  15.007  1.00  0.00    -0.000 C 
BRANCH  10  11
ATOM     11  C   UNL     1      48.203  45.509  15.427  1.00  0.00    -0.003 C 
ATOM     12  C   UNL     1      48.491  45.999  16.847  1.00  0.00     0.004 C 
ENDBRANCH  10  11
ENDBRANCH   9  10
ENDBRANCH   8   9
ENDBRANCH   7   8
ENDBRANCH   6   7
ENDBRANCH   5   6
ENDBRANCH   4   5
ENDBRANCH   3   4
ENDBRANCH   2   3
ENDBRANCH   1   2
BRANCH   1  13
ATOM     13  C   UNL     1      49.991  51.125  13.142  1.00  0.00     0.000 C 
BRANCH  13  14
ATOM     14  C   UNL     1      50.163  50.646  11.692  1.00  0.00     0.000 C 
BRANCH  14  15
ATOM     15  C   UNL     1      51.583  50.930  11.181  1.00  0.00     0.000 C 
BRANCH  15  16
ATOM     16  C   UNL     1      52.384  49.639  10.934  1.00  0.00     0.000 C 
BRANCH  16  17
ATOM     17  C   UNL     1      53.318  49.298  12.109  1.00  0.00     0.000 C 
BRANCH  17  18
ATOM     18  C   UNL     1      54.084  50.522  12.635  1.00  0.00     0.000 C 
BRANCH  18  19
ATOM     19  C   UNL     1      55.233  50.145  13.582  1.00  0.00     0.000 C 
BRANCH  19  20
ATOM     20  C   UNL     1      54.705  49.384  14.808  1.00  0.00     0.006 C 
BRANCH  20  21
ATOM     21  C   UNL     1      55.678  48.295  15.278  1.00  0.00     0.053 C 
BRANCH  21  22
ATOM     22  C   UNL     1      56.263  47.535  14.127  1.00  0.00     0.041 C 
ATOM     23  O   UNL     1      55.577  46.661  13.532  1.00  0.00    -0.550 OA
ATOM     24  O   UNL     1      57.550  47.817  13.686  1.00  0.00    -0.550 OA
ENDBRANCH  21  22
ENDBRANCH  20  21
ENDBRANCH  19  20
ENDBRANCH  18  19
ENDBRANCH  17  18
ENDBRANCH  16  17
ENDBRANCH  15  16
ENDBRANCH  14  15
ENDBRANCH  13  14
ENDBRANCH   1  13
TORSDOF 20
ENDMDL
MODEL 7
REMARK VINA RESULT:    -3.398      6.796     11.044
REMARK INTER + INTRA:          -9.991
REMARK INTER:                  -7.005
REMARK INTRA:                  -2.987
REMARK UNBOUND:                -2.621
REMARK SMILES CCCCCCCCCCCCCCCCCCCCCC(=O)[O-]
REMARK SMILES IDX 12 1 11 2 10 3 9 4 8 5 7 6 6 7 5 8 4 9 3 10 2 11 1 12 13 13
REMARK SMILES IDX 14 14 15 15 16 16 17 17 18 18 19 19 20 20 21 21 22 22 23 23
REMARK SMILES IDX 24 24
REMARK H PARENT
REMARK Flexibility Score: inf
ROOT
ATOM      1  C   UNL     1      52.189  49.408  11.255  1.00  0.00     0.000 C 
ENDROOT
BRANCH   1   2
ATOM      2  C   UNL     1      50.805  50.007  10.945  1.00  0.00     0.000 C 
BRANCH   2   3
ATOM      3  C   UNL     1      50.411  51.111  11.948  1.00  0.00     0.000 C 
BRANCH   3   4
ATOM      4  C   UNL     1      49.649  50.590  13.177  1.00  0.00    -0.000 C 
BRANCH   4   5
ATOM      5  C   UNL     1      50.504  50.593  14.456  1.00  0.00    -0.000 C 
BRANCH   5   6
ATOM      6  C   UNL     1      50.771  49.174  14.987  1.00  0.00    -0.000 C 
BRANCH   6   7
ATOM      7  C   UNL     1      50.198  48.084  14.064  1.00  0.00    -0.000 C 
BRANCH   7   8
ATOM      8  C   UNL     1      51.118  46.856  13.944  1.00  0.00    -0.000 C 
BRANCH   8   9
ATOM      9  C   UNL     1      52.006  46.587  15.173  1.00  0.00    -0.000 C 
BRANCH   9  10
ATOM     10  C   UNL     1      51.758  45.203  15.798  1.00  0.00    -0.000 C 
BRANCH  10  11
ATOM     11  C   UNL     1      50.407  44.602  15.383  1.00  0.00    -0.003 C 
ATOM     12  C   UNL     1      49.325  44.791  16.448  1.00  0.00     0.004 C 
ENDBRANCH  10  11
ENDBRANCH   9  10
ENDBRANCH   8   9
ENDBRANCH   7   8
ENDBRANCH   6   7
ENDBRANCH   5   6
ENDBRANCH   4   5
ENDBRANCH   3   4
ENDBRANCH   2   3
ENDBRANCH   1   2
BRANCH   1  13
ATOM     13  C   UNL     1      53.173  50.449  11.810  1.00  0.00     0.000 C 
BRANCH  13  14
ATOM     14  C   UNL     1      53.917  49.953  13.059  1.00  0.00     0.000 C 
BRANCH  14  15
ATOM     15  C   UNL     1      54.232  48.454  12.956  1.00  0.00     0.000 C 
BRANCH  15  16
ATOM     16  C   UNL     1      55.445  48.052  13.813  1.00  0.00     0.000 C 
BRANCH  16  17
ATOM     17  C   UNL     1      55.513  46.532  14.050  1.00  0.00     0.000 C 
BRANCH  17  18
ATOM     18  C   UNL     1      56.224  46.166  15.362  1.00  0.00     0.000 C 
BRANCH  18  19
ATOM     19  C   UNL     1      57.559  45.442  15.134  1.00  0.00     0.000 C 
BRANCH  19  20
ATOM     20  C   UNL     1      57.853  44.461  16.279  1.00  0.00     0.006 C 
BRANCH  20  21
ATOM     21  C   UNL     1      56.675  44.337  17.255  1.00  0.00     0.053 C 
BRANCH  21  22
ATOM     22  C   UNL     1      55.982  43.015  17.126  1.00  0.00     0.041 C 
ATOM     23  O   UNL     1      54.792  42.962  16.717  1.00  0.00    -0.550 OA
ATOM     24  O   UNL     1      56.661  41.840  17.421  1.00  0.00    -0.550 OA
ENDBRANCH  21  22
ENDBRANCH  20  21
ENDBRANCH  19  20
ENDBRANCH  18  19
ENDBRANCH  17  18
ENDBRANCH  16  17
ENDBRANCH  15  16
ENDBRANCH  14  15
ENDBRANCH  13  14
ENDBRANCH   1  13
TORSDOF 20
ENDMDL
MODEL 8
REMARK VINA RESULT:    -3.333      8.001     13.001
REMARK INTER + INTRA:          -9.851
REMARK INTER:                  -6.761
REMARK INTRA:                  -3.089
REMARK UNBOUND:                -2.621
REMARK SMILES CCCCCCCCCCCCCCCCCCCCCC(=O)[O-]
REMARK SMILES IDX 12 1 11 2 10 3 9 4 8 5 7 6 6 7 5 8 4 9 3 10 2 11 1 12 13 13
REMARK SMILES IDX 14 14 15 15 16 16 17 17 18 18 19 19 20 20 21 21 22 22 23 23
REMARK SMILES IDX 24 24
REMARK H PARENT
REMARK Flexibility Score: inf
ROOT
ATOM      1  C   UNL     1      50.645  49.781  14.637  1.00  0.00     0.000 C 
ENDROOT
BRANCH   1   2
ATOM      2  C   UNL     1      50.797  48.342  15.163  1.00  0.00     0.000 C 
BRANCH   2   3
ATOM      3  C   UNL     1      50.459  47.290  14.086  1.00  0.00     0.000 C 
BRANCH   3   4
ATOM      4  C   UNL     1      51.195  45.953  14.271  1.00  0.00    -0.000 C 
BRANCH   4   5
ATOM      5  C   UNL     1      50.978  45.339  15.664  1.00  0.00    -0.000 C 
BRANCH   5   6
ATOM      6  C   UNL     1      50.235  43.993  15.604  1.00  0.00    -0.000 C 
BRANCH   6   7
ATOM      7  C   UNL     1      48.789  44.143  15.101  1.00  0.00    -0.000 C 
BRANCH   7   8
ATOM      8  C   UNL     1      47.777  44.356  16.241  1.00  0.00    -0.000 C 
BRANCH   8   9
ATOM      9  C   UNL     1      47.030  45.702  16.203  1.00  0.00    -0.000 C 
BRANCH   9  10
ATOM     10  C   UNL     1      47.817  46.842  16.871  1.00  0.00    -0.000 C 
BRANCH  10  11
ATOM     11  C   UNL     1      48.374  46.446  18.247  1.00  0.00    -0.003 C 
ATOM     12  C   UNL     1      49.643  47.218  18.614  1.00  0.00     0.004 C 
ENDBRANCH  10  11
ENDBRANCH   9  10
ENDBRANCH   8   9
ENDBRANCH   7   8
ENDBRANCH   6   7
ENDBRANCH   5   6
ENDBRANCH   4   5
ENDBRANCH   3   4
ENDBRANCH   2   3
ENDBRANCH   1   2
BRANCH   1  13
ATOM     13  C   UNL     1      49.677  49.876  13.447  1.00  0.00     0.000 C 
BRANCH  13  14
ATOM     14  C   UNL     1      50.111  50.927  12.414  1.00  0.00     0.000 C 
BRANCH  14  15
ATOM     15  C   UNL     1      50.582  50.261  11.113  1.00  0.00     0.000 C 
BRANCH  15  16
ATOM     16  C   UNL     1      52.115  50.222  10.998  1.00  0.00     0.000 C 
BRANCH  16  17
ATOM     17  C   UNL     1      52.720  48.981  11.680  1.00  0.00     0.000 C 
BRANCH  17  18
ATOM     18  C   UNL     1      53.804  49.337  12.709  1.00  0.00     0.000 C 
BRANCH  18  19
ATOM     19  C   UNL     1      54.405  48.100  13.394  1.00  0.00     0.000 C 
BRANCH  19  20
ATOM     20  C   UNL     1      55.903  48.300  13.669  1.00  0.00     0.006 C 
BRANCH  20  21
ATOM     21  C   UNL     1      56.693  46.989  13.559  1.00  0.00     0.053 C 
BRANCH  21  22
ATOM     22  C   UNL     1      57.133  46.489  14.901  1.00  0.00     0.041 C 
ATOM     23  O   UNL     1      57.143  47.266  15.893  1.00  0.00    -0.550 OA
ATOM     24  O   UNL     1      57.494  45.158  15.065  1.00  0.00    -0.550 OA
ENDBRANCH  21  22
ENDBRANCH  20  21
ENDBRANCH  19  20
ENDBRANCH  18  19
ENDBRANCH  17  18
ENDBRANCH  16  17
ENDBRANCH  15  16
ENDBRANCH  14  15
ENDBRANCH  13  14
ENDBRANCH   1  13
TORSDOF 20
ENDMDL
MODEL 9
REMARK VINA RESULT:    -3.328      7.929     10.316
REMARK INTER + INTRA:          -9.840
REMARK INTER:                  -6.060
REMARK INTRA:                  -3.780
REMARK UNBOUND:                -2.621
REMARK SMILES CCCCCCCCCCCCCCCCCCCCCC(=O)[O-]
REMARK SMILES IDX 12 1 11 2 10 3 9 4 8 5 7 6 6 7 5 8 4 9 3 10 2 11 1 12 13 13
REMARK SMILES IDX 14 14 15 15 16 16 17 17 18 18 19 19 20 20 21 21 22 22 23 23
REMARK SMILES IDX 24 24
REMARK H PARENT
REMARK Flexibility Score: inf
ROOT
ATOM      1  C   UNL     1      59.067  31.673  11.850  1.00  0.00     0.000 C 
ENDROOT
BRANCH   1   2
ATOM      2  C   UNL     1      60.351  32.290  12.434  1.00  0.00     0.000 C 
BRANCH   2   3
ATOM      3  C   UNL     1      60.431  33.811  12.184  1.00  0.00     0.000 C 
BRANCH   3   4
ATOM      4  C   UNL     1      60.372  34.654  13.468  1.00  0.00    -0.000 C 
BRANCH   4   5
ATOM      5  C   UNL     1      60.886  33.897  14.705  1.00  0.00    -0.000 C 
BRANCH   5   6
ATOM      6  C   UNL     1      59.886  33.933  15.873  1.00  0.00    -0.000 C 
BRANCH   6   7
ATOM      7  C   UNL     1      58.581  33.184  15.551  1.00  0.00    -0.000 C 
BRANCH   7   8
ATOM      8  C   UNL     1      57.323  34.032  15.815  1.00  0.00    -0.000 C 
BRANCH   8   9
ATOM      9  C   UNL     1      57.590  35.411  16.446  1.00  0.00    -0.000 C 
BRANCH   9  10
ATOM     10  C   UNL     1      56.863  35.606  17.787  1.00  0.00    -0.000 C 
BRANCH  10  11
ATOM     11  C   UNL     1      56.562  37.083  18.085  1.00  0.00    -0.003 C 
ATOM     12  C   UNL     1      56.046  37.838  16.860  1.00  0.00     0.004 C 
ENDBRANCH  10  11
ENDBRANCH   9  10
ENDBRANCH   8   9
ENDBRANCH   7   8
ENDBRANCH   6   7
ENDBRANCH   5   6
ENDBRANCH   4   5
ENDBRANCH   3   4
ENDBRANCH   2   3
ENDBRANCH   1   2
BRANCH   1  13
ATOM     13  C   UNL     1      57.996  32.728  11.532  1.00  0.00     0.000 C 
BRANCH  13  14
ATOM     14  C   UNL     1      56.719  32.545  12.367  1.00  0.00     0.000 C 
BRANCH  14  15
ATOM     15  C   UNL     1      56.015  33.890  12.602  1.00  0.00     0.000 C 
BRANCH  15  16
ATOM     16  C   UNL     1      56.893  35.087  12.198  1.00  0.00     0.000 C 
BRANCH  16  17
ATOM     17  C   UNL     1      56.153  36.429  12.347  1.00  0.00     0.000 C 
BRANCH  17  18
ATOM     18  C   UNL     1      55.341  36.519  13.648  1.00  0.00     0.000 C 
BRANCH  18  19
ATOM     19  C   UNL     1      53.849  36.789  13.402  1.00  0.00     0.000 C 
BRANCH  19  20
ATOM     20  C   UNL     1      52.995  36.228  14.549  1.00  0.00     0.006 C 
BRANCH  20  21
ATOM     21  C   UNL     1      53.768  35.221  15.411  1.00  0.00     0.053 C 
BRANCH  21  22
ATOM     22  C   UNL     1      53.122  35.022  16.749  1.00  0.00     0.041 C 
ATOM     23  O   UNL     1      52.549  33.933  17.019  1.00  0.00    -0.550 OA
ATOM     24  O   UNL     1      53.187  36.023  17.710  1.00  0.00    -0.550 OA
ENDBRANCH  21  22
ENDBRANCH  20  21
ENDBRANCH  19  20
ENDBRANCH  18  19
ENDBRANCH  17  18
ENDBRANCH  16  17
ENDBRANCH  15  16
ENDBRANCH  14  15
ENDBRANCH  13  14
ENDBRANCH   1  13
TORSDOF 20
ENDMDL
