MODEL 1
REMARK VINA RESULT:    -7.286      0.000      0.000
REMARK INTER + INTRA:          -7.925
REMARK INTER:                  -7.925
REMARK INTRA:                   0.000
REMARK UNBOUND:                 0.000
REMARK SMILES Cc1cc(O)c2c(c1)C(=O)c1cc(O)cc(O)c1C2=O
REMARK SMILES IDX 1 1 2 2 8 3 7 4 6 5 4 6 3 7 19 8 20 9 18 10 11 11 9 12 10 13
REMARK SMILES IDX 12 14 13 15 15 16 16 17 5 18 17 20 14 22
REMARK H PARENT 5 19 17 21 14 23
REMARK Flexibility Score: inf
ROOT
ATOM      1  C   UNL     1     -41.016  29.125 -19.815  1.00  0.00     0.044 C 
ATOM      2  C   UNL     1     -42.317  28.550 -19.336  1.00  0.00    -0.047 A 
ATOM      3  C   UNL     1     -42.736  28.759 -18.019  1.00  0.00     0.016 A 
ATOM      4  C   UNL     1     -43.929  28.187 -17.545  1.00  0.00     0.038 A 
ATOM      5  C   UNL     1     -44.705  27.367 -18.398  1.00  0.00     0.076 A 
ATOM      6  C   UNL     1     -44.304  27.210 -19.752  1.00  0.00     0.127 A 
ATOM      7  C   UNL     1     -43.099  27.769 -20.190  1.00  0.00     0.050 A 
ATOM      8  C   UNL     1     -45.876  26.652 -17.819  1.00  0.00     0.201 C 
ATOM      9  O   UNL     1     -46.337  25.625 -18.386  1.00  0.00    -0.288 OA
ATOM     10  C   UNL     1     -46.437  27.074 -16.508  1.00  0.00     0.076 A 
ATOM     11  C   UNL     1     -45.685  27.943 -15.688  1.00  0.00     0.041 A 
ATOM     12  C   UNL     1     -44.375  28.449 -16.156  1.00  0.00     0.194 C 
ATOM     13  O   UNL     1     -43.646  29.121 -15.375  1.00  0.00    -0.289 OA
ATOM     14  C   UNL     1     -46.184  28.321 -14.429  1.00  0.00     0.059 A 
ATOM     15  C   UNL     1     -47.424  27.850 -13.986  1.00  0.00     0.120 A 
ATOM     16  C   UNL     1     -48.172  26.998 -14.797  1.00  0.00     0.093 A 
ATOM     17  C   UNL     1     -47.692  26.607 -16.054  1.00  0.00     0.131 A 
ENDROOT
BRANCH   6  18
ATOM     18  O   UNL     1     -45.078  26.543 -20.703  1.00  0.00    -0.507 OA
ATOM     19  H   UNL     1     -45.568  27.007 -21.455  1.00  0.00     0.293 HD
ENDBRANCH   6  18
BRANCH  17  20
ATOM     20  O   UNL     1     -48.468  25.764 -16.851  1.00  0.00    -0.507 OA
ATOM     21  H   UNL     1     -48.086  24.920 -17.261  1.00  0.00     0.293 HD
ENDBRANCH  17  20
BRANCH  15  22
ATOM     22  O   UNL     1     -47.921  28.223 -12.739  1.00  0.00    -0.508 OA
ATOM     23  H   UNL     1     -47.967  29.195 -12.456  1.00  0.00     0.293 HD
ENDBRANCH  15  22
TORSDOF 3
ENDMDL
MODEL 2
REMARK VINA RESULT:    -7.085      1.701      6.579
REMARK INTER + INTRA:          -7.707
REMARK INTER:                  -7.707
REMARK INTRA:                   0.000
REMARK UNBOUND:                 0.000
REMARK SMILES Cc1cc(O)c2c(c1)C(=O)c1cc(O)cc(O)c1C2=O
REMARK SMILES IDX 1 1 2 2 8 3 7 4 6 5 4 6 3 7 19 8 20 9 18 10 11 11 9 12 10 13
REMARK SMILES IDX 12 14 13 15 15 16 16 17 5 18 17 20 14 22
REMARK H PARENT 5 19 17 21 14 23
REMARK Flexibility Score: inf
ROOT
ATOM      1  C   UNL     1     -51.856  25.596 -14.832  1.00  0.00     0.044 C 
ATOM      2  C   UNL     1     -50.530  26.238 -15.122  1.00  0.00    -0.047 A 
ATOM      3  C   UNL     1     -49.687  25.700 -16.098  1.00  0.00     0.016 A 
ATOM      4  C   UNL     1     -48.423  26.264 -16.345  1.00  0.00     0.038 A 
ATOM      5  C   UNL     1     -47.983  27.371 -15.581  1.00  0.00     0.076 A 
ATOM      6  C   UNL     1     -48.871  27.948 -14.634  1.00  0.00     0.127 A 
ATOM      7  C   UNL     1     -50.112  27.352 -14.390  1.00  0.00     0.050 A 
ATOM      8  C   UNL     1     -46.582  27.843 -15.761  1.00  0.00     0.201 C 
ATOM      9  O   UNL     1     -46.018  28.515 -14.857  1.00  0.00    -0.288 OA
ATOM     10  C   UNL     1     -45.800  27.426 -16.955  1.00  0.00     0.076 A 
ATOM     11  C   UNL     1     -46.277  26.362 -17.750  1.00  0.00     0.041 A 
ATOM     12  C   UNL     1     -47.558  25.703 -17.410  1.00  0.00     0.194 C 
ATOM     13  O   UNL     1     -47.921  24.672 -18.040  1.00  0.00    -0.289 OA
ATOM     14  C   UNL     1     -45.529  25.931 -18.860  1.00  0.00     0.059 A 
ATOM     15  C   UNL     1     -44.322  26.554 -19.188  1.00  0.00     0.120 A 
ATOM     16  C   UNL     1     -43.853  27.611 -18.410  1.00  0.00     0.093 A 
ATOM     17  C   UNL     1     -44.581  28.055 -17.298  1.00  0.00     0.131 A 
ENDROOT
BRANCH   6  18
ATOM     18  O   UNL     1     -48.584  29.125 -13.939  1.00  0.00    -0.507 OA
ATOM     19  H   UNL     1     -49.007  30.018 -14.148  1.00  0.00     0.293 HD
ENDBRANCH   6  18
BRANCH  17  20
ATOM     20  O   UNL     1     -44.094  29.123 -16.544  1.00  0.00    -0.507 OA
ATOM     21  H   UNL     1     -43.100  29.286 -16.430  1.00  0.00     0.293 HD
ENDBRANCH  17  20
BRANCH  15  22
ATOM     22  O   UNL     1     -43.580  26.130 -20.289  1.00  0.00    -0.508 OA
ATOM     23  H   UNL     1     -42.704  25.632 -20.178  1.00  0.00     0.293 HD
ENDBRANCH  15  22
TORSDOF 3
ENDMDL
MODEL 3
REMARK VINA RESULT:    -7.006      2.254      3.709
REMARK INTER + INTRA:          -7.620
REMARK INTER:                  -7.620
REMARK INTRA:                   0.000
REMARK UNBOUND:                 0.000
REMARK SMILES Cc1cc(O)c2c(c1)C(=O)c1cc(O)cc(O)c1C2=O
REMARK SMILES IDX 1 1 2 2 8 3 7 4 6 5 4 6 3 7 19 8 20 9 18 10 11 11 9 12 10 13
REMARK SMILES IDX 12 14 13 15 15 16 16 17 5 18 17 20 14 22
REMARK H PARENT 5 19 17 21 14 23
REMARK Flexibility Score: inf
ROOT
ATOM      1  C   UNL     1     -42.959  29.125 -14.641  1.00  0.00     0.044 C 
ATOM      2  C   UNL     1     -44.233  28.747 -15.339  1.00  0.00    -0.047 A 
ATOM      3  C   UNL     1     -45.419  28.612 -14.612  1.00  0.00     0.016 A 
ATOM      4  C   UNL     1     -46.609  28.212 -15.246  1.00  0.00     0.038 A 
ATOM      5  C   UNL     1     -46.605  27.916 -16.629  1.00  0.00     0.076 A 
ATOM      6  C   UNL     1     -45.410  28.115 -17.372  1.00  0.00     0.127 A 
ATOM      7  C   UNL     1     -44.235  28.488 -16.712  1.00  0.00     0.050 A 
ATOM      8  C   UNL     1     -47.841  27.347 -17.235  1.00  0.00     0.201 C 
ATOM      9  O   UNL     1     -47.779  26.695 -18.311  1.00  0.00    -0.288 OA
ATOM     10  C   UNL     1     -49.139  27.443 -16.515  1.00  0.00     0.076 A 
ATOM     11  C   UNL     1     -49.141  27.801 -15.150  1.00  0.00     0.041 A 
ATOM     12  C   UNL     1     -47.865  28.110 -14.466  1.00  0.00     0.194 C 
ATOM     13  O   UNL     1     -47.851  28.305 -13.219  1.00  0.00    -0.289 OA
ATOM     14  C   UNL     1     -50.356  27.859 -14.445  1.00  0.00     0.059 A 
ATOM     15  C   UNL     1     -51.564  27.573 -15.089  1.00  0.00     0.120 A 
ATOM     16  C   UNL     1     -51.566  27.227 -16.439  1.00  0.00     0.093 A 
ATOM     17  C   UNL     1     -50.366  27.161 -17.159  1.00  0.00     0.131 A 
ENDROOT
BRANCH   6  18
ATOM     18  O   UNL     1     -45.346  27.990 -18.761  1.00  0.00    -0.507 OA
ATOM     19  H   UNL     1     -44.484  28.010 -19.288  1.00  0.00     0.293 HD
ENDBRANCH   6  18
BRANCH  17  20
ATOM     20  O   UNL     1     -50.398  26.826 -18.513  1.00  0.00    -0.507 OA
ATOM     21  H   UNL     1     -49.989  25.964 -18.858  1.00  0.00     0.293 HD
ENDBRANCH  17  20
BRANCH  15  22
ATOM     22  O   UNL     1     -52.770  27.630 -14.393  1.00  0.00    -0.508 OA
ATOM     23  H   UNL     1     -53.556  27.042 -14.643  1.00  0.00     0.293 HD
ENDBRANCH  15  22
TORSDOF 3
ENDMDL
MODEL 4
REMARK VINA RESULT:    -6.820      1.370      3.603
REMARK INTER + INTRA:          -7.418
REMARK INTER:                  -7.418
REMARK INTRA:                   0.000
REMARK UNBOUND:                 0.000
REMARK SMILES Cc1cc(O)c2c(c1)C(=O)c1cc(O)cc(O)c1C2=O
REMARK SMILES IDX 1 1 2 2 8 3 7 4 6 5 4 6 3 7 19 8 20 9 18 10 11 11 9 12 10 13
REMARK SMILES IDX 12 14 13 15 15 16 16 17 5 18 17 20 14 22
REMARK H PARENT 5 19 17 21 14 23
REMARK Flexibility Score: inf
ROOT
ATOM      1  C   UNL     1     -42.235  29.102 -19.568  1.00  0.00     0.044 C 
ATOM      2  C   UNL     1     -43.072  28.671 -18.399  1.00  0.00    -0.047 A 
ATOM      3  C   UNL     1     -44.191  27.858 -18.597  1.00  0.00     0.016 A 
ATOM      4  C   UNL     1     -45.010  27.487 -17.516  1.00  0.00     0.038 A 
ATOM      5  C   UNL     1     -44.717  27.961 -16.216  1.00  0.00     0.076 A 
ATOM      6  C   UNL     1     -43.543  28.736 -16.014  1.00  0.00     0.127 A 
ATOM      7  C   UNL     1     -42.761  29.112 -17.110  1.00  0.00     0.050 A 
ATOM      8  C   UNL     1     -45.691  27.677 -15.124  1.00  0.00     0.201 C 
ATOM      9  O   UNL     1     -45.708  28.394 -14.088  1.00  0.00    -0.288 OA
ATOM     10  C   UNL     1     -46.724  26.624 -15.299  1.00  0.00     0.076 A 
ATOM     11  C   UNL     1     -46.968  26.108 -16.590  1.00  0.00     0.041 A 
ATOM     12  C   UNL     1     -46.171  26.594 -17.740  1.00  0.00     0.194 C 
ATOM     13  O   UNL     1     -46.472  26.231 -18.911  1.00  0.00    -0.289 OA
ATOM     14  C   UNL     1     -47.969  25.139 -16.779  1.00  0.00     0.059 A 
ATOM     15  C   UNL     1     -48.719  24.675 -15.695  1.00  0.00     0.120 A 
ATOM     16  C   UNL     1     -48.476  25.175 -14.417  1.00  0.00     0.093 A 
ATOM     17  C   UNL     1     -47.485  26.143 -14.208  1.00  0.00     0.131 A 
ENDROOT
BRANCH   6  18
ATOM     18  O   UNL     1     -43.096  29.125 -14.750  1.00  0.00    -0.507 OA
ATOM     19  H   UNL     1     -43.708  29.434 -14.008  1.00  0.00     0.293 HD
ENDBRANCH   6  18
BRANCH  17  20
ATOM     20  O   UNL     1     -47.253  26.617 -12.916  1.00  0.00    -0.507 OA
ATOM     21  H   UNL     1     -48.001  26.700 -12.237  1.00  0.00     0.293 HD
ENDBRANCH  17  20
BRANCH  15  22
ATOM     22  O   UNL     1     -49.712  23.714 -15.878  1.00  0.00    -0.508 OA
ATOM     23  H   UNL     1     -49.872  23.282 -16.780  1.00  0.00     0.293 HD
ENDBRANCH  15  22
TORSDOF 3
ENDMDL
MODEL 5
REMARK VINA RESULT:    -6.812      4.804      9.104
REMARK INTER + INTRA:          -7.409
REMARK INTER:                  -7.409
REMARK INTRA:                   0.000
REMARK UNBOUND:                 0.000
REMARK SMILES Cc1cc(O)c2c(c1)C(=O)c1cc(O)cc(O)c1C2=O
REMARK SMILES IDX 1 1 2 2 8 3 7 4 6 5 4 6 3 7 19 8 20 9 18 10 11 11 9 12 10 13
REMARK SMILES IDX 12 14 13 15 15 16 16 17 5 18 17 20 14 22
REMARK H PARENT 5 19 17 21 14 23
REMARK Flexibility Score: inf
ROOT
ATOM      1  C   UNL     1     -56.046  25.373 -12.032  1.00  0.00     0.044 C 
ATOM      2  C   UNL     1     -54.733  25.049 -12.682  1.00  0.00    -0.047 A 
ATOM      3  C   UNL     1     -54.072  26.011 -13.451  1.00  0.00     0.016 A 
ATOM      4  C   UNL     1     -52.865  25.705 -14.103  1.00  0.00     0.038 A 
ATOM      5  C   UNL     1     -52.323  24.401 -14.007  1.00  0.00     0.076 A 
ATOM      6  C   UNL     1     -52.969  23.448 -13.174  1.00  0.00     0.127 A 
ATOM      7  C   UNL     1     -54.182  23.771 -12.558  1.00  0.00     0.050 A 
ATOM      8  C   UNL     1     -51.131  24.068 -14.835  1.00  0.00     0.201 C 
ATOM      9  O   UNL     1     -50.865  22.867 -15.110  1.00  0.00    -0.288 OA
ATOM     10  C   UNL     1     -50.314  25.152 -15.440  1.00  0.00     0.076 A 
ATOM     11  C   UNL     1     -50.834  26.464 -15.477  1.00  0.00     0.041 A 
ATOM     12  C   UNL     1     -52.160  26.749 -14.883  1.00  0.00     0.194 C 
ATOM     13  O   UNL     1     -52.681  27.889 -15.027  1.00  0.00    -0.289 OA
ATOM     14  C   UNL     1     -50.090  27.494 -16.080  1.00  0.00     0.059 A 
ATOM     15  C   UNL     1     -48.835  27.230 -16.637  1.00  0.00     0.120 A 
ATOM     16  C   UNL     1     -48.316  25.937 -16.595  1.00  0.00     0.093 A 
ATOM     17  C   UNL     1     -49.041  24.897 -16.001  1.00  0.00     0.131 A 
ENDROOT
BRANCH   6  18
ATOM     18  O   UNL     1     -52.434  22.187 -12.903  1.00  0.00    -0.507 OA
ATOM     19  H   UNL     1     -52.070  21.567 -13.612  1.00  0.00     0.293 HD
ENDBRANCH   6  18
BRANCH  17  20
ATOM     20  O   UNL     1     -48.491  23.615 -15.961  1.00  0.00    -0.507 OA
ATOM     21  H   UNL     1     -47.654  23.411 -15.427  1.00  0.00     0.293 HD
ENDBRANCH  17  20
BRANCH  15  22
ATOM     22  O   UNL     1     -48.096  28.249 -17.235  1.00  0.00    -0.508 OA
ATOM     23  H   UNL     1     -48.083  29.188 -16.856  1.00  0.00     0.293 HD
ENDBRANCH  15  22
TORSDOF 3
ENDMDL
MODEL 6
REMARK VINA RESULT:    -6.753      1.719      2.606
REMARK INTER + INTRA:          -7.345
REMARK INTER:                  -7.345
REMARK INTRA:                   0.000
REMARK UNBOUND:                 0.000
REMARK SMILES Cc1cc(O)c2c(c1)C(=O)c1cc(O)cc(O)c1C2=O
REMARK SMILES IDX 1 1 2 2 8 3 7 4 6 5 4 6 3 7 19 8 20 9 18 10 11 11 9 12 10 13
REMARK SMILES IDX 12 14 13 15 15 16 16 17 5 18 17 20 14 22
REMARK H PARENT 5 19 17 21 14 23
REMARK Flexibility Score: inf
ROOT
ATOM      1  C   UNL     1     -42.779  27.555 -18.826  1.00  0.00     0.044 C 
ATOM      2  C   UNL     1     -44.119  27.073 -18.351  1.00  0.00    -0.047 A 
ATOM      3  C   UNL     1     -44.806  27.775 -17.357  1.00  0.00     0.016 A 
ATOM      4  C   UNL     1     -46.039  27.308 -16.870  1.00  0.00     0.038 A 
ATOM      5  C   UNL     1     -46.582  26.100 -17.369  1.00  0.00     0.076 A 
ATOM      6  C   UNL     1     -45.907  25.426 -18.423  1.00  0.00     0.127 A 
ATOM      7  C   UNL     1     -44.669  25.899 -18.870  1.00  0.00     0.050 A 
ATOM      8  C   UNL     1     -47.808  25.554 -16.723  1.00  0.00     0.201 C 
ATOM      9  O   UNL     1     -48.089  24.331 -16.827  1.00  0.00    -0.288 OA
ATOM     10  C   UNL     1     -48.645  26.423 -15.854  1.00  0.00     0.076 A 
ATOM     11  C   UNL     1     -48.122  27.657 -15.410  1.00  0.00     0.041 A 
ATOM     12  C   UNL     1     -46.772  28.085 -15.843  1.00  0.00     0.194 C 
ATOM     13  O   UNL     1     -46.253  29.122 -15.347  1.00  0.00    -0.289 OA
ATOM     14  C   UNL     1     -48.886  28.473 -14.556  1.00  0.00     0.059 A 
ATOM     15  C   UNL     1     -50.163  28.075 -14.150  1.00  0.00     0.120 A 
ATOM     16  C   UNL     1     -50.685  26.861 -14.593  1.00  0.00     0.093 A 
ATOM     17  C   UNL     1     -49.940  26.033 -15.442  1.00  0.00     0.131 A 
ENDROOT
BRANCH   6  18
ATOM     18  O   UNL     1     -46.436  24.311 -19.076  1.00  0.00    -0.507 OA
ATOM     19  H   UNL     1     -47.116  23.689 -18.663  1.00  0.00     0.293 HD
ENDBRANCH   6  18
BRANCH  17  20
ATOM     20  O   UNL     1     -50.493  24.829 -15.881  1.00  0.00    -0.507 OA
ATOM     21  H   UNL     1     -49.929  23.993 -15.992  1.00  0.00     0.293 HD
ENDBRANCH  17  20
BRANCH  15  22
ATOM     22  O   UNL     1     -50.922  28.882 -13.305  1.00  0.00    -0.508 OA
ATOM     23  H   UNL     1     -51.914  28.725 -13.171  1.00  0.00     0.293 HD
ENDBRANCH  15  22
TORSDOF 3
ENDMDL
MODEL 7
REMARK VINA RESULT:    -6.541      2.551      6.186
REMARK INTER + INTRA:          -7.115
REMARK INTER:                  -7.115
REMARK INTRA:                   0.000
REMARK UNBOUND:                 0.000
REMARK SMILES Cc1cc(O)c2c(c1)C(=O)c1cc(O)cc(O)c1C2=O
REMARK SMILES IDX 1 1 2 2 8 3 7 4 6 5 4 6 3 7 19 8 20 9 18 10 11 11 9 12 10 13
REMARK SMILES IDX 12 14 13 15 15 16 16 17 5 18 17 20 14 22
REMARK H PARENT 5 19 17 21 14 23
REMARK Flexibility Score: inf
ROOT
ATOM      1  C   UNL     1     -53.373  28.074 -14.349  1.00  0.00     0.044 C 
ATOM      2  C   UNL     1     -52.071  27.971 -15.090  1.00  0.00    -0.047 A 
ATOM      3  C   UNL     1     -50.878  28.355 -14.472  1.00  0.00     0.016 A 
ATOM      4  C   UNL     1     -49.660  28.309 -15.172  1.00  0.00     0.038 A 
ATOM      5  C   UNL     1     -49.639  27.895 -16.524  1.00  0.00     0.076 A 
ATOM      6  C   UNL     1     -50.847  27.447 -17.125  1.00  0.00     0.127 A 
ATOM      7  C   UNL     1     -52.049  27.529 -16.415  1.00  0.00     0.050 A 
ATOM      8  C   UNL     1     -48.360  28.006 -17.279  1.00  0.00     0.201 C 
ATOM      9  O   UNL     1     -48.368  28.055 -18.538  1.00  0.00    -0.288 OA
ATOM     10  C   UNL     1     -47.075  28.177 -16.551  1.00  0.00     0.076 A 
ATOM     11  C   UNL     1     -47.102  28.529 -15.184  1.00  0.00     0.041 A 
ATOM     12  C   UNL     1     -48.399  28.685 -14.489  1.00  0.00     0.194 C 
ATOM     13  O   UNL     1     -48.429  29.122 -13.305  1.00  0.00    -0.289 OA
ATOM     14  C   UNL     1     -45.895  28.732 -14.492  1.00  0.00     0.059 A 
ATOM     15  C   UNL     1     -44.668  28.580 -15.144  1.00  0.00     0.120 A 
ATOM     16  C   UNL     1     -44.638  28.225 -16.492  1.00  0.00     0.093 A 
ATOM     17  C   UNL     1     -45.828  28.020 -17.201  1.00  0.00     0.131 A 
ENDROOT
BRANCH   6  18
ATOM     18  O   UNL     1     -50.900  26.887 -18.403  1.00  0.00    -0.507 OA
ATOM     19  H   UNL     1     -50.592  25.949 -18.618  1.00  0.00     0.293 HD
ENDBRANCH   6  18
BRANCH  17  20
ATOM     20  O   UNL     1     -45.769  27.653 -18.546  1.00  0.00    -0.507 OA
ATOM     21  H   UNL     1     -45.374  28.267 -19.249  1.00  0.00     0.293 HD
ENDBRANCH  17  20
BRANCH  15  22
ATOM     22  O   UNL     1     -43.471  28.780 -14.460  1.00  0.00    -0.508 OA
ATOM     23  H   UNL     1     -43.451  28.924 -13.457  1.00  0.00     0.293 HD
ENDBRANCH  15  22
TORSDOF 3
ENDMDL
MODEL 8
REMARK VINA RESULT:    -6.486      3.645      7.912
REMARK INTER + INTRA:          -7.054
REMARK INTER:                  -7.054
REMARK INTRA:                   0.000
REMARK UNBOUND:                 0.000
REMARK SMILES Cc1cc(O)c2c(c1)C(=O)c1cc(O)cc(O)c1C2=O
REMARK SMILES IDX 1 1 2 2 8 3 7 4 6 5 4 6 3 7 19 8 20 9 18 10 11 11 9 12 10 13
REMARK SMILES IDX 12 14 13 15 15 16 16 17 5 18 17 20 14 22
REMARK H PARENT 5 19 17 21 14 23
REMARK Flexibility Score: inf
ROOT
ATOM      1  C   UNL     1     -53.619  23.664 -13.035  1.00  0.00     0.044 C 
ATOM      2  C   UNL     1     -52.812  24.621 -13.862  1.00  0.00    -0.047 A 
ATOM      3  C   UNL     1     -51.581  24.225 -14.395  1.00  0.00     0.016 A 
ATOM      4  C   UNL     1     -50.794  25.127 -15.132  1.00  0.00     0.038 A 
ATOM      5  C   UNL     1     -51.235  26.459 -15.317  1.00  0.00     0.076 A 
ATOM      6  C   UNL     1     -52.514  26.835 -14.825  1.00  0.00     0.127 A 
ATOM      7  C   UNL     1     -53.265  25.926 -14.073  1.00  0.00     0.050 A 
ATOM      8  C   UNL     1     -50.308  27.427 -15.967  1.00  0.00     0.201 C 
ATOM      9  O   UNL     1     -50.458  28.666 -15.789  1.00  0.00    -0.288 OA
ATOM     10  C   UNL     1     -49.131  26.937 -16.731  1.00  0.00     0.076 A 
ATOM     11  C   UNL     1     -48.733  25.590 -16.591  1.00  0.00     0.041 A 
ATOM     12  C   UNL     1     -49.510  24.679 -15.720  1.00  0.00     0.194 C 
ATOM     13  O   UNL     1     -49.085  23.513 -15.493  1.00  0.00    -0.289 OA
ATOM     14  C   UNL     1     -47.600  25.121 -17.278  1.00  0.00     0.059 A 
ATOM     15  C   UNL     1     -46.867  25.977 -18.106  1.00  0.00     0.120 A 
ATOM     16  C   UNL     1     -47.262  27.306 -18.253  1.00  0.00     0.093 A 
ATOM     17  C   UNL     1     -48.387  27.794 -17.576  1.00  0.00     0.131 A 
ENDROOT
BRANCH   6  18
ATOM     18  O   UNL     1     -53.094  28.078 -15.084  1.00  0.00    -0.507 OA
ATOM     19  H   UNL     1     -53.761  28.244 -15.825  1.00  0.00     0.293 HD
ENDBRANCH   6  18
BRANCH  17  20
ATOM     20  O   UNL     1     -48.767  29.125 -17.751  1.00  0.00    -0.507 OA
ATOM     21  H   UNL     1     -49.725  29.382 -17.963  1.00  0.00     0.293 HD
ENDBRANCH  17  20
BRANCH  15  22
ATOM     22  O   UNL     1     -45.743  25.515 -18.788  1.00  0.00    -0.508 OA
ATOM     23  H   UNL     1     -45.407  25.972 -19.627  1.00  0.00     0.293 HD
ENDBRANCH  15  22
TORSDOF 3
ENDMDL
MODEL 9
REMARK VINA RESULT:    -6.410      2.566      4.886
REMARK INTER + INTRA:          -6.972
REMARK INTER:                  -6.972
REMARK INTRA:                   0.000
REMARK UNBOUND:                 0.000
REMARK SMILES Cc1cc(O)c2c(c1)C(=O)c1cc(O)cc(O)c1C2=O
REMARK SMILES IDX 1 1 2 2 8 3 7 4 6 5 4 6 3 7 19 8 20 9 18 10 11 11 9 12 10 13
REMARK SMILES IDX 12 14 13 15 15 16 16 17 5 18 17 20 14 22
REMARK H PARENT 5 19 17 21 14 23
REMARK Flexibility Score: inf
ROOT
ATOM      1  C   UNL     1     -44.794  25.899 -19.135  1.00  0.00     0.044 C 
ATOM      2  C   UNL     1     -45.609  26.438 -17.996  1.00  0.00    -0.047 A 
ATOM      3  C   UNL     1     -46.982  26.647 -18.150  1.00  0.00     0.016 A 
ATOM      4  C   UNL     1     -47.747  27.195 -17.106  1.00  0.00     0.038 A 
ATOM      5  C   UNL     1     -47.121  27.566 -15.893  1.00  0.00     0.076 A 
ATOM      6  C   UNL     1     -45.737  27.293 -15.722  1.00  0.00     0.127 A 
ATOM      7  C   UNL     1     -44.994  26.771 -16.786  1.00  0.00     0.050 A 
ATOM      8  C   UNL     1     -47.930  28.286 -14.870  1.00  0.00     0.201 C 
ATOM      9  O   UNL     1     -47.362  28.988 -13.991  1.00  0.00    -0.288 OA
ATOM     10  C   UNL     1     -49.415  28.277 -14.949  1.00  0.00     0.076 A 
ATOM     11  C   UNL     1     -50.036  27.845 -16.141  1.00  0.00     0.041 A 
ATOM     12  C   UNL     1     -49.209  27.375 -17.276  1.00  0.00     0.194 C 
ATOM     13  O   UNL     1     -49.753  27.112 -18.383  1.00  0.00    -0.289 OA
ATOM     14  C   UNL     1     -51.438  27.867 -16.245  1.00  0.00     0.059 A 
ATOM     15  C   UNL     1     -52.222  28.305 -15.174  1.00  0.00     0.120 A 
ATOM     16  C   UNL     1     -51.612  28.724 -13.993  1.00  0.00     0.093 A 
ATOM     17  C   UNL     1     -50.217  28.713 -13.869  1.00  0.00     0.131 A 
ENDROOT
BRANCH   6  18
ATOM     18  O   UNL     1     -45.065  27.489 -14.514  1.00  0.00    -0.507 OA
ATOM     19  H   UNL     1     -44.091  27.750 -14.448  1.00  0.00     0.293 HD
ENDBRANCH   6  18
BRANCH  17  20
ATOM     20  O   UNL     1     -49.633  29.125 -12.671  1.00  0.00    -0.507 OA
ATOM     21  H   UNL     1     -49.019  28.517 -12.140  1.00  0.00     0.293 HD
ENDBRANCH  17  20
BRANCH  15  22
ATOM     22  O   UNL     1     -53.612  28.327 -15.275  1.00  0.00    -0.508 OA
ATOM     23  H   UNL     1     -54.078  28.469 -16.163  1.00  0.00     0.293 HD
ENDBRANCH  15  22
TORSDOF 3
ENDMDL
