MODEL 1
REMARK VINA RESULT:    -2.458      0.000      0.000
REMARK INTER + INTRA:          -2.862
REMARK INTER:                  -2.817
REMARK INTRA:                  -0.045
REMARK UNBOUND:                -0.045
REMARK SMILES O=C([O-])c1cc(O)c(O)c(O)c1
REMARK SMILES IDX 4 1 5 2 12 3 6 4 10 5 8 6 2 7 1 8 3 9 7 10 11 12 9 14
REMARK H PARENT 7 11 11 13 9 15
REMARK Flexibility Score: inf
ROOT
ATOM      1  C   UNL     1      27.426  27.214   2.150  1.00  0.00     0.005 A 
ATOM      2  C   UNL     1      26.563  27.861   3.051  1.00  0.00     0.060 A 
ATOM      3  C   UNL     1      28.355  27.980   1.425  1.00  0.00     0.060 A 
ATOM      4  C   UNL     1      26.626  29.251   3.227  1.00  0.00     0.162 A 
ATOM      5  C   UNL     1      28.421  29.370   1.597  1.00  0.00     0.162 A 
ATOM      6  C   UNL     1      27.558  30.007   2.497  1.00  0.00     0.200 A 
ENDROOT
BRANCH   1   7
ATOM      7  C   UNL     1      27.361  25.748   1.963  1.00  0.00     0.072 C 
ATOM      8  O   UNL     1      27.970  24.974   2.749  1.00  0.00    -0.545 OA
ATOM      9  O   UNL     1      26.626  25.202   0.917  1.00  0.00    -0.545 OA
ENDBRANCH   1   7
BRANCH   4  10
ATOM     10  O   UNL     1      25.765  29.882   4.123  1.00  0.00    -0.504 OA
ATOM     11  H   UNL     1      25.924  30.834   4.432  1.00  0.00     0.293 HD
ENDBRANCH   4  10
BRANCH   5  12
ATOM     12  O   UNL     1      29.344  30.124   0.875  1.00  0.00    -0.504 OA
ATOM     13  H   UNL     1      29.443  31.122   1.019  1.00  0.00     0.293 HD
ENDBRANCH   5  12
BRANCH   6  14
ATOM     14  O   UNL     1      27.640  31.390   2.655  1.00  0.00    -0.502 OA
ATOM     15  H   UNL     1      27.017  32.026   2.172  1.00  0.00     0.293 HD
ENDBRANCH   6  14
TORSDOF 4
ENDMDL
MODEL 2
REMARK VINA RESULT:    -2.401      0.061      2.422
REMARK INTER + INTRA:          -2.796
REMARK INTER:                  -2.752
REMARK INTRA:                  -0.045
REMARK UNBOUND:                -0.045
REMARK SMILES O=C([O-])c1cc(O)c(O)c(O)c1
REMARK SMILES IDX 4 1 5 2 12 3 6 4 10 5 8 6 2 7 1 8 3 9 7 10 11 12 9 14
REMARK H PARENT 7 11 11 13 9 15
REMARK Flexibility Score: inf
ROOT
ATOM      1  C   UNL     1      27.449  27.218   2.129  1.00  0.00     0.005 A 
ATOM      2  C   UNL     1      28.405  27.969   1.424  1.00  0.00     0.060 A 
ATOM      3  C   UNL     1      26.563  27.882   2.995  1.00  0.00     0.060 A 
ATOM      4  C   UNL     1      28.477  29.361   1.580  1.00  0.00     0.162 A 
ATOM      5  C   UNL     1      26.631  29.274   3.154  1.00  0.00     0.162 A 
ATOM      6  C   UNL     1      27.587  30.015   2.448  1.00  0.00     0.200 A 
ENDROOT
BRANCH   1   7
ATOM      7  C   UNL     1      27.372  25.750   1.966  1.00  0.00     0.072 C 
ATOM      8  O   UNL     1      27.995  24.985   2.749  1.00  0.00    -0.545 OA
ATOM      9  O   UNL     1      26.610  25.193   0.945  1.00  0.00    -0.545 OA
ENDBRANCH   1   7
BRANCH   4  10
ATOM     10  O   UNL     1      29.429  30.095   0.875  1.00  0.00    -0.504 OA
ATOM     11  H   UNL     1      29.190  30.958   0.400  1.00  0.00     0.293 HD
ENDBRANCH   4  10
BRANCH   5  12
ATOM     12  O   UNL     1      25.751  29.927   4.015  1.00  0.00    -0.504 OA
ATOM     13  H   UNL     1      26.083  30.535   4.754  1.00  0.00     0.293 HD
ENDBRANCH   5  12
BRANCH   6  14
ATOM     14  O   UNL     1      27.638  31.398   2.619  1.00  0.00    -0.502 OA
ATOM     15  H   UNL     1      28.487  31.929   2.465  1.00  0.00     0.293 HD
ENDBRANCH   6  14
TORSDOF 4
ENDMDL
MODEL 3
REMARK VINA RESULT:    -2.007      1.623      1.739
REMARK INTER + INTRA:          -2.345
REMARK INTER:                  -2.293
REMARK INTRA:                  -0.052
REMARK UNBOUND:                -0.045
REMARK SMILES O=C([O-])c1cc(O)c(O)c(O)c1
REMARK SMILES IDX 4 1 5 2 12 3 6 4 10 5 8 6 2 7 1 8 3 9 7 10 11 12 9 14
REMARK H PARENT 7 11 11 13 9 15
REMARK Flexibility Score: inf
ROOT
ATOM      1  C   UNL     1      27.582  27.865   1.942  1.00  0.00     0.005 A 
ATOM      2  C   UNL     1      26.751  28.883   1.444  1.00  0.00     0.060 A 
ATOM      3  C   UNL     1      28.881  28.190   2.367  1.00  0.00     0.060 A 
ATOM      4  C   UNL     1      27.210  30.207   1.371  1.00  0.00     0.162 A 
ATOM      5  C   UNL     1      29.344  29.512   2.295  1.00  0.00     0.162 A 
ATOM      6  C   UNL     1      28.510  30.522   1.798  1.00  0.00     0.200 A 
ENDROOT
BRANCH   1   7
ATOM      7  C   UNL     1      27.099  26.468   2.019  1.00  0.00     0.072 C 
ATOM      8  O   UNL     1      27.744  25.603   2.670  1.00  0.00    -0.545 OA
ATOM      9  O   UNL     1      25.927  26.091   1.375  1.00  0.00    -0.545 OA
ENDBRANCH   1   7
BRANCH   4  10
ATOM     10  O   UNL     1      26.377  31.209   0.875  1.00  0.00    -0.504 OA
ATOM     11  H   UNL     1      25.420  31.018   0.600  1.00  0.00     0.293 HD
ENDBRANCH   4  10
BRANCH   5  12
ATOM     12  O   UNL     1      30.634  29.829   2.718  1.00  0.00    -0.504 OA
ATOM     13  H   UNL     1      31.226  29.145   3.174  1.00  0.00     0.293 HD
ENDBRANCH   5  12
BRANCH   6  14
ATOM     14  O   UNL     1      28.988  31.830   1.736  1.00  0.00    -0.502 OA
ATOM     15  H   UNL     1      28.436  32.621   2.044  1.00  0.00     0.293 HD
ENDBRANCH   6  14
TORSDOF 4
ENDMDL
MODEL 4
REMARK VINA RESULT:     0.202      1.458      4.700
REMARK INTER + INTRA:           0.187
REMARK INTER:                   0.235
REMARK INTRA:                  -0.048
REMARK UNBOUND:                -0.045
REMARK SMILES O=C([O-])c1cc(O)c(O)c(O)c1
REMARK SMILES IDX 4 1 5 2 12 3 6 4 10 5 8 6 2 7 1 8 3 9 7 10 11 12 9 14
REMARK H PARENT 7 11 11 13 9 15
REMARK Flexibility Score: inf
ROOT
ATOM      1  C   UNL     1      28.150  30.279   1.680  1.00  0.00     0.005 A 
ATOM      2  C   UNL     1      28.414  29.005   1.148  1.00  0.00     0.060 A 
ATOM      3  C   UNL     1      27.243  30.399   2.747  1.00  0.00     0.060 A 
ATOM      4  C   UNL     1      27.783  27.867   1.672  1.00  0.00     0.162 A 
ATOM      5  C   UNL     1      26.609  29.265   3.274  1.00  0.00     0.162 A 
ATOM      6  C   UNL     1      26.878  27.998   2.738  1.00  0.00     0.200 A 
ENDROOT
BRANCH   1   7
ATOM      7  C   UNL     1      28.815  31.480   1.127  1.00  0.00     0.072 C 
ATOM      8  O   UNL     1      28.151  32.521   0.876  1.00  0.00    -0.545 OA
ATOM      9  O   UNL     1      30.182  31.476   0.877  1.00  0.00    -0.545 OA
ENDBRANCH   1   7
BRANCH   4  10
ATOM     10  O   UNL     1      28.052  26.609   1.137  1.00  0.00    -0.504 OA
ATOM     11  H   UNL     1      28.261  25.813   1.729  1.00  0.00     0.293 HD
ENDBRANCH   4  10
BRANCH   5  12
ATOM     12  O   UNL     1      25.710  29.389   4.331  1.00  0.00    -0.504 OA
ATOM     13  H   UNL     1      24.716  29.507   4.172  1.00  0.00     0.293 HD
ENDBRANCH   5  12
BRANCH   6  14
ATOM     14  O   UNL     1      26.238  26.882   3.277  1.00  0.00    -0.502 OA
ATOM     15  H   UNL     1      26.207  26.708   4.274  1.00  0.00     0.293 HD
ENDBRANCH   6  14
TORSDOF 4
ENDMDL
