MODEL 1
REMARK VINA RESULT:    -7.741      0.000      0.000
REMARK INTER + INTRA:          -9.532
REMARK INTER:                  -8.873
REMARK INTRA:                  -0.659
REMARK UNBOUND:                -0.659
REMARK SMILES C=C(C)[C@@H]1CC[C@@]2(C(=O)[O-])CC[C@@]3(C)[C@@H](CC[C@@H]4[C@@]5(C)CC[C@@H](O)C(C)(C)[C@@H]5CC[C@@]43C)[C@@H]12
REMARK SMILES IDX 7 1 6 2 33 3 11 4 5 5 15 6 4 7 12 8 16 9 13 10 17 11 31 12
REMARK SMILES IDX 14 13 18 14 30 15 32 16 19 17 29 18 21 19 20 20 28 21 22 22
REMARK SMILES IDX 25 23 23 24 26 25 27 26 8 27 9 28 10 29 2 30 3 31 1 32 24 33
REMARK H PARENT 24 34
REMARK Flexibility Score: inf
ROOT
ATOM      1  C   UNL     1      -7.483  13.303  -6.348  1.00  0.00     0.014 C 
ATOM      2  C   UNL     1      -7.680  13.458  -7.864  1.00  0.00     0.014 C 
ATOM      3  C   UNL     1      -8.926  13.384  -5.784  1.00  0.00     0.012 C 
ATOM      4  C   UNL     1      -6.603  14.463  -5.826  1.00  0.00     0.014 C 
ATOM      5  C   UNL     1      -8.850  14.412  -8.044  1.00  0.00     0.009 C 
ATOM      6  C   UNL     1      -9.019  13.733  -4.246  1.00  0.00     0.000 C 
ATOM      7  C   UNL     1      -9.734  14.257  -6.796  1.00  0.00     0.018 C 
ATOM      8  C   UNL     1      -6.580  14.514  -4.297  1.00  0.00     0.008 C 
ATOM      9  C   UNL     1     -10.458  14.046  -3.818  1.00  0.00     0.005 C 
ATOM     10  C   UNL     1      -7.988  14.765  -3.654  1.00  0.00    -0.024 C 
ATOM     11  C   UNL     1     -10.638  14.474  -2.350  1.00  0.00     0.005 C 
ATOM     12  C   UNL     1      -7.936  14.573  -2.044  1.00  0.00    -0.024 C 
ATOM     13  C   UNL     1      -8.403  16.224  -4.027  1.00  0.00     0.012 C 
ATOM     14  C   UNL     1      -9.398  14.416  -1.392  1.00  0.00     0.002 C 
ATOM     15  C   UNL     1      -7.178  15.759  -1.362  1.00  0.00     0.008 C 
ATOM     16  C   UNL     1      -7.097  13.286  -1.681  1.00  0.00     0.012 C 
ATOM     17  C   UNL     1      -9.648  15.257  -0.046  1.00  0.00    -0.026 C 
ATOM     18  C   UNL     1      -7.085  15.652   0.175  1.00  0.00     0.005 C 
ATOM     19  C   UNL     1     -10.877  14.625   0.691  1.00  0.00     0.010 C 
ATOM     20  C   UNL     1      -9.948  16.769  -0.346  1.00  0.00     0.012 C 
ATOM     21  C   UNL     1      -8.377  15.114   0.865  1.00  0.00     0.003 C 
ATOM     22  C   UNL     1     -11.064  15.079   2.144  1.00  0.00     0.033 C 
ATOM     23  C   UNL     1      -8.534  15.543   2.385  1.00  0.00    -0.006 C 
ATOM     24  C   UNL     1      -9.805  14.873   3.006  1.00  0.00     0.120 C 
ATOM     25  C   UNL     1      -7.289  15.070   3.180  1.00  0.00     0.014 C 
ATOM     26  C   UNL     1      -8.642  17.080   2.610  1.00  0.00     0.014 C 
ENDROOT
BRANCH   1  27
ATOM     27  C   UNL     1      -6.803  11.973  -6.060  1.00  0.00     0.048 C 
ATOM     28  O   UNL     1      -5.584  11.795  -6.325  1.00  0.00    -0.550 OA
ATOM     29  O   UNL     1      -7.547  10.908  -5.564  1.00  0.00    -0.550 OA
ENDBRANCH   1  27
BRANCH   7  30
ATOM     30  C   UNL     1     -11.099  13.670  -7.163  1.00  0.00    -0.077 C 
ATOM     31  C   UNL     1     -12.125  14.551  -7.830  1.00  0.00     0.039 C 
ATOM     32  C   UNL     1     -11.344  12.350  -7.054  1.00  0.00     0.008 C 
ENDBRANCH   7  30
BRANCH  24  33
ATOM     33  O   UNL     1      -9.615  13.507   3.302  1.00  0.00    -0.393 OA
ATOM     34  H   UNL     1      -8.649  13.301   3.250  1.00  0.00     0.210 HD
ENDBRANCH  24  33
TORSDOF 3
ENDMDL
MODEL 2
REMARK VINA RESULT:    -7.216      1.069      8.259
REMARK INTER + INTRA:          -8.930
REMARK INTER:                  -8.287
REMARK INTRA:                  -0.643
REMARK UNBOUND:                -0.659
REMARK SMILES C=C(C)[C@@H]1CC[C@@]2(C(=O)[O-])CC[C@@]3(C)[C@@H](CC[C@@H]4[C@@]5(C)CC[C@@H](O)C(C)(C)[C@@H]5CC[C@@]43C)[C@@H]12
REMARK SMILES IDX 7 1 6 2 33 3 11 4 5 5 15 6 4 7 12 8 16 9 13 10 17 11 31 12
REMARK SMILES IDX 14 13 18 14 30 15 32 16 19 17 29 18 21 19 20 20 28 21 22 22
REMARK SMILES IDX 25 23 23 24 26 25 27 26 8 27 9 28 10 29 2 30 3 31 1 32 24 33
REMARK H PARENT 24 34
REMARK Flexibility Score: inf
ROOT
ATOM      1  C   UNL     1     -10.066  14.916   2.545  1.00  0.00     0.014 C 
ATOM      2  C   UNL     1     -10.210  15.817   3.780  1.00  0.00     0.014 C 
ATOM      3  C   UNL     1      -8.737  15.391   1.901  1.00  0.00     0.012 C 
ATOM      4  C   UNL     1     -11.268  15.147   1.600  1.00  0.00     0.014 C 
ATOM      5  C   UNL     1      -9.630  17.167   3.391  1.00  0.00     0.009 C 
ATOM      6  C   UNL     1      -8.555  14.997   0.382  1.00  0.00     0.000 C 
ATOM      7  C   UNL     1      -8.577  16.891   2.306  1.00  0.00     0.018 C 
ATOM      8  C   UNL     1     -11.060  14.478   0.241  1.00  0.00     0.008 C 
ATOM      9  C   UNL     1      -7.354  15.709  -0.253  1.00  0.00     0.005 C 
ATOM     10  C   UNL     1      -9.823  15.030  -0.551  1.00  0.00    -0.024 C 
ATOM     11  C   UNL     1      -7.144  15.447  -1.755  1.00  0.00     0.005 C 
ATOM     12  C   UNL     1      -9.519  14.126  -1.862  1.00  0.00    -0.024 C 
ATOM     13  C   UNL     1     -10.164  16.499  -0.955  1.00  0.00     0.012 C 
ATOM     14  C   UNL     1      -8.053  14.389  -2.470  1.00  0.00     0.002 C 
ATOM     15  C   UNL     1     -10.599  14.361  -2.969  1.00  0.00     0.008 C 
ATOM     16  C   UNL     1      -9.631  12.593  -1.499  1.00  0.00     0.012 C 
ATOM     17  C   UNL     1      -7.983  14.529  -4.069  1.00  0.00    -0.026 C 
ATOM     18  C   UNL     1     -10.381  13.534  -4.254  1.00  0.00     0.005 C 
ATOM     19  C   UNL     1      -6.499  14.285  -4.505  1.00  0.00     0.010 C 
ATOM     20  C   UNL     1      -8.437  15.952  -4.554  1.00  0.00     0.012 C 
ATOM     21  C   UNL     1      -8.891  13.412  -4.698  1.00  0.00     0.003 C 
ATOM     22  C   UNL     1      -6.295  14.053  -6.008  1.00  0.00     0.033 C 
ATOM     23  C   UNL     1      -8.692  13.118  -6.246  1.00  0.00    -0.006 C 
ATOM     24  C   UNL     1      -7.172  12.917  -6.565  1.00  0.00     0.120 C 
ATOM     25  C   UNL     1      -9.450  11.816  -6.618  1.00  0.00     0.014 C 
ATOM     26  C   UNL     1      -9.239  14.230  -7.187  1.00  0.00     0.014 C 
ENDROOT
BRANCH   1  27
ATOM     27  C   UNL     1     -10.030  13.459   2.982  1.00  0.00     0.048 C 
ATOM     28  O   UNL     1     -11.068  12.879   3.399  1.00  0.00    -0.550 OA
ATOM     29  O   UNL     1      -8.822  12.770   2.995  1.00  0.00    -0.550 OA
ENDBRANCH   1  27
BRANCH   7  30
ATOM     30  C   UNL     1      -7.174  17.249   2.803  1.00  0.00    -0.077 C 
ATOM     31  C   UNL     1      -6.563  16.447   3.924  1.00  0.00     0.039 C 
ATOM     32  C   UNL     1      -6.412  18.150   2.155  1.00  0.00     0.008 C 
ENDBRANCH   7  30
BRANCH  24  33
ATOM     33  O   UNL     1      -6.688  11.658  -6.155  1.00  0.00    -0.393 OA
ATOM     34  H   UNL     1      -6.036  11.789  -5.423  1.00  0.00     0.210 HD
ENDBRANCH  24  33
TORSDOF 3
ENDMDL
MODEL 3
REMARK VINA RESULT:    -7.129      1.879      8.209
REMARK INTER + INTRA:          -8.830
REMARK INTER:                  -8.215
REMARK INTRA:                  -0.616
REMARK UNBOUND:                -0.659
REMARK SMILES C=C(C)[C@@H]1CC[C@@]2(C(=O)[O-])CC[C@@]3(C)[C@@H](CC[C@@H]4[C@@]5(C)CC[C@@H](O)C(C)(C)[C@@H]5CC[C@@]43C)[C@@H]12
REMARK SMILES IDX 7 1 6 2 33 3 11 4 5 5 15 6 4 7 12 8 16 9 13 10 17 11 31 12
REMARK SMILES IDX 14 13 18 14 30 15 32 16 19 17 29 18 21 19 20 20 28 21 22 22
REMARK SMILES IDX 25 23 23 24 26 25 27 26 8 27 9 28 10 29 2 30 3 31 1 32 24 33
REMARK H PARENT 24 34
REMARK Flexibility Score: inf
ROOT
ATOM      1  C   UNL     1      -8.832  14.760   3.585  1.00  0.00     0.014 C 
ATOM      2  C   UNL     1      -9.629  15.100   4.854  1.00  0.00     0.014 C 
ATOM      3  C   UNL     1      -9.204  15.903   2.605  1.00  0.00     0.012 C 
ATOM      4  C   UNL     1      -9.289  13.382   3.049  1.00  0.00     0.014 C 
ATOM      5  C   UNL     1     -10.930  15.727   4.382  1.00  0.00     0.009 C 
ATOM      6  C   UNL     1      -8.930  15.588   1.081  1.00  0.00     0.000 C 
ATOM      7  C   UNL     1     -10.632  16.379   3.022  1.00  0.00     0.018 C 
ATOM      8  C   UNL     1      -8.725  13.100   1.655  1.00  0.00     0.008 C 
ATOM      9  C   UNL     1      -9.550  16.646   0.159  1.00  0.00     0.005 C 
ATOM     10  C   UNL     1      -9.196  14.125   0.565  1.00  0.00    -0.024 C 
ATOM     11  C   UNL     1      -9.402  16.381  -1.350  1.00  0.00     0.005 C 
ATOM     12  C   UNL     1      -8.386  13.914  -0.823  1.00  0.00    -0.024 C 
ATOM     13  C   UNL     1     -10.727  13.891   0.357  1.00  0.00     0.012 C 
ATOM     14  C   UNL     1      -8.528  15.168  -1.820  1.00  0.00     0.002 C 
ATOM     15  C   UNL     1      -8.845  12.607  -1.549  1.00  0.00     0.008 C 
ATOM     16  C   UNL     1      -6.850  13.698  -0.523  1.00  0.00     0.012 C 
ATOM     17  C   UNL     1      -8.803  14.799  -3.359  1.00  0.00    -0.026 C 
ATOM     18  C   UNL     1      -8.119  12.333  -2.883  1.00  0.00     0.005 C 
ATOM     19  C   UNL     1      -8.426  16.049  -4.225  1.00  0.00     0.010 C 
ATOM     20  C   UNL     1     -10.307  14.428  -3.614  1.00  0.00     0.012 C 
ATOM     21  C   UNL     1      -7.863  13.603  -3.752  1.00  0.00     0.003 C 
ATOM     22  C   UNL     1      -8.309  15.781  -5.731  1.00  0.00     0.033 C 
ATOM     23  C   UNL     1      -7.688  13.311  -5.303  1.00  0.00    -0.006 C 
ATOM     24  C   UNL     1      -7.340  14.633  -6.064  1.00  0.00     0.120 C 
ATOM     25  C   UNL     1      -6.524  12.305  -5.503  1.00  0.00     0.014 C 
ATOM     26  C   UNL     1      -8.938  12.679  -5.981  1.00  0.00     0.014 C 
ENDROOT
BRANCH   1  27
ATOM     27  C   UNL     1      -7.348  14.715   3.916  1.00  0.00     0.048 C 
ATOM     28  O   UNL     1      -6.860  13.770   4.590  1.00  0.00    -0.550 OA
ATOM     29  O   UNL     1      -6.522  15.768   3.535  1.00  0.00    -0.550 OA
ENDBRANCH   1  27
BRANCH   7  30
ATOM     30  C   UNL     1     -10.775  17.901   3.103  1.00  0.00    -0.077 C 
ATOM     31  C   UNL     1     -12.124  18.499   3.409  1.00  0.00     0.039 C 
ATOM     32  C   UNL     1      -9.696  18.706   3.070  1.00  0.00     0.008 C 
ENDBRANCH   7  30
BRANCH  24  33
ATOM     33  O   UNL     1      -6.000  15.034  -5.882  1.00  0.00    -0.393 OA
ATOM     34  H   UNL     1      -5.955  15.661  -5.119  1.00  0.00     0.210 HD
ENDBRANCH  24  33
TORSDOF 3
ENDMDL
MODEL 4
REMARK VINA RESULT:    -6.761      1.772      8.110
REMARK INTER + INTRA:          -8.408
REMARK INTER:                  -7.696
REMARK INTRA:                  -0.713
REMARK UNBOUND:                -0.659
REMARK SMILES C=C(C)[C@@H]1CC[C@@]2(C(=O)[O-])CC[C@@]3(C)[C@@H](CC[C@@H]4[C@@]5(C)CC[C@@H](O)C(C)(C)[C@@H]5CC[C@@]43C)[C@@H]12
REMARK SMILES IDX 7 1 6 2 33 3 11 4 5 5 15 6 4 7 12 8 16 9 13 10 17 11 31 12
REMARK SMILES IDX 14 13 18 14 30 15 32 16 19 17 29 18 21 19 20 20 28 21 22 22
REMARK SMILES IDX 25 23 23 24 26 25 27 26 8 27 9 28 10 29 2 30 3 31 1 32 24 33
REMARK H PARENT 24 34
REMARK Flexibility Score: inf
ROOT
ATOM      1  C   UNL     1      -8.896  15.296   1.806  1.00  0.00     0.014 C 
ATOM      2  C   UNL     1      -8.254  15.391   3.199  1.00  0.00     0.014 C 
ATOM      3  C   UNL     1      -8.350  13.957   1.244  1.00  0.00     0.012 C 
ATOM      4  C   UNL     1      -8.439  16.500   0.950  1.00  0.00     0.014 C 
ATOM      5  C   UNL     1      -6.875  14.763   3.073  1.00  0.00     0.009 C 
ATOM      6  C   UNL     1      -8.441  13.809  -0.327  1.00  0.00     0.000 C 
ATOM      7  C   UNL     1      -6.967  13.735   1.935  1.00  0.00     0.018 C 
ATOM      8  C   UNL     1      -8.832  16.334  -0.519  1.00  0.00     0.008 C 
ATOM      9  C   UNL     1      -7.660  12.589  -0.831  1.00  0.00     0.005 C 
ATOM     10  C   UNL     1      -8.178  15.086  -1.210  1.00  0.00    -0.024 C 
ATOM     11  C   UNL     1      -7.625  12.408  -2.359  1.00  0.00     0.005 C 
ATOM     12  C   UNL     1      -8.813  14.834  -2.680  1.00  0.00    -0.024 C 
ATOM     13  C   UNL     1      -6.646  15.375  -1.308  1.00  0.00     0.012 C 
ATOM     14  C   UNL     1      -8.487  13.366  -3.252  1.00  0.00     0.002 C 
ATOM     15  C   UNL     1      -8.325  15.917  -3.697  1.00  0.00     0.008 C 
ATOM     16  C   UNL     1     -10.383  15.000  -2.625  1.00  0.00     0.012 C 
ATOM     17  C   UNL     1      -8.035  13.310  -4.792  1.00  0.00    -0.026 C 
ATOM     18  C   UNL     1      -8.887  15.747  -5.124  1.00  0.00     0.005 C 
ATOM     19  C   UNL     1      -8.240  11.841  -5.297  1.00  0.00     0.010 C 
ATOM     20  C   UNL     1      -6.529  13.714  -4.977  1.00  0.00     0.012 C 
ATOM     21  C   UNL     1      -8.971  14.268  -5.613  1.00  0.00     0.003 C 
ATOM     22  C   UNL     1      -8.175  11.665  -6.819  1.00  0.00     0.033 C 
ATOM     23  C   UNL     1      -8.959  14.099  -7.192  1.00  0.00    -0.006 C 
ATOM     24  C   UNL     1      -9.146  12.592  -7.573  1.00  0.00     0.120 C 
ATOM     25  C   UNL     1     -10.133  14.911  -7.799  1.00  0.00     0.014 C 
ATOM     26  C   UNL     1      -7.663  14.614  -7.882  1.00  0.00     0.014 C 
ENDROOT
BRANCH   1  27
ATOM     27  C   UNL     1     -10.411  15.311   1.946  1.00  0.00     0.048 C 
ATOM     28  O   UNL     1     -11.024  16.364   2.266  1.00  0.00    -0.550 OA
ATOM     29  O   UNL     1     -11.132  14.132   1.791  1.00  0.00    -0.550 OA
ENDBRANCH   1  27
BRANCH   7  30
ATOM     30  C   UNL     1      -6.765  12.313   2.465  1.00  0.00    -0.077 C 
ATOM     31  C   UNL     1      -7.911  11.613   3.150  1.00  0.00     0.039 C 
ATOM     32  C   UNL     1      -5.647  11.616   2.189  1.00  0.00     0.008 C 
ENDBRANCH   7  30
BRANCH  24  33
ATOM     33  O   UNL     1     -10.478  12.152  -7.431  1.00  0.00    -0.393 OA
ATOM     34  H   UNL     1     -10.995  12.848  -6.955  1.00  0.00     0.210 HD
ENDBRANCH  24  33
TORSDOF 3
ENDMDL
MODEL 5
REMARK VINA RESULT:    -6.742      2.131      7.802
REMARK INTER + INTRA:          -8.387
REMARK INTER:                  -7.683
REMARK INTRA:                  -0.704
REMARK UNBOUND:                -0.659
REMARK SMILES C=C(C)[C@@H]1CC[C@@]2(C(=O)[O-])CC[C@@]3(C)[C@@H](CC[C@@H]4[C@@]5(C)CC[C@@H](O)C(C)(C)[C@@H]5CC[C@@]43C)[C@@H]12
REMARK SMILES IDX 7 1 6 2 33 3 11 4 5 5 15 6 4 7 12 8 16 9 13 10 17 11 31 12
REMARK SMILES IDX 14 13 18 14 30 15 32 16 19 17 29 18 21 19 20 20 28 21 22 22
REMARK SMILES IDX 25 23 23 24 26 25 27 26 8 27 9 28 10 29 2 30 3 31 1 32 24 33
REMARK H PARENT 24 34
REMARK Flexibility Score: inf
ROOT
ATOM      1  C   UNL     1      -7.473  15.143   1.303  1.00  0.00     0.014 C 
ATOM      2  C   UNL     1      -7.254  14.711   2.761  1.00  0.00     0.014 C 
ATOM      3  C   UNL     1      -8.760  14.382   0.887  1.00  0.00     0.012 C 
ATOM      4  C   UNL     1      -6.256  14.706   0.453  1.00  0.00     0.014 C 
ATOM      5  C   UNL     1      -7.723  13.268   2.850  1.00  0.00     0.009 C 
ATOM      6  C   UNL     1      -8.974  14.241  -0.672  1.00  0.00     0.000 C 
ATOM      7  C   UNL     1      -8.796  13.091   1.765  1.00  0.00     0.018 C 
ATOM      8  C   UNL     1      -6.520  14.874  -1.045  1.00  0.00     0.008 C 
ATOM      9  C   UNL     1     -10.114  13.270  -1.005  1.00  0.00     0.005 C 
ATOM     10  C   UNL     1      -7.709  14.000  -1.577  1.00  0.00    -0.024 C 
ATOM     11  C   UNL     1     -10.347  13.007  -2.503  1.00  0.00     0.005 C 
ATOM     12  C   UNL     1      -8.087  14.397  -3.103  1.00  0.00    -0.024 C 
ATOM     13  C   UNL     1      -7.250  12.510  -1.488  1.00  0.00     0.012 C 
ATOM     14  C   UNL     1      -9.527  13.838  -3.550  1.00  0.00     0.002 C 
ATOM     15  C   UNL     1      -6.993  13.895  -4.102  1.00  0.00     0.008 C 
ATOM     16  C   UNL     1      -8.100  15.969  -3.265  1.00  0.00     0.012 C 
ATOM     17  C   UNL     1      -9.588  13.176  -5.013  1.00  0.00    -0.026 C 
ATOM     18  C   UNL     1      -7.279  14.235  -5.580  1.00  0.00     0.005 C 
ATOM     19  C   UNL     1     -11.088  13.149  -5.463  1.00  0.00     0.010 C 
ATOM     20  C   UNL     1      -9.021  11.712  -5.018  1.00  0.00     0.012 C 
ATOM     21  C   UNL     1      -8.775  14.089  -5.998  1.00  0.00     0.003 C 
ATOM     22  C   UNL     1     -11.311  12.858  -6.953  1.00  0.00     0.033 C 
ATOM     23  C   UNL     1      -8.999  13.843  -7.551  1.00  0.00    -0.006 C 
ATOM     24  C   UNL     1     -10.530  13.811  -7.875  1.00  0.00     0.120 C 
ATOM     25  C   UNL     1      -8.350  15.005  -8.349  1.00  0.00     0.014 C 
ATOM     26  C   UNL     1      -8.364  12.529  -8.090  1.00  0.00     0.014 C 
ENDROOT
BRANCH   1  27
ATOM     27  C   UNL     1      -7.626  16.655   1.240  1.00  0.00     0.048 C 
ATOM     28  O   UNL     1      -6.655  17.418   1.487  1.00  0.00    -0.550 OA
ATOM     29  O   UNL     1      -8.873  17.214   0.978  1.00  0.00    -0.550 OA
ENDBRANCH   1  27
BRANCH   7  30
ATOM     30  C   UNL     1     -10.165  12.810   2.390  1.00  0.00    -0.077 C 
ATOM     31  C   UNL     1     -11.137  13.948   2.577  1.00  0.00     0.039 C 
ATOM     32  C   UNL     1     -10.581  11.551   2.624  1.00  0.00     0.008 C 
ENDBRANCH   7  30
BRANCH  24  33
ATOM     33  O   UNL     1     -11.115  15.095  -7.887  1.00  0.00    -0.393 OA
ATOM     34  H   UNL     1     -10.855  15.572  -7.060  1.00  0.00     0.210 HD
ENDBRANCH  24  33
TORSDOF 3
ENDMDL
MODEL 6
REMARK VINA RESULT:    -6.703      2.350      8.584
REMARK INTER + INTRA:          -8.342
REMARK INTER:                  -7.727
REMARK INTRA:                  -0.616
REMARK UNBOUND:                -0.659
REMARK SMILES C=C(C)[C@@H]1CC[C@@]2(C(=O)[O-])CC[C@@]3(C)[C@@H](CC[C@@H]4[C@@]5(C)CC[C@@H](O)C(C)(C)[C@@H]5CC[C@@]43C)[C@@H]12
REMARK SMILES IDX 7 1 6 2 33 3 11 4 5 5 15 6 4 7 12 8 16 9 13 10 17 11 31 12
REMARK SMILES IDX 14 13 18 14 30 15 32 16 19 17 29 18 21 19 20 20 28 21 22 22
REMARK SMILES IDX 25 23 23 24 26 25 27 26 8 27 9 28 10 29 2 30 3 31 1 32 24 33
REMARK H PARENT 24 34
REMARK Flexibility Score: inf
ROOT
ATOM      1  C   UNL     1      -7.456  17.259   3.581  1.00  0.00     0.014 C 
ATOM      2  C   UNL     1      -6.858  17.351   4.993  1.00  0.00     0.014 C 
ATOM      3  C   UNL     1      -8.097  15.847   3.549  1.00  0.00     0.012 C 
ATOM      4  C   UNL     1      -6.322  17.391   2.538  1.00  0.00     0.014 C 
ATOM      5  C   UNL     1      -6.386  15.950   5.346  1.00  0.00     0.009 C 
ATOM      6  C   UNL     1      -8.369  15.273   2.102  1.00  0.00     0.000 C 
ATOM      7  C   UNL     1      -7.273  14.979   4.552  1.00  0.00     0.018 C 
ATOM      8  C   UNL     1      -6.806  17.053   1.126  1.00  0.00     0.008 C 
ATOM      9  C   UNL     1      -8.761  13.791   2.140  1.00  0.00     0.005 C 
ATOM     10  C   UNL     1      -7.317  15.577   0.972  1.00  0.00    -0.024 C 
ATOM     11  C   UNL     1      -8.970  13.122   0.770  1.00  0.00     0.005 C 
ATOM     12  C   UNL     1      -8.029  15.355  -0.467  1.00  0.00    -0.024 C 
ATOM     13  C   UNL     1      -6.070  14.649   1.125  1.00  0.00     0.012 C 
ATOM     14  C   UNL     1      -8.915  14.013  -0.519  1.00  0.00     0.002 C 
ATOM     15  C   UNL     1      -6.973  15.334  -1.621  1.00  0.00     0.008 C 
ATOM     16  C   UNL     1      -8.973  16.578  -0.797  1.00  0.00     0.012 C 
ATOM     17  C   UNL     1      -8.749  13.126  -1.848  1.00  0.00    -0.026 C 
ATOM     18  C   UNL     1      -7.572  15.126  -3.028  1.00  0.00     0.005 C 
ATOM     19  C   UNL     1      -9.993  12.180  -1.949  1.00  0.00     0.010 C 
ATOM     20  C   UNL     1      -7.441  12.258  -1.814  1.00  0.00     0.012 C 
ATOM     21  C   UNL     1      -8.741  14.094  -3.085  1.00  0.00     0.003 C 
ATOM     22  C   UNL     1     -10.177  11.496  -3.310  1.00  0.00     0.033 C 
ATOM     23  C   UNL     1      -8.959  13.432  -4.512  1.00  0.00    -0.006 C 
ATOM     24  C   UNL     1     -10.210  12.492  -4.484  1.00  0.00     0.120 C 
ATOM     25  C   UNL     1      -9.205  14.550  -5.559  1.00  0.00     0.014 C 
ATOM     26  C   UNL     1      -7.746  12.605  -5.027  1.00  0.00     0.014 C 
ENDROOT
BRANCH   1  27
ATOM     27  C   UNL     1      -8.467  18.379   3.384  1.00  0.00     0.048 C 
ATOM     28  O   UNL     1      -8.204  19.561   3.733  1.00  0.00    -0.550 OA
ATOM     29  O   UNL     1      -9.730  18.090   2.881  1.00  0.00    -0.550 OA
ENDBRANCH   1  27
BRANCH   7  30
ATOM     30  C   UNL     1      -8.139  14.136   5.492  1.00  0.00    -0.077 C 
ATOM     31  C   UNL     1      -9.593  14.492   5.672  1.00  0.00     0.039 C 
ATOM     32  C   UNL     1      -7.676  12.993   6.031  1.00  0.00     0.008 C 
ENDBRANCH   7  30
BRANCH  24  33
ATOM     33  O   UNL     1     -11.429  13.201  -4.510  1.00  0.00    -0.393 OA
ATOM     34  H   UNL     1     -11.248  14.154  -4.315  1.00  0.00     0.210 HD
ENDBRANCH  24  33
TORSDOF 3
ENDMDL
MODEL 7
REMARK VINA RESULT:    -6.408      2.150      3.961
REMARK INTER + INTRA:          -8.004
REMARK INTER:                  -7.476
REMARK INTRA:                  -0.529
REMARK UNBOUND:                -0.659
REMARK SMILES C=C(C)[C@@H]1CC[C@@]2(C(=O)[O-])CC[C@@]3(C)[C@@H](CC[C@@H]4[C@@]5(C)CC[C@@H](O)C(C)(C)[C@@H]5CC[C@@]43C)[C@@H]12
REMARK SMILES IDX 7 1 6 2 33 3 11 4 5 5 15 6 4 7 12 8 16 9 13 10 17 11 31 12
REMARK SMILES IDX 14 13 18 14 30 15 32 16 19 17 29 18 21 19 20 20 28 21 22 22
REMARK SMILES IDX 25 23 23 24 26 25 27 26 8 27 9 28 10 29 2 30 3 31 1 32 24 33
REMARK H PARENT 24 34
REMARK Flexibility Score: inf
ROOT
ATOM      1  C   UNL     1      -9.189  13.619  -5.915  1.00  0.00     0.014 C 
ATOM      2  C   UNL     1      -9.032  12.593  -7.048  1.00  0.00     0.014 C 
ATOM      3  C   UNL     1      -7.804  13.606  -5.217  1.00  0.00     0.012 C 
ATOM      4  C   UNL     1     -10.312  13.156  -4.958  1.00  0.00     0.014 C 
ATOM      5  C   UNL     1      -8.111  11.509  -6.511  1.00  0.00     0.009 C 
ATOM      6  C   UNL     1      -7.795  14.188  -3.748  1.00  0.00     0.000 C 
ATOM      7  C   UNL     1      -7.217  12.179  -5.456  1.00  0.00     0.018 C 
ATOM      8  C   UNL     1     -10.348  13.992  -3.678  1.00  0.00     0.008 C 
ATOM      9  C   UNL     1      -6.466  13.912  -3.033  1.00  0.00     0.005 C 
ATOM     10  C   UNL     1      -9.035  13.894  -2.824  1.00  0.00    -0.024 C 
ATOM     11  C   UNL     1      -6.391  14.374  -1.567  1.00  0.00     0.005 C 
ATOM     12  C   UNL     1      -9.044  14.976  -1.616  1.00  0.00    -0.024 C 
ATOM     13  C   UNL     1      -8.966  12.437  -2.266  1.00  0.00     0.012 C 
ATOM     14  C   UNL     1      -7.586  15.200  -0.975  1.00  0.00     0.002 C 
ATOM     15  C   UNL     1     -10.054  14.560  -0.497  1.00  0.00     0.008 C 
ATOM     16  C   UNL     1      -9.566  16.370  -2.144  1.00  0.00     0.012 C 
ATOM     17  C   UNL     1      -7.537  15.249   0.629  1.00  0.00    -0.026 C 
ATOM     18  C   UNL     1     -10.122  15.541   0.693  1.00  0.00     0.005 C 
ATOM     19  C   UNL     1      -6.196  15.945   1.045  1.00  0.00     0.010 C 
ATOM     20  C   UNL     1      -7.592  13.813   1.263  1.00  0.00     0.012 C 
ATOM     21  C   UNL     1      -8.742  16.122   1.130  1.00  0.00     0.003 C 
ATOM     22  C   UNL     1      -6.120  16.376   2.516  1.00  0.00     0.033 C 
ATOM     23  C   UNL     1      -8.689  16.617   2.638  1.00  0.00    -0.006 C 
ATOM     24  C   UNL     1      -7.298  17.269   2.942  1.00  0.00     0.120 C 
ATOM     25  C   UNL     1      -9.793  17.683   2.863  1.00  0.00     0.014 C 
ATOM     26  C   UNL     1      -8.937  15.498   3.690  1.00  0.00     0.014 C 
ENDROOT
BRANCH   1  27
ATOM     27  C   UNL     1      -9.547  14.975  -6.507  1.00  0.00     0.048 C 
ATOM     28  O   UNL     1     -10.334  15.070  -7.487  1.00  0.00    -0.550 OA
ATOM     29  O   UNL     1      -8.943  16.126  -6.013  1.00  0.00    -0.550 OA
ENDBRANCH   1  27
BRANCH   7  30
ATOM     30  C   UNL     1      -5.753  12.182  -5.904  1.00  0.00    -0.077 C 
ATOM     31  C   UNL     1      -5.005  10.876  -5.989  1.00  0.00     0.039 C 
ATOM     32  C   UNL     1      -5.171  13.299  -6.379  1.00  0.00     0.008 C 
ENDBRANCH   7  30
BRANCH  24  33
ATOM     33  O   UNL     1      -7.171  18.566   2.402  1.00  0.00    -0.393 OA
ATOM     34  H   UNL     1      -6.216  18.740   2.212  1.00  0.00     0.210 HD
ENDBRANCH  24  33
TORSDOF 3
ENDMDL
MODEL 8
REMARK VINA RESULT:    -6.273      1.661      2.356
REMARK INTER + INTRA:          -7.850
REMARK INTER:                  -7.226
REMARK INTRA:                  -0.624
REMARK UNBOUND:                -0.659
REMARK SMILES C=C(C)[C@@H]1CC[C@@]2(C(=O)[O-])CC[C@@]3(C)[C@@H](CC[C@@H]4[C@@]5(C)CC[C@@H](O)C(C)(C)[C@@H]5CC[C@@]43C)[C@@H]12
REMARK SMILES IDX 7 1 6 2 33 3 11 4 5 5 15 6 4 7 12 8 16 9 13 10 17 11 31 12
REMARK SMILES IDX 14 13 18 14 30 15 32 16 19 17 29 18 21 19 20 20 28 21 22 22
REMARK SMILES IDX 25 23 23 24 26 25 27 26 8 27 9 28 10 29 2 30 3 31 1 32 24 33
REMARK H PARENT 24 34
REMARK Flexibility Score: inf
ROOT
ATOM      1  C   UNL     1      -8.421  14.429  -5.458  1.00  0.00     0.014 C 
ATOM      2  C   UNL     1      -9.148  14.278  -6.803  1.00  0.00     0.014 C 
ATOM      3  C   UNL     1      -9.069  13.335  -4.569  1.00  0.00     0.012 C 
ATOM      4  C   UNL     1      -8.679  15.846  -4.894  1.00  0.00     0.014 C 
ATOM      5  C   UNL     1     -10.575  13.873  -6.469  1.00  0.00     0.009 C 
ATOM      6  C   UNL     1      -8.881  13.545  -3.014  1.00  0.00     0.000 C 
ATOM      7  C   UNL     1     -10.515  13.133  -5.124  1.00  0.00     0.018 C 
ATOM      8  C   UNL     1      -8.201  15.977  -3.447  1.00  0.00     0.008 C 
ATOM      9  C   UNL     1      -9.753  12.582  -2.199  1.00  0.00     0.005 C 
ATOM     10  C   UNL     1      -8.937  15.014  -2.450  1.00  0.00    -0.024 C 
ATOM     11  C   UNL     1      -9.697  12.764  -0.672  1.00  0.00     0.005 C 
ATOM     12  C   UNL     1      -8.228  15.031  -0.992  1.00  0.00    -0.024 C 
ATOM     13  C   UNL     1     -10.416  15.506  -2.356  1.00  0.00     0.012 C 
ATOM     14  C   UNL     1      -8.672  13.789  -0.073  1.00  0.00     0.002 C 
ATOM     15  C   UNL     1      -8.519  16.373  -0.242  1.00  0.00     0.008 C 
ATOM     16  C   UNL     1      -6.657  14.984  -1.155  1.00  0.00     0.012 C 
ATOM     17  C   UNL     1      -9.014  14.147   1.455  1.00  0.00    -0.026 C 
ATOM     18  C   UNL     1      -7.877  16.469   1.158  1.00  0.00     0.005 C 
ATOM     19  C   UNL     1      -8.936  12.821   2.286  1.00  0.00     0.010 C 
ATOM     20  C   UNL     1     -10.449  14.767   1.605  1.00  0.00     0.012 C 
ATOM     21  C   UNL     1      -7.921  15.145   1.981  1.00  0.00     0.003 C 
ATOM     22  C   UNL     1      -8.910  13.012   3.808  1.00  0.00     0.033 C 
ATOM     23  C   UNL     1      -7.837  15.348   3.554  1.00  0.00    -0.006 C 
ATOM     24  C   UNL     1      -7.791  13.960   4.275  1.00  0.00     0.120 C 
ATOM     25  C   UNL     1      -6.540  16.127   3.897  1.00  0.00     0.014 C 
ATOM     26  C   UNL     1      -9.015  16.167   4.159  1.00  0.00     0.014 C 
ENDROOT
BRANCH   1  27
ATOM     27  C   UNL     1      -6.927  14.223  -5.664  1.00  0.00     0.048 C 
ATOM     28  O   UNL     1      -6.220  15.104  -6.224  1.00  0.00    -0.550 OA
ATOM     29  O   UNL     1      -6.338  13.017  -5.299  1.00  0.00    -0.550 OA
ENDBRANCH   1  27
BRANCH   7  30
ATOM     30  C   UNL     1     -10.910  11.663  -5.291  1.00  0.00    -0.077 C 
ATOM     31  C   UNL     1     -12.120  11.138  -4.561  1.00  0.00     0.039 C 
ATOM     32  C   UNL     1     -10.302  10.875  -6.197  1.00  0.00     0.008 C 
ENDBRANCH   7  30
BRANCH  24  33
ATOM     33  O   UNL     1      -6.529  13.337   4.183  1.00  0.00    -0.393 OA
ATOM     34  H   UNL     1      -6.484  12.606   4.848  1.00  0.00     0.210 HD
ENDBRANCH  24  33
TORSDOF 3
ENDMDL
