MODEL 1
REMARK VINA RESULT:    -2.613      0.000      0.000
REMARK INTER + INTRA:          -2.842
REMARK INTER:                  -2.842
REMARK INTRA:                   0.000
REMARK UNBOUND:                 0.000
REMARK SMILES [NH3+]CC(=O)[O-]
REMARK SMILES IDX 2 1 1 2 3 6 4 7 5 8
REMARK H PARENT 1 3 1 4 1 5
REMARK Flexibility Score: inf
ROOT
ATOM      1  C   UNL     1     120.912 123.208 120.631  1.00  0.00     0.312 C 
ENDROOT
BRANCH   1   2
ATOM      2  N   UNL     1     119.931 123.945 119.838  1.00  0.00    -0.353 N 
ATOM      3  H   UNL     1     120.214 123.946 118.829  1.00  0.00     0.344 HD
ATOM      4  H   UNL     1     119.853 124.928 120.184  1.00  0.00     0.344 HD
ATOM      5  H   UNL     1     118.999 123.478 119.927  1.00  0.00     0.344 HD
ENDBRANCH   1   2
BRANCH   1   6
ATOM      6  C   UNL     1     120.267 122.602 121.839  1.00  0.00     0.096 C 
ATOM      7  O   UNL     1     120.738 121.551 122.348  1.00  0.00    -0.544 OA
ATOM      8  O   UNL     1     119.117 123.170 122.372  1.00  0.00    -0.544 OA
ENDBRANCH   1   6
TORSDOF 2
ENDMDL
MODEL 2
REMARK VINA RESULT:    -2.594     15.717     15.911
REMARK INTER + INTRA:          -2.822
REMARK INTER:                  -2.822
REMARK INTRA:                   0.000
REMARK UNBOUND:                 0.000
REMARK SMILES [NH3+]CC(=O)[O-]
REMARK SMILES IDX 2 1 1 2 3 6 4 7 5 8
REMARK H PARENT 1 3 1 4 1 5
REMARK Flexibility Score: inf
ROOT
ATOM      1  C   UNL     1     135.721 123.675 120.449  1.00  0.00     0.312 C 
ENDROOT
BRANCH   1   2
ATOM      2  N   UNL     1     134.444 124.383 120.523  1.00  0.00    -0.353 N 
ATOM      3  H   UNL     1     133.906 124.245 119.635  1.00  0.00     0.344 HD
ATOM      4  H   UNL     1     134.608 125.404 120.681  1.00  0.00     0.344 HD
ATOM      5  H   UNL     1     133.886 124.000 121.320  1.00  0.00     0.344 HD
ENDBRANCH   1   2
BRANCH   1   6
ATOM      6  C   UNL     1     136.383 123.639 121.792  1.00  0.00     0.096 C 
ATOM      7  O   UNL     1     136.735 124.709 122.353  1.00  0.00    -0.544 OA
ATOM      8  O   UNL     1     136.656 122.420 122.399  1.00  0.00    -0.544 OA
ENDBRANCH   1   6
TORSDOF 2
ENDMDL
MODEL 3
REMARK VINA RESULT:    -2.518      2.567      2.761
REMARK INTER + INTRA:          -2.738
REMARK INTER:                  -2.738
REMARK INTRA:                   0.000
REMARK UNBOUND:                 0.000
REMARK SMILES [NH3+]CC(=O)[O-]
REMARK SMILES IDX 2 1 1 2 3 6 4 7 5 8
REMARK H PARENT 1 3 1 4 1 5
REMARK Flexibility Score: inf
ROOT
ATOM      1  C   UNL     1     120.533 121.736 122.017  1.00  0.00     0.312 C 
ENDROOT
BRANCH   1   2
ATOM      2  N   UNL     1     119.652 120.574 121.924  1.00  0.00    -0.353 N 
ATOM      3  H   UNL     1     120.177 119.756 121.535  1.00  0.00     0.344 HD
ATOM      4  H   UNL     1     118.833 120.792 121.312  1.00  0.00     0.344 HD
ATOM      5  H   UNL     1     119.306 120.330 122.881  1.00  0.00     0.344 HD
ENDBRANCH   1   2
BRANCH   1   6
ATOM      6  C   UNL     1     120.569 122.477 120.716  1.00  0.00     0.096 C 
ATOM      7  O   UNL     1     121.202 123.561 120.622  1.00  0.00    -0.544 OA
ATOM      8  O   UNL     1     119.860 121.997 119.623  1.00  0.00    -0.544 OA
ENDBRANCH   1   6
TORSDOF 2
ENDMDL
MODEL 4
REMARK VINA RESULT:    -2.507     15.658     16.114
REMARK INTER + INTRA:          -2.726
REMARK INTER:                  -2.726
REMARK INTRA:                   0.000
REMARK UNBOUND:                 0.000
REMARK SMILES [NH3+]CC(=O)[O-]
REMARK SMILES IDX 2 1 1 2 3 6 4 7 5 8
REMARK H PARENT 1 3 1 4 1 5
REMARK Flexibility Score: inf
ROOT
ATOM      1  C   UNL     1     135.656 123.866 121.315  1.00  0.00     0.312 C 
ENDROOT
BRANCH   1   2
ATOM      2  N   UNL     1     136.601 124.920 121.679  1.00  0.00    -0.353 N 
ATOM      3  H   UNL     1     137.550 124.698 121.297  1.00  0.00     0.344 HD
ATOM      4  H   UNL     1     136.651 125.014 122.719  1.00  0.00     0.344 HD
ATOM      5  H   UNL     1     136.276 125.827 121.271  1.00  0.00     0.344 HD
ENDBRANCH   1   2
BRANCH   1   6
ATOM      6  C   UNL     1     136.003 123.284 119.980  1.00  0.00     0.096 C 
ATOM      7  O   UNL     1     136.989 123.725 119.333  1.00  0.00    -0.544 OA
ATOM      8  O   UNL     1     135.206 122.289 119.427  1.00  0.00    -0.544 OA
ENDBRANCH   1   6
TORSDOF 2
ENDMDL
MODEL 5
REMARK VINA RESULT:    -2.505     15.143     15.585
REMARK INTER + INTRA:          -2.725
REMARK INTER:                  -2.725
REMARK INTRA:                   0.000
REMARK UNBOUND:                 0.000
REMARK SMILES [NH3+]CC(=O)[O-]
REMARK SMILES IDX 2 1 1 2 3 6 4 7 5 8
REMARK H PARENT 1 3 1 4 1 5
REMARK Flexibility Score: inf
ROOT
ATOM      1  C   UNL     1     136.137 122.671 120.240  1.00  0.00     0.312 C 
ENDROOT
BRANCH   1   2
ATOM      2  N   UNL     1     135.115 122.189 119.313  1.00  0.00    -0.353 N 
ATOM      3  H   UNL     1     134.739 121.269 119.641  1.00  0.00     0.344 HD
ATOM      4  H   UNL     1     135.520 122.084 118.354  1.00  0.00     0.344 HD
ATOM      5  H   UNL     1     134.332 122.881 119.276  1.00  0.00     0.344 HD
ENDBRANCH   1   2
BRANCH   1   6
ATOM      6  C   UNL     1     135.688 123.932 120.911  1.00  0.00     0.096 C 
ATOM      7  O   UNL     1     134.505 124.339 120.769  1.00  0.00    -0.544 OA
ATOM      8  O   UNL     1     136.590 124.684 121.653  1.00  0.00    -0.544 OA
ENDBRANCH   1   6
TORSDOF 2
ENDMDL
MODEL 6
REMARK VINA RESULT:    -2.480      2.045      2.201
REMARK INTER + INTRA:          -2.698
REMARK INTER:                  -2.698
REMARK INTRA:                   0.000
REMARK UNBOUND:                 0.000
REMARK SMILES [NH3+]CC(=O)[O-]
REMARK SMILES IDX 2 1 1 2 3 6 4 7 5 8
REMARK H PARENT 1 3 1 4 1 5
REMARK Flexibility Score: inf
ROOT
ATOM      1  C   UNL     1     120.562 121.991 121.999  1.00  0.00     0.312 C 
ENDROOT
BRANCH   1   2
ATOM      2  N   UNL     1     120.982 122.059 120.601  1.00  0.00    -0.353 N 
ATOM      3  H   UNL     1     120.243 122.529 120.027  1.00  0.00     0.344 HD
ATOM      4  H   UNL     1     121.157 121.096 120.231  1.00  0.00     0.344 HD
ATOM      5  H   UNL     1     121.866 122.614 120.535  1.00  0.00     0.344 HD
ENDBRANCH   1   2
BRANCH   1   6
ATOM      6  C   UNL     1     119.450 121.002 122.169  1.00  0.00     0.096 C 
ATOM      7  O   UNL     1     119.047 120.327 121.186  1.00  0.00    -0.544 OA
ATOM      8  O   UNL     1     118.826 120.864 123.402  1.00  0.00    -0.544 OA
ENDBRANCH   1   6
TORSDOF 2
ENDMDL
MODEL 7
REMARK VINA RESULT:    -2.469     15.833     16.011
REMARK INTER + INTRA:          -2.686
REMARK INTER:                  -2.686
REMARK INTRA:                   0.000
REMARK UNBOUND:                 0.000
REMARK SMILES [NH3+]CC(=O)[O-]
REMARK SMILES IDX 2 1 1 2 3 6 4 7 5 8
REMARK H PARENT 1 3 1 4 1 5
REMARK Flexibility Score: inf
ROOT
ATOM      1  C   UNL     1     135.877 123.910 121.830  1.00  0.00     0.312 C 
ENDROOT
BRANCH   1   2
ATOM      2  N   UNL     1     135.924 124.697 120.600  1.00  0.00    -0.353 N 
ATOM      3  H   UNL     1     136.130 124.075 119.783  1.00  0.00     0.344 HD
ATOM      4  H   UNL     1     136.660 125.437 120.675  1.00  0.00     0.344 HD
ATOM      5  H   UNL     1     134.996 125.155 120.450  1.00  0.00     0.344 HD
ENDBRANCH   1   2
BRANCH   1   6
ATOM      6  C   UNL     1     136.179 122.471 121.548  1.00  0.00     0.096 C 
ATOM      7  O   UNL     1     135.969 121.992 120.402  1.00  0.00    -0.544 OA
ATOM      8  O   UNL     1     136.645 121.646 122.563  1.00  0.00    -0.544 OA
ENDBRANCH   1   6
TORSDOF 2
ENDMDL
MODEL 8
REMARK VINA RESULT:    -2.431      2.082      2.303
REMARK INTER + INTRA:          -2.644
REMARK INTER:                  -2.644
REMARK INTRA:                   0.000
REMARK UNBOUND:                 0.000
REMARK SMILES [NH3+]CC(=O)[O-]
REMARK SMILES IDX 2 1 1 2 3 6 4 7 5 8
REMARK H PARENT 1 3 1 4 1 5
REMARK Flexibility Score: inf
ROOT
ATOM      1  C   UNL     1     120.431 122.863 121.927  1.00  0.00     0.312 C 
ENDROOT
BRANCH   1   2
ATOM      2  N   UNL     1     120.836 121.504 121.570  1.00  0.00    -0.353 N 
ATOM      3  H   UNL     1     121.227 121.015 122.409  1.00  0.00     0.344 HD
ATOM      4  H   UNL     1     121.555 121.531 120.810  1.00  0.00     0.344 HD
ATOM      5  H   UNL     1     120.000 120.976 121.229  1.00  0.00     0.344 HD
ENDBRANCH   1   2
BRANCH   1   6
ATOM      6  C   UNL     1     118.939 122.990 121.914  1.00  0.00     0.096 C 
ATOM      7  O   UNL     1     118.347 123.396 120.880  1.00  0.00    -0.544 OA
ATOM      8  O   UNL     1     118.208 122.708 123.060  1.00  0.00    -0.544 OA
ENDBRANCH   1   6
TORSDOF 2
ENDMDL
MODEL 9
REMARK VINA RESULT:    -2.369     22.733     22.805
REMARK INTER + INTRA:          -2.576
REMARK INTER:                  -2.576
REMARK INTRA:                   0.000
REMARK UNBOUND:                 0.000
REMARK SMILES [NH3+]CC(=O)[O-]
REMARK SMILES IDX 2 1 1 2 3 6 4 7 5 8
REMARK H PARENT 1 3 1 4 1 5
REMARK Flexibility Score: inf
ROOT
ATOM      1  C   UNL     1     136.710 132.757 135.433  1.00  0.00     0.312 C 
ENDROOT
BRANCH   1   2
ATOM      2  N   UNL     1     137.412 133.269 134.258  1.00  0.00    -0.353 N 
ATOM      3  H   UNL     1     138.110 133.995 134.545  1.00  0.00     0.344 HD
ATOM      4  H   UNL     1     136.729 133.682 133.582  1.00  0.00     0.344 HD
ATOM      5  H   UNL     1     137.917 132.481 133.790  1.00  0.00     0.344 HD
ENDBRANCH   1   2
BRANCH   1   6
ATOM      6  C   UNL     1     135.333 132.297 135.066  1.00  0.00     0.096 C 
ATOM      7  O   UNL     1     134.642 131.647 135.894  1.00  0.00    -0.544 OA
ATOM      8  O   UNL     1     134.834 132.541 133.794  1.00  0.00    -0.544 OA
ENDBRANCH   1   6
TORSDOF 2
ENDMDL
