MODEL 1
REMARK VINA RESULT:    -3.824      0.000      0.000
REMARK INTER + INTRA:          -5.211
REMARK INTER:                  -5.166
REMARK INTRA:                  -0.045
REMARK UNBOUND:                -0.045
REMARK SMILES C=C1C(=O)O[C@H]2[C@H]1CCC(C)=CCC[C@@]1(C)O[C@@H]21
REMARK SMILES IDX 6 1 7 2 2 3 1 4 3 5 4 6 5 7 8 8 9 9 10 10 11 11 12 12 18 14
REMARK SMILES IDX 15 15 17 16 16 17 14 18 13 19
REMARK H PARENT
REMARK Flexibility Score: 70.00
ROOT
ATOM      1  C   UNL     1     -15.978 -21.796 -40.139  1.00  0.00     0.216 C 
ATOM      2  C   UNL     1     -14.889 -22.860 -39.748  1.00  0.00     0.070 C 
ATOM      3  C   UNL     1     -14.411 -23.357 -41.080  1.00  0.00     0.037 C 
ATOM      4  C   UNL     1     -13.339 -24.119 -41.296  1.00  0.00     0.021 C 
ATOM      5  C   UNL     1     -15.315 -22.864 -42.086  1.00  0.00     0.334 C 
ATOM      6  O   UNL     1     -15.281 -23.150 -43.312  1.00  0.00    -0.247 OA
ATOM      7  O   UNL     1     -16.249 -22.023 -41.522  1.00  0.00    -0.455 OA
ENDROOT
BRANCH   2   8
ATOM      8  C   UNL     1     -15.444 -24.053 -38.929  1.00  0.00     0.017 C 
BRANCH   8   9
ATOM      9  C   UNL     1     -16.778 -23.817 -38.195  1.00  0.00     0.031 C 
BRANCH   9  10
ATOM     10  C   UNL     1     -16.627 -23.499 -36.715  1.00  0.00    -0.077 C 
ATOM     11  C   UNL     1     -16.402 -24.648 -35.766  1.00  0.00     0.039 C 
ATOM     12  C   UNL     1     -16.681 -22.248 -36.195  1.00  0.00    -0.028 CG0
ATOM     13  G   UNL     1     -16.859 -20.962 -36.971  1.00  0.00     0.000 G0
ENDBRANCH   9  10
ENDBRANCH   8   9
ENDBRANCH   2   8
BRANCH   1  14
ATOM     14  C   UNL     1     -15.431 -20.360 -40.009  1.00  0.00     0.192 C 
ATOM     15  C   UNL     1     -15.203 -19.673 -38.694  1.00  0.00     0.096 C 
ATOM     16  O   UNL     1     -14.165 -20.329 -39.377  1.00  0.00    -0.362 OA
ATOM     17  C   UNL     1     -15.045 -18.152 -38.769  1.00  0.00     0.045 C 
BRANCH  15  18
ATOM     18  C   UNL     1     -15.501 -20.256 -37.280  1.00  0.00     0.042 C 
BRANCH  18  19
ATOM     19  C   UNL     1     -16.840 -20.955 -36.952  1.00  0.00     0.030 CG0
ATOM     20  G   UNL     1     -16.700 -22.255 -36.193  1.00  0.00     0.000 G0
ENDBRANCH  18  19
ENDBRANCH  15  18
ENDBRANCH   1  14
TORSDOF 0
ENDMDL
MODEL 2
REMARK VINA RESULT:    -3.556      4.110      7.061
REMARK INTER + INTRA:          -4.848
REMARK INTER:                  -4.501
REMARK INTRA:                  -0.347
REMARK UNBOUND:                -0.045
REMARK SMILES C=C1C(=O)O[C@H]2[C@H]1CCC(C)=CCC[C@@]1(C)O[C@@H]21
REMARK SMILES IDX 6 1 7 2 2 3 1 4 3 5 4 6 5 7 8 8 9 9 10 10 11 11 12 12 18 14
REMARK SMILES IDX 15 15 17 16 16 17 14 18 13 19
REMARK H PARENT
REMARK Flexibility Score: 70.00
ROOT
ATOM      1  C   UNL     1     -13.967 -24.997 -41.144  1.00  0.00     0.216 C 
ATOM      2  C   UNL     1     -14.119 -23.482 -41.533  1.00  0.00     0.070 C 
ATOM      3  C   UNL     1     -14.797 -22.893 -40.332  1.00  0.00     0.037 C 
ATOM      4  C   UNL     1     -14.959 -21.595 -40.079  1.00  0.00     0.021 C 
ATOM      5  C   UNL     1     -15.243 -23.980 -39.499  1.00  0.00     0.334 C 
ATOM      6  O   UNL     1     -15.930 -23.870 -38.450  1.00  0.00    -0.247 OA
ATOM      7  O   UNL     1     -14.817 -25.185 -40.013  1.00  0.00    -0.455 OA
ENDROOT
BRANCH   2   8
ATOM      8  C   UNL     1     -15.001 -23.241 -42.784  1.00  0.00     0.017 C 
BRANCH   8   9
ATOM      9  C   UNL     1     -14.283 -23.286 -44.147  1.00  0.00     0.031 C 
BRANCH   9  10
ATOM     10  C   UNL     1     -14.356 -24.635 -44.846  1.00  0.00    -0.077 C 
ATOM     11  C   UNL     1     -15.622 -24.977 -45.588  1.00  0.00     0.039 C 
ATOM     12  C   UNL     1     -13.354 -25.549 -44.847  1.00  0.00    -0.028 CG0
ATOM     13  G   UNL     1     -11.996 -25.390 -44.200  1.00  0.00     0.000 G0
ENDBRANCH   9  10
ENDBRANCH   8   9
ENDBRANCH   2   8
BRANCH   1  14
ATOM     14  C   UNL     1     -12.528 -25.319 -40.694  1.00  0.00     0.192 C 
ATOM     15  C   UNL     1     -11.499 -25.950 -41.586  1.00  0.00     0.096 C 
ATOM     16  O   UNL     1     -11.567 -24.559 -41.403  1.00  0.00    -0.362 OA
ATOM     17  C   UNL     1     -10.287 -26.549 -40.866  1.00  0.00     0.045 C 
BRANCH  15  18
ATOM     18  C   UNL     1     -11.707 -26.409 -43.060  1.00  0.00     0.042 C 
BRANCH  18  19
ATOM     19  C   UNL     1     -11.990 -25.399 -44.196  1.00  0.00     0.030 CG0
ATOM     20  G   UNL     1     -13.349 -25.548 -44.843  1.00  0.00     0.000 G0
ENDBRANCH  18  19
ENDBRANCH  15  18
ENDBRANCH   1  14
TORSDOF 0
ENDMDL
MODEL 3
REMARK VINA RESULT:    -3.509      4.776      7.772
REMARK INTER + INTRA:          -4.785
REMARK INTER:                  -4.504
REMARK INTRA:                  -0.280
REMARK UNBOUND:                -0.045
REMARK SMILES C=C1C(=O)O[C@H]2[C@H]1CCC(C)=CCC[C@@]1(C)O[C@@H]21
REMARK SMILES IDX 6 1 7 2 2 3 1 4 3 5 4 6 5 7 8 8 9 9 10 10 11 11 12 12 18 14
REMARK SMILES IDX 15 15 17 16 16 17 14 18 13 19
REMARK H PARENT
REMARK Flexibility Score: 70.00
ROOT
ATOM      1  C   UNL     1     -13.028 -25.886 -41.201  1.00  0.00     0.216 C 
ATOM      2  C   UNL     1     -12.889 -24.333 -41.401  1.00  0.00     0.070 C 
ATOM      3  C   UNL     1     -14.093 -23.793 -40.688  1.00  0.00     0.037 C 
ATOM      4  C   UNL     1     -14.321 -22.515 -40.388  1.00  0.00     0.021 C 
ATOM      5  C   UNL     1     -14.959 -24.902 -40.383  1.00  0.00     0.334 C 
ATOM      6  O   UNL     1     -16.105 -24.821 -39.866  1.00  0.00    -0.247 OA
ATOM      7  O   UNL     1     -14.364 -26.091 -40.744  1.00  0.00    -0.455 OA
ENDROOT
BRANCH   2   8
ATOM      8  C   UNL     1     -12.932 -23.885 -42.883  1.00  0.00     0.017 C 
BRANCH   8   9
ATOM      9  C   UNL     1     -11.627 -24.049 -43.686  1.00  0.00     0.031 C 
BRANCH   9  10
ATOM     10  C   UNL     1     -11.520 -25.367 -44.438  1.00  0.00    -0.077 C 
ATOM     11  C   UNL     1     -12.311 -25.520 -45.711  1.00  0.00     0.039 C 
ATOM     12  C   UNL     1     -10.755 -26.414 -44.038  1.00  0.00    -0.028 CG0
ATOM     13  G   UNL     1      -9.859 -26.454 -42.820  1.00  0.00     0.000 G0
ENDBRANCH   9  10
ENDBRANCH   8   9
ENDBRANCH   2   8
BRANCH   1  14
ATOM     14  C   UNL     1     -12.082 -26.396 -40.095  1.00  0.00     0.192 C 
ATOM     15  C   UNL     1     -10.801 -27.127 -40.368  1.00  0.00     0.096 C 
ATOM     16  O   UNL     1     -10.826 -25.744 -40.126  1.00  0.00    -0.362 OA
ATOM     17  C   UNL     1     -10.216 -27.891 -39.177  1.00  0.00     0.045 C 
BRANCH  15  18
ATOM     18  C   UNL     1     -10.237 -27.519 -41.767  1.00  0.00     0.042 C 
BRANCH  18  19
ATOM     19  C   UNL     1      -9.847 -26.452 -42.816  1.00  0.00     0.030 CG0
ATOM     20  G   UNL     1     -10.747 -26.407 -44.030  1.00  0.00     0.000 G0
ENDBRANCH  18  19
ENDBRANCH  15  18
ENDBRANCH   1  14
TORSDOF 0
ENDMDL
MODEL 4
REMARK VINA RESULT:    -3.408      1.752      3.839
REMARK INTER + INTRA:          -4.649
REMARK INTER:                  -4.288
REMARK INTRA:                  -0.360
REMARK UNBOUND:                -0.045
REMARK SMILES C=C1C(=O)O[C@H]2[C@H]1CCC(C)=CCC[C@@]1(C)O[C@@H]21
REMARK SMILES IDX 6 1 7 2 2 3 1 4 3 5 4 6 5 7 8 8 9 9 10 10 11 11 12 12 18 14
REMARK SMILES IDX 15 15 17 16 16 17 14 18 13 19
REMARK H PARENT
REMARK Flexibility Score: 70.00
ROOT
ATOM      1  C   UNL     1     -14.452 -23.940 -39.985  1.00  0.00     0.216 C 
ATOM      2  C   UNL     1     -15.258 -22.929 -40.880  1.00  0.00     0.070 C 
ATOM      3  C   UNL     1     -14.783 -23.253 -42.265  1.00  0.00     0.037 C 
ATOM      4  C   UNL     1     -15.321 -22.816 -43.403  1.00  0.00     0.021 C 
ATOM      5  C   UNL     1     -13.641 -24.122 -42.148  1.00  0.00     0.334 C 
ATOM      6  O   UNL     1     -12.924 -24.529 -43.100  1.00  0.00    -0.247 OA
ATOM      7  O   UNL     1     -13.422 -24.454 -40.829  1.00  0.00    -0.455 OA
ENDROOT
BRANCH   2   8
ATOM      8  C   UNL     1     -14.955 -21.441 -40.573  1.00  0.00     0.017 C 
BRANCH   8   9
ATOM      9  C   UNL     1     -15.989 -20.696 -39.707  1.00  0.00     0.031 C 
BRANCH   9  10
ATOM     10  C   UNL     1     -15.612 -20.592 -38.237  1.00  0.00    -0.077 C 
ATOM     11  C   UNL     1     -14.750 -19.432 -37.811  1.00  0.00     0.039 C 
ATOM     12  C   UNL     1     -16.003 -21.476 -37.285  1.00  0.00    -0.028 CG0
ATOM     13  G   UNL     1     -16.895 -22.679 -37.492  1.00  0.00     0.000 G0
ENDBRANCH   9  10
ENDBRANCH   8   9
ENDBRANCH   2   8
BRANCH   1  14
ATOM     14  C   UNL     1     -15.331 -25.133 -39.557  1.00  0.00     0.192 C 
ATOM     15  C   UNL     1     -16.139 -25.159 -38.293  1.00  0.00     0.096 C 
ATOM     16  O   UNL     1     -16.706 -24.796 -39.526  1.00  0.00    -0.362 OA
ATOM     17  C   UNL     1     -16.613 -26.544 -37.846  1.00  0.00     0.045 C 
BRANCH  15  18
ATOM     18  C   UNL     1     -16.202 -24.040 -37.211  1.00  0.00     0.042 C 
BRANCH  18  19
ATOM     19  C   UNL     1     -16.903 -22.687 -37.476  1.00  0.00     0.030 CG0
ATOM     20  G   UNL     1     -16.020 -21.475 -37.288  1.00  0.00     0.000 G0
ENDBRANCH  18  19
ENDBRANCH  15  18
ENDBRANCH   1  14
TORSDOF 0
ENDMDL
MODEL 5
REMARK VINA RESULT:    -3.408      6.421      8.833
REMARK INTER + INTRA:          -4.649
REMARK INTER:                  -4.630
REMARK INTRA:                  -0.018
REMARK UNBOUND:                -0.045
REMARK SMILES C=C1C(=O)O[C@H]2[C@H]1CCC(C)=CCC[C@@]1(C)O[C@@H]21
REMARK SMILES IDX 6 1 7 2 2 3 1 4 3 5 4 6 5 7 8 8 9 9 10 10 11 11 12 12 18 14
REMARK SMILES IDX 15 15 17 16 16 17 14 18 13 19
REMARK H PARENT
REMARK Flexibility Score: 70.00
ROOT
ATOM      1  C   UNL     1     -11.544 -26.062 -42.022  1.00  0.00     0.216 C 
ATOM      2  C   UNL     1     -10.900 -25.426 -43.307  1.00  0.00     0.070 C 
ATOM      3  C   UNL     1     -11.784 -24.245 -43.577  1.00  0.00     0.037 C 
ATOM      4  C   UNL     1     -11.537 -23.258 -44.438  1.00  0.00     0.021 C 
ATOM      5  C   UNL     1     -12.949 -24.364 -42.739  1.00  0.00     0.334 C 
ATOM      6  O   UNL     1     -13.952 -23.602 -42.758  1.00  0.00    -0.247 OA
ATOM      7  O   UNL     1     -12.828 -25.449 -41.899  1.00  0.00    -0.455 OA
ENDROOT
BRANCH   2   8
ATOM      8  C   UNL     1     -10.911 -26.362 -44.541  1.00  0.00     0.017 C 
BRANCH   8   9
ATOM      9  C   UNL     1     -11.036 -27.871 -44.255  1.00  0.00     0.031 C 
BRANCH   9  10
ATOM     10  C   UNL     1      -9.717 -28.627 -44.310  1.00  0.00    -0.077 C 
ATOM     11  C   UNL     1      -9.190 -29.027 -45.663  1.00  0.00     0.039 C 
ATOM     12  C   UNL     1      -8.985 -28.963 -43.219  1.00  0.00    -0.028 CG0
ATOM     13  G   UNL     1      -9.313 -28.626 -41.782  1.00  0.00     0.000 G0
ENDBRANCH   9  10
ENDBRANCH   8   9
ENDBRANCH   2   8
BRANCH   1  14
ATOM     14  C   UNL     1     -10.742 -25.700 -40.755  1.00  0.00     0.192 C 
ATOM     15  C   UNL     1      -9.401 -26.288 -40.425  1.00  0.00     0.096 C 
ATOM     16  O   UNL     1      -9.527 -25.044 -41.065  1.00  0.00    -0.362 OA
ATOM     17  C   UNL     1      -8.955 -26.123 -38.969  1.00  0.00     0.045 C 
BRANCH  15  18
ATOM     18  C   UNL     1      -8.627 -27.355 -41.255  1.00  0.00     0.042 C 
BRANCH  18  19
ATOM     19  C   UNL     1      -9.316 -28.634 -41.784  1.00  0.00     0.030 CG0
ATOM     20  G   UNL     1      -8.986 -28.977 -43.219  1.00  0.00     0.000 G0
ENDBRANCH  18  19
ENDBRANCH  15  18
ENDBRANCH   1  14
TORSDOF 0
ENDMDL
MODEL 6
REMARK VINA RESULT:    -3.248      4.849      7.279
REMARK INTER + INTRA:          -4.432
REMARK INTER:                  -4.085
REMARK INTRA:                  -0.347
REMARK UNBOUND:                -0.045
REMARK SMILES C=C1C(=O)O[C@H]2[C@H]1CCC(C)=CCC[C@@]1(C)O[C@@H]21
REMARK SMILES IDX 6 1 7 2 2 3 1 4 3 5 4 6 5 7 8 8 9 9 10 10 11 11 12 12 18 14
REMARK SMILES IDX 15 15 17 16 16 17 14 18 13 19
REMARK H PARENT
REMARK Flexibility Score: 70.00
ROOT
ATOM      1  C   UNL     1     -12.193 -26.420 -43.068  1.00  0.00     0.216 C 
ATOM      2  C   UNL     1     -11.644 -25.184 -42.266  1.00  0.00     0.070 C 
ATOM      3  C   UNL     1     -10.405 -25.727 -41.618  1.00  0.00     0.037 C 
ATOM      4  C   UNL     1      -9.465 -25.014 -40.999  1.00  0.00     0.021 C 
ATOM      5  C   UNL     1     -10.411 -27.157 -41.783  1.00  0.00     0.334 C 
ATOM      6  O   UNL     1      -9.574 -27.960 -41.290  1.00  0.00    -0.247 OA
ATOM      7  O   UNL     1     -11.479 -27.547 -42.560  1.00  0.00    -0.455 OA
ENDROOT
BRANCH   2   8
ATOM      8  C   UNL     1     -12.609 -24.670 -41.169  1.00  0.00     0.017 C 
BRANCH   8   9
ATOM      9  C   UNL     1     -13.661 -23.635 -41.613  1.00  0.00     0.031 C 
BRANCH   9  10
ATOM     10  C   UNL     1     -15.015 -24.233 -41.962  1.00  0.00    -0.077 C 
ATOM     11  C   UNL     1     -15.949 -24.575 -40.830  1.00  0.00     0.039 C 
ATOM     12  C   UNL     1     -15.437 -24.477 -43.228  1.00  0.00    -0.028 CG0
ATOM     13  G   UNL     1     -14.676 -24.174 -44.500  1.00  0.00     0.000 G0
ENDBRANCH   9  10
ENDBRANCH   8   9
ENDBRANCH   2   8
BRANCH   1  14
ATOM     14  C   UNL     1     -11.861 -26.306 -44.569  1.00  0.00     0.192 C 
ATOM     15  C   UNL     1     -12.838 -25.828 -45.603  1.00  0.00     0.096 C 
ATOM     16  O   UNL     1     -11.894 -24.965 -45.021  1.00  0.00    -0.362 OA
ATOM     17  C   UNL     1     -12.473 -26.159 -47.053  1.00  0.00     0.045 C 
BRANCH  15  18
ATOM     18  C   UNL     1     -14.319 -25.411 -45.356  1.00  0.00     0.042 C 
BRANCH  18  19
ATOM     19  C   UNL     1     -14.686 -24.167 -44.513  1.00  0.00     0.030 CG0
ATOM     20  G   UNL     1     -15.440 -24.473 -43.239  1.00  0.00     0.000 G0
ENDBRANCH  18  19
ENDBRANCH  15  18
ENDBRANCH   1  14
TORSDOF 0
ENDMDL
MODEL 7
REMARK VINA RESULT:    -3.169      4.105      6.858
REMARK INTER + INTRA:          -4.325
REMARK INTER:                  -4.032
REMARK INTRA:                  -0.293
REMARK UNBOUND:                -0.045
REMARK SMILES C=C1C(=O)O[C@H]2[C@H]1CCC(C)=CCC[C@@]1(C)O[C@@H]21
REMARK SMILES IDX 6 1 7 2 2 3 1 4 3 5 4 6 5 7 8 8 9 9 10 10 11 11 12 12 18 14
REMARK SMILES IDX 15 15 17 16 16 17 14 18 13 19
REMARK H PARENT
REMARK Flexibility Score: 70.00
ROOT
ATOM      1  C   UNL     1     -14.426 -23.433 -42.788  1.00  0.00     0.216 C 
ATOM      2  C   UNL     1     -14.346 -24.350 -41.514  1.00  0.00     0.070 C 
ATOM      3  C   UNL     1     -15.447 -23.817 -40.646  1.00  0.00     0.037 C 
ATOM      4  C   UNL     1     -15.926 -24.390 -39.543  1.00  0.00     0.021 C 
ATOM      5  C   UNL     1     -15.896 -22.573 -41.216  1.00  0.00     0.334 C 
ATOM      6  O   UNL     1     -16.748 -21.795 -40.711  1.00  0.00    -0.247 OA
ATOM      7  O   UNL     1     -15.253 -22.333 -42.411  1.00  0.00    -0.455 OA
ENDROOT
BRANCH   2   8
ATOM      8  C   UNL     1     -13.002 -24.248 -40.751  1.00  0.00     0.017 C 
BRANCH   8   9
ATOM      9  C   UNL     1     -12.114 -25.507 -40.758  1.00  0.00     0.031 C 
BRANCH   9  10
ATOM     10  C   UNL     1     -10.984 -25.467 -41.776  1.00  0.00    -0.077 C 
ATOM     11  C   UNL     1      -9.637 -24.973 -41.315  1.00  0.00     0.039 C 
ATOM     12  C   UNL     1     -11.110 -25.850 -43.071  1.00  0.00    -0.028 CG0
ATOM     13  G   UNL     1     -12.355 -26.410 -43.722  1.00  0.00     0.000 G0
ENDBRANCH   9  10
ENDBRANCH   8   9
ENDBRANCH   2   8
BRANCH   1  14
ATOM     14  C   UNL     1     -15.130 -24.155 -43.955  1.00  0.00     0.192 C 
ATOM     15  C   UNL     1     -14.436 -25.112 -44.880  1.00  0.00     0.096 C 
ATOM     16  O   UNL     1     -15.168 -25.558 -43.767  1.00  0.00    -0.362 OA
ATOM     17  C   UNL     1     -15.173 -25.410 -46.188  1.00  0.00     0.045 C 
BRANCH  15  18
ATOM     18  C   UNL     1     -12.928 -25.504 -44.847  1.00  0.00     0.042 C 
BRANCH  18  19
ATOM     19  C   UNL     1     -12.346 -26.414 -43.741  1.00  0.00     0.030 CG0
ATOM     20  G   UNL     1     -11.119 -25.858 -43.053  1.00  0.00     0.000 G0
ENDBRANCH  18  19
ENDBRANCH  15  18
ENDBRANCH   1  14
TORSDOF 0
ENDMDL
MODEL 8
REMARK VINA RESULT:    -3.122      5.769      8.388
REMARK INTER + INTRA:          -4.262
REMARK INTER:                  -4.250
REMARK INTRA:                  -0.012
REMARK UNBOUND:                -0.045
REMARK SMILES C=C1C(=O)O[C@H]2[C@H]1CCC(C)=CCC[C@@]1(C)O[C@@H]21
REMARK SMILES IDX 6 1 7 2 2 3 1 4 3 5 4 6 5 7 8 8 9 9 10 10 11 11 12 12 18 14
REMARK SMILES IDX 15 15 17 16 16 17 14 18 13 19
REMARK H PARENT
REMARK Flexibility Score: 70.00
ROOT
ATOM      1  C   UNL     1     -11.566 -25.048 -43.857  1.00  0.00     0.216 C 
ATOM      2  C   UNL     1     -12.343 -25.476 -42.559  1.00  0.00     0.070 C 
ATOM      3  C   UNL     1     -13.629 -24.712 -42.669  1.00  0.00     0.037 C 
ATOM      4  C   UNL     1     -14.717 -24.891 -41.920  1.00  0.00     0.021 C 
ATOM      5  C   UNL     1     -13.481 -23.750 -43.730  1.00  0.00     0.334 C 
ATOM      6  O   UNL     1     -14.325 -22.872 -44.051  1.00  0.00    -0.247 OA
ATOM      7  O   UNL     1     -12.266 -23.910 -44.359  1.00  0.00    -0.455 OA
ENDROOT
BRANCH   2   8
ATOM      8  C   UNL     1     -11.628 -25.081 -41.242  1.00  0.00     0.017 C 
BRANCH   8   9
ATOM      9  C   UNL     1     -10.095 -24.940 -41.311  1.00  0.00     0.031 C 
BRANCH   9  10
ATOM     10  C   UNL     1      -9.334 -26.149 -40.788  1.00  0.00    -0.077 C 
ATOM     11  C   UNL     1      -9.148 -26.275 -39.298  1.00  0.00     0.039 C 
ATOM     12  C   UNL     1      -8.815 -27.123 -41.577  1.00  0.00    -0.028 CG0
ATOM     13  G   UNL     1      -8.922 -27.208 -43.083  1.00  0.00     0.000 G0
ENDBRANCH   9  10
ENDBRANCH   8   9
ENDBRANCH   2   8
BRANCH   1  14
ATOM     14  C   UNL     1     -11.639 -26.144 -44.940  1.00  0.00     0.192 C 
ATOM     15  C   UNL     1     -11.004 -27.496 -44.797  1.00  0.00     0.096 C 
ATOM     16  O   UNL     1     -12.360 -27.280 -44.499  1.00  0.00    -0.362 OA
ATOM     17  C   UNL     1     -10.838 -28.283 -46.101  1.00  0.00     0.045 C 
BRANCH  15  18
ATOM     18  C   UNL     1     -10.160 -28.002 -43.589  1.00  0.00     0.042 C 
BRANCH  18  19
ATOM     19  C   UNL     1      -8.918 -27.233 -43.083  1.00  0.00     0.030 CG0
ATOM     20  G   UNL     1      -8.816 -27.127 -41.578  1.00  0.00     0.000 G0
ENDBRANCH  18  19
ENDBRANCH  15  18
ENDBRANCH   1  14
TORSDOF 0
ENDMDL
MODEL 9
REMARK VINA RESULT:    -3.102      4.019      6.464
REMARK INTER + INTRA:          -4.235
REMARK INTER:                  -4.218
REMARK INTRA:                  -0.017
REMARK UNBOUND:                -0.045
REMARK SMILES C=C1C(=O)O[C@H]2[C@H]1CCC(C)=CCC[C@@]1(C)O[C@@H]21
REMARK SMILES IDX 6 1 7 2 2 3 1 4 3 5 4 6 5 7 8 8 9 9 10 10 11 11 12 12 18 14
REMARK SMILES IDX 15 15 17 16 16 17 14 18 13 19
REMARK H PARENT
REMARK Flexibility Score: 70.00
ROOT
ATOM      1  C   UNL     1     -13.390 -25.999 -42.679  1.00  0.00     0.216 C 
ATOM      2  C   UNL     1     -12.417 -24.827 -42.289  1.00  0.00     0.070 C 
ATOM      3  C   UNL     1     -11.179 -25.550 -41.850  1.00  0.00     0.037 C 
ATOM      4  C   UNL     1      -9.987 -25.000 -41.620  1.00  0.00     0.021 C 
ATOM      5  C   UNL     1     -11.505 -26.946 -41.720  1.00  0.00     0.334 C 
ATOM      6  O   UNL     1     -10.738 -27.845 -41.284  1.00  0.00    -0.247 OA
ATOM      7  O   UNL     1     -12.798 -27.179 -42.136  1.00  0.00    -0.455 OA
ENDROOT
BRANCH   2   8
ATOM      8  C   UNL     1     -12.932 -23.946 -41.123  1.00  0.00     0.017 C 
BRANCH   8   9
ATOM      9  C   UNL     1     -14.434 -24.056 -40.795  1.00  0.00     0.031 C 
BRANCH   9  10
ATOM     10  C   UNL     1     -15.282 -22.933 -41.374  1.00  0.00    -0.077 C 
ATOM     11  C   UNL     1     -15.301 -21.615 -40.643  1.00  0.00     0.039 C 
ATOM     12  C   UNL     1     -16.020 -23.041 -42.507  1.00  0.00    -0.028 CG0
ATOM     13  G   UNL     1     -16.108 -24.253 -43.406  1.00  0.00     0.000 G0
ENDBRANCH   9  10
ENDBRANCH   8   9
ENDBRANCH   2   8
BRANCH   1  14
ATOM     14  C   UNL     1     -13.459 -26.184 -44.208  1.00  0.00     0.192 C 
ATOM     15  C   UNL     1     -14.293 -25.325 -45.112  1.00  0.00     0.096 C 
ATOM     16  O   UNL     1     -12.927 -25.071 -44.903  1.00  0.00    -0.362 OA
ATOM     17  C   UNL     1     -14.547 -25.897 -46.510  1.00  0.00     0.045 C 
BRANCH  15  18
ATOM     18  C   UNL     1     -15.230 -24.158 -44.678  1.00  0.00     0.042 C 
BRANCH  18  19
ATOM     19  C   UNL     1     -16.116 -24.251 -43.414  1.00  0.00     0.030 CG0
ATOM     20  G   UNL     1     -16.041 -23.045 -42.505  1.00  0.00     0.000 G0
ENDBRANCH  18  19
ENDBRANCH  15  18
ENDBRANCH   1  14
TORSDOF 0
ENDMDL
