MODEL 1
REMARK VINA RESULT:    -6.645      0.000      0.000
REMARK INTER + INTRA:          -8.127
REMARK INTER:                  -7.810
REMARK INTRA:                  -0.317
REMARK UNBOUND:                -0.317
REMARK SMILES O=c1c(O)c(-c2ccc(O)c(O)c2)oc2cc(O)ccc12
REMARK SMILES IDX 5 1 3 2 2 3 1 4 21 5 15 6 14 7 16 8 17 9 19 10 20 11 6 12
REMARK SMILES IDX 7 13 8 14 9 15 13 16 11 17 10 18 12 20 4 22 18 24
REMARK H PARENT 10 19 12 21 4 23 18 25
REMARK Flexibility Score: inf
ROOT
ATOM      1  C   UNL     1      44.133   7.922  15.902  1.00  0.00     0.180 A 
ATOM      2  C   UNL     1      42.837   8.377  15.580  1.00  0.00     0.208 A 
ATOM      3  C   UNL     1      41.879   8.464  16.600  1.00  0.00     0.235 A 
ATOM      4  O   UNL     1      40.710   8.859  16.335  1.00  0.00    -0.285 OA
ATOM      5  C   UNL     1      42.233   8.117  17.913  1.00  0.00     0.069 A 
ATOM      6  C   UNL     1      43.556   7.693  18.159  1.00  0.00     0.142 A 
ATOM      7  O   UNL     1      44.433   7.616  17.162  1.00  0.00    -0.452 OA
ATOM      8  C   UNL     1      43.952   7.348  19.456  1.00  0.00     0.094 A 
ATOM      9  C   UNL     1      43.037   7.420  20.514  1.00  0.00     0.119 A 
ATOM     10  C   UNL     1      41.725   7.838  20.274  1.00  0.00     0.047 A 
ATOM     11  C   UNL     1      41.320   8.187  18.981  1.00  0.00     0.020 A 
ENDROOT
BRANCH   1  12
ATOM     12  C   UNL     1      45.195   7.784  14.880  1.00  0.00     0.025 A 
ATOM     13  C   UNL     1      45.301   6.589  14.151  1.00  0.00     0.016 A 
ATOM     14  C   UNL     1      46.283   6.444  13.168  1.00  0.00     0.051 A 
ATOM     15  C   UNL     1      47.163   7.494  12.887  1.00  0.00     0.157 A 
ATOM     16  C   UNL     1      46.068   8.847  14.582  1.00  0.00     0.062 A 
ATOM     17  C   UNL     1      47.053   8.703  13.594  1.00  0.00     0.158 A 
BRANCH  15  18
ATOM     18  O   UNL     1      48.134   7.320  11.902  1.00  0.00    -0.504 OA
ATOM     19  H   UNL     1      48.213   6.461  11.369  1.00  0.00     0.293 HD
ENDBRANCH  15  18
BRANCH  17  20
ATOM     20  O   UNL     1      47.918   9.759  13.309  1.00  0.00    -0.504 OA
ATOM     21  H   UNL     1      47.858  10.642  13.802  1.00  0.00     0.293 HD
ENDBRANCH  17  20
ENDBRANCH   1  12
BRANCH   2  22
ATOM     22  O   UNL     1      42.528   8.762  14.273  1.00  0.00    -0.502 OA
ATOM     23  H   UNL     1      42.587   8.121  13.491  1.00  0.00     0.293 HD
ENDBRANCH   2  22
BRANCH   9  24
ATOM     24  O   UNL     1      43.421   7.078  21.809  1.00  0.00    -0.508 OA
ATOM     25  H   UNL     1      42.805   6.560  22.425  1.00  0.00     0.293 HD
ENDBRANCH   9  24
TORSDOF 5
ENDMDL
MODEL 2
REMARK VINA RESULT:    -6.378     15.477     16.825
REMARK INTER + INTRA:          -7.814
REMARK INTER:                  -7.497
REMARK INTRA:                  -0.316
REMARK UNBOUND:                -0.317
REMARK SMILES O=c1c(O)c(-c2ccc(O)c(O)c2)oc2cc(O)ccc12
REMARK SMILES IDX 5 1 3 2 2 3 1 4 21 5 15 6 14 7 16 8 17 9 19 10 20 11 6 12
REMARK SMILES IDX 7 13 8 14 9 15 13 16 11 17 10 18 12 20 4 22 18 24
REMARK H PARENT 10 19 12 21 4 23 18 25
REMARK Flexibility Score: inf
ROOT
ATOM      1  C   UNL     1      56.514  -3.041  20.129  1.00  0.00     0.180 A 
ATOM      2  C   UNL     1      56.261  -4.425  20.225  1.00  0.00     0.208 A 
ATOM      3  C   UNL     1      55.395  -4.885  21.228  1.00  0.00     0.235 A 
ATOM      4  O   UNL     1      55.160  -6.120  21.341  1.00  0.00    -0.285 OA
ATOM      5  C   UNL     1      54.790  -3.963  22.095  1.00  0.00     0.069 A 
ATOM      6  C   UNL     1      55.076  -2.592  21.920  1.00  0.00     0.142 A 
ATOM      7  O   UNL     1      55.909  -2.198  20.963  1.00  0.00    -0.452 OA
ATOM      8  C   UNL     1      54.485  -1.641  22.759  1.00  0.00     0.094 A 
ATOM      9  C   UNL     1      53.610  -2.043  23.775  1.00  0.00     0.119 A 
ATOM     10  C   UNL     1      53.325  -3.401  23.952  1.00  0.00     0.047 A 
ATOM     11  C   UNL     1      53.909  -4.360  23.118  1.00  0.00     0.020 A 
ENDROOT
BRANCH   1  12
ATOM     12  C   UNL     1      57.430  -2.477  19.111  1.00  0.00     0.025 A 
ATOM     13  C   UNL     1      58.794  -2.342  19.408  1.00  0.00     0.016 A 
ATOM     14  C   UNL     1      59.679  -1.831  18.456  1.00  0.00     0.051 A 
ATOM     15  C   UNL     1      59.219  -1.463  17.188  1.00  0.00     0.157 A 
ATOM     16  C   UNL     1      56.971  -2.126  17.827  1.00  0.00     0.062 A 
ATOM     17  C   UNL     1      57.859  -1.615  16.869  1.00  0.00     0.158 A 
BRANCH  15  18
ATOM     18  O   UNL     1      60.125  -0.954  16.258  1.00  0.00    -0.504 OA
ATOM     19  H   UNL     1      60.253   0.042  16.120  1.00  0.00     0.293 HD
ENDBRANCH  15  18
BRANCH  17  20
ATOM     20  O   UNL     1      57.395  -1.264  15.602  1.00  0.00    -0.504 OA
ATOM     21  H   UNL     1      56.956  -0.368  15.427  1.00  0.00     0.293 HD
ENDBRANCH  17  20
ENDBRANCH   1  12
BRANCH   2  22
ATOM     22  O   UNL     1      56.839  -5.314  19.315  1.00  0.00    -0.502 OA
ATOM     23  H   UNL     1      57.843  -5.406  19.212  1.00  0.00     0.293 HD
ENDBRANCH   2  22
BRANCH   9  24
ATOM     24  O   UNL     1      53.016  -1.103  24.615  1.00  0.00    -0.508 OA
ATOM     25  H   UNL     1      52.660  -1.359  25.529  1.00  0.00     0.293 HD
ENDBRANCH   9  24
TORSDOF 5
ENDMDL
MODEL 3
REMARK VINA RESULT:    -6.301     16.330     18.574
REMARK INTER + INTRA:          -7.723
REMARK INTER:                  -7.432
REMARK INTRA:                  -0.292
REMARK UNBOUND:                -0.317
REMARK SMILES O=c1c(O)c(-c2ccc(O)c(O)c2)oc2cc(O)ccc12
REMARK SMILES IDX 5 1 3 2 2 3 1 4 21 5 15 6 14 7 16 8 17 9 19 10 20 11 6 12
REMARK SMILES IDX 7 13 8 14 9 15 13 16 11 17 10 18 12 20 4 22 18 24
REMARK H PARENT 10 19 12 21 4 23 18 25
REMARK Flexibility Score: inf
ROOT
ATOM      1  C   UNL     1      57.609  -2.878  18.599  1.00  0.00     0.180 A 
ATOM      2  C   UNL     1      58.480  -1.897  19.119  1.00  0.00     0.208 A 
ATOM      3  C   UNL     1      59.330  -1.213  18.237  1.00  0.00     0.235 A 
ATOM      4  O   UNL     1      60.125  -0.338  18.679  1.00  0.00    -0.285 OA
ATOM      5  C   UNL     1      59.280  -1.503  16.865  1.00  0.00     0.069 A 
ATOM      6  C   UNL     1      58.365  -2.480  16.420  1.00  0.00     0.142 A 
ATOM      7  O   UNL     1      57.583  -3.113  17.289  1.00  0.00    -0.452 OA
ATOM      8  C   UNL     1      58.279  -2.791  15.058  1.00  0.00     0.094 A 
ATOM      9  C   UNL     1      59.100  -2.136  14.132  1.00  0.00     0.119 A 
ATOM     10  C   UNL     1      60.009  -1.168  14.570  1.00  0.00     0.047 A 
ATOM     11  C   UNL     1      60.102  -0.848  15.929  1.00  0.00     0.020 A 
ENDROOT
BRANCH   1  12
ATOM     12  C   UNL     1      56.695  -3.657  19.465  1.00  0.00     0.025 A 
ATOM     13  C   UNL     1      57.081  -4.933  19.903  1.00  0.00     0.016 A 
ATOM     14  C   UNL     1      56.243  -5.678  20.738  1.00  0.00     0.051 A 
ATOM     15  C   UNL     1      55.017  -5.154  21.158  1.00  0.00     0.157 A 
ATOM     16  C   UNL     1      55.470  -3.123  19.907  1.00  0.00     0.062 A 
ATOM     17  C   UNL     1      54.629  -3.868  20.745  1.00  0.00     0.158 A 
BRANCH  15  18
ATOM     18  O   UNL     1      54.201  -5.921  21.989  1.00  0.00    -0.504 OA
ATOM     19  H   UNL     1      54.573  -6.656  22.579  1.00  0.00     0.293 HD
ENDBRANCH  15  18
BRANCH  17  20
ATOM     20  O   UNL     1      53.415  -3.334  21.173  1.00  0.00    -0.504 OA
ATOM     21  H   UNL     1      52.529  -3.700  20.845  1.00  0.00     0.293 HD
ENDBRANCH  17  20
ENDBRANCH   1  12
BRANCH   2  22
ATOM     22  O   UNL     1      58.471  -1.595  20.483  1.00  0.00    -0.502 OA
ATOM     23  H   UNL     1      57.633  -1.290  20.964  1.00  0.00     0.293 HD
ENDBRANCH   2  22
BRANCH   9  24
ATOM     24  O   UNL     1      59.021  -2.438  12.774  1.00  0.00    -0.508 OA
ATOM     25  H   UNL     1      58.447  -1.891  12.143  1.00  0.00     0.293 HD
ENDBRANCH   9  24
TORSDOF 5
ENDMDL
MODEL 4
REMARK VINA RESULT:    -6.051     14.600     16.409
REMARK INTER + INTRA:          -7.429
REMARK INTER:                  -7.113
REMARK INTRA:                  -0.315
REMARK UNBOUND:                -0.317
REMARK SMILES O=c1c(O)c(-c2ccc(O)c(O)c2)oc2cc(O)ccc12
REMARK SMILES IDX 5 1 3 2 2 3 1 4 21 5 15 6 14 7 16 8 17 9 19 10 20 11 6 12
REMARK SMILES IDX 7 13 8 14 9 15 13 16 11 17 10 18 12 20 4 22 18 24
REMARK H PARENT 10 19 12 21 4 23 18 25
REMARK Flexibility Score: inf
ROOT
ATOM      1  C   UNL     1      52.953  -4.906  18.006  1.00  0.00     0.180 A 
ATOM      2  C   UNL     1      53.821  -5.303  16.967  1.00  0.00     0.208 A 
ATOM      3  C   UNL     1      53.267  -5.723  15.748  1.00  0.00     0.235 A 
ATOM      4  O   UNL     1      54.022  -6.093  14.807  1.00  0.00    -0.285 OA
ATOM      5  C   UNL     1      51.874  -5.719  15.585  1.00  0.00     0.069 A 
ATOM      6  C   UNL     1      51.074  -5.285  16.664  1.00  0.00     0.142 A 
ATOM      7  O   UNL     1      51.637  -4.904  17.805  1.00  0.00    -0.452 OA
ATOM      8  C   UNL     1      49.681  -5.258  16.536  1.00  0.00     0.094 A 
ATOM      9  C   UNL     1      49.074  -5.662  15.340  1.00  0.00     0.119 A 
ATOM     10  C   UNL     1      49.863  -6.093  14.270  1.00  0.00     0.047 A 
ATOM     11  C   UNL     1      51.257  -6.123  14.386  1.00  0.00     0.020 A 
ENDROOT
BRANCH   1  12
ATOM     12  C   UNL     1      53.458  -4.468  19.328  1.00  0.00     0.025 A 
ATOM     13  C   UNL     1      53.643  -5.417  20.344  1.00  0.00     0.016 A 
ATOM     14  C   UNL     1      54.137  -5.031  21.593  1.00  0.00     0.051 A 
ATOM     15  C   UNL     1      54.466  -3.694  21.840  1.00  0.00     0.157 A 
ATOM     16  C   UNL     1      53.810  -3.128  19.571  1.00  0.00     0.062 A 
ATOM     17  C   UNL     1      54.307  -2.738  20.823  1.00  0.00     0.158 A 
BRANCH  15  18
ATOM     18  O   UNL     1      54.955  -3.337  23.096  1.00  0.00    -0.504 OA
ATOM     19  H   UNL     1      54.690  -3.834  23.938  1.00  0.00     0.293 HD
ENDBRANCH  15  18
BRANCH  17  20
ATOM     20  O   UNL     1      54.648  -1.406  21.057  1.00  0.00    -0.504 OA
ATOM     21  H   UNL     1      54.719  -0.736  20.301  1.00  0.00     0.293 HD
ENDBRANCH  17  20
ENDBRANCH   1  12
BRANCH   2  22
ATOM     22  O   UNL     1      55.206  -5.249  17.143  1.00  0.00    -0.502 OA
ATOM     23  H   UNL     1      55.698  -5.884  17.761  1.00  0.00     0.293 HD
ENDBRANCH   2  22
BRANCH   9  24
ATOM     24  O   UNL     1      47.687  -5.637  15.204  1.00  0.00    -0.508 OA
ATOM     25  H   UNL     1      47.229  -4.987  14.576  1.00  0.00     0.293 HD
ENDBRANCH   9  24
TORSDOF 5
ENDMDL
MODEL 5
REMARK VINA RESULT:    -6.044     15.639     17.944
REMARK INTER + INTRA:          -7.421
REMARK INTER:                  -7.216
REMARK INTRA:                  -0.206
REMARK UNBOUND:                -0.317
REMARK SMILES O=c1c(O)c(-c2ccc(O)c(O)c2)oc2cc(O)ccc12
REMARK SMILES IDX 5 1 3 2 2 3 1 4 21 5 15 6 14 7 16 8 17 9 19 10 20 11 6 12
REMARK SMILES IDX 7 13 8 14 9 15 13 16 11 17 10 18 12 20 4 22 18 24
REMARK H PARENT 10 19 12 21 4 23 18 25
REMARK Flexibility Score: inf
ROOT
ATOM      1  C   UNL     1      56.866  -2.577  19.194  1.00  0.00     0.180 A 
ATOM      2  C   UNL     1      58.155  -2.010  19.273  1.00  0.00     0.208 A 
ATOM      3  C   UNL     1      58.894  -1.845  18.092  1.00  0.00     0.235 A 
ATOM      4  O   UNL     1      60.053  -1.350  18.137  1.00  0.00    -0.285 OA
ATOM      5  C   UNL     1      58.329  -2.225  16.865  1.00  0.00     0.069 A 
ATOM      6  C   UNL     1      57.024  -2.763  16.867  1.00  0.00     0.142 A 
ATOM      7  O   UNL     1      56.361  -2.912  18.009  1.00  0.00    -0.452 OA
ATOM      8  C   UNL     1      56.422  -3.146  15.663  1.00  0.00     0.094 A 
ATOM      9  C   UNL     1      57.111  -2.999  14.452  1.00  0.00     0.119 A 
ATOM     10  C   UNL     1      58.405  -2.468  14.447  1.00  0.00     0.047 A 
ATOM     11  C   UNL     1      59.015  -2.081  15.645  1.00  0.00     0.020 A 
ENDROOT
BRANCH   1  12
ATOM     12  C   UNL     1      56.031  -2.802  20.397  1.00  0.00     0.025 A 
ATOM     13  C   UNL     1      55.826  -4.111  20.859  1.00  0.00     0.016 A 
ATOM     14  C   UNL     1      55.059  -4.346  22.002  1.00  0.00     0.051 A 
ATOM     15  C   UNL     1      54.497  -3.278  22.709  1.00  0.00     0.157 A 
ATOM     16  C   UNL     1      55.483  -1.727  21.121  1.00  0.00     0.062 A 
ATOM     17  C   UNL     1      54.714  -1.961  22.270  1.00  0.00     0.158 A 
BRANCH  15  18
ATOM     18  O   UNL     1      53.735  -3.543  23.845  1.00  0.00    -0.504 OA
ATOM     19  H   UNL     1      52.930  -4.159  23.823  1.00  0.00     0.293 HD
ENDBRANCH  15  18
BRANCH  17  20
ATOM     20  O   UNL     1      54.170  -0.890  22.978  1.00  0.00    -0.504 OA
ATOM     21  H   UNL     1      53.927  -0.020  22.520  1.00  0.00     0.293 HD
ENDBRANCH  17  20
ENDBRANCH   1  12
BRANCH   2  22
ATOM     22  O   UNL     1      58.671  -1.595  20.503  1.00  0.00    -0.502 OA
ATOM     23  H   UNL     1      59.364  -2.134  21.009  1.00  0.00     0.293 HD
ENDBRANCH   2  22
BRANCH   9  24
ATOM     24  O   UNL     1      56.520  -3.377  13.248  1.00  0.00    -0.508 OA
ATOM     25  H   UNL     1      56.200  -4.326  13.091  1.00  0.00     0.293 HD
ENDBRANCH   9  24
TORSDOF 5
ENDMDL
MODEL 6
REMARK VINA RESULT:    -5.998      1.486      6.741
REMARK INTER + INTRA:          -7.367
REMARK INTER:                  -7.347
REMARK INTRA:                  -0.020
REMARK UNBOUND:                -0.317
REMARK SMILES O=c1c(O)c(-c2ccc(O)c(O)c2)oc2cc(O)ccc12
REMARK SMILES IDX 5 1 3 2 2 3 1 4 21 5 15 6 14 7 16 8 17 9 19 10 20 11 6 12
REMARK SMILES IDX 7 13 8 14 9 15 13 16 11 17 10 18 12 20 4 22 18 24
REMARK H PARENT 10 19 12 21 4 23 18 25
REMARK Flexibility Score: inf
ROOT
ATOM      1  C   UNL     1      43.242   7.363  16.993  1.00  0.00     0.180 A 
ATOM      2  C   UNL     1      42.643   6.484  16.066  1.00  0.00     0.208 A 
ATOM      3  C   UNL     1      43.157   6.425  14.763  1.00  0.00     0.235 A 
ATOM      4  O   UNL     1      42.633   5.654  13.912  1.00  0.00    -0.285 OA
ATOM      5  C   UNL     1      44.261   7.220  14.418  1.00  0.00     0.069 A 
ATOM      6  C   UNL     1      44.818   8.056  15.409  1.00  0.00     0.142 A 
ATOM      7  O   UNL     1      44.296   8.090  16.631  1.00  0.00    -0.452 OA
ATOM      8  C   UNL     1      45.925   8.857  15.108  1.00  0.00     0.094 A 
ATOM      9  C   UNL     1      46.483   8.835  13.823  1.00  0.00     0.119 A 
ATOM     10  C   UNL     1      45.932   8.009  12.839  1.00  0.00     0.047 A 
ATOM     11  C   UNL     1      44.827   7.203  13.130  1.00  0.00     0.020 A 
ENDROOT
BRANCH   1  12
ATOM     12  C   UNL     1      42.746   7.498  18.383  1.00  0.00     0.025 A 
ATOM     13  C   UNL     1      41.390   7.776  18.607  1.00  0.00     0.016 A 
ATOM     14  C   UNL     1      40.896   7.888  19.909  1.00  0.00     0.051 A 
ATOM     15  C   UNL     1      41.746   7.709  21.006  1.00  0.00     0.157 A 
ATOM     16  C   UNL     1      43.596   7.296  19.487  1.00  0.00     0.062 A 
ATOM     17  C   UNL     1      43.101   7.406  20.794  1.00  0.00     0.158 A 
BRANCH  15  18
ATOM     18  O   UNL     1      41.225   7.828  22.293  1.00  0.00    -0.504 OA
ATOM     19  H   UNL     1      40.436   7.277  22.609  1.00  0.00     0.293 HD
ENDBRANCH  15  18
BRANCH  17  20
ATOM     20  O   UNL     1      43.951   7.212  21.882  1.00  0.00    -0.504 OA
ATOM     21  H   UNL     1      43.608   6.857  22.767  1.00  0.00     0.293 HD
ENDBRANCH  17  20
ENDBRANCH   1  12
BRANCH   2  22
ATOM     22  O   UNL     1      41.577   5.668  16.453  1.00  0.00    -0.502 OA
ATOM     23  H   UNL     1      41.717   4.757  16.873  1.00  0.00     0.293 HD
ENDBRANCH   2  22
BRANCH   9  24
ATOM     24  O   UNL     1      47.586   9.629  13.514  1.00  0.00    -0.508 OA
ATOM     25  H   UNL     1      48.086  10.143  14.231  1.00  0.00     0.293 HD
ENDBRANCH   9  24
TORSDOF 5
ENDMDL
MODEL 7
REMARK VINA RESULT:    -5.692     13.710     15.690
REMARK INTER + INTRA:          -7.008
REMARK INTER:                  -6.693
REMARK INTRA:                  -0.314
REMARK UNBOUND:                -0.317
REMARK SMILES O=c1c(O)c(-c2ccc(O)c(O)c2)oc2cc(O)ccc12
REMARK SMILES IDX 5 1 3 2 2 3 1 4 21 5 15 6 14 7 16 8 17 9 19 10 20 11 6 12
REMARK SMILES IDX 7 13 8 14 9 15 13 16 11 17 10 18 12 20 4 22 18 24
REMARK H PARENT 10 19 12 21 4 23 18 25
REMARK Flexibility Score: inf
ROOT
ATOM      1  C   UNL     1      51.692  -4.953  16.540  1.00  0.00     0.180 A 
ATOM      2  C   UNL     1      52.849  -4.913  15.734  1.00  0.00     0.208 A 
ATOM      3  C   UNL     1      54.105  -4.997  16.352  1.00  0.00     0.235 A 
ATOM      4  O   UNL     1      55.156  -4.954  15.654  1.00  0.00    -0.285 OA
ATOM      5  C   UNL     1      54.181  -5.138  17.746  1.00  0.00     0.069 A 
ATOM      6  C   UNL     1      52.977  -5.193  18.480  1.00  0.00     0.142 A 
ATOM      7  O   UNL     1      51.807  -5.101  17.857  1.00  0.00    -0.452 OA
ATOM      8  C   UNL     1      53.011  -5.343  19.871  1.00  0.00     0.094 A 
ATOM      9  C   UNL     1      54.237  -5.437  20.541  1.00  0.00     0.119 A 
ATOM     10  C   UNL     1      55.432  -5.381  19.817  1.00  0.00     0.047 A 
ATOM     11  C   UNL     1      55.410  -5.233  18.426  1.00  0.00     0.020 A 
ENDROOT
BRANCH   1  12
ATOM     12  C   UNL     1      50.330  -4.850  15.966  1.00  0.00     0.025 A 
ATOM     13  C   UNL     1      49.571  -6.015  15.779  1.00  0.00     0.016 A 
ATOM     14  C   UNL     1      48.277  -5.941  15.258  1.00  0.00     0.051 A 
ATOM     15  C   UNL     1      47.716  -4.703  14.931  1.00  0.00     0.157 A 
ATOM     16  C   UNL     1      49.757  -3.603  15.656  1.00  0.00     0.062 A 
ATOM     17  C   UNL     1      48.457  -3.526  15.135  1.00  0.00     0.158 A 
BRANCH  15  18
ATOM     18  O   UNL     1      46.423  -4.659  14.411  1.00  0.00    -0.504 OA
ATOM     19  H   UNL     1      45.806  -5.463  14.434  1.00  0.00     0.293 HD
ENDBRANCH  15  18
BRANCH  17  20
ATOM     20  O   UNL     1      47.899  -2.287  14.824  1.00  0.00    -0.504 OA
ATOM     21  H   UNL     1      46.905  -2.115  14.912  1.00  0.00     0.293 HD
ENDBRANCH  17  20
ENDBRANCH   1  12
BRANCH   2  22
ATOM     22  O   UNL     1      52.740  -4.822  14.344  1.00  0.00    -0.502 OA
ATOM     23  H   UNL     1      52.036  -5.332  13.822  1.00  0.00     0.293 HD
ENDBRANCH   2  22
BRANCH   9  24
ATOM     24  O   UNL     1      54.281  -5.586  21.925  1.00  0.00    -0.508 OA
ATOM     25  H   UNL     1      54.652  -6.426  22.356  1.00  0.00     0.293 HD
ENDBRANCH   9  24
TORSDOF 5
ENDMDL
MODEL 8
REMARK VINA RESULT:    -5.611      1.735      6.854
REMARK INTER + INTRA:          -6.911
REMARK INTER:                  -6.588
REMARK INTRA:                  -0.323
REMARK UNBOUND:                -0.317
REMARK SMILES O=c1c(O)c(-c2ccc(O)c(O)c2)oc2cc(O)ccc12
REMARK SMILES IDX 5 1 3 2 2 3 1 4 21 5 15 6 14 7 16 8 17 9 19 10 20 11 6 12
REMARK SMILES IDX 7 13 8 14 9 15 13 16 11 17 10 18 12 20 4 22 18 24
REMARK H PARENT 10 19 12 21 4 23 18 25
REMARK Flexibility Score: inf
ROOT
ATOM      1  C   UNL     1      44.095   7.665  15.763  1.00  0.00     0.180 A 
ATOM      2  C   UNL     1      44.920   8.766  15.449  1.00  0.00     0.208 A 
ATOM      3  C   UNL     1      45.907   8.611  14.464  1.00  0.00     0.235 A 
ATOM      4  O   UNL     1      46.664   9.577  14.173  1.00  0.00    -0.285 OA
ATOM      5  C   UNL     1      46.036   7.380  13.804  1.00  0.00     0.069 A 
ATOM      6  C   UNL     1      45.157   6.334  14.158  1.00  0.00     0.142 A 
ATOM      7  O   UNL     1      44.241   6.519  15.103  1.00  0.00    -0.452 OA
ATOM      8  C   UNL     1      45.247   5.095  13.515  1.00  0.00     0.094 A 
ATOM      9  C   UNL     1      46.211   4.885  12.521  1.00  0.00     0.119 A 
ATOM     10  C   UNL     1      47.085   5.918  12.168  1.00  0.00     0.047 A 
ATOM     11  C   UNL     1      47.001   7.161  12.803  1.00  0.00     0.020 A 
ENDROOT
BRANCH   1  12
ATOM     12  C   UNL     1      43.044   7.742  16.803  1.00  0.00     0.025 A 
ATOM     13  C   UNL     1      41.726   8.048  16.431  1.00  0.00     0.016 A 
ATOM     14  C   UNL     1      40.714   8.107  17.393  1.00  0.00     0.051 A 
ATOM     15  C   UNL     1      41.000   7.845  18.737  1.00  0.00     0.157 A 
ATOM     16  C   UNL     1      43.326   7.459  18.153  1.00  0.00     0.062 A 
ATOM     17  C   UNL     1      42.311   7.515  19.119  1.00  0.00     0.158 A 
BRANCH  15  18
ATOM     18  O   UNL     1      39.970   7.913  19.674  1.00  0.00    -0.504 OA
ATOM     19  H   UNL     1      39.518   8.787  19.915  1.00  0.00     0.293 HD
ENDBRANCH  15  18
BRANCH  17  20
ATOM     20  O   UNL     1      42.600   7.239  20.454  1.00  0.00    -0.504 OA
ATOM     21  H   UNL     1      41.991   7.546  21.204  1.00  0.00     0.293 HD
ENDBRANCH  17  20
ENDBRANCH   1  12
BRANCH   2  22
ATOM     22  O   UNL     1      44.735   9.994  16.089  1.00  0.00    -0.502 OA
ATOM     23  H   UNL     1      45.093  10.862  15.709  1.00  0.00     0.293 HD
ENDBRANCH   2  22
BRANCH   9  24
ATOM     24  O   UNL     1      46.309   3.654  11.875  1.00  0.00    -0.508 OA
ATOM     25  H   UNL     1      46.425   2.791  12.395  1.00  0.00     0.293 HD
ENDBRANCH   9  24
TORSDOF 5
ENDMDL
MODEL 9
REMARK VINA RESULT:    -5.496      3.025      6.699
REMARK INTER + INTRA:          -6.777
REMARK INTER:                  -6.454
REMARK INTRA:                  -0.323
REMARK UNBOUND:                -0.317
REMARK SMILES O=c1c(O)c(-c2ccc(O)c(O)c2)oc2cc(O)ccc12
REMARK SMILES IDX 5 1 3 2 2 3 1 4 21 5 15 6 14 7 16 8 17 9 19 10 20 11 6 12
REMARK SMILES IDX 7 13 8 14 9 15 13 16 11 17 10 18 12 20 4 22 18 24
REMARK H PARENT 10 19 12 21 4 23 18 25
REMARK Flexibility Score: inf
ROOT
ATOM      1  C   UNL     1      42.363   6.620  15.913  1.00  0.00     0.180 A 
ATOM      2  C   UNL     1      42.485   7.506  14.822  1.00  0.00     0.208 A 
ATOM      3  C   UNL     1      42.642   6.973  13.534  1.00  0.00     0.235 A 
ATOM      4  O   UNL     1      42.764   7.745  12.542  1.00  0.00    -0.285 OA
ATOM      5  C   UNL     1      42.654   5.581  13.358  1.00  0.00     0.069 A 
ATOM      6  C   UNL     1      42.503   4.762  14.497  1.00  0.00     0.142 A 
ATOM      7  O   UNL     1      42.365   5.306  15.702  1.00  0.00    -0.452 OA
ATOM      8  C   UNL     1      42.500   3.369  14.363  1.00  0.00     0.094 A 
ATOM      9  C   UNL     1      42.650   2.782  13.100  1.00  0.00     0.119 A 
ATOM     10  C   UNL     1      42.802   3.591  11.970  1.00  0.00     0.047 A 
ATOM     11  C   UNL     1      42.804   4.984  12.093  1.00  0.00     0.020 A 
ENDROOT
BRANCH   1  12
ATOM     12  C   UNL     1      42.212   7.103  17.305  1.00  0.00     0.025 A 
ATOM     13  C   UNL     1      40.928   7.242  17.852  1.00  0.00     0.016 A 
ATOM     14  C   UNL     1      40.762   7.676  19.169  1.00  0.00     0.051 A 
ATOM     15  C   UNL     1      41.877   7.964  19.964  1.00  0.00     0.157 A 
ATOM     16  C   UNL     1      43.333   7.372  18.112  1.00  0.00     0.062 A 
ATOM     17  C   UNL     1      43.169   7.807  19.436  1.00  0.00     0.158 A 
BRANCH  15  18
ATOM     18  O   UNL     1      41.681   8.398  21.274  1.00  0.00    -0.504 OA
ATOM     19  H   UNL     1      41.751   9.375  21.535  1.00  0.00     0.293 HD
ENDBRANCH  15  18
BRANCH  17  20
ATOM     20  O   UNL     1      44.284   8.078  20.226  1.00  0.00    -0.504 OA
ATOM     21  H   UNL     1      44.296   8.850  20.883  1.00  0.00     0.293 HD
ENDBRANCH  17  20
ENDBRANCH   1  12
BRANCH   2  22
ATOM     22  O   UNL     1      42.419   8.887  15.021  1.00  0.00    -0.502 OA
ATOM     23  H   UNL     1      42.502   9.549  14.259  1.00  0.00     0.293 HD
ENDBRANCH   2  22
BRANCH   9  24
ATOM     24  O   UNL     1      42.648   1.396  12.957  1.00  0.00    -0.508 OA
ATOM     25  H   UNL     1      41.826   0.898  12.632  1.00  0.00     0.293 HD
ENDBRANCH   9  24
TORSDOF 5
ENDMDL
