MODEL 1
REMARK VINA RESULT:    20.976      0.000      0.000
REMARK INTER + INTRA:          29.955
REMARK INTER:                  27.720
REMARK INTRA:                   2.236
REMARK UNBOUND:                 2.236
REMARK SMILES CC(C)=CCC[C@H](C(=O)[O-])[C@@H]1CC[C@]2(C)C3=C(CC[C@]12C)[C@]1(C)CC[C@H](O)C(C)(C)[C@@H]1CC3
REMARK SMILES IDX 6 1 7 2 8 3 9 4 10 5 11 6 12 7 20 8 13 9 14 10 19 11 21 12
REMARK SMILES IDX 15 13 16 14 18 15 17 16 33 17 22 18 32 19 31 20 24 21 23 22
REMARK SMILES IDX 28 23 25 24 26 25 29 26 30 27 27 28 5 30 4 31 2 32 1 33 3 34
REMARK H PARENT 27 29
REMARK Flexibility Score: inf
ROOT
ATOM      1  C   UNL     1      72.084  33.930  53.380  1.00  0.00     0.014 C 
ENDROOT
BRANCH   1   2
ATOM      2  C   UNL     1      73.569  34.121  53.797  1.00  0.00     0.039 C 
BRANCH   2   3
ATOM      3  C   UNL     1      74.062  35.468  53.334  1.00  0.00     0.045 C 
ATOM      4  O   UNL     1      73.397  36.122  52.488  1.00  0.00    -0.550 OA
ATOM      5  O   UNL     1      75.261  35.993  53.803  1.00  0.00    -0.550 OA
ENDBRANCH   2   3
BRANCH   2   6
ATOM      6  C   UNL     1      74.506  32.943  53.359  1.00  0.00     0.004 C 
ATOM      7  C   UNL     1      75.339  32.429  54.536  1.00  0.00     0.006 C 
ATOM      8  C   UNL     1      75.536  33.167  52.193  1.00  0.00    -0.020 C 
ATOM      9  C   UNL     1      76.562  31.728  53.958  1.00  0.00     0.012 C 
ATOM     10  C   UNL     1      76.591  31.999  52.428  1.00  0.00    -0.006 C 
ATOM     11  C   UNL     1      76.214  34.584  52.222  1.00  0.00     0.012 C 
ATOM     12  C   UNL     1      74.831  33.052  50.808  1.00  0.00     0.012 C 
ATOM     13  C   UNL     1      76.137  30.675  51.730  1.00  0.00     0.017 C 
ATOM     14  C   UNL     1      78.041  32.390  52.023  1.00  0.00    -0.064 C 
ATOM     15  C   UNL     1      77.541  34.619  52.963  1.00  0.00     0.032 C 
ATOM     16  C   UNL     1      78.506  33.644  52.312  1.00  0.00    -0.064 C 
ATOM     17  C   UNL     1      78.967  31.303  51.474  1.00  0.00     0.032 C 
ATOM     18  C   UNL     1      80.002  33.986  52.157  1.00  0.00    -0.008 C 
ATOM     19  C   UNL     1      80.391  31.717  51.061  1.00  0.00     0.009 C 
ATOM     20  C   UNL     1      80.613  33.238  50.920  1.00  0.00     0.007 C 
ATOM     21  C   UNL     1      80.315  35.501  52.002  1.00  0.00     0.014 C 
ATOM     22  C   UNL     1      80.697  33.532  53.468  1.00  0.00     0.016 C 
ATOM     23  C   UNL     1      80.241  33.843  49.494  1.00  0.00    -0.006 C 
ATOM     24  C   UNL     1      79.782  36.076  50.692  1.00  0.00     0.033 C 
ATOM     25  C   UNL     1      80.467  35.392  49.503  1.00  0.00     0.120 C 
ATOM     26  C   UNL     1      78.792  33.516  49.050  1.00  0.00     0.014 C 
ATOM     27  C   UNL     1      81.192  33.255  48.416  1.00  0.00     0.014 C 
BRANCH  25  28
ATOM     28  O   UNL     1      80.009  35.969  48.305  1.00  0.00    -0.393 OA
ATOM     29  H   UNL     1      80.678  35.755  47.604  1.00  0.00     0.210 HD
ENDBRANCH  25  28
ENDBRANCH   2   6
ENDBRANCH   1   2
BRANCH   1  30
ATOM     30  C   UNL     1      71.177  33.290  54.449  1.00  0.00     0.028 C 
BRANCH  30  31
ATOM     31  C   UNL     1      71.947  33.040  55.721  1.00  0.00    -0.028 C 
ATOM     32  C   UNL     1      71.502  33.362  56.956  1.00  0.00    -0.080 C 
ATOM     33  C   UNL     1      72.393  33.080  58.139  1.00  0.00     0.039 C 
ATOM     34  C   UNL     1      70.136  33.971  57.181  1.00  0.00     0.039 C 
ENDBRANCH  30  31
ENDBRANCH   1  30
TORSDOF 6
ENDMDL
