MODEL 1
REMARK VINA RESULT:    -3.446      0.000      0.000
REMARK INTER + INTRA:          -4.085
REMARK INTER:                  -4.050
REMARK INTRA:                  -0.035
REMARK UNBOUND:                -0.035
REMARK SMILES O=C([O-])CCC(=O)[O-]
REMARK SMILES IDX 4 1 2 2 1 3 3 4 5 5 6 6 7 7 8 8
REMARK H PARENT
REMARK Flexibility Score: inf
ROOT
ATOM      1  C   UNL     1      21.321  20.306  22.771  1.00  0.00     0.059 C 
ENDROOT
BRANCH   1   2
ATOM      2  C   UNL     1      22.189  21.344  22.132  1.00  0.00     0.042 C 
ATOM      3  O   UNL     1      23.226  21.004  21.505  1.00  0.00    -0.550 OA
ATOM      4  O   UNL     1      21.879  22.691  22.271  1.00  0.00    -0.550 OA
ENDBRANCH   1   2
BRANCH   1   5
ATOM      5  C   UNL     1      20.751  19.360  21.715  1.00  0.00     0.059 C 
BRANCH   5   6
ATOM      6  C   UNL     1      19.779  18.407  22.336  1.00  0.00     0.042 C 
ATOM      7  O   UNL     1      19.642  18.365  23.587  1.00  0.00    -0.550 OA
ATOM      8  O   UNL     1      18.986  17.600  21.530  1.00  0.00    -0.550 OA
ENDBRANCH   5   6
ENDBRANCH   1   5
TORSDOF 3
ENDMDL
MODEL 2
REMARK VINA RESULT:    -3.422      0.128      4.283
REMARK INTER + INTRA:          -4.057
REMARK INTER:                  -4.024
REMARK INTRA:                  -0.033
REMARK UNBOUND:                -0.035
REMARK SMILES O=C([O-])CCC(=O)[O-]
REMARK SMILES IDX 4 1 2 2 1 3 3 4 5 5 6 6 7 7 8 8
REMARK H PARENT
REMARK Flexibility Score: inf
ROOT
ATOM      1  C   UNL     1      20.743  19.414  21.775  1.00  0.00     0.059 C 
ENDROOT
BRANCH   1   2
ATOM      2  C   UNL     1      19.817  18.424  22.408  1.00  0.00     0.042 C 
ATOM      3  O   UNL     1      19.152  17.630  21.692  1.00  0.00    -0.550 OA
ATOM      4  O   UNL     1      19.650  18.412  23.787  1.00  0.00    -0.550 OA
ENDBRANCH   1   2
BRANCH   1   5
ATOM      5  C   UNL     1      21.327  20.352  22.831  1.00  0.00     0.059 C 
BRANCH   5   6
ATOM      6  C   UNL     1      22.195  21.388  22.188  1.00  0.00     0.042 C 
ATOM      7  O   UNL     1      23.181  21.042  21.485  1.00  0.00    -0.550 OA
ATOM      8  O   UNL     1      21.887  22.735  22.325  1.00  0.00    -0.550 OA
ENDBRANCH   5   6
ENDBRANCH   1   5
TORSDOF 3
ENDMDL
MODEL 3
REMARK VINA RESULT:    -3.401      0.109      4.290
REMARK INTER + INTRA:          -4.033
REMARK INTER:                  -3.999
REMARK INTRA:                  -0.034
REMARK UNBOUND:                -0.035
REMARK SMILES O=C([O-])CCC(=O)[O-]
REMARK SMILES IDX 4 1 2 2 1 3 3 4 5 5 6 6 7 7 8 8
REMARK H PARENT
REMARK Flexibility Score: inf
ROOT
ATOM      1  C   UNL     1      20.703  19.363  21.758  1.00  0.00     0.059 C 
ENDROOT
BRANCH   1   2
ATOM      2  C   UNL     1      19.758  18.404  22.411  1.00  0.00     0.042 C 
ATOM      3  O   UNL     1      19.663  18.363  23.666  1.00  0.00    -0.550 OA
ATOM      4  O   UNL     1      19.019  17.521  21.636  1.00  0.00    -0.550 OA
ENDBRANCH   1   2
BRANCH   1   5
ATOM      5  C   UNL     1      21.347  20.275  22.802  1.00  0.00     0.059 C 
BRANCH   5   6
ATOM      6  C   UNL     1      22.116  21.373  22.137  1.00  0.00     0.042 C 
ATOM      7  O   UNL     1      21.792  22.576  22.322  1.00  0.00    -0.550 OA
ATOM      8  O   UNL     1      23.221  21.071  21.353  1.00  0.00    -0.550 OA
ENDBRANCH   5   6
ENDBRANCH   1   5
TORSDOF 3
ENDMDL
MODEL 4
REMARK VINA RESULT:    -3.011     10.024     11.564
REMARK INTER + INTRA:          -3.575
REMARK INTER:                  -3.545
REMARK INTRA:                  -0.029
REMARK UNBOUND:                -0.035
REMARK SMILES O=C([O-])CCC(=O)[O-]
REMARK SMILES IDX 4 1 2 2 1 3 3 4 5 5 6 6 7 7 8 8
REMARK H PARENT
REMARK Flexibility Score: inf
ROOT
ATOM      1  C   UNL     1      30.787  25.456  22.197  1.00  0.00     0.059 C 
ENDROOT
BRANCH   1   2
ATOM      2  C   UNL     1      32.031  25.768  22.968  1.00  0.00     0.042 C 
ATOM      3  O   UNL     1      32.390  25.026  23.919  1.00  0.00    -0.550 OA
ATOM      4  O   UNL     1      32.766  26.908  22.670  1.00  0.00    -0.550 OA
ENDBRANCH   1   2
BRANCH   1   5
ATOM      5  C   UNL     1      30.024  26.739  21.869  1.00  0.00     0.059 C 
BRANCH   5   6
ATOM      6  C   UNL     1      28.742  26.420  21.166  1.00  0.00     0.042 C 
ATOM      7  O   UNL     1      28.755  26.042  19.965  1.00  0.00    -0.550 OA
ATOM      8  O   UNL     1      27.536  26.494  21.851  1.00  0.00    -0.550 OA
ENDBRANCH   5   6
ENDBRANCH   1   5
TORSDOF 3
ENDMDL
MODEL 5
REMARK VINA RESULT:    -2.992      9.416     11.716
REMARK INTER + INTRA:          -3.551
REMARK INTER:                  -3.525
REMARK INTRA:                  -0.026
REMARK UNBOUND:                -0.035
REMARK SMILES O=C([O-])CCC(=O)[O-]
REMARK SMILES IDX 4 1 2 2 1 3 3 4 5 5 6 6 7 7 8 8
REMARK H PARENT
REMARK Flexibility Score: inf
ROOT
ATOM      1  C   UNL     1      29.815  26.374  22.450  1.00  0.00     0.059 C 
ENDROOT
BRANCH   1   2
ATOM      2  C   UNL     1      28.557  25.969  21.747  1.00  0.00     0.042 C 
ATOM      3  O   UNL     1      28.372  26.291  20.544  1.00  0.00    -0.550 OA
ATOM      4  O   UNL     1      27.567  25.281  22.435  1.00  0.00    -0.550 OA
ENDBRANCH   1   2
BRANCH   1   5
ATOM      5  C   UNL     1      30.922  25.351  22.198  1.00  0.00     0.059 C 
BRANCH   5   6
ATOM      6  C   UNL     1      32.140  25.688  23.000  1.00  0.00     0.042 C 
ATOM      7  O   UNL     1      32.861  26.668  22.675  1.00  0.00    -0.550 OA
ATOM      8  O   UNL     1      32.451  24.952  24.135  1.00  0.00    -0.550 OA
ENDBRANCH   5   6
ENDBRANCH   1   5
TORSDOF 3
ENDMDL
MODEL 6
REMARK VINA RESULT:    -2.950      8.302      9.936
REMARK INTER + INTRA:          -3.502
REMARK INTER:                  -3.467
REMARK INTRA:                  -0.035
REMARK UNBOUND:                -0.035
REMARK SMILES O=C([O-])CCC(=O)[O-]
REMARK SMILES IDX 4 1 2 2 1 3 3 4 5 5 6 6 7 7 8 8
REMARK H PARENT
REMARK Flexibility Score: inf
ROOT
ATOM      1  C   UNL     1      27.520  26.813  22.874  1.00  0.00     0.059 C 
ENDROOT
BRANCH   1   2
ATOM      2  C   UNL     1      26.044  26.769  23.115  1.00  0.00     0.042 C 
ATOM      3  O   UNL     1      25.426  25.673  23.068  1.00  0.00    -0.550 OA
ATOM      4  O   UNL     1      25.341  27.945  23.340  1.00  0.00    -0.550 OA
ENDBRANCH   1   2
BRANCH   1   5
ATOM      5  C   UNL     1      27.971  25.583  22.087  1.00  0.00     0.059 C 
BRANCH   5   6
ATOM      6  C   UNL     1      29.278  25.846  21.406  1.00  0.00     0.042 C 
ATOM      7  O   UNL     1      30.310  25.214  21.751  1.00  0.00    -0.550 OA
ATOM      8  O   UNL     1      29.344  26.752  20.356  1.00  0.00    -0.550 OA
ENDBRANCH   5   6
ENDBRANCH   1   5
TORSDOF 3
ENDMDL
MODEL 7
REMARK VINA RESULT:    -2.940      9.508     11.641
REMARK INTER + INTRA:          -3.490
REMARK INTER:                  -3.335
REMARK INTRA:                  -0.156
REMARK UNBOUND:                -0.035
REMARK SMILES O=C([O-])CCC(=O)[O-]
REMARK SMILES IDX 4 1 2 2 1 3 3 4 5 5 6 6 7 7 8 8
REMARK H PARENT
REMARK Flexibility Score: inf
ROOT
ATOM      1  C   UNL     1      30.134  25.431  21.776  1.00  0.00     0.059 C 
ENDROOT
BRANCH   1   2
ATOM      2  C   UNL     1      28.678  25.705  21.566  1.00  0.00     0.042 C 
ATOM      3  O   UNL     1      27.837  25.367  22.439  1.00  0.00    -0.550 OA
ATOM      4  O   UNL     1      28.245  26.287  20.382  1.00  0.00    -0.550 OA
ENDBRANCH   1   2
BRANCH   1   5
ATOM      5  C   UNL     1      30.694  26.331  22.878  1.00  0.00     0.059 C 
BRANCH   5   6
ATOM      6  C   UNL     1      30.478  27.772  22.538  1.00  0.00     0.042 C 
ATOM      7  O   UNL     1      31.021  28.271  21.518  1.00  0.00    -0.550 OA
ATOM      8  O   UNL     1      29.635  28.551  23.320  1.00  0.00    -0.550 OA
ENDBRANCH   5   6
ENDBRANCH   1   5
TORSDOF 3
ENDMDL
MODEL 8
REMARK VINA RESULT:    -2.934      8.334      9.646
REMARK INTER + INTRA:          -3.484
REMARK INTER:                  -3.437
REMARK INTRA:                  -0.047
REMARK UNBOUND:                -0.035
REMARK SMILES O=C([O-])CCC(=O)[O-]
REMARK SMILES IDX 4 1 2 2 1 3 3 4 5 5 6 6 7 7 8 8
REMARK H PARENT
REMARK Flexibility Score: inf
ROOT
ATOM      1  C   UNL     1      28.057  25.730  22.006  1.00  0.00     0.059 C 
ENDROOT
BRANCH   1   2
ATOM      2  C   UNL     1      28.893  26.323  20.915  1.00  0.00     0.042 C 
ATOM      3  O   UNL     1      28.760  25.927  19.728  1.00  0.00    -0.550 OA
ATOM      4  O   UNL     1      29.855  27.277  21.218  1.00  0.00    -0.550 OA
ENDBRANCH   1   2
BRANCH   1   5
ATOM      5  C   UNL     1      27.560  26.822  22.953  1.00  0.00     0.059 C 
BRANCH   5   6
ATOM      6  C   UNL     1      26.065  26.808  23.030  1.00  0.00     0.042 C 
ATOM      7  O   UNL     1      25.434  25.727  22.901  1.00  0.00    -0.550 OA
ATOM      8  O   UNL     1      25.372  27.982  23.296  1.00  0.00    -0.550 OA
ENDBRANCH   5   6
ENDBRANCH   1   5
TORSDOF 3
ENDMDL
MODEL 9
REMARK VINA RESULT:    -2.820     15.323     16.582
REMARK INTER + INTRA:          -3.350
REMARK INTER:                  -3.186
REMARK INTRA:                  -0.164
REMARK UNBOUND:                -0.035
REMARK SMILES O=C([O-])CCC(=O)[O-]
REMARK SMILES IDX 4 1 2 2 1 3 3 4 5 5 6 6 7 7 8 8
REMARK H PARENT
REMARK Flexibility Score: inf
ROOT
ATOM      1  C   UNL     1      19.997  15.015   7.986  1.00  0.00     0.059 C 
ENDROOT
BRANCH   1   2
ATOM      2  C   UNL     1      19.977  13.658   8.615  1.00  0.00     0.042 C 
ATOM      3  O   UNL     1      18.935  13.239   9.185  1.00  0.00    -0.550 OA
ATOM      4  O   UNL     1      21.124  12.875   8.617  1.00  0.00    -0.550 OA
ENDBRANCH   1   2
BRANCH   1   5
ATOM      5  C   UNL     1      19.136  15.033   6.724  1.00  0.00     0.059 C 
BRANCH   5   6
ATOM      6  C   UNL     1      19.784  14.235   5.636  1.00  0.00     0.042 C 
ATOM      7  O   UNL     1      19.092  13.467   4.916  1.00  0.00    -0.550 OA
ATOM      8  O   UNL     1      21.142  14.377   5.385  1.00  0.00    -0.550 OA
ENDBRANCH   5   6
ENDBRANCH   1   5
TORSDOF 3
ENDMDL
