MODEL 1
REMARK VINA RESULT:    -1.568      0.000      0.000
REMARK INTER + INTRA:          -1.568
REMARK INTER:                  -1.568
REMARK INTRA:                   0.000
REMARK UNBOUND:                 0.000
REMARK SMILES CC(=O)[O-]
REMARK SMILES IDX 1 1 2 2 3 3 4 4
REMARK H PARENT
REMARK Flexibility Score: inf
ROOT
ATOM      1  C   UNL     1      56.606 -36.518  22.681  1.00  0.00     0.063 C 
ATOM      2  C   UNL     1      55.471 -35.677  22.204  1.00  0.00     0.038 C 
ATOM      3  O   UNL     1      54.749 -36.072  21.252  1.00  0.00    -0.550 OA
ATOM      4  O   UNL     1      55.173 -34.482  22.846  1.00  0.00    -0.550 OA
ENDROOT
TORSDOF 0
ENDMDL
MODEL 2
REMARK VINA RESULT:    -1.533      1.713      2.423
REMARK INTER + INTRA:          -1.533
REMARK INTER:                  -1.533
REMARK INTRA:                   0.000
REMARK UNBOUND:                 0.000
REMARK SMILES CC(=O)[O-]
REMARK SMILES IDX 1 1 2 2 3 3 4 4
REMARK H PARENT
REMARK Flexibility Score: inf
ROOT
ATOM      1  C   UNL     1      55.127 -35.988  21.648  1.00  0.00     0.063 C 
ATOM      2  C   UNL     1      56.232 -36.009  22.648  1.00  0.00     0.038 C 
ATOM      3  O   UNL     1      56.394 -35.037  23.431  1.00  0.00    -0.550 OA
ATOM      4  O   UNL     1      57.053 -37.125  22.755  1.00  0.00    -0.550 OA
ENDROOT
TORSDOF 0
ENDMDL
MODEL 3
REMARK VINA RESULT:    -1.494      1.389      1.660
REMARK INTER + INTRA:          -1.494
REMARK INTER:                  -1.494
REMARK INTRA:                   0.000
REMARK UNBOUND:                 0.000
REMARK SMILES CC(=O)[O-]
REMARK SMILES IDX 1 1 2 2 3 3 4 4
REMARK H PARENT
REMARK Flexibility Score: inf
ROOT
ATOM      1  C   UNL     1      54.713 -35.320  23.504  1.00  0.00     0.063 C 
ATOM      2  C   UNL     1      55.424 -35.837  22.300  1.00  0.00     0.038 C 
ATOM      3  O   UNL     1      54.787 -36.063  21.239  1.00  0.00    -0.550 OA
ATOM      4  O   UNL     1      56.801 -36.021  22.331  1.00  0.00    -0.550 OA
ENDROOT
TORSDOF 0
ENDMDL
MODEL 4
REMARK VINA RESULT:    -1.451      1.666      1.727
REMARK INTER + INTRA:          -1.451
REMARK INTER:                  -1.451
REMARK INTRA:                   0.000
REMARK UNBOUND:                 0.000
REMARK SMILES CC(=O)[O-]
REMARK SMILES IDX 1 1 2 2 3 3 4 4
REMARK H PARENT
REMARK Flexibility Score: inf
ROOT
ATOM      1  C   UNL     1      55.149 -35.927  21.674  1.00  0.00     0.063 C 
ATOM      2  C   UNL     1      54.722 -35.205  22.906  1.00  0.00     0.038 C 
ATOM      3  O   UNL     1      53.539 -35.312  23.323  1.00  0.00    -0.550 OA
ATOM      4  O   UNL     1      55.643 -34.457  23.628  1.00  0.00    -0.550 OA
ENDROOT
TORSDOF 0
ENDMDL
MODEL 5
REMARK VINA RESULT:    -1.420      1.462      1.934
REMARK INTER + INTRA:          -1.420
REMARK INTER:                  -1.420
REMARK INTRA:                   0.000
REMARK UNBOUND:                 0.000
REMARK SMILES CC(=O)[O-]
REMARK SMILES IDX 1 1 2 2 3 3 4 4
REMARK H PARENT
REMARK Flexibility Score: inf
ROOT
ATOM      1  C   UNL     1      55.147 -35.604  23.794  1.00  0.00     0.063 C 
ATOM      2  C   UNL     1      55.692 -35.882  22.435  1.00  0.00     0.038 C 
ATOM      3  O   UNL     1      56.933 -36.003  22.265  1.00  0.00    -0.550 OA
ATOM      4  O   UNL     1      54.828 -36.061  21.362  1.00  0.00    -0.550 OA
ENDROOT
TORSDOF 0
ENDMDL
MODEL 6
REMARK VINA RESULT:    -1.355     12.224     12.757
REMARK INTER + INTRA:          -1.355
REMARK INTER:                  -1.355
REMARK INTRA:                   0.000
REMARK UNBOUND:                 0.000
REMARK SMILES CC(=O)[O-]
REMARK SMILES IDX 1 1 2 2 3 3 4 4
REMARK H PARENT
REMARK Flexibility Score: inf
ROOT
ATOM      1  C   UNL     1      53.061 -24.123  22.535  1.00  0.00     0.063 C 
ATOM      2  C   UNL     1      51.715 -23.547  22.254  1.00  0.00     0.038 C 
ATOM      3  O   UNL     1      50.690 -24.054  22.779  1.00  0.00    -0.550 OA
ATOM      4  O   UNL     1      51.594 -22.417  21.455  1.00  0.00    -0.550 OA
ENDROOT
TORSDOF 0
ENDMDL
MODEL 7
REMARK VINA RESULT:    -1.308     12.344     12.784
REMARK INTER + INTRA:          -1.308
REMARK INTER:                  -1.308
REMARK INTRA:                   0.000
REMARK UNBOUND:                 0.000
REMARK SMILES CC(=O)[O-]
REMARK SMILES IDX 1 1 2 2 3 3 4 4
REMARK H PARENT
REMARK Flexibility Score: inf
ROOT
ATOM      1  C   UNL     1      50.868 -24.155  23.155  1.00  0.00     0.063 C 
ATOM      2  C   UNL     1      51.870 -23.530  22.245  1.00  0.00     0.038 C 
ATOM      3  O   UNL     1      51.512 -22.647  21.423  1.00  0.00    -0.550 OA
ATOM      4  O   UNL     1      53.211 -23.881  22.339  1.00  0.00    -0.550 OA
ENDROOT
TORSDOF 0
ENDMDL
MODEL 8
REMARK VINA RESULT:    -1.151      2.185      2.330
REMARK INTER + INTRA:          -1.151
REMARK INTER:                  -1.151
REMARK INTRA:                   0.000
REMARK UNBOUND:                 0.000
REMARK SMILES CC(=O)[O-]
REMARK SMILES IDX 1 1 2 2 3 3 4 4
REMARK H PARENT
REMARK Flexibility Score: inf
ROOT
ATOM      1  C   UNL     1      54.425 -35.469  24.659  1.00  0.00     0.063 C 
ATOM      2  C   UNL     1      53.921 -35.394  23.258  1.00  0.00     0.038 C 
ATOM      3  O   UNL     1      54.689 -35.653  22.296  1.00  0.00    -0.550 OA
ATOM      4  O   UNL     1      52.587 -35.090  23.014  1.00  0.00    -0.550 OA
ENDROOT
TORSDOF 0
ENDMDL
MODEL 9
REMARK VINA RESULT:    -1.130     13.987     14.261
REMARK INTER + INTRA:          -1.130
REMARK INTER:                  -1.130
REMARK INTRA:                   0.000
REMARK UNBOUND:                 0.000
REMARK SMILES CC(=O)[O-]
REMARK SMILES IDX 1 1 2 2 3 3 4 4
REMARK H PARENT
REMARK Flexibility Score: inf
ROOT
ATOM      1  C   UNL     1      51.533 -23.201  22.100  1.00  0.00     0.063 C 
ATOM      2  C   UNL     1      52.161 -21.855  21.974  1.00  0.00     0.038 C 
ATOM      3  O   UNL     1      52.125 -21.243  20.875  1.00  0.00    -0.550 OA
ATOM      4  O   UNL     1      52.740 -21.250  23.082  1.00  0.00    -0.550 OA
ENDROOT
TORSDOF 0
ENDMDL
