MODEL 1
REMARK VINA RESULT:    -5.081      0.000      0.000
REMARK INTER + INTRA:          -5.081
REMARK INTER:                  -5.081
REMARK INTRA:                   0.000
REMARK UNBOUND:                 0.000
REMARK SMILES CC1=CC[C@H]2C[C@@H]1C2(C)C
REMARK SMILES IDX 1 1 2 2 3 3 4 4 5 5 6 6 7 7 8 8 9 9 10 10
REMARK H PARENT
REMARK Flexibility Score: inf
ROOT
ATOM      1  C   UNL     1     109.114 109.796 110.239  1.00  0.00     0.039 C 
ATOM      2  C   UNL     1     109.558 110.667 109.104  1.00  0.00    -0.074 C 
ATOM      3  C   UNL     1     108.834 111.760 108.720  1.00  0.00    -0.027 C 
ATOM      4  C   UNL     1     109.332 112.596 107.525  1.00  0.00     0.031 C 
ATOM      5  C   UNL     1     110.680 112.008 106.980  1.00  0.00    -0.000 C 
ATOM      6  C   UNL     1     111.558 111.755 108.223  1.00  0.00     0.013 C 
ATOM      7  C   UNL     1     110.853 110.388 108.326  1.00  0.00     0.021 C 
ATOM      8  C   UNL     1     110.565 110.468 106.804  1.00  0.00    -0.026 C 
ATOM      9  C   UNL     1     109.229 109.878 106.272  1.00  0.00     0.012 C 
ATOM     10  C   UNL     1     111.725 109.888 105.955  1.00  0.00     0.012 C 
ENDROOT
TORSDOF 0
ENDMDL
MODEL 2
REMARK VINA RESULT:    -5.068      3.719      4.867
REMARK INTER + INTRA:          -5.068
REMARK INTER:                  -5.068
REMARK INTRA:                   0.000
REMARK UNBOUND:                 0.000
REMARK SMILES CC1=CC[C@H]2C[C@@H]1C2(C)C
REMARK SMILES IDX 1 1 2 2 3 3 4 4 5 5 6 6 7 7 8 8 9 9 10 10
REMARK H PARENT
REMARK Flexibility Score: inf
ROOT
ATOM      1  C   UNL     1     109.118 109.801 115.125  1.00  0.00     0.039 C 
ATOM      2  C   UNL     1     109.549 110.666 113.980  1.00  0.00    -0.074 C 
ATOM      3  C   UNL     1     108.829 111.764 113.607  1.00  0.00    -0.027 C 
ATOM      4  C   UNL     1     109.314 112.594 112.401  1.00  0.00     0.031 C 
ATOM      5  C   UNL     1     110.648 111.994 111.836  1.00  0.00    -0.000 C 
ATOM      6  C   UNL     1     111.543 111.736 113.065  1.00  0.00     0.013 C 
ATOM      7  C   UNL     1     110.829 110.375 113.182  1.00  0.00     0.021 C 
ATOM      8  C   UNL     1     110.517 110.454 111.664  1.00  0.00    -0.026 C 
ATOM      9  C   UNL     1     109.168 109.874 111.156  1.00  0.00     0.012 C 
ATOM     10  C   UNL     1     111.657 109.863 110.798  1.00  0.00     0.012 C 
ENDROOT
TORSDOF 0
ENDMDL
MODEL 3
REMARK VINA RESULT:    -5.053      6.241      8.384
REMARK INTER + INTRA:          -5.053
REMARK INTER:                  -5.053
REMARK INTRA:                   0.000
REMARK UNBOUND:                 0.000
REMARK SMILES CC1=CC[C@H]2C[C@@H]1C2(C)C
REMARK SMILES IDX 1 1 2 2 3 3 4 4 5 5 6 6 7 7 8 8 9 9 10 10
REMARK H PARENT
REMARK Flexibility Score: inf
ROOT
ATOM      1  C   UNL     1     112.882 111.995 112.869  1.00  0.00     0.039 C 
ATOM      2  C   UNL     1     112.418 111.945 114.293  1.00  0.00    -0.074 C 
ATOM      3  C   UNL     1     113.266 112.217 115.327  1.00  0.00    -0.027 C 
ATOM      4  C   UNL     1     112.731 112.119 116.770  1.00  0.00     0.031 C 
ATOM      5  C   UNL     1     111.209 111.741 116.755  1.00  0.00    -0.000 C 
ATOM      6  C   UNL     1     110.560 112.664 115.704  1.00  0.00     0.013 C 
ATOM      7  C   UNL     1     110.966 111.604 114.660  1.00  0.00     0.021 C 
ATOM      8  C   UNL     1     110.959 110.545 115.794  1.00  0.00    -0.026 C 
ATOM      9  C   UNL     1     112.008 109.400 115.742  1.00  0.00     0.012 C 
ATOM     10  C   UNL     1     109.559 109.913 116.000  1.00  0.00     0.012 C 
ENDROOT
TORSDOF 0
ENDMDL
MODEL 4
REMARK VINA RESULT:    -5.053      2.660      4.152
REMARK INTER + INTRA:          -5.053
REMARK INTER:                  -5.053
REMARK INTRA:                   0.000
REMARK UNBOUND:                 0.000
REMARK SMILES CC1=CC[C@H]2C[C@@H]1C2(C)C
REMARK SMILES IDX 1 1 2 2 3 3 4 4 5 5 6 6 7 7 8 8 9 9 10 10
REMARK H PARENT
REMARK Flexibility Score: inf
ROOT
ATOM      1  C   UNL     1     108.789 111.744 113.483  1.00  0.00     0.039 C 
ATOM      2  C   UNL     1     109.450 111.424 112.177  1.00  0.00    -0.074 C 
ATOM      3  C   UNL     1     109.215 110.245 111.530  1.00  0.00    -0.027 C 
ATOM      4  C   UNL     1     109.951 109.967 110.205  1.00  0.00     0.031 C 
ATOM      5  C   UNL     1     110.850 111.194 109.820  1.00  0.00    -0.000 C 
ATOM      6  C   UNL     1     109.962 112.439 110.017  1.00  0.00     0.013 C 
ATOM      7  C   UNL     1     110.409 112.409 111.492  1.00  0.00     0.021 C 
ATOM      8  C   UNL     1     111.689 111.654 111.045  1.00  0.00    -0.026 C 
ATOM      9  C   UNL     1     112.277 110.571 111.993  1.00  0.00     0.012 C 
ATOM     10  C   UNL     1     112.832 112.619 110.642  1.00  0.00     0.012 C 
ENDROOT
TORSDOF 0
ENDMDL
MODEL 5
REMARK VINA RESULT:    -5.046      2.173      4.020
REMARK INTER + INTRA:          -5.046
REMARK INTER:                  -5.046
REMARK INTRA:                   0.000
REMARK UNBOUND:                 0.000
REMARK SMILES CC1=CC[C@H]2C[C@@H]1C2(C)C
REMARK SMILES IDX 1 1 2 2 3 3 4 4 5 5 6 6 7 7 8 8 9 9 10 10
REMARK H PARENT
REMARK Flexibility Score: inf
ROOT
ATOM      1  C   UNL     1     109.456 110.245 107.971  1.00  0.00     0.039 C 
ATOM      2  C   UNL     1     109.908 110.294 109.399  1.00  0.00    -0.074 C 
ATOM      3  C   UNL     1     109.062 109.985 110.424  1.00  0.00    -0.027 C 
ATOM      4  C   UNL     1     109.584 110.084 111.872  1.00  0.00     0.031 C 
ATOM      5  C   UNL     1     111.093 110.508 111.872  1.00  0.00    -0.000 C 
ATOM      6  C   UNL     1     111.778 109.618 110.815  1.00  0.00     0.013 C 
ATOM      7  C   UNL     1     111.346 110.676 109.780  1.00  0.00     0.021 C 
ATOM      8  C   UNL     1     111.313 111.722 110.926  1.00  0.00    -0.026 C 
ATOM      9  C   UNL     1     110.228 112.835 110.879  1.00  0.00     0.012 C 
ATOM     10  C   UNL     1     112.690 112.396 111.148  1.00  0.00     0.012 C 
ENDROOT
TORSDOF 0
ENDMDL
MODEL 6
REMARK VINA RESULT:    -5.043      2.616      4.502
REMARK INTER + INTRA:          -5.043
REMARK INTER:                  -5.043
REMARK INTRA:                   0.000
REMARK UNBOUND:                 0.000
REMARK SMILES CC1=CC[C@H]2C[C@@H]1C2(C)C
REMARK SMILES IDX 1 1 2 2 3 3 4 4 5 5 6 6 7 7 8 8 9 9 10 10
REMARK H PARENT
REMARK Flexibility Score: inf
ROOT
ATOM      1  C   UNL     1     112.861 112.059 108.038  1.00  0.00     0.039 C 
ATOM      2  C   UNL     1     112.395 111.973 109.460  1.00  0.00    -0.074 C 
ATOM      3  C   UNL     1     113.233 112.248 110.502  1.00  0.00    -0.027 C 
ATOM      4  C   UNL     1     112.697 112.112 111.940  1.00  0.00     0.031 C 
ATOM      5  C   UNL     1     111.185 111.698 111.914  1.00  0.00    -0.000 C 
ATOM      6  C   UNL     1     110.516 112.622 110.877  1.00  0.00     0.013 C 
ATOM      7  C   UNL     1     110.951 111.591 109.817  1.00  0.00     0.021 C 
ATOM      8  C   UNL     1     110.966 110.513 110.933  1.00  0.00    -0.026 C 
ATOM      9  C   UNL     1     112.043 109.394 110.865  1.00  0.00     0.012 C 
ATOM     10  C   UNL     1     109.582 109.843 111.123  1.00  0.00     0.012 C 
ENDROOT
TORSDOF 0
ENDMDL
MODEL 7
REMARK VINA RESULT:    -5.028      3.119      4.543
REMARK INTER + INTRA:          -5.028
REMARK INTER:                  -5.028
REMARK INTRA:                   0.000
REMARK UNBOUND:                 0.000
REMARK SMILES CC1=CC[C@H]2C[C@@H]1C2(C)C
REMARK SMILES IDX 1 1 2 2 3 3 4 4 5 5 6 6 7 7 8 8 9 9 10 10
REMARK H PARENT
REMARK Flexibility Score: inf
ROOT
ATOM      1  C   UNL     1     113.381 110.558 113.627  1.00  0.00     0.039 C 
ATOM      2  C   UNL     1     112.764 110.850 112.293  1.00  0.00    -0.074 C 
ATOM      3  C   UNL     1     113.027 112.012 111.626  1.00  0.00    -0.027 C 
ATOM      4  C   UNL     1     112.336 112.262 110.271  1.00  0.00     0.031 C 
ATOM      5  C   UNL     1     111.442 111.032 109.888  1.00  0.00    -0.000 C 
ATOM      6  C   UNL     1     112.314 109.786 110.143  1.00  0.00     0.013 C 
ATOM      7  C   UNL     1     111.821 109.855 111.602  1.00  0.00     0.021 C 
ATOM      8  C   UNL     1     110.561 110.607 111.096  1.00  0.00    -0.026 C 
ATOM      9  C   UNL     1     109.951 111.716 111.999  1.00  0.00     0.012 C 
ATOM     10  C   UNL     1     109.425 109.639 110.680  1.00  0.00     0.012 C 
ENDROOT
TORSDOF 0
ENDMDL
MODEL 8
REMARK VINA RESULT:    -5.018      5.814      8.139
REMARK INTER + INTRA:          -5.018
REMARK INTER:                  -5.018
REMARK INTRA:                   0.000
REMARK UNBOUND:                 0.000
REMARK SMILES CC1=CC[C@H]2C[C@@H]1C2(C)C
REMARK SMILES IDX 1 1 2 2 3 3 4 4 5 5 6 6 7 7 8 8 9 9 10 10
REMARK H PARENT
REMARK Flexibility Score: inf
ROOT
ATOM      1  C   UNL     1     109.491 110.249 112.877  1.00  0.00     0.039 C 
ATOM      2  C   UNL     1     109.964 110.297 114.298  1.00  0.00    -0.074 C 
ATOM      3  C   UNL     1     109.116 110.053 115.340  1.00  0.00    -0.027 C 
ATOM      4  C   UNL     1     109.662 110.149 116.778  1.00  0.00     0.031 C 
ATOM      5  C   UNL     1     111.192 110.489 116.752  1.00  0.00    -0.000 C 
ATOM      6  C   UNL     1     111.812 109.544 115.703  1.00  0.00     0.013 C 
ATOM      7  C   UNL     1     111.426 110.605 114.655  1.00  0.00     0.021 C 
ATOM      8  C   UNL     1     111.466 111.672 115.781  1.00  0.00    -0.026 C 
ATOM      9  C   UNL     1     110.444 112.842 115.727  1.00  0.00     0.012 C 
ATOM     10  C   UNL     1     112.882 112.272 115.974  1.00  0.00     0.012 C 
ENDROOT
TORSDOF 0
ENDMDL
MODEL 9
REMARK VINA RESULT:    -4.990      7.083      8.579
REMARK INTER + INTRA:          -4.990
REMARK INTER:                  -4.990
REMARK INTRA:                   0.000
REMARK UNBOUND:                 0.000
REMARK SMILES CC1=CC[C@H]2C[C@@H]1C2(C)C
REMARK SMILES IDX 1 1 2 2 3 3 4 4 5 5 6 6 7 7 8 8 9 9 10 10
REMARK H PARENT
REMARK Flexibility Score: inf
ROOT
ATOM      1  C   UNL     1     112.885 111.773 118.289  1.00  0.00     0.039 C 
ATOM      2  C   UNL     1     112.485 111.397 116.895  1.00  0.00    -0.074 C 
ATOM      3  C   UNL     1     112.991 112.051 115.809  1.00  0.00    -0.027 C 
ATOM      4  C   UNL     1     112.515 111.634 114.403  1.00  0.00     0.031 C 
ATOM      5  C   UNL     1     111.510 110.435 114.510  1.00  0.00    -0.000 C 
ATOM      6  C   UNL     1     112.158 109.431 115.485  1.00  0.00     0.013 C 
ATOM      7  C   UNL     1     111.503 110.250 116.615  1.00  0.00     0.021 C 
ATOM      8  C   UNL     1     110.435 110.726 115.594  1.00  0.00    -0.026 C 
ATOM      9  C   UNL     1     109.882 112.172 115.724  1.00  0.00     0.012 C 
ATOM     10  C   UNL     1     109.233 109.752 115.503  1.00  0.00     0.012 C 
ENDROOT
TORSDOF 0
ENDMDL
