MODEL 1
REMARK VINA RESULT:    -7.146      0.000      0.000
REMARK INTER + INTRA:          -7.146
REMARK INTER:                  -7.146
REMARK INTRA:                   0.000
REMARK UNBOUND:                 0.000
REMARK SMILES Cc1cc2cc3c(C)cc(=O)oc3c(C)c2o1
REMARK SMILES IDX 8 1 7 2 9 3 10 4 11 5 12 6 13 7 6 8 5 9 4 10 3 11 2 12 17 13
REMARK SMILES IDX 16 14 14 15 15 16 1 17
REMARK H PARENT
REMARK Flexibility Score: inf
ROOT
ATOM      1  C   UNL     1     -38.104  41.297  43.624  1.00  0.00     0.045 C 
ATOM      2  C   UNL     1     -37.403  39.991  43.894  1.00  0.00    -0.033 A 
ATOM      3  C   UNL     1     -36.257  39.664  43.157  1.00  0.00     0.098 A 
ATOM      4  C   UNL     1     -35.600  38.458  43.403  1.00  0.00     0.336 A 
ATOM      5  O   UNL     1     -34.569  38.159  42.744  1.00  0.00    -0.246 OA
ATOM      6  O   UNL     1     -36.051  37.618  44.326  1.00  0.00    -0.422 OA
ATOM      7  C   UNL     1     -37.133  37.865  45.061  1.00  0.00     0.145 A 
ATOM      8  C   UNL     1     -37.863  39.082  44.873  1.00  0.00     0.022 A 
ATOM      9  C   UNL     1     -39.007  39.341  45.667  1.00  0.00     0.024 A 
ATOM     10  C   UNL     1     -39.378  38.390  46.610  1.00  0.00     0.022 A 
ATOM     11  C   UNL     1     -40.418  38.384  47.510  1.00  0.00     0.054 A 
ATOM     12  C   UNL     1     -40.274  37.179  48.189  1.00  0.00     0.102 A 
ATOM     13  O   UNL     1     -39.229  36.510  47.741  1.00  0.00    -0.461 OA
ATOM     14  C   UNL     1     -38.680  37.227  46.788  1.00  0.00     0.140 A 
ATOM     15  C   UNL     1     -37.553  36.917  46.024  1.00  0.00     0.036 A 
ATOM     16  C   UNL     1     -36.783  35.647  46.255  1.00  0.00     0.052 C 
ATOM     17  C   UNL     1     -41.158  36.702  49.292  1.00  0.00     0.087 C 
ENDROOT
TORSDOF 0
ENDMDL
MODEL 2
REMARK VINA RESULT:    -7.012      4.718      8.639
REMARK INTER + INTRA:          -7.012
REMARK INTER:                  -7.012
REMARK INTRA:                   0.000
REMARK UNBOUND:                 0.000
REMARK SMILES Cc1cc2cc3c(C)cc(=O)oc3c(C)c2o1
REMARK SMILES IDX 8 1 7 2 9 3 10 4 11 5 12 6 13 7 6 8 5 9 4 10 3 11 2 12 17 13
REMARK SMILES IDX 16 14 14 15 15 16 1 17
REMARK H PARENT
REMARK Flexibility Score: inf
ROOT
ATOM      1  C   UNL     1     -37.307  41.827  43.313  1.00  0.00     0.045 C 
ATOM      2  C   UNL     1     -35.906  41.348  43.032  1.00  0.00    -0.033 A 
ATOM      3  C   UNL     1     -35.421  40.217  43.702  1.00  0.00     0.098 A 
ATOM      4  C   UNL     1     -34.126  39.766  43.446  1.00  0.00     0.336 A 
ATOM      5  O   UNL     1     -33.686  38.750  44.045  1.00  0.00    -0.246 OA
ATOM      6  O   UNL     1     -33.350  40.398  42.574  1.00  0.00    -0.422 OA
ATOM      7  C   UNL     1     -33.746  41.477  41.903  1.00  0.00     0.145 A 
ATOM      8  C   UNL     1     -35.062  42.003  42.107  1.00  0.00     0.022 A 
ATOM      9  C   UNL     1     -35.478  43.146  41.381  1.00  0.00     0.024 A 
ATOM     10  C   UNL     1     -34.580  43.717  40.487  1.00  0.00     0.022 A 
ATOM     11  C   UNL     1     -34.717  44.804  39.656  1.00  0.00     0.054 A 
ATOM     12  C   UNL     1     -33.494  44.886  38.999  1.00  0.00     0.102 A 
ATOM     13  O   UNL     1     -32.682  43.925  39.396  1.00  0.00    -0.461 OA
ATOM     14  C   UNL     1     -33.322  43.214  40.294  1.00  0.00     0.140 A 
ATOM     15  C   UNL     1     -32.858  42.097  40.992  1.00  0.00     0.036 A 
ATOM     16  C   UNL     1     -31.483  41.542  40.745  1.00  0.00     0.052 C 
ATOM     17  C   UNL     1     -33.139  45.903  37.966  1.00  0.00     0.087 C 
ENDROOT
TORSDOF 0
ENDMDL
MODEL 3
REMARK VINA RESULT:    -7.008      5.293      8.514
REMARK INTER + INTRA:          -7.008
REMARK INTER:                  -7.008
REMARK INTRA:                   0.000
REMARK UNBOUND:                 0.000
REMARK SMILES Cc1cc2cc3c(C)cc(=O)oc3c(C)c2o1
REMARK SMILES IDX 8 1 7 2 9 3 10 4 11 5 12 6 13 7 6 8 5 9 4 10 3 11 2 12 17 13
REMARK SMILES IDX 16 14 14 15 15 16 1 17
REMARK H PARENT
REMARK Flexibility Score: inf
ROOT
ATOM      1  C   UNL     1     -31.205  39.564  41.617  1.00  0.00     0.045 C 
ATOM      2  C   UNL     1     -32.427  40.065  42.343  1.00  0.00    -0.033 A 
ATOM      3  C   UNL     1     -32.834  39.425  43.521  1.00  0.00     0.098 A 
ATOM      4  C   UNL     1     -33.964  39.885  44.200  1.00  0.00     0.336 A 
ATOM      5  O   UNL     1     -34.334  39.314  45.259  1.00  0.00    -0.246 OA
ATOM      6  O   UNL     1     -34.654  40.921  43.740  1.00  0.00    -0.422 OA
ATOM      7  C   UNL     1     -34.324  41.573  42.628  1.00  0.00     0.145 A 
ATOM      8  C   UNL     1     -33.177  41.167  41.873  1.00  0.00     0.022 A 
ATOM      9  C   UNL     1     -32.827  41.874  40.697  1.00  0.00     0.024 A 
ATOM     10  C   UNL     1     -33.622  42.950  40.320  1.00  0.00     0.022 A 
ATOM     11  C   UNL     1     -33.513  43.808  39.250  1.00  0.00     0.054 A 
ATOM     12  C   UNL     1     -34.585  44.680  39.403  1.00  0.00     0.102 A 
ATOM     13  O   UNL     1     -35.285  44.379  40.479  1.00  0.00    -0.461 OA
ATOM     14  C   UNL     1     -34.718  43.337  41.041  1.00  0.00     0.140 A 
ATOM     15  C   UNL     1     -35.114  42.667  42.201  1.00  0.00     0.036 A 
ATOM     16  C   UNL     1     -36.304  43.126  42.995  1.00  0.00     0.052 C 
ATOM     17  C   UNL     1     -34.902  45.821  38.495  1.00  0.00     0.087 C 
ENDROOT
TORSDOF 0
ENDMDL
MODEL 4
REMARK VINA RESULT:    -6.897      1.730      3.029
REMARK INTER + INTRA:          -6.897
REMARK INTER:                  -6.897
REMARK INTRA:                   0.000
REMARK UNBOUND:                 0.000
REMARK SMILES Cc1cc2cc3c(C)cc(=O)oc3c(C)c2o1
REMARK SMILES IDX 8 1 7 2 9 3 10 4 11 5 12 6 13 7 6 8 5 9 4 10 3 11 2 12 17 13
REMARK SMILES IDX 16 14 14 15 15 16 1 17
REMARK H PARENT
REMARK Flexibility Score: inf
ROOT
ATOM      1  C   UNL     1     -35.480  34.694  44.434  1.00  0.00     0.045 C 
ATOM      2  C   UNL     1     -35.422  36.187  44.628  1.00  0.00    -0.033 A 
ATOM      3  C   UNL     1     -34.429  36.925  43.971  1.00  0.00     0.098 A 
ATOM      4  C   UNL     1     -34.370  38.308  44.143  1.00  0.00     0.336 A 
ATOM      5  O   UNL     1     -33.479  38.976  43.555  1.00  0.00    -0.246 OA
ATOM      6  O   UNL     1     -35.244  38.930  44.924  1.00  0.00    -0.422 OA
ATOM      7  C   UNL     1     -36.212  38.291  45.578  1.00  0.00     0.145 A 
ATOM      8  C   UNL     1     -36.343  36.871  45.453  1.00  0.00     0.022 A 
ATOM      9  C   UNL     1     -37.382  36.202  46.144  1.00  0.00     0.024 A 
ATOM     10  C   UNL     1     -38.245  36.962  46.925  1.00  0.00     0.022 A 
ATOM     11  C   UNL     1     -39.329  36.585  47.682  1.00  0.00     0.054 A 
ATOM     12  C   UNL     1     -39.796  37.777  48.226  1.00  0.00     0.102 A 
ATOM     13  O   UNL     1     -39.057  38.795  47.827  1.00  0.00    -0.461 OA
ATOM     14  C   UNL     1     -38.117  38.319  47.045  1.00  0.00     0.140 A 
ATOM     15  C   UNL     1     -37.104  39.026  46.394  1.00  0.00     0.036 A 
ATOM     16  C   UNL     1     -36.999  40.520  46.515  1.00  0.00     0.052 C 
ATOM     17  C   UNL     1     -40.982  37.909  49.120  1.00  0.00     0.087 C 
ENDROOT
TORSDOF 0
ENDMDL
MODEL 5
REMARK VINA RESULT:    -6.889      2.531      6.213
REMARK INTER + INTRA:          -6.889
REMARK INTER:                  -6.889
REMARK INTRA:                   0.000
REMARK UNBOUND:                 0.000
REMARK SMILES Cc1cc2cc3c(C)cc(=O)oc3c(C)c2o1
REMARK SMILES IDX 8 1 7 2 9 3 10 4 11 5 12 6 13 7 6 8 5 9 4 10 3 11 2 12 17 13
REMARK SMILES IDX 16 14 14 15 15 16 1 17
REMARK H PARENT
REMARK Flexibility Score: inf
ROOT
ATOM      1  C   UNL     1     -36.754  35.519  45.143  1.00  0.00     0.045 C 
ATOM      2  C   UNL     1     -36.999  36.857  45.791  1.00  0.00    -0.033 A 
ATOM      3  C   UNL     1     -38.062  36.997  46.694  1.00  0.00     0.098 A 
ATOM      4  C   UNL     1     -38.294  38.232  47.299  1.00  0.00     0.336 A 
ATOM      5  O   UNL     1     -39.247  38.363  48.111  1.00  0.00    -0.246 OA
ATOM      6  O   UNL     1     -37.519  39.275  47.027  1.00  0.00    -0.422 OA
ATOM      7  C   UNL     1     -36.494  39.212  46.180  1.00  0.00     0.145 A 
ATOM      8  C   UNL     1     -36.186  37.980  45.519  1.00  0.00     0.022 A 
ATOM      9  C   UNL     1     -35.088  37.921  44.627  1.00  0.00     0.024 A 
ATOM     10  C   UNL     1     -34.341  39.077  44.430  1.00  0.00     0.022 A 
ATOM     11  C   UNL     1     -33.234  39.302  43.645  1.00  0.00     0.054 A 
ATOM     12  C   UNL     1     -32.929  40.641  43.862  1.00  0.00     0.102 A 
ATOM     13  O   UNL     1     -33.779  41.184  44.712  1.00  0.00    -0.461 OA
ATOM     14  C   UNL     1     -34.637  40.254  45.061  1.00  0.00     0.140 A 
ATOM     15  C   UNL     1     -35.716  40.370  45.941  1.00  0.00     0.036 A 
ATOM     16  C   UNL     1     -36.006  41.664  46.648  1.00  0.00     0.052 C 
ATOM     17  C   UNL     1     -31.787  41.374  43.243  1.00  0.00     0.087 C 
ENDROOT
TORSDOF 0
ENDMDL
MODEL 6
REMARK VINA RESULT:    -6.832      2.272      5.245
REMARK INTER + INTRA:          -6.832
REMARK INTER:                  -6.832
REMARK INTRA:                   0.000
REMARK UNBOUND:                 0.000
REMARK SMILES Cc1cc2cc3c(C)cc(=O)oc3c(C)c2o1
REMARK SMILES IDX 8 1 7 2 9 3 10 4 11 5 12 6 13 7 6 8 5 9 4 10 3 11 2 12 17 13
REMARK SMILES IDX 16 14 14 15 15 16 1 17
REMARK H PARENT
REMARK Flexibility Score: inf
ROOT
ATOM      1  C   UNL     1     -36.859  40.029  45.667  1.00  0.00     0.045 C 
ATOM      2  C   UNL     1     -37.496  38.748  46.139  1.00  0.00    -0.033 A 
ATOM      3  C   UNL     1     -38.722  38.801  46.815  1.00  0.00     0.098 A 
ATOM      4  C   UNL     1     -39.319  37.618  47.254  1.00  0.00     0.336 A 
ATOM      5  O   UNL     1     -40.421  37.660  47.862  1.00  0.00    -0.246 OA
ATOM      6  O   UNL     1     -38.736  36.446  47.037  1.00  0.00    -0.422 OA
ATOM      7  C   UNL     1     -37.573  36.323  46.402  1.00  0.00     0.145 A 
ATOM      8  C   UNL     1     -36.896  37.488  45.918  1.00  0.00     0.022 A 
ATOM      9  C   UNL     1     -35.663  37.347  45.235  1.00  0.00     0.024 A 
ATOM     10  C   UNL     1     -35.156  36.065  45.059  1.00  0.00     0.022 A 
ATOM     11  C   UNL     1     -34.007  35.638  44.434  1.00  0.00     0.054 A 
ATOM     12  C   UNL     1     -34.040  34.254  44.569  1.00  0.00     0.102 A 
ATOM     13  O   UNL     1     -35.122  33.872  45.220  1.00  0.00    -0.461 OA
ATOM     14  C   UNL     1     -35.803  34.952  45.523  1.00  0.00     0.140 A 
ATOM     15  C   UNL     1     -37.014  35.037  46.213  1.00  0.00     0.036 A 
ATOM     16  C   UNL     1     -37.725  33.801  46.689  1.00  0.00     0.052 C 
ATOM     17  C   UNL     1     -33.012  33.313  44.037  1.00  0.00     0.087 C 
ENDROOT
TORSDOF 0
ENDMDL
MODEL 7
REMARK VINA RESULT:    -6.819      3.937      5.716
REMARK INTER + INTRA:          -6.819
REMARK INTER:                  -6.819
REMARK INTRA:                   0.000
REMARK UNBOUND:                 0.000
REMARK SMILES Cc1cc2cc3c(C)cc(=O)oc3c(C)c2o1
REMARK SMILES IDX 8 1 7 2 9 3 10 4 11 5 12 6 13 7 6 8 5 9 4 10 3 11 2 12 17 13
REMARK SMILES IDX 16 14 14 15 15 16 1 17
REMARK H PARENT
REMARK Flexibility Score: inf
ROOT
ATOM      1  C   UNL     1     -34.000  39.009  39.501  1.00  0.00     0.045 C 
ATOM      2  C   UNL     1     -34.115  40.210  40.404  1.00  0.00    -0.033 A 
ATOM      3  C   UNL     1     -34.050  41.494  39.847  1.00  0.00     0.098 A 
ATOM      4  C   UNL     1     -34.158  42.612  40.677  1.00  0.00     0.336 A 
ATOM      5  O   UNL     1     -34.101  43.768  40.181  1.00  0.00    -0.246 OA
ATOM      6  O   UNL     1     -34.321  42.468  41.986  1.00  0.00    -0.422 OA
ATOM      7  C   UNL     1     -34.391  41.279  42.580  1.00  0.00     0.145 A 
ATOM      8  C   UNL     1     -34.291  40.083  41.800  1.00  0.00     0.022 A 
ATOM      9  C   UNL     1     -34.376  38.822  42.440  1.00  0.00     0.024 A 
ATOM     10  C   UNL     1     -34.557  38.799  43.818  1.00  0.00     0.022 A 
ATOM     11  C   UNL     1     -34.684  37.737  44.684  1.00  0.00     0.054 A 
ATOM     12  C   UNL     1     -34.850  38.331  45.930  1.00  0.00     0.102 A 
ATOM     13  O   UNL     1     -34.829  39.647  45.829  1.00  0.00    -0.461 OA
ATOM     14  C   UNL     1     -34.651  39.943  44.563  1.00  0.00     0.140 A 
ATOM     15  C   UNL     1     -34.562  41.210  43.983  1.00  0.00     0.036 A 
ATOM     16  C   UNL     1     -34.697  42.455  44.814  1.00  0.00     0.052 C 
ATOM     17  C   UNL     1     -35.048  37.598  47.214  1.00  0.00     0.087 C 
ENDROOT
TORSDOF 0
ENDMDL
MODEL 8
REMARK VINA RESULT:    -6.809      3.883      6.030
REMARK INTER + INTRA:          -6.809
REMARK INTER:                  -6.809
REMARK INTRA:                   0.000
REMARK UNBOUND:                 0.000
REMARK SMILES Cc1cc2cc3c(C)cc(=O)oc3c(C)c2o1
REMARK SMILES IDX 8 1 7 2 9 3 10 4 11 5 12 6 13 7 6 8 5 9 4 10 3 11 2 12 17 13
REMARK SMILES IDX 16 14 14 15 15 16 1 17
REMARK H PARENT
REMARK Flexibility Score: inf
ROOT
ATOM      1  C   UNL     1     -31.413  41.372  42.195  1.00  0.00     0.045 C 
ATOM      2  C   UNL     1     -32.748  41.403  41.497  1.00  0.00    -0.033 A 
ATOM      3  C   UNL     1     -32.998  42.395  40.540  1.00  0.00     0.098 A 
ATOM      4  C   UNL     1     -34.231  42.429  39.886  1.00  0.00     0.336 A 
ATOM      5  O   UNL     1     -34.461  43.318  39.026  1.00  0.00    -0.246 OA
ATOM      6  O   UNL     1     -35.167  41.530  40.164  1.00  0.00    -0.422 OA
ATOM      7  C   UNL     1     -34.997  40.561  41.061  1.00  0.00     0.145 A 
ATOM      8  C   UNL     1     -33.759  40.455  41.773  1.00  0.00     0.022 A 
ATOM      9  C   UNL     1     -33.584  39.415  42.718  1.00  0.00     0.024 A 
ATOM     10  C   UNL     1     -34.634  38.527  42.916  1.00  0.00     0.022 A 
ATOM     11  C   UNL     1     -34.735  37.435  43.747  1.00  0.00     0.054 A 
ATOM     12  C   UNL     1     -36.011  36.939  43.504  1.00  0.00     0.102 A 
ATOM     13  O   UNL     1     -36.633  37.668  42.597  1.00  0.00    -0.461 OA
ATOM     14  C   UNL     1     -35.816  38.629  42.236  1.00  0.00     0.140 A 
ATOM     15  C   UNL     1     -36.046  39.643  41.302  1.00  0.00     0.036 A 
ATOM     16  C   UNL     1     -37.341  39.721  40.543  1.00  0.00     0.052 C 
ATOM     17  C   UNL     1     -36.604  35.734  44.154  1.00  0.00     0.087 C 
ENDROOT
TORSDOF 0
ENDMDL
MODEL 9
REMARK VINA RESULT:    -6.756      3.831      7.781
REMARK INTER + INTRA:          -6.756
REMARK INTER:                  -6.756
REMARK INTRA:                   0.000
REMARK UNBOUND:                 0.000
REMARK SMILES Cc1cc2cc3c(C)cc(=O)oc3c(C)c2o1
REMARK SMILES IDX 8 1 7 2 9 3 10 4 11 5 12 6 13 7 6 8 5 9 4 10 3 11 2 12 17 13
REMARK SMILES IDX 16 14 14 15 15 16 1 17
REMARK H PARENT
REMARK Flexibility Score: inf
ROOT
ATOM      1  C   UNL     1     -34.746  39.373  45.946  1.00  0.00     0.045 C 
ATOM      2  C   UNL     1     -34.982  39.033  44.497  1.00  0.00    -0.033 A 
ATOM      3  C   UNL     1     -36.092  38.253  44.148  1.00  0.00     0.098 A 
ATOM      4  C   UNL     1     -36.318  37.936  42.808  1.00  0.00     0.336 A 
ATOM      5  O   UNL     1     -37.314  37.235  42.489  1.00  0.00    -0.246 OA
ATOM      6  O   UNL     1     -35.492  38.366  41.863  1.00  0.00    -0.422 OA
ATOM      7  C   UNL     1     -34.420  39.110  42.124  1.00  0.00     0.145 A 
ATOM      8  C   UNL     1     -34.117  39.482  43.473  1.00  0.00     0.022 A 
ATOM      9  C   UNL     1     -32.980  40.282  43.740  1.00  0.00     0.024 A 
ATOM     10  C   UNL     1     -32.194  40.681  42.665  1.00  0.00     0.022 A 
ATOM     11  C   UNL     1     -31.059  41.457  42.629  1.00  0.00     0.054 A 
ATOM     12  C   UNL     1     -30.729  41.517  41.280  1.00  0.00     0.102 A 
ATOM     13  O   UNL     1     -31.596  40.836  40.555  1.00  0.00    -0.461 OA
ATOM     14  C   UNL     1     -32.483  40.325  41.376  1.00  0.00     0.140 A 
ATOM     15  C   UNL     1     -33.585  39.527  41.060  1.00  0.00     0.036 A 
ATOM     16  C   UNL     1     -33.902  39.171  39.634  1.00  0.00     0.052 C 
ATOM     17  C   UNL     1     -29.571  42.263  40.709  1.00  0.00     0.087 C 
ENDROOT
TORSDOF 0
ENDMDL
