MODEL 1
REMARK VINA RESULT:    -3.539      0.000      0.000
REMARK INTER + INTRA:          -4.564
REMARK INTER:                  -4.366
REMARK INTRA:                  -0.198
REMARK UNBOUND:                -0.198
REMARK SMILES CCCCC=CC(C)=O
REMARK SMILES IDX 4 1 3 2 2 3 1 4 5 5 6 6 7 7 9 8 8 9
REMARK H PARENT
REMARK Flexibility Score: inf
ROOT
ATOM      1  C   UNL     1       2.396   1.436  54.069  1.00  0.00     0.027 C 
ENDROOT
BRANCH   1   2
ATOM      2  C   UNL     1       3.154   0.209  53.548  1.00  0.00     0.004 C 
BRANCH   2   3
ATOM      3  C   UNL     1       2.254  -1.031  53.450  1.00  0.00    -0.003 C 
ATOM      4  C   UNL     1       2.972  -2.275  53.964  1.00  0.00     0.004 C 
ENDBRANCH   2   3
ENDBRANCH   1   2
BRANCH   1   5
ATOM      5  C   UNL     1       1.543   1.093  55.259  1.00  0.00    -0.023 C 
ATOM      6  C   UNL     1       1.217   2.011  56.176  1.00  0.00     0.042 C 
BRANCH   6   7
ATOM      7  C   UNL     1       0.351   1.701  57.328  1.00  0.00     0.152 C 
ATOM      8  O   UNL     1       0.808   1.721  58.504  1.00  0.00    -0.295 OA
ATOM      9  C   UNL     1      -1.086   1.356  57.103  1.00  0.00     0.093 C 
ENDBRANCH   6   7
ENDBRANCH   1   5
TORSDOF 4
ENDMDL
MODEL 2
REMARK VINA RESULT:    -3.514      2.348      5.296
REMARK INTER + INTRA:          -4.533
REMARK INTER:                  -4.427
REMARK INTRA:                  -0.106
REMARK UNBOUND:                -0.198
REMARK SMILES CCCCC=CC(C)=O
REMARK SMILES IDX 4 1 3 2 2 3 1 4 5 5 6 6 7 7 9 8 8 9
REMARK H PARENT
REMARK Flexibility Score: inf
ROOT
ATOM      1  C   UNL     1       0.280   1.639  57.520  1.00  0.00     0.027 C 
ENDROOT
BRANCH   1   2
ATOM      2  C   UNL     1       1.168   1.403  58.747  1.00  0.00     0.004 C 
BRANCH   2   3
ATOM      3  C   UNL     1       1.133   2.586  59.725  1.00  0.00    -0.003 C 
ATOM      4  C   UNL     1       0.453   2.199  61.035  1.00  0.00     0.004 C 
ENDBRANCH   2   3
ENDBRANCH   1   2
BRANCH   1   5
ATOM      5  C   UNL     1       1.099   1.913  56.289  1.00  0.00    -0.023 C 
ATOM      6  C   UNL     1       1.519   0.925  55.492  1.00  0.00     0.042 C 
BRANCH   6   7
ATOM      7  C   UNL     1       2.292   1.179  54.262  1.00  0.00     0.152 C 
ATOM      8  O   UNL     1       2.297   2.322  53.727  1.00  0.00    -0.295 OA
ATOM      9  C   UNL     1       3.078   0.071  53.639  1.00  0.00     0.093 C 
ENDBRANCH   6   7
ENDBRANCH   1   5
TORSDOF 4
ENDMDL
MODEL 3
REMARK VINA RESULT:    -3.451      8.305     10.090
REMARK INTER + INTRA:          -4.456
REMARK INTER:                  -4.207
REMARK INTRA:                  -0.249
REMARK UNBOUND:                -0.198
REMARK SMILES CCCCC=CC(C)=O
REMARK SMILES IDX 4 1 3 2 2 3 1 4 5 5 6 6 7 7 9 8 8 9
REMARK H PARENT
REMARK Flexibility Score: inf
ROOT
ATOM      1  C   UNL     1      -7.376   3.344  51.800  1.00  0.00     0.027 C 
ENDROOT
BRANCH   1   2
ATOM      2  C   UNL     1      -7.366   4.648  50.992  1.00  0.00     0.004 C 
BRANCH   2   3
ATOM      3  C   UNL     1      -8.215   5.745  51.651  1.00  0.00    -0.003 C 
ATOM      4  C   UNL     1      -9.620   5.784  51.059  1.00  0.00     0.004 C 
ENDBRANCH   2   3
ENDBRANCH   1   2
BRANCH   1   5
ATOM      5  C   UNL     1      -7.209   3.605  53.271  1.00  0.00    -0.023 C 
ATOM      6  C   UNL     1      -5.999   3.717  53.830  1.00  0.00     0.042 C 
BRANCH   6   7
ATOM      7  C   UNL     1      -5.818   4.008  55.264  1.00  0.00     0.152 C 
ATOM      8  O   UNL     1      -5.189   3.210  56.011  1.00  0.00    -0.295 OA
ATOM      9  C   UNL     1      -6.387   5.264  55.842  1.00  0.00     0.093 C 
ENDBRANCH   6   7
ENDBRANCH   1   5
TORSDOF 4
ENDMDL
MODEL 4
REMARK VINA RESULT:    -3.418      3.010      5.118
REMARK INTER + INTRA:          -4.415
REMARK INTER:                  -4.150
REMARK INTRA:                  -0.265
REMARK UNBOUND:                -0.198
REMARK SMILES CCCCC=CC(C)=O
REMARK SMILES IDX 4 1 3 2 2 3 1 4 5 5 6 6 7 7 9 8 8 9
REMARK H PARENT
REMARK Flexibility Score: inf
ROOT
ATOM      1  C   UNL     1       2.143  -0.945  53.318  1.00  0.00     0.027 C 
ENDROOT
BRANCH   1   2
ATOM      2  C   UNL     1       3.113   0.233  53.469  1.00  0.00     0.004 C 
BRANCH   2   3
ATOM      3  C   UNL     1       2.400   1.518  53.915  1.00  0.00    -0.003 C 
ATOM      4  C   UNL     1       1.811   1.364  55.313  1.00  0.00     0.004 C 
ENDBRANCH   2   3
ENDBRANCH   1   2
BRANCH   1   5
ATOM      5  C   UNL     1       2.721  -2.212  53.886  1.00  0.00    -0.023 C 
ATOM      6  C   UNL     1       3.652  -2.190  54.845  1.00  0.00     0.042 C 
BRANCH   6   7
ATOM      7  C   UNL     1       4.202  -3.422  55.439  1.00  0.00     0.152 C 
ATOM      8  O   UNL     1       3.939  -4.552  54.942  1.00  0.00    -0.295 OA
ATOM      9  C   UNL     1       5.081  -3.335  56.645  1.00  0.00     0.093 C 
ENDBRANCH   6   7
ENDBRANCH   1   5
TORSDOF 4
ENDMDL
MODEL 5
REMARK VINA RESULT:    -3.398      2.941      4.832
REMARK INTER + INTRA:          -4.390
REMARK INTER:                  -4.181
REMARK INTRA:                  -0.209
REMARK UNBOUND:                -0.198
REMARK SMILES CCCCC=CC(C)=O
REMARK SMILES IDX 4 1 3 2 2 3 1 4 5 5 6 6 7 7 9 8 8 9
REMARK H PARENT
REMARK Flexibility Score: inf
ROOT
ATOM      1  C   UNL     1       2.998   0.041  53.607  1.00  0.00     0.027 C 
ENDROOT
BRANCH   1   2
ATOM      2  C   UNL     1       2.479   1.223  54.436  1.00  0.00     0.004 C 
BRANCH   2   3
ATOM      3  C   UNL     1       1.966   0.784  55.815  1.00  0.00    -0.003 C 
ATOM      4  C   UNL     1       0.959   1.784  56.372  1.00  0.00     0.004 C 
ENDBRANCH   2   3
ENDBRANCH   1   2
BRANCH   1   5
ATOM      5  C   UNL     1       1.897  -0.926  53.274  1.00  0.00    -0.023 C 
ATOM      6  C   UNL     1       1.960  -2.212  53.634  1.00  0.00     0.042 C 
BRANCH   6   7
ATOM      7  C   UNL     1       0.872  -3.165  53.347  1.00  0.00     0.152 C 
ATOM      8  O   UNL     1       0.941  -4.362  53.741  1.00  0.00    -0.295 OA
ATOM      9  C   UNL     1      -0.327  -2.711  52.580  1.00  0.00     0.093 C 
ENDBRANCH   6   7
ENDBRANCH   1   5
TORSDOF 4
ENDMDL
MODEL 6
REMARK VINA RESULT:    -3.348      8.884     10.139
REMARK INTER + INTRA:          -4.329
REMARK INTER:                  -4.071
REMARK INTRA:                  -0.258
REMARK UNBOUND:                -0.198
REMARK SMILES CCCCC=CC(C)=O
REMARK SMILES IDX 4 1 3 2 2 3 1 4 5 5 6 6 7 7 9 8 8 9
REMARK H PARENT
REMARK Flexibility Score: inf
ROOT
ATOM      1  C   UNL     1      -6.758   3.542  52.585  1.00  0.00     0.027 C 
ENDROOT
BRANCH   1   2
ATOM      2  C   UNL     1      -7.337   4.145  51.300  1.00  0.00     0.004 C 
BRANCH   2   3
ATOM      3  C   UNL     1      -7.871   5.569  51.515  1.00  0.00    -0.003 C 
ATOM      4  C   UNL     1      -9.324   5.686  51.067  1.00  0.00     0.004 C 
ENDBRANCH   2   3
ENDBRANCH   1   2
BRANCH   1   5
ATOM      5  C   UNL     1      -6.978   4.446  53.767  1.00  0.00    -0.023 C 
ATOM      6  C   UNL     1      -6.243   4.337  54.879  1.00  0.00     0.042 C 
BRANCH   6   7
ATOM      7  C   UNL     1      -6.420   5.238  56.032  1.00  0.00     0.152 C 
ATOM      8  O   UNL     1      -5.744   5.080  57.086  1.00  0.00    -0.295 OA
ATOM      9  C   UNL     1      -7.414   6.352  55.955  1.00  0.00     0.093 C 
ENDBRANCH   6   7
ENDBRANCH   1   5
TORSDOF 4
ENDMDL
MODEL 7
REMARK VINA RESULT:    -3.345      9.556     11.103
REMARK INTER + INTRA:          -4.325
REMARK INTER:                  -4.060
REMARK INTRA:                  -0.265
REMARK UNBOUND:                -0.198
REMARK SMILES CCCCC=CC(C)=O
REMARK SMILES IDX 4 1 3 2 2 3 1 4 5 5 6 6 7 7 9 8 8 9
REMARK H PARENT
REMARK Flexibility Score: inf
ROOT
ATOM      1  C   UNL     1      -7.257   4.089  55.056  1.00  0.00     0.027 C 
ENDROOT
BRANCH   1   2
ATOM      2  C   UNL     1      -5.998   4.712  55.673  1.00  0.00     0.004 C 
BRANCH   2   3
ATOM      3  C   UNL     1      -6.333   5.708  56.792  1.00  0.00    -0.003 C 
ATOM      4  C   UNL     1      -7.575   6.525  56.451  1.00  0.00     0.004 C 
ENDBRANCH   2   3
ENDBRANCH   1   2
BRANCH   1   5
ATOM      5  C   UNL     1      -7.279   4.252  53.562  1.00  0.00    -0.023 C 
ATOM      6  C   UNL     1      -8.057   5.162  52.967  1.00  0.00     0.042 C 
BRANCH   6   7
ATOM      7  C   UNL     1      -8.064   5.361  51.506  1.00  0.00     0.152 C 
ATOM      8  O   UNL     1      -9.058   5.881  50.929  1.00  0.00    -0.295 OA
ATOM      9  C   UNL     1      -6.879   4.940  50.697  1.00  0.00     0.093 C 
ENDBRANCH   6   7
ENDBRANCH   1   5
TORSDOF 4
ENDMDL
MODEL 8
REMARK VINA RESULT:    -3.292      1.673      2.459
REMARK INTER + INTRA:          -4.260
REMARK INTER:                  -4.160
REMARK INTRA:                  -0.100
REMARK UNBOUND:                -0.198
REMARK SMILES CCCCC=CC(C)=O
REMARK SMILES IDX 4 1 3 2 2 3 1 4 5 5 6 6 7 7 9 8 8 9
REMARK H PARENT
REMARK Flexibility Score: inf
ROOT
ATOM      1  C   UNL     1       1.259   1.956  55.893  1.00  0.00     0.027 C 
ENDROOT
BRANCH   1   2
ATOM      2  C   UNL     1       2.242   0.858  55.466  1.00  0.00     0.004 C 
BRANCH   2   3
ATOM      3  C   UNL     1       2.538   0.897  53.960  1.00  0.00    -0.003 C 
ATOM      4  C   UNL     1       2.294  -0.463  53.315  1.00  0.00     0.004 C 
ENDBRANCH   2   3
ENDBRANCH   1   2
BRANCH   1   5
ATOM      5  C   UNL     1       0.482   1.557  57.116  1.00  0.00    -0.023 C 
ATOM      6  C   UNL     1       0.813   2.003  58.333  1.00  0.00     0.042 C 
BRANCH   6   7
ATOM      7  C   UNL     1       0.040   1.651  59.538  1.00  0.00     0.152 C 
ATOM      8  O   UNL     1      -0.923   0.837  59.474  1.00  0.00    -0.295 OA
ATOM      9  C   UNL     1       0.397   2.267  60.853  1.00  0.00     0.093 C 
ENDBRANCH   6   7
ENDBRANCH   1   5
TORSDOF 4
ENDMDL
MODEL 9
REMARK VINA RESULT:    -3.229      9.319     11.155
REMARK INTER + INTRA:          -4.181
REMARK INTER:                  -3.951
REMARK INTRA:                  -0.230
REMARK UNBOUND:                -0.198
REMARK SMILES CCCCC=CC(C)=O
REMARK SMILES IDX 4 1 3 2 2 3 1 4 5 5 6 6 7 7 9 8 8 9
REMARK H PARENT
REMARK Flexibility Score: inf
ROOT
ATOM      1  C   UNL     1      -6.098   3.638  52.928  1.00  0.00     0.027 C 
ENDROOT
BRANCH   1   2
ATOM      2  C   UNL     1      -5.889   3.917  54.422  1.00  0.00     0.004 C 
BRANCH   2   3
ATOM      3  C   UNL     1      -6.910   4.922  54.973  1.00  0.00    -0.003 C 
ATOM      4  C   UNL     1      -6.401   5.580  56.251  1.00  0.00     0.004 C 
ENDBRANCH   2   3
ENDBRANCH   1   2
BRANCH   1   5
ATOM      5  C   UNL     1      -7.322   4.334  52.402  1.00  0.00    -0.023 C 
ATOM      6  C   UNL     1      -8.168   3.727  51.564  1.00  0.00     0.042 C 
BRANCH   6   7
ATOM      7  C   UNL     1      -9.393   4.382  51.068  1.00  0.00     0.152 C 
ATOM      8  O   UNL     1     -10.307   3.710  50.516  1.00  0.00    -0.295 OA
ATOM      9  C   UNL     1      -9.554   5.861  51.218  1.00  0.00     0.093 C 
ENDBRANCH   6   7
ENDBRANCH   1   5
TORSDOF 4
ENDMDL
