MODEL 1
REMARK VINA RESULT:    16.959      0.000      0.000
REMARK INTER + INTRA:          30.926
REMARK INTER:                  31.830
REMARK INTRA:                  -0.905
REMARK UNBOUND:                -0.905
REMARK SMILES O=C([O-])CCCCCCCCCCCCCCC(=O)[O-]
REMARK SMILES IDX 10 1 9 2 8 3 7 4 6 5 5 6 4 7 2 8 1 9 3 10 11 11 12 12 13 13
REMARK SMILES IDX 14 14 15 15 16 16 17 17 18 18 19 19 20 20
REMARK H PARENT
REMARK Flexibility Score: inf
ROOT
ATOM      1  C   UNL     1     -15.440 -12.228 -22.644  1.00  0.00     0.000 C 
ENDROOT
BRANCH   1   2
ATOM      2  C   UNL     1     -16.418 -13.401 -22.497  1.00  0.00     0.000 C 
BRANCH   2   3
ATOM      3  C   UNL     1     -17.143 -13.681 -23.822  1.00  0.00     0.000 C 
BRANCH   3   4
ATOM      4  C   UNL     1     -18.358 -12.762 -24.048  1.00  0.00     0.000 C 
BRANCH   4   5
ATOM      5  C   UNL     1     -19.458 -13.348 -24.952  1.00  0.00     0.000 C 
BRANCH   5   6
ATOM      6  C   UNL     1     -20.878 -13.033 -24.450  1.00  0.00     0.006 C 
BRANCH   6   7
ATOM      7  C   UNL     1     -21.727 -14.300 -24.283  1.00  0.00     0.053 C 
BRANCH   7   8
ATOM      8  C   UNL     1     -22.196 -14.472 -22.871  1.00  0.00     0.041 C 
ATOM      9  O   UNL     1     -22.935 -15.445 -22.562  1.00  0.00    -0.550 OA
ATOM     10  O   UNL     1     -21.840 -13.544 -21.901  1.00  0.00    -0.550 OA
ENDBRANCH   7   8
ENDBRANCH   6   7
ENDBRANCH   5   6
ENDBRANCH   4   5
ENDBRANCH   3   4
ENDBRANCH   2   3
ENDBRANCH   1   2
BRANCH   1  11
ATOM     11  C   UNL     1     -14.495 -12.443 -23.831  1.00  0.00     0.000 C 
BRANCH  11  12
ATOM     12  C   UNL     1     -13.934 -11.109 -24.338  1.00  0.00     0.000 C 
BRANCH  12  13
ATOM     13  C   UNL     1     -13.960 -10.046 -23.231  1.00  0.00     0.000 C 
BRANCH  13  14
ATOM     14  C   UNL     1     -14.596  -8.725 -23.692  1.00  0.00     0.000 C 
BRANCH  14  15
ATOM     15  C   UNL     1     -14.839  -7.747 -22.534  1.00  0.00     0.000 C 
BRANCH  15  16
ATOM     16  C   UNL     1     -13.511  -7.287 -21.916  1.00  0.00     0.006 C 
BRANCH  16  17
ATOM     17  C   UNL     1     -13.581  -7.201 -20.385  1.00  0.00     0.053 C 
BRANCH  17  18
ATOM     18  C   UNL     1     -12.717  -8.235 -19.730  1.00  0.00     0.041 C 
ATOM     19  O   UNL     1     -11.958  -8.958 -20.426  1.00  0.00    -0.550 OA
ATOM     20  O   UNL     1     -12.776  -8.422 -18.354  1.00  0.00    -0.550 OA
ENDBRANCH  17  18
ENDBRANCH  16  17
ENDBRANCH  15  16
ENDBRANCH  14  15
ENDBRANCH  13  14
ENDBRANCH  12  13
ENDBRANCH  11  12
ENDBRANCH   1  11
TORSDOF 15
ENDMDL
MODEL 2
REMARK VINA RESULT:    17.384      0.938      9.030
REMARK INTER + INTRA:          31.723
REMARK INTER:                  32.418
REMARK INTRA:                  -0.694
REMARK UNBOUND:                -0.905
REMARK SMILES O=C([O-])CCCCCCCCCCCCCCC(=O)[O-]
REMARK SMILES IDX 10 1 9 2 8 3 7 4 6 5 5 6 4 7 2 8 1 9 3 10 11 11 12 12 13 13
REMARK SMILES IDX 14 14 15 15 16 16 17 17 18 18 19 19 20 20
REMARK H PARENT
REMARK Flexibility Score: inf
ROOT
ATOM      1  C   UNL     1     -14.666 -11.322 -22.733  1.00  0.00     0.000 C 
ENDROOT
BRANCH   1   2
ATOM      2  C   UNL     1     -13.890 -10.346 -23.626  1.00  0.00     0.000 C 
BRANCH   2   3
ATOM      3  C   UNL     1     -14.506  -8.940 -23.570  1.00  0.00     0.000 C 
BRANCH   3   4
ATOM      4  C   UNL     1     -13.820  -8.024 -22.539  1.00  0.00     0.000 C 
BRANCH   4   5
ATOM      5  C   UNL     1     -12.390  -8.442 -22.146  1.00  0.00     0.000 C 
BRANCH   5   6
ATOM      6  C   UNL     1     -12.316  -9.089 -20.752  1.00  0.00     0.006 C 
BRANCH   6   7
ATOM      7  C   UNL     1     -12.295  -8.043 -19.630  1.00  0.00     0.053 C 
BRANCH   7   8
ATOM      8  C   UNL     1     -12.911  -8.567 -18.369  1.00  0.00     0.041 C 
ATOM      9  O   UNL     1     -13.575  -7.802 -17.622  1.00  0.00    -0.550 OA
ATOM     10  O   UNL     1     -12.728  -9.895 -18.005  1.00  0.00    -0.550 OA
ENDBRANCH   7   8
ENDBRANCH   6   7
ENDBRANCH   5   6
ENDBRANCH   4   5
ENDBRANCH   3   4
ENDBRANCH   2   3
ENDBRANCH   1   2
BRANCH   1  11
ATOM     11  C   UNL     1     -14.965 -12.629 -23.475  1.00  0.00     0.000 C 
BRANCH  11  12
ATOM     12  C   UNL     1     -16.198 -13.327 -22.887  1.00  0.00     0.000 C 
BRANCH  12  13
ATOM     13  C   UNL     1     -17.206 -13.684 -23.990  1.00  0.00     0.000 C 
BRANCH  13  14
ATOM     14  C   UNL     1     -18.582 -13.037 -23.767  1.00  0.00     0.000 C 
BRANCH  14  15
ATOM     15  C   UNL     1     -19.542 -13.263 -24.944  1.00  0.00     0.000 C 
BRANCH  15  16
ATOM     16  C   UNL     1     -20.988 -12.938 -24.544  1.00  0.00     0.006 C 
BRANCH  16  17
ATOM     17  C   UNL     1     -21.836 -14.202 -24.350  1.00  0.00     0.053 C 
BRANCH  17  18
ATOM     18  C   UNL     1     -22.172 -14.432 -22.908  1.00  0.00     0.041 C 
ATOM     19  O   UNL     1     -22.807 -15.462 -22.563  1.00  0.00    -0.550 OA
ATOM     20  O   UNL     1     -21.812 -13.491 -21.951  1.00  0.00    -0.550 OA
ENDBRANCH  17  18
ENDBRANCH  16  17
ENDBRANCH  15  16
ENDBRANCH  14  15
ENDBRANCH  13  14
ENDBRANCH  12  13
ENDBRANCH  11  12
ENDBRANCH   1  11
TORSDOF 15
ENDMDL
MODEL 3
REMARK VINA RESULT:    17.891      0.637      8.923
REMARK INTER + INTRA:          32.674
REMARK INTER:                  33.480
REMARK INTRA:                  -0.806
REMARK UNBOUND:                -0.905
REMARK SMILES O=C([O-])CCCCCCCCCCCCCCC(=O)[O-]
REMARK SMILES IDX 10 1 9 2 8 3 7 4 6 5 5 6 4 7 2 8 1 9 3 10 11 11 12 12 13 13
REMARK SMILES IDX 14 14 15 15 16 16 17 17 18 18 19 19 20 20
REMARK H PARENT
REMARK Flexibility Score: inf
ROOT
ATOM      1  C   UNL     1     -15.422 -12.213 -22.461  1.00  0.00     0.000 C 
ENDROOT
BRANCH   1   2
ATOM      2  C   UNL     1     -14.405 -12.049 -23.597  1.00  0.00     0.000 C 
BRANCH   2   3
ATOM      3  C   UNL     1     -13.879 -10.607 -23.661  1.00  0.00     0.000 C 
BRANCH   3   4
ATOM      4  C   UNL     1     -14.849  -9.586 -23.038  1.00  0.00     0.000 C 
BRANCH   4   5
ATOM      5  C   UNL     1     -14.550  -8.114 -23.377  1.00  0.00     0.000 C 
BRANCH   5   6
ATOM      6  C   UNL     1     -13.325  -7.562 -22.627  1.00  0.00     0.006 C 
BRANCH   6   7
ATOM      7  C   UNL     1     -13.571  -7.458 -21.116  1.00  0.00     0.053 C 
BRANCH   7   8
ATOM      8  C   UNL     1     -12.619  -8.314 -20.338  1.00  0.00     0.041 C 
ATOM      9  O   UNL     1     -12.593  -8.251 -19.080  1.00  0.00    -0.550 OA
ATOM     10  O   UNL     1     -11.741  -9.160 -21.003  1.00  0.00    -0.550 OA
ENDBRANCH   7   8
ENDBRANCH   6   7
ENDBRANCH   5   6
ENDBRANCH   4   5
ENDBRANCH   3   4
ENDBRANCH   2   3
ENDBRANCH   1   2
BRANCH   1  11
ATOM     11  C   UNL     1     -16.154 -13.556 -22.566  1.00  0.00     0.000 C 
BRANCH  11  12
ATOM     12  C   UNL     1     -16.950 -13.649 -23.874  1.00  0.00     0.000 C 
BRANCH  12  13
ATOM     13  C   UNL     1     -18.417 -13.251 -23.653  1.00  0.00     0.000 C 
BRANCH  13  14
ATOM     14  C   UNL     1     -19.157 -12.962 -24.969  1.00  0.00     0.000 C 
BRANCH  14  15
ATOM     15  C   UNL     1     -20.684 -12.974 -24.806  1.00  0.00     0.000 C 
BRANCH  15  16
ATOM     16  C   UNL     1     -21.215 -14.411 -24.716  1.00  0.00     0.006 C 
BRANCH  16  17
ATOM     17  C   UNL     1     -22.543 -14.494 -23.952  1.00  0.00     0.053 C 
BRANCH  17  18
ATOM     18  C   UNL     1     -22.331 -14.538 -22.470  1.00  0.00     0.041 C 
ATOM     19  O   UNL     1     -21.876 -13.532 -21.866  1.00  0.00    -0.550 OA
ATOM     20  O   UNL     1     -22.603 -15.702 -21.761  1.00  0.00    -0.550 OA
ENDBRANCH  17  18
ENDBRANCH  16  17
ENDBRANCH  15  16
ENDBRANCH  14  15
ENDBRANCH  13  14
ENDBRANCH  12  13
ENDBRANCH  11  12
ENDBRANCH   1  11
TORSDOF 15
ENDMDL
MODEL 4
REMARK VINA RESULT:    18.799      4.901      7.810
REMARK INTER + INTRA:          34.379
REMARK INTER:                  35.111
REMARK INTRA:                  -0.732
REMARK UNBOUND:                -0.905
REMARK SMILES O=C([O-])CCCCCCCCCCCCCCC(=O)[O-]
REMARK SMILES IDX 10 1 9 2 8 3 7 4 6 5 5 6 4 7 2 8 1 9 3 10 11 11 12 12 13 13
REMARK SMILES IDX 14 14 15 15 16 16 17 17 18 18 19 19 20 20
REMARK H PARENT
REMARK Flexibility Score: inf
ROOT
ATOM      1  C   UNL     1     -16.953 -14.005 -21.317  1.00  0.00     0.000 C 
ENDROOT
BRANCH   1   2
ATOM      2  C   UNL     1     -16.123 -13.466 -22.489  1.00  0.00     0.000 C 
BRANCH   2   3
ATOM      3  C   UNL     1     -16.910 -13.549 -23.805  1.00  0.00     0.000 C 
BRANCH   3   4
ATOM      4  C   UNL     1     -18.416 -13.280 -23.623  1.00  0.00     0.000 C 
BRANCH   4   5
ATOM      5  C   UNL     1     -19.221 -13.170 -24.932  1.00  0.00     0.000 C 
BRANCH   5   6
ATOM      6  C   UNL     1     -20.715 -12.889 -24.695  1.00  0.00     0.006 C 
BRANCH   6   7
ATOM      7  C   UNL     1     -21.516 -14.176 -24.461  1.00  0.00     0.053 C 
BRANCH   7   8
ATOM      8  C   UNL     1     -22.052 -14.252 -23.064  1.00  0.00     0.041 C 
ATOM      9  O   UNL     1     -21.744 -13.371 -22.218  1.00  0.00    -0.550 OA
ATOM     10  O   UNL     1     -22.869 -15.310 -22.689  1.00  0.00    -0.550 OA
ENDBRANCH   7   8
ENDBRANCH   6   7
ENDBRANCH   5   6
ENDBRANCH   4   5
ENDBRANCH   3   4
ENDBRANCH   2   3
ENDBRANCH   1   2
BRANCH   1  11
ATOM     11  C   UNL     1     -16.074 -14.786 -20.334  1.00  0.00     0.000 C 
BRANCH  11  12
ATOM     12  C   UNL     1     -16.910 -15.782 -19.519  1.00  0.00     0.000 C 
BRANCH  12  13
ATOM     13  C   UNL     1     -17.134 -15.271 -18.089  1.00  0.00     0.000 C 
BRANCH  13  14
ATOM     14  C   UNL     1     -16.824 -16.335 -17.024  1.00  0.00     0.000 C 
BRANCH  14  15
ATOM     15  C   UNL     1     -17.296 -15.925 -15.621  1.00  0.00     0.000 C 
BRANCH  15  16
ATOM     16  C   UNL     1     -18.811 -16.125 -15.471  1.00  0.00     0.006 C 
BRANCH  16  17
ATOM     17  C   UNL     1     -19.280 -17.469 -16.045  1.00  0.00     0.053 C 
BRANCH  17  18
ATOM     18  C   UNL     1     -20.712 -17.750 -15.705  1.00  0.00     0.041 C 
ATOM     19  O   UNL     1     -21.201 -18.890 -15.919  1.00  0.00    -0.550 OA
ATOM     20  O   UNL     1     -21.514 -16.743 -15.184  1.00  0.00    -0.550 OA
ENDBRANCH  17  18
ENDBRANCH  16  17
ENDBRANCH  15  16
ENDBRANCH  14  15
ENDBRANCH  13  14
ENDBRANCH  12  13
ENDBRANCH  11  12
ENDBRANCH   1  11
TORSDOF 15
ENDMDL
