MODEL 1
REMARK VINA RESULT:    -3.833      0.000      0.000
REMARK INTER + INTRA:          -7.994
REMARK INTER:                  -6.634
REMARK INTRA:                  -1.360
REMARK UNBOUND:                -1.360
REMARK SMILES CCCCCCCCCCCCCCO
REMARK SMILES IDX 8 1 7 2 6 3 5 4 4 5 3 6 2 7 1 8 9 9 10 10 11 11 12 12 13 13
REMARK SMILES IDX 14 14 15 15
REMARK H PARENT 15 16
REMARK Flexibility Score: inf
ROOT
ATOM      1  C   UNL     1      29.256  26.428  21.752  1.00  0.00     0.000 C 
ENDROOT
BRANCH   1   2
ATOM      2  C   UNL     1      29.957  25.106  22.102  1.00  0.00    -0.000 C 
BRANCH   2   3
ATOM      3  C   UNL     1      31.224  25.314  22.945  1.00  0.00    -0.000 C 
BRANCH   3   4
ATOM      4  C   UNL     1      31.023  26.433  23.974  1.00  0.00    -0.000 C 
BRANCH   4   5
ATOM      5  C   UNL     1      31.970  27.611  23.698  1.00  0.00    -0.000 C 
BRANCH   5   6
ATOM      6  C   UNL     1      31.267  28.974  23.809  1.00  0.00    -0.000 C 
BRANCH   6   7
ATOM      7  C   UNL     1      31.325  29.777  22.502  1.00  0.00    -0.003 C 
ATOM      8  C   UNL     1      32.058  28.999  21.412  1.00  0.00     0.004 C 
ENDBRANCH   6   7
ENDBRANCH   5   6
ENDBRANCH   4   5
ENDBRANCH   3   4
ENDBRANCH   2   3
ENDBRANCH   1   2
BRANCH   1   9
ATOM      9  C   UNL     1      27.740  26.260  21.560  1.00  0.00     0.000 C 
BRANCH   9  10
ATOM     10  C   UNL     1      26.926  26.790  22.753  1.00  0.00     0.000 C 
BRANCH  10  11
ATOM     11  C   UNL     1      27.667  27.867  23.575  1.00  0.00     0.000 C 
BRANCH  11  12
ATOM     12  C   UNL     1      26.699  28.742  24.391  1.00  0.00     0.002 C 
BRANCH  12  13
ATOM     13  C   UNL     1      25.228  28.327  24.223  1.00  0.00     0.028 C 
BRANCH  13  14
ATOM     14  C   UNL     1      24.259  29.516  24.159  1.00  0.00     0.156 C 
BRANCH  14  15
ATOM     15  O   UNL     1      24.298  30.136  22.902  1.00  0.00    -0.396 OA
ATOM     16  H   UNL     1      24.160  31.106  23.059  1.00  0.00     0.210 HD
ENDBRANCH  14  15
ENDBRANCH  13  14
ENDBRANCH  12  13
ENDBRANCH  11  12
ENDBRANCH  10  11
ENDBRANCH   9  10
ENDBRANCH   1   9
TORSDOF 13
ENDMDL
MODEL 2
REMARK VINA RESULT:    -3.683      1.924      4.834
REMARK INTER + INTRA:          -7.733
REMARK INTER:                  -6.155
REMARK INTRA:                  -1.579
REMARK UNBOUND:                -1.360
REMARK SMILES CCCCCCCCCCCCCCO
REMARK SMILES IDX 8 1 7 2 6 3 5 4 4 5 3 6 2 7 1 8 9 9 10 10 11 11 12 12 13 13
REMARK SMILES IDX 14 14 15 15
REMARK H PARENT 15 16
REMARK Flexibility Score: inf
ROOT
ATOM      1  C   UNL     1      31.478  28.808  21.827  1.00  0.00     0.000 C 
ENDROOT
BRANCH   1   2
ATOM      2  C   UNL     1      32.022  30.236  21.663  1.00  0.00    -0.000 C 
BRANCH   2   3
ATOM      3  C   UNL     1      31.007  31.307  22.086  1.00  0.00    -0.000 C 
BRANCH   3   4
ATOM      4  C   UNL     1      31.334  31.857  23.480  1.00  0.00    -0.000 C 
BRANCH   4   5
ATOM      5  C   UNL     1      30.400  31.257  24.542  1.00  0.00    -0.000 C 
BRANCH   5   6
ATOM      6  C   UNL     1      29.106  30.687  23.938  1.00  0.00    -0.000 C 
BRANCH   6   7
ATOM      7  C   UNL     1      28.566  29.484  24.725  1.00  0.00    -0.003 C 
ATOM      8  C   UNL     1      27.477  28.759  23.940  1.00  0.00     0.004 C 
ENDBRANCH   6   7
ENDBRANCH   5   6
ENDBRANCH   4   5
ENDBRANCH   3   4
ENDBRANCH   2   3
ENDBRANCH   1   2
BRANCH   1   9
ATOM      9  C   UNL     1      31.972  28.131  23.116  1.00  0.00     0.000 C 
BRANCH   9  10
ATOM     10  C   UNL     1      31.115  26.919  23.519  1.00  0.00     0.000 C 
BRANCH  10  11
ATOM     11  C   UNL     1      31.404  25.654  22.682  1.00  0.00     0.000 C 
BRANCH  11  12
ATOM     12  C   UNL     1      30.115  24.921  22.273  1.00  0.00     0.002 C 
BRANCH  12  13
ATOM     13  C   UNL     1      28.883  25.841  22.251  1.00  0.00     0.028 C 
BRANCH  13  14
ATOM     14  C   UNL     1      28.500  26.318  20.843  1.00  0.00     0.156 C 
BRANCH  14  15
ATOM     15  O   UNL     1      27.213  26.875  20.829  1.00  0.00    -0.396 OA
ATOM     16  H   UNL     1      27.197  27.571  21.536  1.00  0.00     0.210 HD
ENDBRANCH  14  15
ENDBRANCH  13  14
ENDBRANCH  12  13
ENDBRANCH  11  12
ENDBRANCH  10  11
ENDBRANCH   9  10
ENDBRANCH   1   9
TORSDOF 13
ENDMDL
MODEL 3
REMARK VINA RESULT:    -3.660      1.053      1.645
REMARK INTER + INTRA:          -7.693
REMARK INTER:                  -6.428
REMARK INTRA:                  -1.265
REMARK UNBOUND:                -1.360
REMARK SMILES CCCCCCCCCCCCCCO
REMARK SMILES IDX 8 1 7 2 6 3 5 4 4 5 3 6 2 7 1 8 9 9 10 10 11 11 12 12 13 13
REMARK SMILES IDX 14 14 15 15
REMARK H PARENT 15 16
REMARK Flexibility Score: inf
ROOT
ATOM      1  C   UNL     1      27.861  26.636  22.356  1.00  0.00     0.000 C 
ENDROOT
BRANCH   1   2
ATOM      2  C   UNL     1      28.306  25.278  21.793  1.00  0.00    -0.000 C 
BRANCH   2   3
ATOM      3  C   UNL     1      29.829  25.179  21.621  1.00  0.00    -0.000 C 
BRANCH   3   4
ATOM      4  C   UNL     1      30.542  25.256  22.976  1.00  0.00    -0.000 C 
BRANCH   4   5
ATOM      5  C   UNL     1      31.857  26.042  22.863  1.00  0.00    -0.000 C 
BRANCH   5   6
ATOM      6  C   UNL     1      31.865  27.311  23.731  1.00  0.00    -0.000 C 
BRANCH   6   7
ATOM      7  C   UNL     1      31.097  28.473  23.086  1.00  0.00    -0.003 C 
ATOM      8  C   UNL     1      31.470  28.627  21.614  1.00  0.00     0.004 C 
ENDBRANCH   6   7
ENDBRANCH   5   6
ENDBRANCH   4   5
ENDBRANCH   3   4
ENDBRANCH   2   3
ENDBRANCH   1   2
BRANCH   1   9
ATOM      9  C   UNL     1      26.619  26.526  23.256  1.00  0.00     0.000 C 
BRANCH   9  10
ATOM     10  C   UNL     1      26.668  27.480  24.461  1.00  0.00     0.000 C 
BRANCH  10  11
ATOM     11  C   UNL     1      27.591  28.699  24.244  1.00  0.00     0.000 C 
BRANCH  11  12
ATOM     12  C   UNL     1      27.070  29.957  24.962  1.00  0.00     0.002 C 
BRANCH  12  13
ATOM     13  C   UNL     1      26.268  30.886  24.036  1.00  0.00     0.028 C 
BRANCH  13  14
ATOM     14  C   UNL     1      24.748  30.728  24.175  1.00  0.00     0.156 C 
BRANCH  14  15
ATOM     15  O   UNL     1      24.195  30.121  23.038  1.00  0.00    -0.396 OA
ATOM     16  H   UNL     1      24.059  30.842  22.369  1.00  0.00     0.210 HD
ENDBRANCH  14  15
ENDBRANCH  13  14
ENDBRANCH  12  13
ENDBRANCH  11  12
ENDBRANCH  10  11
ENDBRANCH   9  10
ENDBRANCH   1   9
TORSDOF 13
ENDMDL
MODEL 4
REMARK VINA RESULT:    -3.622      4.037      5.347
REMARK INTER + INTRA:          -7.629
REMARK INTER:                  -6.702
REMARK INTRA:                  -0.927
REMARK UNBOUND:                -1.360
REMARK SMILES CCCCCCCCCCCCCCO
REMARK SMILES IDX 8 1 7 2 6 3 5 4 4 5 3 6 2 7 1 8 9 9 10 10 11 11 12 12 13 13
REMARK SMILES IDX 14 14 15 15
REMARK H PARENT 15 16
REMARK Flexibility Score: inf
ROOT
ATOM      1  C   UNL     1      25.600  26.366  23.238  1.00  0.00     0.000 C 
ENDROOT
BRANCH   1   2
ATOM      2  C   UNL     1      26.039  27.462  24.221  1.00  0.00    -0.000 C 
BRANCH   2   3
ATOM      3  C   UNL     1      27.354  28.137  23.806  1.00  0.00    -0.000 C 
BRANCH   3   4
ATOM      4  C   UNL     1      28.563  27.299  24.238  1.00  0.00    -0.000 C 
BRANCH   4   5
ATOM      5  C   UNL     1      29.621  27.242  23.125  1.00  0.00    -0.000 C 
BRANCH   5   6
ATOM      6  C   UNL     1      30.152  25.820  22.884  1.00  0.00    -0.000 C 
BRANCH   6   7
ATOM      7  C   UNL     1      29.462  25.123  21.703  1.00  0.00    -0.003 C 
ATOM      8  C   UNL     1      28.662  26.120  20.869  1.00  0.00     0.004 C 
ENDBRANCH   6   7
ENDBRANCH   5   6
ENDBRANCH   4   5
ENDBRANCH   3   4
ENDBRANCH   2   3
ENDBRANCH   1   2
BRANCH   1   9
ATOM      9  C   UNL     1      25.307  25.028  23.936  1.00  0.00     0.000 C 
BRANCH   9  10
ATOM     10  C   UNL     1      24.157  25.125  24.954  1.00  0.00     0.000 C 
BRANCH  10  11
ATOM     11  C   UNL     1      22.877  24.386  24.509  1.00  0.00     0.000 C 
BRANCH  11  12
ATOM     12  C   UNL     1      23.023  23.759  23.112  1.00  0.00     0.002 C 
BRANCH  12  13
ATOM     13  C   UNL     1      21.706  23.173  22.576  1.00  0.00     0.028 C 
BRANCH  13  14
ATOM     14  C   UNL     1      21.850  21.752  22.015  1.00  0.00     0.156 C 
BRANCH  14  15
ATOM     15  O   UNL     1      23.034  21.615  21.277  1.00  0.00    -0.396 OA
ATOM     16  H   UNL     1      23.564  22.440  21.433  1.00  0.00     0.210 HD
ENDBRANCH  14  15
ENDBRANCH  13  14
ENDBRANCH  12  13
ENDBRANCH  11  12
ENDBRANCH  10  11
ENDBRANCH   9  10
ENDBRANCH   1   9
TORSDOF 13
ENDMDL
MODEL 5
REMARK VINA RESULT:    -3.598      1.961      5.407
REMARK INTER + INTRA:          -7.586
REMARK INTER:                  -6.308
REMARK INTRA:                  -1.278
REMARK UNBOUND:                -1.360
REMARK SMILES CCCCCCCCCCCCCCO
REMARK SMILES IDX 8 1 7 2 6 3 5 4 4 5 3 6 2 7 1 8 9 9 10 10 11 11 12 12 13 13
REMARK SMILES IDX 14 14 15 15
REMARK H PARENT 15 16
REMARK Flexibility Score: inf
ROOT
ATOM      1  C   UNL     1      29.035  26.080  21.300  1.00  0.00     0.000 C 
ENDROOT
BRANCH   1   2
ATOM      2  C   UNL     1      27.680  26.437  21.930  1.00  0.00    -0.000 C 
BRANCH   2   3
ATOM      3  C   UNL     1      27.828  27.217  23.245  1.00  0.00    -0.000 C 
BRANCH   3   4
ATOM      4  C   UNL     1      26.662  26.919  24.195  1.00  0.00    -0.000 C 
BRANCH   4   5
ATOM      5  C   UNL     1      25.338  27.451  23.626  1.00  0.00    -0.000 C 
BRANCH   5   6
ATOM      6  C   UNL     1      24.737  28.580  24.480  1.00  0.00    -0.000 C 
BRANCH   6   7
ATOM      7  C   UNL     1      24.565  29.888  23.695  1.00  0.00    -0.003 C 
ATOM      8  C   UNL     1      25.636  30.904  24.081  1.00  0.00     0.004 C 
ENDBRANCH   6   7
ENDBRANCH   5   6
ENDBRANCH   4   5
ENDBRANCH   3   4
ENDBRANCH   2   3
ENDBRANCH   1   2
BRANCH   1   9
ATOM      9  C   UNL     1      29.735  24.916  22.022  1.00  0.00     0.000 C 
BRANCH   9  10
ATOM     10  C   UNL     1      31.117  25.302  22.576  1.00  0.00     0.000 C 
BRANCH  10  11
ATOM     11  C   UNL     1      31.135  25.497  24.108  1.00  0.00     0.000 C 
BRANCH  11  12
ATOM     12  C   UNL     1      31.533  26.929  24.506  1.00  0.00     0.002 C 
BRANCH  12  13
ATOM     13  C   UNL     1      31.990  27.779  23.310  1.00  0.00     0.028 C 
BRANCH  13  14
ATOM     14  C   UNL     1      31.087  28.991  23.037  1.00  0.00     0.156 C 
BRANCH  14  15
ATOM     15  O   UNL     1      30.794  29.108  21.671  1.00  0.00    -0.396 OA
ATOM     16  H   UNL     1      29.844  29.388  21.608  1.00  0.00     0.210 HD
ENDBRANCH  14  15
ENDBRANCH  13  14
ENDBRANCH  12  13
ENDBRANCH  11  12
ENDBRANCH  10  11
ENDBRANCH   9  10
ENDBRANCH   1   9
TORSDOF 13
ENDMDL
MODEL 6
REMARK VINA RESULT:    -3.512      1.163      3.154
REMARK INTER + INTRA:          -7.438
REMARK INTER:                  -5.946
REMARK INTRA:                  -1.492
REMARK UNBOUND:                -1.360
REMARK SMILES CCCCCCCCCCCCCCO
REMARK SMILES IDX 8 1 7 2 6 3 5 4 4 5 3 6 2 7 1 8 9 9 10 10 11 11 12 12 13 13
REMARK SMILES IDX 14 14 15 15
REMARK H PARENT 15 16
REMARK Flexibility Score: inf
ROOT
ATOM      1  C   UNL     1      31.337  29.547  22.173  1.00  0.00     0.000 C 
ENDROOT
BRANCH   1   2
ATOM      2  C   UNL     1      32.121  28.227  22.143  1.00  0.00    -0.000 C 
BRANCH   2   3
ATOM      3  C   UNL     1      32.125  27.510  23.501  1.00  0.00    -0.000 C 
BRANCH   3   4
ATOM      4  C   UNL     1      32.026  25.990  23.321  1.00  0.00    -0.000 C 
BRANCH   4   5
ATOM      5  C   UNL     1      30.736  25.606  22.581  1.00  0.00    -0.000 C 
BRANCH   5   6
ATOM      6  C   UNL     1      29.469  26.073  23.317  1.00  0.00    -0.000 C 
BRANCH   6   7
ATOM      7  C   UNL     1      28.305  26.369  22.361  1.00  0.00    -0.003 C 
ATOM      8  C   UNL     1      28.727  26.175  20.907  1.00  0.00     0.004 C 
ENDBRANCH   6   7
ENDBRANCH   5   6
ENDBRANCH   4   5
ENDBRANCH   3   4
ENDBRANCH   2   3
ENDBRANCH   1   2
BRANCH   1   9
ATOM      9  C   UNL     1      30.877  29.930  23.590  1.00  0.00     0.000 C 
BRANCH   9  10
ATOM     10  C   UNL     1      29.413  30.400  23.635  1.00  0.00     0.000 C 
BRANCH  10  11
ATOM     11  C   UNL     1      28.493  29.473  24.459  1.00  0.00     0.000 C 
BRANCH  11  12
ATOM     12  C   UNL     1      27.034  29.960  24.467  1.00  0.00     0.002 C 
BRANCH  12  13
ATOM     13  C   UNL     1      26.042  28.891  23.981  1.00  0.00     0.028 C 
BRANCH  13  14
ATOM     14  C   UNL     1      24.576  29.346  24.030  1.00  0.00     0.156 C 
BRANCH  14  15
ATOM     15  O   UNL     1      24.270  30.187  22.951  1.00  0.00    -0.396 OA
ATOM     16  H   UNL     1      24.288  31.116  23.301  1.00  0.00     0.210 HD
ENDBRANCH  14  15
ENDBRANCH  13  14
ENDBRANCH  12  13
ENDBRANCH  11  12
ENDBRANCH  10  11
ENDBRANCH   9  10
ENDBRANCH   1   9
TORSDOF 13
ENDMDL
MODEL 7
REMARK VINA RESULT:    -3.495      1.641      2.653
REMARK INTER + INTRA:          -7.408
REMARK INTER:                  -6.077
REMARK INTRA:                  -1.332
REMARK UNBOUND:                -1.360
REMARK SMILES CCCCCCCCCCCCCCO
REMARK SMILES IDX 8 1 7 2 6 3 5 4 4 5 3 6 2 7 1 8 9 9 10 10 11 11 12 12 13 13
REMARK SMILES IDX 14 14 15 15
REMARK H PARENT 15 16
REMARK Flexibility Score: inf
ROOT
ATOM      1  C   UNL     1      31.063  25.244  22.439  1.00  0.00     0.000 C 
ENDROOT
BRANCH   1   2
ATOM      2  C   UNL     1      31.273  25.939  23.793  1.00  0.00    -0.000 C 
BRANCH   2   3
ATOM      3  C   UNL     1      31.320  27.469  23.670  1.00  0.00    -0.000 C 
BRANCH   3   4
ATOM      4  C   UNL     1      32.117  27.899  22.433  1.00  0.00    -0.000 C 
BRANCH   4   5
ATOM      5  C   UNL     1      31.385  29.008  21.664  1.00  0.00    -0.000 C 
BRANCH   5   6
ATOM      6  C   UNL     1      31.787  30.417  22.130  1.00  0.00    -0.000 C 
BRANCH   6   7
ATOM      7  C   UNL     1      30.575  31.324  22.385  1.00  0.00    -0.003 C 
ATOM      8  C   UNL     1      29.730  30.798  23.542  1.00  0.00     0.004 C 
ENDBRANCH   6   7
ENDBRANCH   5   6
ENDBRANCH   4   5
ENDBRANCH   3   4
ENDBRANCH   2   3
ENDBRANCH   1   2
BRANCH   1   9
ATOM      9  C   UNL     1      29.580  24.978  22.134  1.00  0.00     0.000 C 
BRANCH   9  10
ATOM     10  C   UNL     1      29.020  25.905  21.043  1.00  0.00     0.000 C 
BRANCH  10  11
ATOM     11  C   UNL     1      27.686  26.580  21.432  1.00  0.00     0.000 C 
BRANCH  11  12
ATOM     12  C   UNL     1      27.574  26.810  22.949  1.00  0.00     0.002 C 
BRANCH  12  13
ATOM     13  C   UNL     1      26.307  27.588  23.345  1.00  0.00     0.028 C 
BRANCH  13  14
ATOM     14  C   UNL     1      25.297  26.751  24.142  1.00  0.00     0.156 C 
BRANCH  14  15
ATOM     15  O   UNL     1      24.659  25.810  23.322  1.00  0.00    -0.396 OA
ATOM     16  H   UNL     1      25.174  25.777  22.474  1.00  0.00     0.210 HD
ENDBRANCH  14  15
ENDBRANCH  13  14
ENDBRANCH  12  13
ENDBRANCH  11  12
ENDBRANCH  10  11
ENDBRANCH   9  10
ENDBRANCH   1   9
TORSDOF 13
ENDMDL
MODEL 8
REMARK VINA RESULT:    -3.449      2.095      5.811
REMARK INTER + INTRA:          -7.329
REMARK INTER:                  -6.208
REMARK INTRA:                  -1.122
REMARK UNBOUND:                -1.360
REMARK SMILES CCCCCCCCCCCCCCO
REMARK SMILES IDX 8 1 7 2 6 3 5 4 4 5 3 6 2 7 1 8 9 9 10 10 11 11 12 12 13 13
REMARK SMILES IDX 14 14 15 15
REMARK H PARENT 15 16
REMARK Flexibility Score: inf
ROOT
ATOM      1  C   UNL     1      28.559  29.738  24.212  1.00  0.00     0.000 C 
ENDROOT
BRANCH   1   2
ATOM      2  C   UNL     1      28.507  31.243  23.908  1.00  0.00    -0.000 C 
BRANCH   2   3
ATOM      3  C   UNL     1      27.180  31.887  24.337  1.00  0.00    -0.000 C 
BRANCH   3   4
ATOM      4  C   UNL     1      26.206  30.834  24.877  1.00  0.00    -0.000 C 
BRANCH   4   5
ATOM      5  C   UNL     1      25.192  30.419  23.800  1.00  0.00    -0.000 C 
BRANCH   5   6
ATOM      6  C   UNL     1      24.554  29.049  24.083  1.00  0.00    -0.000 C 
BRANCH   6   7
ATOM      7  C   UNL     1      25.413  27.881  23.577  1.00  0.00    -0.003 C 
ATOM      8  C   UNL     1      25.985  27.077  24.740  1.00  0.00     0.004 C 
ENDBRANCH   6   7
ENDBRANCH   5   6
ENDBRANCH   4   5
ENDBRANCH   3   4
ENDBRANCH   2   3
ENDBRANCH   1   2
BRANCH   1   9
ATOM      9  C   UNL     1      29.932  29.119  23.901  1.00  0.00     0.000 C 
BRANCH   9  10
ATOM     10  C   UNL     1      29.964  27.597  24.118  1.00  0.00     0.000 C 
BRANCH  10  11
ATOM     11  C   UNL     1      30.835  26.846  23.088  1.00  0.00     0.000 C 
BRANCH  11  12
ATOM     12  C   UNL     1      30.164  25.552  22.594  1.00  0.00     0.002 C 
BRANCH  12  13
ATOM     13  C   UNL     1      28.672  25.735  22.270  1.00  0.00     0.028 C 
BRANCH  13  14
ATOM     14  C   UNL     1      28.417  26.382  20.901  1.00  0.00     0.156 C 
BRANCH  14  15
ATOM     15  O   UNL     1      27.075  26.763  20.762  1.00  0.00    -0.396 OA
ATOM     16  H   UNL     1      26.573  26.305  21.485  1.00  0.00     0.210 HD
ENDBRANCH  14  15
ENDBRANCH  13  14
ENDBRANCH  12  13
ENDBRANCH  11  12
ENDBRANCH  10  11
ENDBRANCH   9  10
ENDBRANCH   1   9
TORSDOF 13
ENDMDL
MODEL 9
REMARK VINA RESULT:    -3.443      1.974      5.547
REMARK INTER + INTRA:          -7.318
REMARK INTER:                  -6.368
REMARK INTRA:                  -0.950
REMARK UNBOUND:                -1.360
REMARK SMILES CCCCCCCCCCCCCCO
REMARK SMILES IDX 8 1 7 2 6 3 5 4 4 5 3 6 2 7 1 8 9 9 10 10 11 11 12 12 13 13
REMARK SMILES IDX 14 14 15 15
REMARK H PARENT 15 16
REMARK Flexibility Score: inf
ROOT
ATOM      1  C   UNL     1      30.963  29.962  23.471  1.00  0.00     0.000 C 
ENDROOT
BRANCH   1   2
ATOM      2  C   UNL     1      29.874  31.040  23.361  1.00  0.00    -0.000 C 
BRANCH   2   3
ATOM      3  C   UNL     1      28.818  30.929  24.470  1.00  0.00    -0.000 C 
BRANCH   3   4
ATOM      4  C   UNL     1      28.117  29.566  24.429  1.00  0.00    -0.000 C 
BRANCH   4   5
ATOM      5  C   UNL     1      26.627  29.722  24.091  1.00  0.00    -0.000 C 
BRANCH   5   6
ATOM      6  C   UNL     1      26.134  31.170  24.242  1.00  0.00    -0.000 C 
BRANCH   6   7
ATOM      7  C   UNL     1      24.752  31.258  24.905  1.00  0.00    -0.003 C 
ATOM      8  C   UNL     1      23.817  30.179  24.367  1.00  0.00     0.004 C 
ENDBRANCH   6   7
ENDBRANCH   5   6
ENDBRANCH   4   5
ENDBRANCH   3   4
ENDBRANCH   2   3
ENDBRANCH   1   2
BRANCH   1   9
ATOM      9  C   UNL     1      31.269  29.289  22.123  1.00  0.00     0.000 C 
BRANCH   9  10
ATOM     10  C   UNL     1      31.473  27.770  22.247  1.00  0.00     0.000 C 
BRANCH  10  11
ATOM     11  C   UNL     1      30.361  27.063  23.054  1.00  0.00     0.000 C 
BRANCH  11  12
ATOM     12  C   UNL     1      30.137  25.614  22.588  1.00  0.00     0.002 C 
BRANCH  12  13
ATOM     13  C   UNL     1      28.911  25.461  21.673  1.00  0.00     0.028 C 
BRANCH  13  14
ATOM     14  C   UNL     1      27.776  26.442  21.999  1.00  0.00     0.156 C 
BRANCH  14  15
ATOM     15  O   UNL     1      27.156  26.907  20.830  1.00  0.00    -0.396 OA
ATOM     16  H   UNL     1      27.506  26.354  20.084  1.00  0.00     0.210 HD
ENDBRANCH  14  15
ENDBRANCH  13  14
ENDBRANCH  12  13
ENDBRANCH  11  12
ENDBRANCH  10  11
ENDBRANCH   9  10
ENDBRANCH   1   9
TORSDOF 13
ENDMDL
