MODEL 1
REMARK VINA RESULT:    -3.659      0.000      0.000
REMARK INTER + INTRA:          -4.860
REMARK INTER:                  -4.942
REMARK INTRA:                   0.082
REMARK UNBOUND:                 0.082
REMARK SMILES C=C(C)[C@H]1CC[C@@H](C)C2=C(C1)[C@@H](C)CC2
REMARK SMILES IDX 10 1 9 2 15 3 14 4 12 5 13 6 7 7 8 8 6 9 11 11 4 12 5 13
REMARK SMILES IDX 2 15 1 16 3 17
REMARK H PARENT
REMARK Flexibility Score: 80.00
ROOT
ATOM      1  C   UNL     1     132.546 135.738 135.109  1.00  0.00    -0.067 C 
ATOM      2  C   UNL     1     133.290 135.114 134.179  1.00  0.00    -0.068 C 
ATOM      3  C   UNL     1     133.245 135.863 132.881  1.00  0.00     0.032 C 
ATOM      4  C   UNL     1     132.145 136.903 133.065  1.00  0.00     0.012 C 
ATOM      5  C   UNL     1     131.906 136.985 134.575  1.00  0.00     0.012 C 
ATOM      6  C   UNL     1     132.561 138.236 135.178  1.00  0.00     0.012 C 
ENDROOT
BRANCH   2   7
ATOM      7  C   UNL     1     134.269 133.962 134.429  1.00  0.00     0.012 C 
ATOM      8  C   UNL     1     134.942 133.506 133.122  1.00  0.00     0.012 C 
BRANCH   7   9
ATOM      9  C   UNL     1     133.600 132.748 135.112  1.00  0.00     0.008 CG0
ATOM     10  G   UNL     1     133.366 132.950 136.621  1.00  0.00     0.000 G0
ENDBRANCH   7   9
ENDBRANCH   2   7
BRANCH   1  11
ATOM     11  C   UNL     1     132.329 135.291 136.541  1.00  0.00     0.039 C 
BRANCH  11  12
ATOM     12  C   UNL     1     133.490 134.427 137.072  1.00  0.00     0.018 C 
BRANCH  12  13
ATOM     13  C   UNL     1     133.376 132.955 136.611  1.00  0.00     0.009 CG0
ATOM     14  G   UNL     1     133.594 132.734 135.102  1.00  0.00     0.000 G0
ENDBRANCH  12  13
BRANCH  12  15
ATOM     15  C   UNL     1     133.584 134.500 138.592  1.00  0.00    -0.077 C 
ATOM     16  C   UNL     1     134.165 133.516 139.300  1.00  0.00     0.008 C 
ATOM     17  C   UNL     1     133.010 135.680 139.334  1.00  0.00     0.039 C 
ENDBRANCH  12  15
ENDBRANCH  11  12
ENDBRANCH   1  11
TORSDOF 1
ENDMDL
MODEL 2
REMARK VINA RESULT:    -3.634      6.650      7.688
REMARK INTER + INTRA:          -4.826
REMARK INTER:                  -4.890
REMARK INTRA:                   0.064
REMARK UNBOUND:                 0.082
REMARK SMILES C=C(C)[C@H]1CC[C@@H](C)C2=C(C1)[C@@H](C)CC2
REMARK SMILES IDX 10 1 9 2 15 3 14 4 12 5 13 6 7 7 8 8 6 9 11 11 4 12 5 13
REMARK SMILES IDX 2 15 1 16 3 17
REMARK H PARENT
REMARK Flexibility Score: 80.00
ROOT
ATOM      1  C   UNL     1     140.158 136.742 135.160  1.00  0.00    -0.067 C 
ATOM      2  C   UNL     1     139.497 137.406 134.195  1.00  0.00    -0.068 C 
ATOM      3  C   UNL     1     139.656 136.711 132.877  1.00  0.00     0.032 C 
ATOM      4  C   UNL     1     140.736 135.660 133.113  1.00  0.00     0.012 C 
ATOM      5  C   UNL     1     140.842 135.516 134.634  1.00  0.00     0.012 C 
ATOM      6  C   UNL     1     140.137 134.243 135.126  1.00  0.00     0.012 C 
ENDROOT
BRANCH   2   7
ATOM      7  C   UNL     1     138.500 138.550 134.406  1.00  0.00     0.012 C 
ATOM      8  C   UNL     1     137.901 139.023 133.070  1.00  0.00     0.012 C 
BRANCH   7   9
ATOM      9  C   UNL     1     139.122 139.756 135.144  1.00  0.00     0.008 CG0
ATOM     10  G   UNL     1     139.298 139.520 136.656  1.00  0.00     0.000 G0
ENDBRANCH   7   9
ENDBRANCH   2   7
BRANCH   1  11
ATOM     11  C   UNL     1     140.249 137.129 136.623  1.00  0.00     0.039 C 
BRANCH  11  12
ATOM     12  C   UNL     1     139.079 138.028 137.069  1.00  0.00     0.018 C 
BRANCH  12  13
ATOM     13  C   UNL     1     139.288 139.503 136.655  1.00  0.00     0.009 CG0
ATOM     14  G   UNL     1     139.133 139.777 135.146  1.00  0.00     0.000 G0
ENDBRANCH  12  13
BRANCH  12  15
ATOM     15  C   UNL     1     138.847 137.928 138.573  1.00  0.00    -0.077 C 
ATOM     16  C   UNL     1     138.625 139.027 139.315  1.00  0.00     0.008 C 
ATOM     17  C   UNL     1     138.877 136.587 139.260  1.00  0.00     0.039 C 
ENDBRANCH  12  15
ENDBRANCH  11  12
ENDBRANCH   1  11
TORSDOF 1
ENDMDL
MODEL 3
REMARK VINA RESULT:    -3.624      4.014      5.305
REMARK INTER + INTRA:          -4.813
REMARK INTER:                  -4.890
REMARK INTRA:                   0.076
REMARK UNBOUND:                 0.082
REMARK SMILES C=C(C)[C@H]1CC[C@@H](C)C2=C(C1)[C@@H](C)CC2
REMARK SMILES IDX 10 1 9 2 15 3 14 4 12 5 13 6 7 7 8 8 6 9 11 11 4 12 5 13
REMARK SMILES IDX 2 15 1 16 3 17
REMARK H PARENT
REMARK Flexibility Score: 80.00
ROOT
ATOM      1  C   UNL     1     136.710 132.507 135.164  1.00  0.00    -0.067 C 
ATOM      2  C   UNL     1     137.372 133.151 134.186  1.00  0.00    -0.068 C 
ATOM      3  C   UNL     1     136.636 133.031 132.886  1.00  0.00     0.032 C 
ATOM      4  C   UNL     1     135.551 131.990 133.142  1.00  0.00     0.012 C 
ATOM      5  C   UNL     1     135.444 131.876 134.666  1.00  0.00     0.012 C 
ATOM      6  C   UNL     1     134.214 132.624 135.198  1.00  0.00     0.012 C 
ENDROOT
BRANCH   2   7
ATOM      7  C   UNL     1     138.560 134.101 134.373  1.00  0.00     0.012 C 
ATOM      8  C   UNL     1     139.056 134.649 133.023  1.00  0.00     0.012 C 
BRANCH   7   9
ATOM      9  C   UNL     1     139.738 133.443 135.124  1.00  0.00     0.008 CG0
ATOM     10  G   UNL     1     139.521 133.360 136.647  1.00  0.00     0.000 G0
ENDBRANCH   7   9
ENDBRANCH   2   7
BRANCH   1  11
ATOM     11  C   UNL     1     137.133 132.388 136.614  1.00  0.00     0.039 C 
BRANCH  11  12
ATOM     12  C   UNL     1     138.019 133.564 137.069  1.00  0.00     0.018 C 
BRANCH  12  13
ATOM     13  C   UNL     1     139.496 133.375 136.649  1.00  0.00     0.009 CG0
ATOM     14  G   UNL     1     139.748 133.448 135.131  1.00  0.00     0.000 G0
ENDBRANCH  12  13
BRANCH  12  15
ATOM     15  C   UNL     1     137.921 133.782 138.575  1.00  0.00    -0.077 C 
ATOM     16  C   UNL     1     139.000 134.128 139.298  1.00  0.00     0.008 C 
ATOM     17  C   UNL     1     136.605 133.597 139.285  1.00  0.00     0.039 C 
ENDBRANCH  12  15
ENDBRANCH  11  12
ENDBRANCH   1  11
TORSDOF 1
ENDMDL
MODEL 4
REMARK VINA RESULT:    -3.624      5.638      6.913
REMARK INTER + INTRA:          -4.813
REMARK INTER:                  -4.893
REMARK INTRA:                   0.080
REMARK UNBOUND:                 0.082
REMARK SMILES C=C(C)[C@H]1CC[C@@H](C)C2=C(C1)[C@@H](C)CC2
REMARK SMILES IDX 10 1 9 2 15 3 14 4 12 5 13 6 7 7 8 8 6 9 11 11 4 12 5 13
REMARK SMILES IDX 2 15 1 16 3 17
REMARK H PARENT
REMARK Flexibility Score: 80.00
ROOT
ATOM      1  C   UNL     1     139.771 136.178 135.914  1.00  0.00    -0.067 C 
ATOM      2  C   UNL     1     139.258 136.839 136.966  1.00  0.00    -0.068 C 
ATOM      3  C   UNL     1     139.545 138.306 136.855  1.00  0.00     0.032 C 
ATOM      4  C   UNL     1     140.545 138.427 135.710  1.00  0.00     0.012 C 
ATOM      5  C   UNL     1     140.462 137.099 134.952  1.00  0.00     0.012 C 
ATOM      6  C   UNL     1     139.652 137.244 133.656  1.00  0.00     0.012 C 
ENDROOT
BRANCH   2   7
ATOM      7  C   UNL     1     138.291 136.267 138.008  1.00  0.00     0.012 C 
ATOM      8  C   UNL     1     137.931 137.318 139.074  1.00  0.00     0.012 C 
BRANCH   7   9
ATOM      9  C   UNL     1     138.841 135.001 138.702  1.00  0.00     0.008 CG0
ATOM     10  G   UNL     1     138.709 133.729 137.843  1.00  0.00     0.000 G0
ENDBRANCH   7   9
ENDBRANCH   2   7
BRANCH   1  11
ATOM     11  C   UNL     1     139.702 134.685 135.664  1.00  0.00     0.039 C 
BRANCH  11  12
ATOM     12  C   UNL     1     138.473 134.032 136.326  1.00  0.00     0.018 C 
BRANCH  12  13
ATOM     13  C   UNL     1     138.710 133.735 137.825  1.00  0.00     0.009 CG0
ATOM     14  G   UNL     1     138.848 134.986 138.715  1.00  0.00     0.000 G0
ENDBRANCH  12  13
BRANCH  12  15
ATOM     15  C   UNL     1     138.061 132.759 135.593  1.00  0.00    -0.077 C 
ATOM     16  C   UNL     1     137.888 131.602 136.256  1.00  0.00     0.008 C 
ATOM     17  C   UNL     1     137.852 132.775 134.101  1.00  0.00     0.039 C 
ENDBRANCH  12  15
ENDBRANCH  11  12
ENDBRANCH   1  11
TORSDOF 1
ENDMDL
MODEL 5
REMARK VINA RESULT:    -3.570      2.265      3.874
REMARK INTER + INTRA:          -4.740
REMARK INTER:                  -4.878
REMARK INTRA:                   0.137
REMARK UNBOUND:                 0.082
REMARK SMILES C=C(C)[C@H]1CC[C@@H](C)C2=C(C1)[C@@H](C)CC2
REMARK SMILES IDX 10 1 9 2 15 3 14 4 12 5 13 6 7 7 8 8 6 9 11 11 4 12 5 13
REMARK SMILES IDX 2 15 1 16 3 17
REMARK H PARENT
REMARK Flexibility Score: 80.00
ROOT
ATOM      1  C   UNL     1     133.204 134.435 137.406  1.00  0.00    -0.067 C 
ATOM      2  C   UNL     1     134.396 133.845 137.214  1.00  0.00    -0.068 C 
ATOM      3  C   UNL     1     134.419 133.122 135.901  1.00  0.00     0.032 C 
ATOM      4  C   UNL     1     132.971 133.127 135.424  1.00  0.00     0.012 C 
ATOM      5  C   UNL     1     132.268 134.202 136.258  1.00  0.00     0.012 C 
ATOM      6  C   UNL     1     132.061 135.491 135.451  1.00  0.00     0.012 C 
ENDROOT
BRANCH   2   7
ATOM      7  C   UNL     1     135.661 134.067 138.051  1.00  0.00     0.012 C 
ATOM      8  C   UNL     1     136.816 133.171 137.570  1.00  0.00     0.012 C 
BRANCH   7   9
ATOM      9  C   UNL     1     135.426 133.835 139.560  1.00  0.00     0.008 CG0
ATOM     10  G   UNL     1     134.743 135.026 140.261  1.00  0.00     0.000 G0
ENDBRANCH   7   9
ENDBRANCH   2   7
BRANCH   1  11
ATOM     11  C   UNL     1     132.784 135.250 138.613  1.00  0.00     0.039 C 
BRANCH  11  12
ATOM     12  C   UNL     1     133.973 135.962 139.288  1.00  0.00     0.018 C 
BRANCH  12  13
ATOM     13  C   UNL     1     134.737 135.027 140.254  1.00  0.00     0.009 CG0
ATOM     14  G   UNL     1     135.430 133.829 139.577  1.00  0.00     0.000 G0
ENDBRANCH  12  13
BRANCH  12  15
ATOM     15  C   UNL     1     133.521 137.223 140.017  1.00  0.00    -0.077 C 
ATOM     16  C   UNL     1     133.652 138.436 139.452  1.00  0.00     0.008 C 
ATOM     17  C   UNL     1     132.930 137.131 141.400  1.00  0.00     0.039 C 
ENDBRANCH  12  15
ENDBRANCH  11  12
ENDBRANCH   1  11
TORSDOF 1
ENDMDL
MODEL 6
REMARK VINA RESULT:    -3.549      2.725      4.308
REMARK INTER + INTRA:          -4.711
REMARK INTER:                  -4.872
REMARK INTRA:                   0.161
REMARK UNBOUND:                 0.082
REMARK SMILES C=C(C)[C@H]1CC[C@@H](C)C2=C(C1)[C@@H](C)CC2
REMARK SMILES IDX 10 1 9 2 15 3 14 4 12 5 13 6 7 7 8 8 6 9 11 11 4 12 5 13
REMARK SMILES IDX 2 15 1 16 3 17
REMARK H PARENT
REMARK Flexibility Score: 80.00
ROOT
ATOM      1  C   UNL     1     133.820 138.493 135.738  1.00  0.00    -0.067 C 
ATOM      2  C   UNL     1     134.845 138.798 134.923  1.00  0.00    -0.068 C 
ATOM      3  C   UNL     1     135.543 140.037 135.397  1.00  0.00     0.032 C 
ATOM      4  C   UNL     1     134.635 140.611 136.480  1.00  0.00     0.012 C 
ATOM      5  C   UNL     1     133.689 139.470 136.868  1.00  0.00     0.012 C 
ATOM      6  C   UNL     1     134.106 138.826 138.198  1.00  0.00     0.012 C 
ENDROOT
BRANCH   2   7
ATOM      7  C   UNL     1     135.420 137.903 133.819  1.00  0.00     0.012 C 
ATOM      8  C   UNL     1     136.481 138.648 132.990  1.00  0.00     0.012 C 
BRANCH   7   9
ATOM      9  C   UNL     1     134.332 137.345 132.877  1.00  0.00     0.008 CG0
ATOM     10  G   UNL     1     133.587 136.127 133.458  1.00  0.00     0.000 G0
ENDBRANCH   7   9
ENDBRANCH   2   7
BRANCH   1  11
ATOM     11  C   UNL     1     132.868 137.323 135.592  1.00  0.00     0.039 C 
BRANCH  11  12
ATOM     12  C   UNL     1     133.551 136.077 134.997  1.00  0.00     0.018 C 
BRANCH  12  13
ATOM     13  C   UNL     1     133.593 136.120 133.451  1.00  0.00     0.009 CG0
ATOM     14  G   UNL     1     134.339 137.332 132.861  1.00  0.00     0.000 G0
ENDBRANCH  12  13
BRANCH  12  15
ATOM     15  C   UNL     1     132.875 134.795 135.472  1.00  0.00    -0.077 C 
ATOM     16  C   UNL     1     131.798 134.836 136.276  1.00  0.00     0.008 C 
ATOM     17  C   UNL     1     133.416 133.451 135.058  1.00  0.00     0.039 C 
ENDBRANCH  12  15
ENDBRANCH  11  12
ENDBRANCH   1  11
TORSDOF 1
ENDMDL
MODEL 7
REMARK VINA RESULT:    -3.527      3.290      5.148
REMARK INTER + INTRA:          -4.682
REMARK INTER:                  -4.765
REMARK INTRA:                   0.082
REMARK UNBOUND:                 0.082
REMARK SMILES C=C(C)[C@H]1CC[C@@H](C)C2=C(C1)[C@@H](C)CC2
REMARK SMILES IDX 10 1 9 2 15 3 14 4 12 5 13 6 7 7 8 8 6 9 11 11 4 12 5 13
REMARK SMILES IDX 2 15 1 16 3 17
REMARK H PARENT
REMARK Flexibility Score: 80.00
ROOT
ATOM      1  C   UNL     1     134.069 135.964 137.441  1.00  0.00    -0.067 C 
ATOM      2  C   UNL     1     135.249 135.360 137.218  1.00  0.00    -0.068 C 
ATOM      3  C   UNL     1     135.109 133.873 137.338  1.00  0.00     0.032 C 
ATOM      4  C   UNL     1     133.722 133.655 137.933  1.00  0.00     0.012 C 
ATOM      5  C   UNL     1     132.978 134.978 137.733  1.00  0.00     0.012 C 
ATOM      6  C   UNL     1     131.989 134.893 136.561  1.00  0.00     0.012 C 
ENDROOT
BRANCH   2   7
ATOM      7  C   UNL     1     136.513 136.024 136.659  1.00  0.00     0.012 C 
ATOM      8  C   UNL     1     137.669 135.015 136.540  1.00  0.00     0.012 C 
BRANCH   7   9
ATOM      9  C   UNL     1     136.973 137.234 137.501  1.00  0.00     0.008 CG0
ATOM     10  G   UNL     1     136.139 138.505 137.249  1.00  0.00     0.000 G0
ENDBRANCH   7   9
ENDBRANCH   2   7
BRANCH   1  11
ATOM     11  C   UNL     1     133.799 137.456 137.420  1.00  0.00     0.039 C 
BRANCH  11  12
ATOM     12  C   UNL     1     134.790 138.222 136.523  1.00  0.00     0.018 C 
BRANCH  12  13
ATOM     13  C   UNL     1     136.131 138.499 137.242  1.00  0.00     0.009 CG0
ATOM     14  G   UNL     1     136.990 137.247 137.506  1.00  0.00     0.000 G0
ENDBRANCH  12  13
BRANCH  12  15
ATOM     15  C   UNL     1     134.183 139.526 136.016  1.00  0.00    -0.077 C 
ATOM     16  C   UNL     1     133.075 139.526 135.254  1.00  0.00     0.008 C 
ATOM     17  C   UNL     1     134.828 140.846 136.351  1.00  0.00     0.039 C 
ENDBRANCH  12  15
ENDBRANCH  11  12
ENDBRANCH   1  11
TORSDOF 1
ENDMDL
MODEL 8
REMARK VINA RESULT:    -3.501      5.431      6.792
REMARK INTER + INTRA:          -4.646
REMARK INTER:                  -4.757
REMARK INTRA:                   0.111
REMARK UNBOUND:                 0.082
REMARK SMILES C=C(C)[C@H]1CC[C@@H](C)C2=C(C1)[C@@H](C)CC2
REMARK SMILES IDX 10 1 9 2 15 3 14 4 12 5 13 6 7 7 8 8 6 9 11 11 4 12 5 13
REMARK SMILES IDX 2 15 1 16 3 17
REMARK H PARENT
REMARK Flexibility Score: 80.00
ROOT
ATOM      1  C   UNL     1     138.516 138.667 135.758  1.00  0.00    -0.067 C 
ATOM      2  C   UNL     1     138.768 137.631 134.939  1.00  0.00    -0.068 C 
ATOM      3  C   UNL     1     140.035 136.939 135.343  1.00  0.00     0.032 C 
ATOM      4  C   UNL     1     140.677 137.862 136.374  1.00  0.00     0.012 C 
ATOM      5  C   UNL     1     139.563 138.813 136.822  1.00  0.00     0.012 C 
ATOM      6  C   UNL     1     139.005 138.415 138.196  1.00  0.00     0.012 C 
ENDROOT
BRANCH   2   7
ATOM      7  C   UNL     1     137.805 137.042 133.904  1.00  0.00     0.012 C 
ATOM      8  C   UNL     1     138.455 135.881 133.131  1.00  0.00     0.012 C 
BRANCH   7   9
ATOM      9  C   UNL     1     137.286 138.097 132.903  1.00  0.00     0.008 CG0
ATOM     10  G   UNL     1     136.162 138.982 133.477  1.00  0.00     0.000 G0
ENDBRANCH   7   9
ENDBRANCH   2   7
BRANCH   1  11
ATOM     11  C   UNL     1     137.339 139.618 135.675  1.00  0.00     0.039 C 
BRANCH  11  12
ATOM     12  C   UNL     1     136.098 138.967 135.033  1.00  0.00     0.018 C 
BRANCH  12  13
ATOM     13  C   UNL     1     136.168 138.980 133.488  1.00  0.00     0.009 CG0
ATOM     14  G   UNL     1     137.279 138.098 132.886  1.00  0.00     0.000 G0
ENDBRANCH  12  13
BRANCH  12  15
ATOM     15  C   UNL     1     134.813 139.635 135.510  1.00  0.00    -0.077 C 
ATOM     16  C   UNL     1     134.848 140.733 136.286  1.00  0.00     0.008 C 
ATOM     17  C   UNL     1     133.472 139.064 135.128  1.00  0.00     0.039 C 
ENDBRANCH  12  15
ENDBRANCH  11  12
ENDBRANCH   1  11
TORSDOF 1
ENDMDL
MODEL 9
REMARK VINA RESULT:    -3.489      2.642      5.021
REMARK INTER + INTRA:          -4.631
REMARK INTER:                  -4.770
REMARK INTRA:                   0.139
REMARK UNBOUND:                 0.082
REMARK SMILES C=C(C)[C@H]1CC[C@@H](C)C2=C(C1)[C@@H](C)CC2
REMARK SMILES IDX 10 1 9 2 15 3 14 4 12 5 13 6 7 7 8 8 6 9 11 11 4 12 5 13
REMARK SMILES IDX 2 15 1 16 3 17
REMARK H PARENT
REMARK Flexibility Score: 80.00
ROOT
ATOM      1  C   UNL     1     136.068 133.023 136.268  1.00  0.00    -0.067 C 
ATOM      2  C   UNL     1     136.870 133.222 137.328  1.00  0.00    -0.068 C 
ATOM      3  C   UNL     1     138.236 132.664 137.066  1.00  0.00     0.032 C 
ATOM      4  C   UNL     1     138.090 131.849 135.786  1.00  0.00     0.012 C 
ATOM      5  C   UNL     1     136.776 132.316 135.151  1.00  0.00     0.012 C 
ATOM      6  C   UNL     1     137.031 133.268 133.974  1.00  0.00     0.012 C 
ENDROOT
BRANCH   2   7
ATOM      7  C   UNL     1     136.565 134.113 138.537  1.00  0.00     0.012 C 
ATOM      8  C   UNL     1     137.705 134.066 139.569  1.00  0.00     0.012 C 
BRANCH   7   9
ATOM      9  C   UNL     1     135.232 133.747 139.227  1.00  0.00     0.008 CG0
ATOM     10  G   UNL     1     133.993 134.282 138.484  1.00  0.00     0.000 G0
ENDBRANCH   7   9
ENDBRANCH   2   7
BRANCH   1  11
ATOM     11  C   UNL     1     134.614 133.431 136.145  1.00  0.00     0.039 C 
BRANCH  11  12
ATOM     12  C   UNL     1     134.272 134.664 137.005  1.00  0.00     0.018 C 
BRANCH  12  13
ATOM     13  C   UNL     1     134.001 134.285 138.481  1.00  0.00     0.009 CG0
ATOM     14  G   UNL     1     135.224 133.736 139.240  1.00  0.00     0.000 G0
ENDBRANCH  12  13
BRANCH  12  15
ATOM     15  C   UNL     1     133.087 135.430 136.429  1.00  0.00    -0.077 C 
ATOM     16  C   UNL     1     131.895 134.835 136.254  1.00  0.00     0.008 C 
ATOM     17  C   UNL     1     133.238 136.875 136.029  1.00  0.00     0.039 C 
ENDBRANCH  12  15
ENDBRANCH  11  12
ENDBRANCH   1  11
TORSDOF 1
ENDMDL
