MODEL 1
REMARK VINA RESULT:    -3.443      0.000      0.000
REMARK INTER + INTRA:          -3.503
REMARK INTER:                  -4.248
REMARK INTRA:                   0.744
REMARK UNBOUND:                 0.744
REMARK SMILES CC1=CC=CC(C)(C)CC1=O
REMARK SMILES IDX 1 1 2 2 3 3 10 4 11 5 9 6 4 8 5 9 6 10 7 11 8 12
REMARK H PARENT
REMARK Flexibility Score: 80.00
ROOT
ATOM      1  C   UNL     1     -34.704  25.759  30.335  1.00  0.00     0.048 C 
ATOM      2  C   UNL     1     -33.473  25.075  30.883  1.00  0.00    -0.008 C 
ATOM      3  C   UNL     1     -32.544  24.655  29.997  1.00  0.00     0.007 C 
ENDROOT
BRANCH   2   4
ATOM      4  C   UNL     1     -33.419  24.852  32.349  1.00  0.00     0.159 C 
ATOM      5  O   UNL     1     -34.463  25.045  33.032  1.00  0.00    -0.295 OA
BRANCH   4   6
ATOM      6  C   UNL     1     -32.183  24.420  33.075  1.00  0.00     0.091 CG0
ATOM      7  G   UNL     1     -31.639  23.055  32.594  1.00  0.00     0.000 G0
ENDBRANCH   4   6
ENDBRANCH   2   4
BRANCH   3   8
ATOM      8  C   UNL     1     -31.266  23.940  30.225  1.00  0.00    -0.003 C 
ATOM      9  C   UNL     1     -30.863  23.255  31.303  1.00  0.00    -0.020 C 
BRANCH   9  10
ATOM     10  C   UNL     1     -31.633  23.069  32.588  1.00  0.00    -0.010 CG0
ATOM     11  C   UNL     1     -30.657  22.550  33.668  1.00  0.00     0.016 C 
ATOM     12  C   UNL     1     -32.737  22.005  32.392  1.00  0.00     0.016 C 
ATOM     13  G   UNL     1     -32.193  24.429  33.061  1.00  0.00     0.000 G0
ENDBRANCH   9  10
ENDBRANCH   3   8
TORSDOF 0
ENDMDL
MODEL 2
REMARK VINA RESULT:    -3.409      1.989      3.114
REMARK INTER + INTRA:          -3.463
REMARK INTER:                  -4.200
REMARK INTRA:                   0.737
REMARK UNBOUND:                 0.744
REMARK SMILES CC1=CC=CC(C)(C)CC1=O
REMARK SMILES IDX 1 1 2 2 3 3 10 4 11 5 9 6 4 8 5 9 6 10 7 11 8 12
REMARK H PARENT
REMARK Flexibility Score: 80.00
ROOT
ATOM      1  C   UNL     1     -30.388  22.746  28.626  1.00  0.00     0.048 C 
ATOM      2  C   UNL     1     -31.302  23.195  29.742  1.00  0.00    -0.008 C 
ATOM      3  C   UNL     1     -31.640  24.502  29.787  1.00  0.00     0.007 C 
ENDROOT
BRANCH   2   4
ATOM      4  C   UNL     1     -31.697  22.174  30.744  1.00  0.00     0.159 C 
ATOM      5  O   UNL     1     -31.096  21.065  30.751  1.00  0.00    -0.295 OA
BRANCH   4   6
ATOM      6  C   UNL     1     -32.786  22.382  31.751  1.00  0.00     0.091 CG0
ATOM      7  G   UNL     1     -32.520  23.572  32.701  1.00  0.00     0.000 G0
ENDBRANCH   4   6
ENDBRANCH   2   4
BRANCH   3   8
ATOM      8  C   UNL     1     -32.483  25.234  30.761  1.00  0.00    -0.003 C 
ATOM      9  C   UNL     1     -32.860  24.870  31.993  1.00  0.00    -0.020 C 
BRANCH   9  10
ATOM     10  C   UNL     1     -32.523  23.572  32.688  1.00  0.00    -0.010 CG0
ATOM     11  C   UNL     1     -33.470  23.409  33.898  1.00  0.00     0.016 C 
ATOM     12  C   UNL     1     -31.072  23.621  33.220  1.00  0.00     0.016 C 
ATOM     13  G   UNL     1     -32.765  22.387  31.726  1.00  0.00     0.000 G0
ENDBRANCH   9  10
ENDBRANCH   3   8
TORSDOF 0
ENDMDL
MODEL 3
REMARK VINA RESULT:    -3.179      1.667      2.590
REMARK INTER + INTRA:          -3.179
REMARK INTER:                  -3.938
REMARK INTRA:                   0.759
REMARK UNBOUND:                 0.744
REMARK SMILES CC1=CC=CC(C)(C)CC1=O
REMARK SMILES IDX 1 1 2 2 3 3 10 4 11 5 9 6 4 8 5 9 6 10 7 11 8 12
REMARK H PARENT
REMARK Flexibility Score: 80.00
ROOT
ATOM      1  C   UNL     1     -34.254  26.170  30.720  1.00  0.00     0.048 C 
ATOM      2  C   UNL     1     -33.942  24.788  31.245  1.00  0.00    -0.008 C 
ATOM      3  C   UNL     1     -34.773  24.270  32.176  1.00  0.00     0.007 C 
ENDROOT
BRANCH   2   4
ATOM      4  C   UNL     1     -32.703  24.141  30.749  1.00  0.00     0.159 C 
ATOM      5  O   UNL     1     -31.876  24.833  30.093  1.00  0.00    -0.295 OA
BRANCH   4   6
ATOM      6  C   UNL     1     -32.378  22.696  30.972  1.00  0.00     0.091 CG0
ATOM      7  G   UNL     1     -32.267  22.319  32.467  1.00  0.00     0.000 G0
ENDBRANCH   4   6
ENDBRANCH   2   4
BRANCH   3   8
ATOM      8  C   UNL     1     -34.712  22.971  32.886  1.00  0.00    -0.003 C 
ATOM      9  C   UNL     1     -33.675  22.138  33.037  1.00  0.00    -0.020 C 
BRANCH   9  10
ATOM     10  C   UNL     1     -32.286  22.324  32.475  1.00  0.00    -0.010 CG0
ATOM     11  C   UNL     1     -31.532  20.980  32.589  1.00  0.00     0.016 C 
ATOM     12  C   UNL     1     -31.516  23.375  33.308  1.00  0.00     0.016 C 
ATOM     13  G   UNL     1     -32.375  22.699  30.979  1.00  0.00     0.000 G0
ENDBRANCH   9  10
ENDBRANCH   3   8
TORSDOF 0
ENDMDL
MODEL 4
REMARK VINA RESULT:    -3.174      1.109      1.201
REMARK INTER + INTRA:          -3.172
REMARK INTER:                  -3.928
REMARK INTRA:                   0.757
REMARK UNBOUND:                 0.744
REMARK SMILES CC1=CC=CC(C)(C)CC1=O
REMARK SMILES IDX 1 1 2 2 3 3 10 4 11 5 9 6 4 8 5 9 6 10 7 11 8 12
REMARK H PARENT
REMARK Flexibility Score: 80.00
ROOT
ATOM      1  C   UNL     1     -34.047  25.651  30.914  1.00  0.00     0.048 C 
ATOM      2  C   UNL     1     -32.808  24.789  30.977  1.00  0.00    -0.008 C 
ATOM      3  C   UNL     1     -32.321  24.306  29.814  1.00  0.00     0.007 C 
ENDROOT
BRANCH   2   4
ATOM      4  C   UNL     1     -32.268  24.480  32.325  1.00  0.00     0.159 C 
ATOM      5  O   UNL     1     -32.971  24.748  33.338  1.00  0.00    -0.295 OA
BRANCH   4   6
ATOM      6  C   UNL     1     -30.918  23.873  32.555  1.00  0.00     0.091 CG0
ATOM      7  G   UNL     1     -30.757  22.480  31.906  1.00  0.00     0.000 G0
ENDBRANCH   4   6
ENDBRANCH   2   4
BRANCH   3   8
ATOM      8  C   UNL     1     -31.156  23.425  29.562  1.00  0.00    -0.003 C 
ATOM      9  C   UNL     1     -30.490  22.642  30.419  1.00  0.00    -0.020 C 
BRANCH   9  10
ATOM     10  C   UNL     1     -30.764  22.490  31.896  1.00  0.00    -0.010 CG0
ATOM     11  C   UNL     1     -29.545  21.800  32.548  1.00  0.00     0.016 C 
ATOM     12  C   UNL     1     -31.998  21.585  32.114  1.00  0.00     0.016 C 
ATOM     13  G   UNL     1     -30.927  23.885  32.542  1.00  0.00     0.000 G0
ENDBRANCH   9  10
ENDBRANCH   3   8
TORSDOF 0
ENDMDL
MODEL 5
REMARK VINA RESULT:    -2.882      8.733      9.454
REMARK INTER + INTRA:          -2.812
REMARK INTER:                  -3.567
REMARK INTRA:                   0.755
REMARK UNBOUND:                 0.744
REMARK SMILES CC1=CC=CC(C)(C)CC1=O
REMARK SMILES IDX 1 1 2 2 3 3 10 4 11 5 9 6 4 8 5 9 6 10 7 11 8 12
REMARK H PARENT
REMARK Flexibility Score: 80.00
ROOT
ATOM      1  C   UNL     1     -34.453  16.569  26.278  1.00  0.00     0.048 C 
ATOM      2  C   UNL     1     -33.444  17.581  25.788  1.00  0.00    -0.008 C 
ATOM      3  C   UNL     1     -33.914  18.678  25.154  1.00  0.00     0.007 C 
ENDROOT
BRANCH   2   4
ATOM      4  C   UNL     1     -32.010  17.252  25.978  1.00  0.00     0.159 C 
ATOM      5  O   UNL     1     -31.697  16.091  26.359  1.00  0.00    -0.295 OA
BRANCH   4   6
ATOM      6  C   UNL     1     -30.900  18.233  25.753  1.00  0.00     0.091 CG0
ATOM      7  G   UNL     1     -30.862  18.792  24.313  1.00  0.00     0.000 G0
ENDBRANCH   4   6
ENDBRANCH   2   4
BRANCH   3   8
ATOM      8  C   UNL     1     -33.182  19.813  24.548  1.00  0.00    -0.003 C 
ATOM      9  C   UNL     1     -31.897  19.889  24.178  1.00  0.00    -0.020 C 
BRANCH   9  10
ATOM     10  C   UNL     1     -30.856  18.805  24.324  1.00  0.00    -0.010 CG0
ATOM     11  C   UNL     1     -29.463  19.437  24.108  1.00  0.00     0.016 C 
ATOM     12  C   UNL     1     -31.064  17.725  23.236  1.00  0.00     0.016 C 
ATOM     13  G   UNL     1     -30.904  18.225  25.755  1.00  0.00     0.000 G0
ENDBRANCH   9  10
ENDBRANCH   3   8
TORSDOF 0
ENDMDL
MODEL 6
REMARK VINA RESULT:    -2.856     10.109     10.958
REMARK INTER + INTRA:          -2.780
REMARK INTER:                  -3.534
REMARK INTRA:                   0.755
REMARK UNBOUND:                 0.744
REMARK SMILES CC1=CC=CC(C)(C)CC1=O
REMARK SMILES IDX 1 1 2 2 3 3 10 4 11 5 9 6 4 8 5 9 6 10 7 11 8 12
REMARK H PARENT
REMARK Flexibility Score: 80.00
ROOT
ATOM      1  C   UNL     1     -33.879  17.602  24.394  1.00  0.00     0.048 C 
ATOM      2  C   UNL     1     -33.827  16.442  25.360  1.00  0.00    -0.008 C 
ATOM      3  C   UNL     1     -34.490  16.572  26.530  1.00  0.00     0.007 C 
ENDROOT
BRANCH   2   4
ATOM      4  C   UNL     1     -32.988  15.280  24.977  1.00  0.00     0.159 C 
ATOM      5  O   UNL     1     -32.199  15.395  23.999  1.00  0.00    -0.295 OA
BRANCH   4   6
ATOM      6  C   UNL     1     -33.031  13.960  25.684  1.00  0.00     0.091 CG0
ATOM      7  G   UNL     1     -32.672  14.059  27.184  1.00  0.00     0.000 G0
ENDBRANCH   4   6
ENDBRANCH   2   4
BRANCH   3   8
ATOM      8  C   UNL     1     -34.600  15.633  27.671  1.00  0.00    -0.003 C 
ATOM      9  C   UNL     1     -33.833  14.578  27.973  1.00  0.00    -0.020 C 
BRANCH   9  10
ATOM     10  C   UNL     1     -32.654  14.068  27.178  1.00  0.00    -0.010 CG0
ATOM     11  C   UNL     1     -32.309  12.647  27.678  1.00  0.00     0.016 C 
ATOM     12  C   UNL     1     -31.424  14.972  27.420  1.00  0.00     0.016 C 
ATOM     13  G   UNL     1     -33.036  13.971  25.683  1.00  0.00     0.000 G0
ENDBRANCH   9  10
ENDBRANCH   3   8
TORSDOF 0
ENDMDL
MODEL 7
REMARK VINA RESULT:    -2.804      9.180     10.171
REMARK INTER + INTRA:          -2.715
REMARK INTER:                  -3.469
REMARK INTRA:                   0.754
REMARK UNBOUND:                 0.744
REMARK SMILES CC1=CC=CC(C)(C)CC1=O
REMARK SMILES IDX 1 1 2 2 3 3 10 4 11 5 9 6 4 8 5 9 6 10 7 11 8 12
REMARK H PARENT
REMARK Flexibility Score: 80.00
ROOT
ATOM      1  C   UNL     1     -30.288  20.061  23.071  1.00  0.00     0.048 C 
ATOM      2  C   UNL     1     -31.365  19.199  23.686  1.00  0.00    -0.008 C 
ATOM      3  C   UNL     1     -32.332  19.817  24.399  1.00  0.00     0.007 C 
ENDROOT
BRANCH   2   4
ATOM      4  C   UNL     1     -31.233  17.730  23.520  1.00  0.00     0.159 C 
ATOM      5  O   UNL     1     -30.147  17.263  23.075  1.00  0.00    -0.295 OA
BRANCH   4   6
ATOM      6  C   UNL     1     -32.327  16.759  23.840  1.00  0.00     0.091 CG0
ATOM      7  G   UNL     1     -32.772  16.808  25.319  1.00  0.00     0.000 G0
ENDBRANCH   4   6
ENDBRANCH   2   4
BRANCH   3   8
ATOM      8  C   UNL     1     -33.486  19.247  25.132  1.00  0.00    -0.003 C 
ATOM      9  C   UNL     1     -33.687  17.989  25.543  1.00  0.00    -0.020 C 
BRANCH   9  10
ATOM     10  C   UNL     1     -32.764  16.815  25.324  1.00  0.00    -0.010 CG0
ATOM     11  C   UNL     1     -33.545  15.518  25.635  1.00  0.00     0.016 C 
ATOM     12  C   UNL     1     -31.567  16.896  26.300  1.00  0.00     0.016 C 
ATOM     13  G   UNL     1     -32.323  16.767  23.844  1.00  0.00     0.000 G0
ENDBRANCH   9  10
ENDBRANCH   3   8
TORSDOF 0
ENDMDL
MODEL 8
REMARK VINA RESULT:    -2.787      7.632      8.929
REMARK INTER + INTRA:          -2.694
REMARK INTER:                  -3.440
REMARK INTRA:                   0.746
REMARK UNBOUND:                 0.744
REMARK SMILES CC1=CC=CC(C)(C)CC1=O
REMARK SMILES IDX 1 1 2 2 3 3 10 4 11 5 9 6 4 8 5 9 6 10 7 11 8 12
REMARK H PARENT
REMARK Flexibility Score: 80.00
ROOT
ATOM      1  C   UNL     1     -28.928  22.208  26.645  1.00  0.00     0.048 C 
ATOM      2  C   UNL     1     -29.388  21.222  25.598  1.00  0.00    -0.008 C 
ATOM      3  C   UNL     1     -29.338  21.610  24.306  1.00  0.00     0.007 C 
ENDROOT
BRANCH   2   4
ATOM      4  C   UNL     1     -29.932  19.928  26.082  1.00  0.00     0.159 C 
ATOM      5  O   UNL     1     -30.159  19.786  27.315  1.00  0.00    -0.295 OA
BRANCH   4   6
ATOM      6  C   UNL     1     -30.218  18.764  25.184  1.00  0.00     0.091 CG0
ATOM      7  G   UNL     1     -31.237  19.089  24.069  1.00  0.00     0.000 G0
ENDBRANCH   4   6
ENDBRANCH   2   4
BRANCH   3   8
ATOM      8  C   UNL     1     -29.740  20.886  23.078  1.00  0.00    -0.003 C 
ATOM      9  C   UNL     1     -30.545  19.823  22.949  1.00  0.00    -0.020 C 
BRANCH   9  10
ATOM     10  C   UNL     1     -31.231  19.077  24.069  1.00  0.00    -0.010 CG0
ATOM     11  C   UNL     1     -31.741  17.729  23.512  1.00  0.00     0.016 C 
ATOM     12  C   UNL     1     -32.454  19.881  24.567  1.00  0.00     0.016 C 
ATOM     13  G   UNL     1     -30.216  18.778  25.195  1.00  0.00     0.000 G0
ENDBRANCH   9  10
ENDBRANCH   3   8
TORSDOF 0
ENDMDL
MODEL 9
REMARK VINA RESULT:    -2.750      8.027      9.181
REMARK INTER + INTRA:          -2.648
REMARK INTER:                  -3.398
REMARK INTRA:                   0.750
REMARK UNBOUND:                 0.744
REMARK SMILES CC1=CC=CC(C)(C)CC1=O
REMARK SMILES IDX 1 1 2 2 3 3 10 4 11 5 9 6 4 8 5 9 6 10 7 11 8 12
REMARK H PARENT
REMARK Flexibility Score: 80.00
ROOT
ATOM      1  C   UNL     1     -28.857  21.557  23.057  1.00  0.00     0.048 C 
ATOM      2  C   UNL     1     -29.833  20.863  23.977  1.00  0.00    -0.008 C 
ATOM      3  C   UNL     1     -29.723  21.101  25.302  1.00  0.00     0.007 C 
ENDROOT
BRANCH   2   4
ATOM      4  C   UNL     1     -30.789  19.913  23.355  1.00  0.00     0.159 C 
ATOM      5  O   UNL     1     -30.623  19.585  22.148  1.00  0.00    -0.295 OA
BRANCH   4   6
ATOM      6  C   UNL     1     -31.960  19.325  24.081  1.00  0.00     0.091 CG0
ATOM      7  G   UNL     1     -31.558  18.525  25.340  1.00  0.00     0.000 G0
ENDBRANCH   4   6
ENDBRANCH   2   4
BRANCH   3   8
ATOM      8  C   UNL     1     -30.506  20.554  26.435  1.00  0.00    -0.003 C 
ATOM      9  C   UNL     1     -31.281  19.463  26.478  1.00  0.00    -0.020 C 
BRANCH   9  10
ATOM     10  C   UNL     1     -31.568  18.521  25.333  1.00  0.00    -0.010 CG0
ATOM     11  C   UNL     1     -32.778  17.641  25.720  1.00  0.00     0.016 C 
ATOM     12  C   UNL     1     -30.356  17.591  25.099  1.00  0.00     0.016 C 
ATOM     13  G   UNL     1     -31.948  19.332  24.074  1.00  0.00     0.000 G0
ENDBRANCH   9  10
ENDBRANCH   3   8
TORSDOF 0
ENDMDL
