MODEL 1
REMARK VINA RESULT:    -4.492      0.000      0.000
REMARK INTER + INTRA:          -7.380
REMARK INTER:                  -6.856
REMARK INTRA:                  -0.524
REMARK UNBOUND:                -0.524
REMARK SMILES CCCCCCCCCCC(=O)[O-]
REMARK SMILES IDX 7 1 8 2 9 3 10 4 11 5 12 6 13 7 6 8 5 9 4 10 3 11 2 12 1 13
REMARK H PARENT
REMARK Flexibility Score: inf
ROOT
ATOM      1  C   UNL     1      29.317  -9.706  15.306  1.00  0.00     0.000 C 
ENDROOT
BRANCH   1   2
ATOM      2  C   UNL     1      27.790  -9.726  15.167  1.00  0.00     0.000 C 
BRANCH   2   3
ATOM      3  C   UNL     1      27.330 -10.929  14.333  1.00  0.00     0.006 C 
BRANCH   3   4
ATOM      4  C   UNL     1      28.377 -12.046  14.359  1.00  0.00     0.053 C 
BRANCH   4   5
ATOM      5  C   UNL     1      27.843 -13.248  15.073  1.00  0.00     0.041 C 
ATOM      6  O   UNL     1      27.297 -13.124  16.201  1.00  0.00    -0.550 OA
ATOM      7  O   UNL     1      27.904 -14.499  14.472  1.00  0.00    -0.550 OA
ENDBRANCH   4   5
ENDBRANCH   3   4
ENDBRANCH   2   3
ENDBRANCH   1   2
BRANCH   1   8
ATOM      8  C   UNL     1      29.946  -8.691  14.342  1.00  0.00     0.000 C 
BRANCH   8   9
ATOM      9  C   UNL     1      30.698  -9.368  13.172  1.00  0.00    -0.000 C 
BRANCH   9  10
ATOM     10  C   UNL     1      31.405  -8.372  12.235  1.00  0.00    -0.000 C 
BRANCH  10  11
ATOM     11  C   UNL     1      30.725  -6.994  12.134  1.00  0.00    -0.000 C 
BRANCH  11  12
ATOM     12  C   UNL     1      31.344  -6.077  11.055  1.00  0.00    -0.003 C 
ATOM     13  C   UNL     1      32.587  -5.336  11.544  1.00  0.00     0.004 C 
ENDBRANCH  11  12
ENDBRANCH  10  11
ENDBRANCH   9  10
ENDBRANCH   8   9
ENDBRANCH   1   8
TORSDOF 9
ENDMDL
MODEL 2
REMARK VINA RESULT:    -4.483      1.234      2.425
REMARK INTER + INTRA:          -7.366
REMARK INTER:                  -6.892
REMARK INTRA:                  -0.474
REMARK UNBOUND:                -0.524
REMARK SMILES CCCCCCCCCCC(=O)[O-]
REMARK SMILES IDX 7 1 8 2 9 3 10 4 11 5 12 6 13 7 6 8 5 9 4 10 3 11 2 12 1 13
REMARK H PARENT
REMARK Flexibility Score: inf
ROOT
ATOM      1  C   UNL     1      30.501  -9.349  13.381  1.00  0.00     0.000 C 
ENDROOT
BRANCH   1   2
ATOM      2  C   UNL     1      29.996  -8.900  14.758  1.00  0.00     0.000 C 
BRANCH   2   3
ATOM      3  C   UNL     1      28.466  -8.980  14.835  1.00  0.00     0.006 C 
BRANCH   3   4
ATOM      4  C   UNL     1      28.024 -10.002  15.887  1.00  0.00     0.053 C 
BRANCH   4   5
ATOM      5  C   UNL     1      27.524 -11.249  15.228  1.00  0.00     0.041 C 
ATOM      6  O   UNL     1      27.375 -11.290  13.979  1.00  0.00    -0.550 OA
ATOM      7  O   UNL     1      27.269 -12.383  15.989  1.00  0.00    -0.550 OA
ENDBRANCH   4   5
ENDBRANCH   3   4
ENDBRANCH   2   3
ENDBRANCH   1   2
BRANCH   1   8
ATOM      8  C   UNL     1      31.371  -8.266  12.731  1.00  0.00     0.000 C 
BRANCH   8   9
ATOM      9  C   UNL     1      30.543  -7.067  12.214  1.00  0.00    -0.000 C 
BRANCH   9  10
ATOM     10  C   UNL     1      31.216  -6.305  11.058  1.00  0.00    -0.000 C 
BRANCH  10  11
ATOM     11  C   UNL     1      32.223  -5.228  11.502  1.00  0.00    -0.000 C 
BRANCH  11  12
ATOM     12  C   UNL     1      33.566  -5.284  10.739  1.00  0.00    -0.003 C 
ATOM     13  C   UNL     1      33.502  -6.151   9.483  1.00  0.00     0.004 C 
ENDBRANCH  11  12
ENDBRANCH  10  11
ENDBRANCH   9  10
ENDBRANCH   8   9
ENDBRANCH   1   8
TORSDOF 9
ENDMDL
MODEL 3
REMARK VINA RESULT:    -4.475      3.035      6.080
REMARK INTER + INTRA:          -7.353
REMARK INTER:                  -6.449
REMARK INTRA:                  -0.904
REMARK UNBOUND:                -0.524
REMARK SMILES CCCCCCCCCCC(=O)[O-]
REMARK SMILES IDX 7 1 8 2 9 3 10 4 11 5 12 6 13 7 6 8 5 9 4 10 3 11 2 12 1 13
REMARK H PARENT
REMARK Flexibility Score: inf
ROOT
ATOM      1  C   UNL     1      27.193 -10.481  15.239  1.00  0.00     0.000 C 
ENDROOT
BRANCH   1   2
ATOM      2  C   UNL     1      28.270  -9.390  15.263  1.00  0.00     0.000 C 
BRANCH   2   3
ATOM      3  C   UNL     1      29.464  -9.778  14.382  1.00  0.00     0.006 C 
BRANCH   3   4
ATOM      4  C   UNL     1      30.246  -8.537  13.941  1.00  0.00     0.053 C 
BRANCH   4   5
ATOM      5  C   UNL     1      31.215  -8.886  12.856  1.00  0.00     0.041 C 
ATOM      6  O   UNL     1      32.353  -8.348  12.825  1.00  0.00    -0.550 OA
ATOM      7  O   UNL     1      30.880  -9.843  11.906  1.00  0.00    -0.550 OA
ENDBRANCH   4   5
ENDBRANCH   3   4
ENDBRANCH   2   3
ENDBRANCH   1   2
BRANCH   1   8
ATOM      8  C   UNL     1      27.148 -11.182  13.874  1.00  0.00     0.000 C 
BRANCH   8   9
ATOM      9  C   UNL     1      26.991 -12.715  13.998  1.00  0.00    -0.000 C 
BRANCH   9  10
ATOM     10  C   UNL     1      27.103 -13.233  15.443  1.00  0.00    -0.000 C 
BRANCH  10  11
ATOM     11  C   UNL     1      28.494 -13.771  15.825  1.00  0.00    -0.000 C 
BRANCH  11  12
ATOM     12  C   UNL     1      29.280 -12.838  16.774  1.00  0.00    -0.003 C 
ATOM     13  C   UNL     1      30.758 -12.720  16.405  1.00  0.00     0.004 C 
ENDBRANCH  11  12
ENDBRANCH  10  11
ENDBRANCH   9  10
ENDBRANCH   8   9
ENDBRANCH   1   8
TORSDOF 9
ENDMDL
MODEL 4
REMARK VINA RESULT:    -4.450      3.187      4.225
REMARK INTER + INTRA:          -7.315
REMARK INTER:                  -6.177
REMARK INTRA:                  -1.138
REMARK UNBOUND:                -0.524
REMARK SMILES CCCCCCCCCCC(=O)[O-]
REMARK SMILES IDX 7 1 8 2 9 3 10 4 11 5 12 6 13 7 6 8 5 9 4 10 3 11 2 12 1 13
REMARK H PARENT
REMARK Flexibility Score: inf
ROOT
ATOM      1  C   UNL     1      27.857 -10.155  15.939  1.00  0.00     0.000 C 
ENDROOT
BRANCH   1   2
ATOM      2  C   UNL     1      28.007 -10.223  14.415  1.00  0.00     0.000 C 
BRANCH   2   3
ATOM      3  C   UNL     1      28.233 -11.666  13.948  1.00  0.00     0.006 C 
BRANCH   3   4
ATOM      4  C   UNL     1      27.251 -12.623  14.630  1.00  0.00     0.053 C 
BRANCH   4   5
ATOM      5  C   UNL     1      27.490 -14.029  14.178  1.00  0.00     0.041 C 
ATOM      6  O   UNL     1      26.902 -14.477  13.160  1.00  0.00    -0.550 OA
ATOM      7  O   UNL     1      28.402 -14.830  14.854  1.00  0.00    -0.550 OA
ENDBRANCH   4   5
ENDBRANCH   3   4
ENDBRANCH   2   3
ENDBRANCH   1   2
BRANCH   1   8
ATOM      8  C   UNL     1      28.649  -8.977  16.521  1.00  0.00     0.000 C 
BRANCH   8   9
ATOM      9  C   UNL     1      30.113  -8.941  16.025  1.00  0.00    -0.000 C 
BRANCH   9  10
ATOM     10  C   UNL     1      31.148  -9.182  17.139  1.00  0.00    -0.000 C 
BRANCH  10  11
ATOM     11  C   UNL     1      31.981 -10.466  16.972  1.00  0.00    -0.000 C 
BRANCH  11  12
ATOM     12  C   UNL     1      31.397 -11.453  15.936  1.00  0.00    -0.003 C 
ATOM     13  C   UNL     1      30.679 -12.637  16.581  1.00  0.00     0.004 C 
ENDBRANCH  11  12
ENDBRANCH  10  11
ENDBRANCH   9  10
ENDBRANCH   8   9
ENDBRANCH   1   8
TORSDOF 9
ENDMDL
MODEL 5
REMARK VINA RESULT:    -4.419      4.471      6.842
REMARK INTER + INTRA:          -7.268
REMARK INTER:                  -6.559
REMARK INTRA:                  -0.709
REMARK UNBOUND:                -0.524
REMARK SMILES CCCCCCCCCCC(=O)[O-]
REMARK SMILES IDX 7 1 8 2 9 3 10 4 11 5 12 6 13 7 6 8 5 9 4 10 3 11 2 12 1 13
REMARK H PARENT
REMARK Flexibility Score: inf
ROOT
ATOM      1  C   UNL     1      31.347  -9.161  12.684  1.00  0.00     0.000 C 
ENDROOT
BRANCH   1   2
ATOM      2  C   UNL     1      30.615  -7.872  13.074  1.00  0.00     0.000 C 
BRANCH   2   3
ATOM      3  C   UNL     1      30.626  -6.863  11.919  1.00  0.00     0.006 C 
BRANCH   3   4
ATOM      4  C   UNL     1      31.675  -7.242  10.870  1.00  0.00     0.053 C 
BRANCH   4   5
ATOM      5  C   UNL     1      32.449  -6.035  10.443  1.00  0.00     0.041 C 
ATOM      6  O   UNL     1      32.712  -5.848   9.226  1.00  0.00    -0.550 OA
ATOM      7  O   UNL     1      32.838  -5.089  11.384  1.00  0.00    -0.550 OA
ENDBRANCH   4   5
ENDBRANCH   3   4
ENDBRANCH   2   3
ENDBRANCH   1   2
BRANCH   1   8
ATOM      8  C   UNL     1      30.362 -10.328  12.522  1.00  0.00     0.000 C 
BRANCH   8   9
ATOM      9  C   UNL     1      29.880 -10.893  13.877  1.00  0.00    -0.000 C 
BRANCH   9  10
ATOM     10  C   UNL     1      28.355 -11.094  13.955  1.00  0.00    -0.000 C 
BRANCH  10  11
ATOM     11  C   UNL     1      27.687 -10.461  15.189  1.00  0.00    -0.000 C 
BRANCH  11  12
ATOM     12  C   UNL     1      28.240  -9.062  15.543  1.00  0.00    -0.003 C 
ATOM     13  C   UNL     1      28.953  -9.027  16.894  1.00  0.00     0.004 C 
ENDBRANCH  11  12
ENDBRANCH  10  11
ENDBRANCH   9  10
ENDBRANCH   8   9
ENDBRANCH   1   8
TORSDOF 9
ENDMDL
MODEL 6
REMARK VINA RESULT:    -4.397      1.000      1.926
REMARK INTER + INTRA:          -7.234
REMARK INTER:                  -6.477
REMARK INTRA:                  -0.758
REMARK UNBOUND:                -0.524
REMARK SMILES CCCCCCCCCCC(=O)[O-]
REMARK SMILES IDX 7 1 8 2 9 3 10 4 11 5 12 6 13 7 6 8 5 9 4 10 3 11 2 12 1 13
REMARK H PARENT
REMARK Flexibility Score: inf
ROOT
ATOM      1  C   UNL     1      28.314  -9.496  16.243  1.00  0.00     0.000 C 
ENDROOT
BRANCH   1   2
ATOM      2  C   UNL     1      27.376 -10.126  15.207  1.00  0.00     0.000 C 
BRANCH   2   3
ATOM      3  C   UNL     1      28.107 -11.196  14.384  1.00  0.00     0.006 C 
BRANCH   3   4
ATOM      4  C   UNL     1      27.266 -12.471  14.273  1.00  0.00     0.053 C 
BRANCH   4   5
ATOM      5  C   UNL     1      27.844 -13.555  15.127  1.00  0.00     0.041 C 
ATOM      6  O   UNL     1      28.171 -14.658  14.615  1.00  0.00    -0.550 OA
ATOM      7  O   UNL     1      28.069 -13.331  16.479  1.00  0.00    -0.550 OA
ENDBRANCH   4   5
ENDBRANCH   3   4
ENDBRANCH   2   3
ENDBRANCH   1   2
BRANCH   1   8
ATOM      8  C   UNL     1      29.690 -10.175  16.229  1.00  0.00     0.000 C 
BRANCH   8   9
ATOM      9  C   UNL     1      30.837  -9.191  15.903  1.00  0.00    -0.000 C 
BRANCH   9  10
ATOM     10  C   UNL     1      31.358  -9.307  14.459  1.00  0.00    -0.000 C 
BRANCH  10  11
ATOM     11  C   UNL     1      30.578  -8.471  13.428  1.00  0.00    -0.000 C 
BRANCH  11  12
ATOM     12  C   UNL     1      31.484  -7.731  12.418  1.00  0.00    -0.003 C 
ATOM     13  C   UNL     1      30.753  -6.626  11.658  1.00  0.00     0.004 C 
ENDBRANCH  11  12
ENDBRANCH  10  11
ENDBRANCH   9  10
ENDBRANCH   8   9
ENDBRANCH   1   8
TORSDOF 9
ENDMDL
MODEL 7
REMARK VINA RESULT:    -4.368      1.619      3.258
REMARK INTER + INTRA:          -7.190
REMARK INTER:                  -6.688
REMARK INTRA:                  -0.502
REMARK UNBOUND:                -0.524
REMARK SMILES CCCCCCCCCCC(=O)[O-]
REMARK SMILES IDX 7 1 8 2 9 3 10 4 11 5 12 6 13 7 6 8 5 9 4 10 3 11 2 12 1 13
REMARK H PARENT
REMARK Flexibility Score: inf
ROOT
ATOM      1  C   UNL     1      31.283  -8.309  12.798  1.00  0.00     0.000 C 
ENDROOT
BRANCH   1   2
ATOM      2  C   UNL     1      30.314  -9.278  13.484  1.00  0.00     0.000 C 
BRANCH   2   3
ATOM      3  C   UNL     1      29.939  -8.781  14.886  1.00  0.00     0.006 C 
BRANCH   3   4
ATOM      4  C   UNL     1      28.457  -9.030  15.178  1.00  0.00     0.053 C 
BRANCH   4   5
ATOM      5  C   UNL     1      28.165 -10.497  15.190  1.00  0.00     0.041 C 
ATOM      6  O   UNL     1      27.326 -10.983  14.387  1.00  0.00    -0.550 OA
ATOM      7  O   UNL     1      28.855 -11.336  16.056  1.00  0.00    -0.550 OA
ENDBRANCH   4   5
ENDBRANCH   3   4
ENDBRANCH   2   3
ENDBRANCH   1   2
BRANCH   1   8
ATOM      8  C   UNL     1      30.544  -7.078  12.258  1.00  0.00     0.000 C 
BRANCH   8   9
ATOM      9  C   UNL     1      31.283  -6.411  11.075  1.00  0.00    -0.000 C 
BRANCH   9  10
ATOM     10  C   UNL     1      32.094  -5.165  11.477  1.00  0.00    -0.000 C 
BRANCH  10  11
ATOM     11  C   UNL     1      33.534  -5.134  10.932  1.00  0.00    -0.000 C 
BRANCH  11  12
ATOM     12  C   UNL     1      34.367  -6.379  11.313  1.00  0.00    -0.003 C 
ATOM     13  C   UNL     1      35.548  -6.616  10.374  1.00  0.00     0.004 C 
ENDBRANCH  11  12
ENDBRANCH  10  11
ENDBRANCH   9  10
ENDBRANCH   8   9
ENDBRANCH   1   8
TORSDOF 9
ENDMDL
MODEL 8
REMARK VINA RESULT:    -4.351      4.145      6.840
REMARK INTER + INTRA:          -7.164
REMARK INTER:                  -6.412
REMARK INTRA:                  -0.752
REMARK UNBOUND:                -0.524
REMARK SMILES CCCCCCCCCCC(=O)[O-]
REMARK SMILES IDX 7 1 8 2 9 3 10 4 11 5 12 6 13 7 6 8 5 9 4 10 3 11 2 12 1 13
REMARK H PARENT
REMARK Flexibility Score: inf
ROOT
ATOM      1  C   UNL     1      30.862  -9.338  14.579  1.00  0.00     0.000 C 
ENDROOT
BRANCH   1   2
ATOM      2  C   UNL     1      30.245  -8.266  13.673  1.00  0.00     0.000 C 
BRANCH   2   3
ATOM      3  C   UNL     1      31.115  -8.028  12.432  1.00  0.00     0.006 C 
BRANCH   3   4
ATOM      4  C   UNL     1      30.698  -6.745  11.708  1.00  0.00     0.053 C 
BRANCH   4   5
ATOM      5  C   UNL     1      31.881  -6.104  11.054  1.00  0.00     0.041 C 
ATOM      6  O   UNL     1      32.225  -6.444   9.892  1.00  0.00    -0.550 OA
ATOM      7  O   UNL     1      32.577  -5.096  11.710  1.00  0.00    -0.550 OA
ENDBRANCH   4   5
ENDBRANCH   3   4
ENDBRANCH   2   3
ENDBRANCH   1   2
BRANCH   1   8
ATOM      8  C   UNL     1      30.127  -9.415  15.924  1.00  0.00     0.000 C 
BRANCH   8   9
ATOM      9  C   UNL     1      28.651  -8.966  15.823  1.00  0.00    -0.000 C 
BRANCH   9  10
ATOM     10  C   UNL     1      27.649 -10.135  15.823  1.00  0.00    -0.000 C 
BRANCH  10  11
ATOM     11  C   UNL     1      27.284 -10.666  14.424  1.00  0.00    -0.000 C 
BRANCH  11  12
ATOM     12  C   UNL     1      28.092 -11.915  14.005  1.00  0.00    -0.003 C 
ATOM     13  C   UNL     1      28.247 -12.931  15.136  1.00  0.00     0.004 C 
ENDBRANCH  11  12
ENDBRANCH  10  11
ENDBRANCH   9  10
ENDBRANCH   8   9
ENDBRANCH   1   8
TORSDOF 9
ENDMDL
MODEL 9
REMARK VINA RESULT:    -4.324      4.279      7.148
REMARK INTER + INTRA:          -7.123
REMARK INTER:                  -6.458
REMARK INTRA:                  -0.664
REMARK UNBOUND:                -0.524
REMARK SMILES CCCCCCCCCCC(=O)[O-]
REMARK SMILES IDX 7 1 8 2 9 3 10 4 11 5 12 6 13 7 6 8 5 9 4 10 3 11 2 12 1 13
REMARK H PARENT
REMARK Flexibility Score: inf
ROOT
ATOM      1  C   UNL     1      30.602  -7.038  12.141  1.00  0.00     0.000 C 
ENDROOT
BRANCH   1   2
ATOM      2  C   UNL     1      31.362  -6.385  10.981  1.00  0.00     0.000 C 
BRANCH   2   3
ATOM      3  C   UNL     1      32.299  -5.282  11.490  1.00  0.00     0.006 C 
BRANCH   3   4
ATOM      4  C   UNL     1      33.613  -5.273  10.702  1.00  0.00     0.053 C 
BRANCH   4   5
ATOM      5  C   UNL     1      34.335  -6.572  10.873  1.00  0.00     0.041 C 
ATOM      6  O   UNL     1      34.692  -6.953  12.018  1.00  0.00    -0.550 OA
ATOM      7  O   UNL     1      34.571  -7.386   9.772  1.00  0.00    -0.550 OA
ENDBRANCH   4   5
ENDBRANCH   3   4
ENDBRANCH   2   3
ENDBRANCH   1   2
BRANCH   1   8
ATOM      8  C   UNL     1      31.399  -8.207  12.736  1.00  0.00     0.000 C 
BRANCH   8   9
ATOM      9  C   UNL     1      30.865  -9.584  12.281  1.00  0.00    -0.000 C 
BRANCH   9  10
ATOM     10  C   UNL     1      30.255 -10.418  13.423  1.00  0.00    -0.000 C 
BRANCH  10  11
ATOM     11  C   UNL     1      30.048  -9.646  14.739  1.00  0.00    -0.000 C 
BRANCH  11  12
ATOM     12  C   UNL     1      28.581  -9.226  14.986  1.00  0.00    -0.003 C 
ATOM     13  C   UNL     1      27.591 -10.373  14.790  1.00  0.00     0.004 C 
ENDBRANCH  11  12
ENDBRANCH  10  11
ENDBRANCH   9  10
ENDBRANCH   8   9
ENDBRANCH   1   8
TORSDOF 9
ENDMDL
