MODEL 1
REMARK VINA RESULT:    -4.611      0.000      0.000
REMARK INTER + INTRA:          -7.112
REMARK INTER:                  -6.768
REMARK INTRA:                  -0.344
REMARK UNBOUND:                -0.344
REMARK SMILES O=C([O-])CCCCCCCC(=O)[O-]
REMARK SMILES IDX 7 1 6 2 5 3 4 4 2 5 1 6 3 7 8 8 9 9 10 10 11 11 12 12 13 13
REMARK H PARENT
REMARK Flexibility Score: inf
ROOT
ATOM      1  C   UNL     1     128.000 142.331 141.352  1.00  0.00     0.000 C 
ENDROOT
BRANCH   1   2
ATOM      2  C   UNL     1     127.681 142.955 139.985  1.00  0.00     0.000 C 
BRANCH   2   3
ATOM      3  C   UNL     1     126.221 143.425 139.876  1.00  0.00     0.006 C 
BRANCH   3   4
ATOM      4  C   UNL     1     126.100 144.946 139.712  1.00  0.00     0.053 C 
BRANCH   4   5
ATOM      5  C   UNL     1     125.885 145.300 138.274  1.00  0.00     0.041 C 
ATOM      6  O   UNL     1     125.820 144.394 137.402  1.00  0.00    -0.550 OA
ATOM      7  O   UNL     1     125.808 146.631 137.889  1.00  0.00    -0.550 OA
ENDBRANCH   4   5
ENDBRANCH   3   4
ENDBRANCH   2   3
ENDBRANCH   1   2
BRANCH   1   8
ATOM      8  C   UNL     1     129.486 142.511 141.701  1.00  0.00     0.000 C 
BRANCH   8   9
ATOM      9  C   UNL     1     130.285 141.204 141.577  1.00  0.00     0.006 C 
BRANCH   9  10
ATOM     10  C   UNL     1     131.627 141.396 140.859  1.00  0.00     0.053 C 
BRANCH  10  11
ATOM     11  C   UNL     1     131.554 140.856 139.466  1.00  0.00     0.041 C 
ATOM     12  O   UNL     1     132.387 139.995 139.075  1.00  0.00    -0.550 OA
ATOM     13  O   UNL     1     130.597 141.338 138.582  1.00  0.00    -0.550 OA
ENDBRANCH  10  11
ENDBRANCH   9  10
ENDBRANCH   8   9
ENDBRANCH   1   8
TORSDOF 8
ENDMDL
MODEL 2
REMARK VINA RESULT:    -4.514      0.617      5.884
REMARK INTER + INTRA:          -6.969
REMARK INTER:                  -6.543
REMARK INTRA:                  -0.427
REMARK UNBOUND:                -0.344
REMARK SMILES O=C([O-])CCCCCCCC(=O)[O-]
REMARK SMILES IDX 7 1 6 2 5 3 4 4 2 5 1 6 3 7 8 8 9 9 10 10 11 11 12 12 13 13
REMARK H PARENT
REMARK Flexibility Score: inf
ROOT
ATOM      1  C   UNL     1     127.599 141.854 141.717  1.00  0.00     0.000 C 
ENDROOT
BRANCH   1   2
ATOM      2  C   UNL     1     129.001 141.354 142.096  1.00  0.00     0.000 C 
BRANCH   2   3
ATOM      3  C   UNL     1     130.121 142.192 141.457  1.00  0.00     0.006 C 
BRANCH   3   4
ATOM      4  C   UNL     1     131.279 141.331 140.936  1.00  0.00     0.053 C 
BRANCH   4   5
ATOM      5  C   UNL     1     131.040 140.943 139.511  1.00  0.00     0.041 C 
ATOM      6  O   UNL     1     131.647 139.959 139.012  1.00  0.00    -0.550 OA
ATOM      7  O   UNL     1     130.185 141.698 138.719  1.00  0.00    -0.550 OA
ENDBRANCH   4   5
ENDBRANCH   3   4
ENDBRANCH   2   3
ENDBRANCH   1   2
BRANCH   1   8
ATOM      8  C   UNL     1     127.685 143.013 140.712  1.00  0.00     0.000 C 
BRANCH   8   9
ATOM      9  C   UNL     1     126.309 143.423 140.162  1.00  0.00     0.006 C 
BRANCH   9  10
ATOM     10  C   UNL     1     126.209 144.927 139.877  1.00  0.00     0.053 C 
BRANCH  10  11
ATOM     11  C   UNL     1     125.940 145.164 138.425  1.00  0.00     0.041 C 
ATOM     12  O   UNL     1     125.981 144.208 137.607  1.00  0.00    -0.550 OA
ATOM     13  O   UNL     1     125.691 146.452 137.965  1.00  0.00    -0.550 OA
ENDBRANCH  10  11
ENDBRANCH   9  10
ENDBRANCH   8   9
ENDBRANCH   1   8
TORSDOF 8
ENDMDL
MODEL 3
REMARK VINA RESULT:    -4.408     11.110     13.814
REMARK INTER + INTRA:          -6.814
REMARK INTER:                  -5.946
REMARK INTRA:                  -0.868
REMARK UNBOUND:                -0.344
REMARK SMILES O=C([O-])CCCCCCCC(=O)[O-]
REMARK SMILES IDX 7 1 6 2 5 3 4 4 2 5 1 6 3 7 8 8 9 9 10 10 11 11 12 12 13 13
REMARK H PARENT
REMARK Flexibility Score: inf
ROOT
ATOM      1  C   UNL     1     140.311 134.822 141.405  1.00  0.00     0.000 C 
ENDROOT
BRANCH   1   2
ATOM      2  C   UNL     1     141.288 134.833 140.219  1.00  0.00     0.000 C 
BRANCH   2   3
ATOM      3  C   UNL     1     140.899 133.827 139.123  1.00  0.00     0.006 C 
BRANCH   3   4
ATOM      4  C   UNL     1     139.621 133.049 139.461  1.00  0.00     0.053 C 
BRANCH   4   5
ATOM      5  C   UNL     1     138.580 133.273 138.409  1.00  0.00     0.041 C 
ATOM      6  O   UNL     1     137.373 133.008 138.646  1.00  0.00    -0.550 OA
ATOM      7  O   UNL     1     138.951 133.728 137.151  1.00  0.00    -0.550 OA
ENDBRANCH   4   5
ENDBRANCH   3   4
ENDBRANCH   2   3
ENDBRANCH   1   2
BRANCH   1   8
ATOM      8  C   UNL     1     140.209 136.216 142.042  1.00  0.00     0.000 C 
BRANCH   8   9
ATOM      9  C   UNL     1     138.846 136.881 141.793  1.00  0.00     0.006 C 
BRANCH   9  10
ATOM     10  C   UNL     1     137.897 135.997 140.974  1.00  0.00     0.053 C 
BRANCH  10  11
ATOM     11  C   UNL     1     137.583 136.644 139.663  1.00  0.00     0.041 C 
ATOM     12  O   UNL     1     136.422 137.070 139.427  1.00  0.00    -0.550 OA
ATOM     13  O   UNL     1     138.561 136.735 138.681  1.00  0.00    -0.550 OA
ENDBRANCH  10  11
ENDBRANCH   9  10
ENDBRANCH   8   9
ENDBRANCH   1   8
TORSDOF 8
ENDMDL
MODEL 4
REMARK VINA RESULT:    -4.382      1.639      6.267
REMARK INTER + INTRA:          -6.776
REMARK INTER:                  -6.397
REMARK INTRA:                  -0.379
REMARK UNBOUND:                -0.344
REMARK SMILES O=C([O-])CCCCCCCC(=O)[O-]
REMARK SMILES IDX 7 1 6 2 5 3 4 4 2 5 1 6 3 7 8 8 9 9 10 10 11 11 12 12 13 13
REMARK H PARENT
REMARK Flexibility Score: inf
ROOT
ATOM      1  C   UNL     1     128.433 142.139 139.498  1.00  0.00     0.000 C 
ENDROOT
BRANCH   1   2
ATOM      2  C   UNL     1     129.788 141.572 139.949  1.00  0.00     0.000 C 
BRANCH   2   3
ATOM      3  C   UNL     1     130.765 141.369 138.778  1.00  0.00     0.006 C 
BRANCH   3   4
ATOM      4  C   UNL     1     131.267 139.923 138.672  1.00  0.00     0.053 C 
BRANCH   4   5
ATOM      5  C   UNL     1     130.144 139.008 138.297  1.00  0.00     0.041 C 
ATOM      6  O   UNL     1     129.676 139.025 137.128  1.00  0.00    -0.550 OA
ATOM      7  O   UNL     1     129.581 138.171 139.251  1.00  0.00    -0.550 OA
ENDBRANCH   4   5
ENDBRANCH   3   4
ENDBRANCH   2   3
ENDBRANCH   1   2
BRANCH   1   8
ATOM      8  C   UNL     1     127.768 142.934 140.632  1.00  0.00     0.000 C 
BRANCH   8   9
ATOM      9  C   UNL     1     126.352 143.409 140.269  1.00  0.00     0.006 C 
BRANCH   9  10
ATOM     10  C   UNL     1     126.292 144.911 139.964  1.00  0.00     0.053 C 
BRANCH  10  11
ATOM     11  C   UNL     1     126.008 145.137 138.513  1.00  0.00     0.041 C 
ATOM     12  O   UNL     1     125.690 146.283 138.099  1.00  0.00    -0.550 OA
ATOM     13  O   UNL     1     126.048 144.071 137.622  1.00  0.00    -0.550 OA
ENDBRANCH  10  11
ENDBRANCH   9  10
ENDBRANCH   8   9
ENDBRANCH   1   8
TORSDOF 8
ENDMDL
MODEL 5
REMARK VINA RESULT:    -4.378      1.418      1.889
REMARK INTER + INTRA:          -6.769
REMARK INTER:                  -6.480
REMARK INTRA:                  -0.289
REMARK UNBOUND:                -0.344
REMARK SMILES O=C([O-])CCCCCCCC(=O)[O-]
REMARK SMILES IDX 7 1 6 2 5 3 4 4 2 5 1 6 3 7 8 8 9 9 10 10 11 11 12 12 13 13
REMARK H PARENT
REMARK Flexibility Score: inf
ROOT
ATOM      1  C   UNL     1     128.309 142.390 139.183  1.00  0.00     0.000 C 
ENDROOT
BRANCH   1   2
ATOM      2  C   UNL     1     127.550 142.936 140.402  1.00  0.00     0.000 C 
BRANCH   2   3
ATOM      3  C   UNL     1     126.163 143.489 140.036  1.00  0.00     0.006 C 
BRANCH   3   4
ATOM      4  C   UNL     1     126.171 145.008 139.818  1.00  0.00     0.053 C 
BRANCH   4   5
ATOM      5  C   UNL     1     125.934 145.328 138.376  1.00  0.00     0.041 C 
ATOM      6  O   UNL     1     125.751 146.520 138.014  1.00  0.00    -0.550 OA
ATOM      7  O   UNL     1     125.865 144.307 137.439  1.00  0.00    -0.550 OA
ENDBRANCH   4   5
ENDBRANCH   3   4
ENDBRANCH   2   3
ENDBRANCH   1   2
BRANCH   1   8
ATOM      8  C   UNL     1     129.336 141.329 139.608  1.00  0.00     0.000 C 
BRANCH   8   9
ATOM      9  C   UNL     1     130.615 141.368 138.755  1.00  0.00     0.006 C 
BRANCH   9  10
ATOM     10  C   UNL     1     131.783 140.617 139.406  1.00  0.00     0.053 C 
BRANCH  10  11
ATOM     11  C   UNL     1     131.779 139.182 138.985  1.00  0.00     0.041 C 
ATOM     12  O   UNL     1     132.184 138.288 139.775  1.00  0.00    -0.550 OA
ATOM     13  O   UNL     1     131.372 138.834 137.703  1.00  0.00    -0.550 OA
ENDBRANCH  10  11
ENDBRANCH   9  10
ENDBRANCH   8   9
ENDBRANCH   1   8
TORSDOF 8
ENDMDL
MODEL 6
REMARK VINA RESULT:    -4.341      9.640     13.416
REMARK INTER + INTRA:          -6.716
REMARK INTER:                  -6.097
REMARK INTRA:                  -0.619
REMARK UNBOUND:                -0.344
REMARK SMILES O=C([O-])CCCCCCCC(=O)[O-]
REMARK SMILES IDX 7 1 6 2 5 3 4 4 2 5 1 6 3 7 8 8 9 9 10 10 11 11 12 12 13 13
REMARK H PARENT
REMARK Flexibility Score: inf
ROOT
ATOM      1  C   UNL     1     140.342 136.108 140.664  1.00  0.00     0.000 C 
ENDROOT
BRANCH   1   2
ATOM      2  C   UNL     1     141.111 134.817 140.340  1.00  0.00     0.000 C 
BRANCH   2   3
ATOM      3  C   UNL     1     140.536 134.075 139.122  1.00  0.00     0.006 C 
BRANCH   3   4
ATOM      4  C   UNL     1     139.734 132.828 139.514  1.00  0.00     0.053 C 
BRANCH   4   5
ATOM      5  C   UNL     1     138.270 133.137 139.538  1.00  0.00     0.041 C 
ATOM      6  O   UNL     1     137.730 133.562 140.593  1.00  0.00    -0.550 OA
ATOM      7  O   UNL     1     137.492 132.907 138.411  1.00  0.00    -0.550 OA
ENDBRANCH   4   5
ENDBRANCH   3   4
ENDBRANCH   2   3
ENDBRANCH   1   2
BRANCH   1   8
ATOM      8  C   UNL     1     139.661 136.668 139.405  1.00  0.00     0.000 C 
BRANCH   8   9
ATOM      9  C   UNL     1     138.192 137.052 139.649  1.00  0.00     0.006 C 
BRANCH   9  10
ATOM     10  C   UNL     1     137.989 137.802 140.972  1.00  0.00     0.053 C 
BRANCH  10  11
ATOM     11  C   UNL     1     136.779 138.678 140.894  1.00  0.00     0.041 C 
ATOM     12  O   UNL     1     135.870 138.432 140.058  1.00  0.00    -0.550 OA
ATOM     13  O   UNL     1     136.676 139.796 141.712  1.00  0.00    -0.550 OA
ENDBRANCH  10  11
ENDBRANCH   9  10
ENDBRANCH   8   9
ENDBRANCH   1   8
TORSDOF 8
ENDMDL
MODEL 7
REMARK VINA RESULT:    -4.337      1.241      6.205
REMARK INTER + INTRA:          -6.710
REMARK INTER:                  -6.389
REMARK INTRA:                  -0.321
REMARK UNBOUND:                -0.344
REMARK SMILES O=C([O-])CCCCCCCC(=O)[O-]
REMARK SMILES IDX 7 1 6 2 5 3 4 4 2 5 1 6 3 7 8 8 9 9 10 10 11 11 12 12 13 13
REMARK H PARENT
REMARK Flexibility Score: inf
ROOT
ATOM      1  C   UNL     1     128.918 142.086 140.102  1.00  0.00     0.000 C 
ENDROOT
BRANCH   1   2
ATOM      2  C   UNL     1     130.178 141.775 140.924  1.00  0.00     0.000 C 
BRANCH   2   3
ATOM      3  C   UNL     1     131.325 141.220 140.062  1.00  0.00     0.006 C 
BRANCH   3   4
ATOM      4  C   UNL     1     130.961 141.143 138.574  1.00  0.00     0.053 C 
BRANCH   4   5
ATOM      5  C   UNL     1     130.930 139.719 138.118  1.00  0.00     0.041 C 
ATOM      6  O   UNL     1     131.148 138.787 138.936  1.00  0.00    -0.550 OA
ATOM      7  O   UNL     1     130.710 139.421 136.779  1.00  0.00    -0.550 OA
ENDBRANCH   4   5
ENDBRANCH   3   4
ENDBRANCH   2   3
ENDBRANCH   1   2
BRANCH   1   8
ATOM      8  C   UNL     1     127.991 143.046 140.865  1.00  0.00     0.000 C 
BRANCH   8   9
ATOM      9  C   UNL     1     126.666 143.297 140.129  1.00  0.00     0.006 C 
BRANCH   9  10
ATOM     10  C   UNL     1     126.372 144.790 139.932  1.00  0.00     0.053 C 
BRANCH  10  11
ATOM     11  C   UNL     1     126.098 145.082 138.491  1.00  0.00     0.041 C 
ATOM     12  O   UNL     1     125.841 146.258 138.120  1.00  0.00    -0.550 OA
ATOM     13  O   UNL     1     126.079 144.048 137.563  1.00  0.00    -0.550 OA
ENDBRANCH  10  11
ENDBRANCH   9  10
ENDBRANCH   8   9
ENDBRANCH   1   8
TORSDOF 8
ENDMDL
MODEL 8
REMARK VINA RESULT:    -4.283     11.155     13.200
REMARK INTER + INTRA:          -6.630
REMARK INTER:                  -5.877
REMARK INTRA:                  -0.753
REMARK UNBOUND:                -0.344
REMARK SMILES O=C([O-])CCCCCCCC(=O)[O-]
REMARK SMILES IDX 7 1 6 2 5 3 4 4 2 5 1 6 3 7 8 8 9 9 10 10 11 11 12 12 13 13
REMARK H PARENT
REMARK Flexibility Score: inf
ROOT
ATOM      1  C   UNL     1     140.733 135.040 141.586  1.00  0.00     0.000 C 
ENDROOT
BRANCH   1   2
ATOM      2  C   UNL     1     139.375 135.535 142.107  1.00  0.00     0.000 C 
BRANCH   2   3
ATOM      3  C   UNL     1     139.053 136.969 141.654  1.00  0.00     0.006 C 
BRANCH   3   4
ATOM      4  C   UNL     1     137.567 137.167 141.331  1.00  0.00     0.053 C 
BRANCH   4   5
ATOM      5  C   UNL     1     137.220 136.493 140.041  1.00  0.00     0.041 C 
ATOM      6  O   UNL     1     137.852 136.775 138.989  1.00  0.00    -0.550 OA
ATOM      7  O   UNL     1     136.167 135.590 139.989  1.00  0.00    -0.550 OA
ENDBRANCH   4   5
ENDBRANCH   3   4
ENDBRANCH   2   3
ENDBRANCH   1   2
BRANCH   1   8
ATOM      8  C   UNL     1     140.837 135.231 140.065  1.00  0.00     0.000 C 
BRANCH   8   9
ATOM      9  C   UNL     1     140.882 133.897 139.304  1.00  0.00     0.006 C 
BRANCH   9  10
ATOM     10  C   UNL     1     139.603 133.069 139.485  1.00  0.00     0.053 C 
BRANCH  10  11
ATOM     11  C   UNL     1     138.641 133.347 138.374  1.00  0.00     0.041 C 
ATOM     12  O   UNL     1     137.438 132.987 138.472  1.00  0.00    -0.550 OA
ATOM     13  O   UNL     1     139.082 133.961 137.209  1.00  0.00    -0.550 OA
ENDBRANCH  10  11
ENDBRANCH   9  10
ENDBRANCH   8   9
ENDBRANCH   1   8
TORSDOF 8
ENDMDL
MODEL 9
REMARK VINA RESULT:    -4.233     10.156     12.828
REMARK INTER + INTRA:          -6.556
REMARK INTER:                  -5.848
REMARK INTRA:                  -0.708
REMARK UNBOUND:                -0.344
REMARK SMILES O=C([O-])CCCCCCCC(=O)[O-]
REMARK SMILES IDX 7 1 6 2 5 3 4 4 2 5 1 6 3 7 8 8 9 9 10 10 11 11 12 12 13 13
REMARK H PARENT
REMARK Flexibility Score: inf
ROOT
ATOM      1  C   UNL     1     140.438 134.800 141.605  1.00  0.00     0.000 C 
ENDROOT
BRANCH   1   2
ATOM      2  C   UNL     1     139.992 136.238 141.912  1.00  0.00     0.000 C 
BRANCH   2   3
ATOM      3  C   UNL     1     138.494 136.462 141.645  1.00  0.00     0.006 C 
BRANCH   3   4
ATOM      4  C   UNL     1     138.212 137.799 140.947  1.00  0.00     0.053 C 
BRANCH   4   5
ATOM      5  C   UNL     1     137.008 137.684 140.067  1.00  0.00     0.041 C 
ATOM      6  O   UNL     1     136.451 138.720 139.617  1.00  0.00    -0.550 OA
ATOM      7  O   UNL     1     136.470 136.436 139.784  1.00  0.00    -0.550 OA
ENDBRANCH   4   5
ENDBRANCH   3   4
ENDBRANCH   2   3
ENDBRANCH   1   2
BRANCH   1   8
ATOM      8  C   UNL     1     139.227 133.905 141.301  1.00  0.00     0.000 C 
BRANCH   8   9
ATOM      9  C   UNL     1     139.430 133.041 140.045  1.00  0.00     0.006 C 
BRANCH   9  10
ATOM     10  C   UNL     1     140.415 133.667 139.049  1.00  0.00     0.053 C 
BRANCH  10  11
ATOM     11  C   UNL     1     139.678 134.455 138.013  1.00  0.00     0.041 C 
ATOM     12  O   UNL     1     139.323 133.909 136.935  1.00  0.00    -0.550 OA
ATOM     13  O   UNL     1     139.425 135.806 138.216  1.00  0.00    -0.550 OA
ENDBRANCH  10  11
ENDBRANCH   9  10
ENDBRANCH   8   9
ENDBRANCH   1   8
TORSDOF 8
ENDMDL
