MODEL 1
REMARK VINA RESULT:    -3.812      0.000      0.000
REMARK INTER + INTRA:          -5.066
REMARK INTER:                  -4.926
REMARK INTRA:                  -0.140
REMARK UNBOUND:                -0.140
REMARK SMILES CCCCCCC=O
REMARK SMILES IDX 4 1 3 2 2 3 1 4 5 5 6 6 7 7 8 8
REMARK H PARENT
REMARK Flexibility Score: inf
ROOT
ATOM      1  C   UNL     1      25.113  58.042  -8.708  1.00  0.00     0.000 C 
ENDROOT
BRANCH   1   2
ATOM      2  C   UNL     1      26.096  59.136  -9.157  1.00  0.00    -0.000 C 
BRANCH   2   3
ATOM      3  C   UNL     1      27.052  58.658 -10.261  1.00  0.00    -0.003 C 
ATOM      4  C   UNL     1      28.058  59.747 -10.623  1.00  0.00     0.004 C 
ENDBRANCH   2   3
ENDBRANCH   1   2
BRANCH   1   5
ATOM      5  C   UNL     1      25.594  56.597  -8.947  1.00  0.00     0.008 C 
BRANCH   5   6
ATOM      6  C   UNL     1      25.143  55.603  -7.861  1.00  0.00     0.072 C 
BRANCH   6   7
ATOM      7  C   UNL     1      23.712  55.176  -8.021  1.00  0.00     0.224 C 
ATOM      8  O   UNL     1      22.995  55.075  -7.039  1.00  0.00    -0.303 OA
ENDBRANCH   6   7
ENDBRANCH   5   6
ENDBRANCH   1   5
TORSDOF 5
ENDMDL
MODEL 2
REMARK VINA RESULT:    -3.740      0.695      1.487
REMARK INTER + INTRA:          -4.973
REMARK INTER:                  -4.840
REMARK INTRA:                  -0.133
REMARK UNBOUND:                -0.140
REMARK SMILES CCCCCCC=O
REMARK SMILES IDX 4 1 3 2 2 3 1 4 5 5 6 6 7 7 8 8
REMARK H PARENT
REMARK Flexibility Score: inf
ROOT
ATOM      1  C   UNL     1      25.888  56.633  -8.556  1.00  0.00     0.000 C 
ENDROOT
BRANCH   1   2
ATOM      2  C   UNL     1      25.141  57.961  -8.766  1.00  0.00    -0.000 C 
BRANCH   2   3
ATOM      3  C   UNL     1      26.079  59.116  -9.145  1.00  0.00    -0.003 C 
ATOM      4  C   UNL     1      27.072  58.685 -10.220  1.00  0.00     0.004 C 
ENDBRANCH   2   3
ENDBRANCH   1   2
BRANCH   1   5
ATOM      5  C   UNL     1      25.040  55.499  -7.947  1.00  0.00     0.008 C 
BRANCH   5   6
ATOM      6  C   UNL     1      23.525  55.672  -8.161  1.00  0.00     0.072 C 
BRANCH   6   7
ATOM      7  C   UNL     1      22.707  54.757  -7.295  1.00  0.00     0.224 C 
ATOM      8  O   UNL     1      22.850  54.779  -6.084  1.00  0.00    -0.303 OA
ENDBRANCH   6   7
ENDBRANCH   5   6
ENDBRANCH   1   5
TORSDOF 5
ENDMDL
MODEL 3
REMARK VINA RESULT:    -3.618      3.089      5.421
REMARK INTER + INTRA:          -4.815
REMARK INTER:                  -4.761
REMARK INTRA:                  -0.054
REMARK UNBOUND:                -0.140
REMARK SMILES CCCCCCC=O
REMARK SMILES IDX 4 1 3 2 2 3 1 4 5 5 6 6 7 7 8 8
REMARK H PARENT
REMARK Flexibility Score: inf
ROOT
ATOM      1  C   UNL     1      25.795  57.005  -8.716  1.00  0.00     0.000 C 
ENDROOT
BRANCH   1   2
ATOM      2  C   UNL     1      24.368  56.438  -8.814  1.00  0.00    -0.000 C 
BRANCH   2   3
ATOM      3  C   UNL     1      24.209  55.102  -8.074  1.00  0.00    -0.003 C 
ATOM      4  C   UNL     1      22.849  55.015  -7.386  1.00  0.00     0.004 C 
ENDBRANCH   2   3
ENDBRANCH   1   2
BRANCH   1   5
ATOM      5  C   UNL     1      25.936  58.484  -9.128  1.00  0.00     0.008 C 
BRANCH   5   6
ATOM      6  C   UNL     1      27.018  58.732 -10.196  1.00  0.00     0.072 C 
BRANCH   6   7
ATOM      7  C   UNL     1      27.923  59.880  -9.851  1.00  0.00     0.224 C 
ATOM      8  O   UNL     1      28.157  60.740 -10.684  1.00  0.00    -0.303 OA
ENDBRANCH   6   7
ENDBRANCH   5   6
ENDBRANCH   1   5
TORSDOF 5
ENDMDL
MODEL 4
REMARK VINA RESULT:    -3.472     17.641     18.602
REMARK INTER + INTRA:          -4.627
REMARK INTER:                  -4.434
REMARK INTRA:                  -0.193
REMARK UNBOUND:                -0.140
REMARK SMILES CCCCCCC=O
REMARK SMILES IDX 4 1 3 2 2 3 1 4 5 5 6 6 7 7 8 8
REMARK H PARENT
REMARK Flexibility Score: inf
ROOT
ATOM      1  C   UNL     1      17.475  43.601   1.589  1.00  0.00     0.000 C 
ENDROOT
BRANCH   1   2
ATOM      2  C   UNL     1      16.253  44.345   2.152  1.00  0.00    -0.000 C 
BRANCH   2   3
ATOM      3  C   UNL     1      15.437  45.056   1.062  1.00  0.00    -0.003 C 
ATOM      4  C   UNL     1      16.295  45.338  -0.168  1.00  0.00     0.004 C 
ENDBRANCH   2   3
ENDBRANCH   1   2
BRANCH   1   5
ATOM      5  C   UNL     1      18.744  43.679   2.462  1.00  0.00     0.008 C 
BRANCH   5   6
ATOM      6  C   UNL     1      19.990  44.175   1.706  1.00  0.00     0.072 C 
BRANCH   6   7
ATOM      7  C   UNL     1      20.936  43.063   1.353  1.00  0.00     0.224 C 
ATOM      8  O   UNL     1      20.910  42.575   0.235  1.00  0.00    -0.303 OA
ENDBRANCH   6   7
ENDBRANCH   5   6
ENDBRANCH   1   5
TORSDOF 5
ENDMDL
MODEL 5
REMARK VINA RESULT:    -3.445      2.450      5.272
REMARK INTER + INTRA:          -4.592
REMARK INTER:                  -4.483
REMARK INTRA:                  -0.109
REMARK UNBOUND:                -0.140
REMARK SMILES CCCCCCC=O
REMARK SMILES IDX 4 1 3 2 2 3 1 4 5 5 6 6 7 7 8 8
REMARK H PARENT
REMARK Flexibility Score: inf
ROOT
ATOM      1  C   UNL     1      24.913  55.222  -8.098  1.00  0.00     0.000 C 
ENDROOT
BRANCH   1   2
ATOM      2  C   UNL     1      23.472  55.591  -7.707  1.00  0.00    -0.000 C 
BRANCH   2   3
ATOM      3  C   UNL     1      22.684  54.396  -7.151  1.00  0.00    -0.003 C 
ATOM      4  C   UNL     1      22.531  54.497  -5.636  1.00  0.00     0.004 C 
ENDBRANCH   2   3
ENDBRANCH   1   2
BRANCH   1   5
ATOM      5  C   UNL     1      25.864  56.421  -8.283  1.00  0.00     0.008 C 
BRANCH   5   6
ATOM      6  C   UNL     1      25.154  57.717  -8.716  1.00  0.00     0.072 C 
BRANCH   6   7
ATOM      7  C   UNL     1      26.114  58.805  -9.104  1.00  0.00     0.224 C 
ATOM      8  O   UNL     1      26.905  58.621 -10.015  1.00  0.00    -0.303 OA
ENDBRANCH   6   7
ENDBRANCH   5   6
ENDBRANCH   1   5
TORSDOF 5
ENDMDL
MODEL 6
REMARK VINA RESULT:    -3.386     16.938     18.707
REMARK INTER + INTRA:          -4.516
REMARK INTER:                  -4.217
REMARK INTRA:                  -0.298
REMARK UNBOUND:                -0.140
REMARK SMILES CCCCCCC=O
REMARK SMILES IDX 4 1 3 2 2 3 1 4 5 5 6 6 7 7 8 8
REMARK H PARENT
REMARK Flexibility Score: inf
ROOT
ATOM      1  C   UNL     1      18.097  42.591   1.989  1.00  0.00     0.000 C 
ENDROOT
BRANCH   1   2
ATOM      2  C   UNL     1      18.882  43.788   2.553  1.00  0.00    -0.000 C 
BRANCH   2   3
ATOM      3  C   UNL     1      20.053  44.207   1.652  1.00  0.00    -0.003 C 
ATOM      4  C   UNL     1      19.550  44.790   0.334  1.00  0.00     0.004 C 
ENDBRANCH   2   3
ENDBRANCH   1   2
BRANCH   1   5
ATOM      5  C   UNL     1      16.600  42.857   1.737  1.00  0.00     0.008 C 
BRANCH   5   6
ATOM      6  C   UNL     1      16.155  44.290   2.081  1.00  0.00     0.072 C 
BRANCH   6   7
ATOM      7  C   UNL     1      15.662  45.050   0.883  1.00  0.00     0.224 C 
ATOM      8  O   UNL     1      14.724  45.821   0.997  1.00  0.00    -0.303 OA
ENDBRANCH   6   7
ENDBRANCH   5   6
ENDBRANCH   1   5
TORSDOF 5
ENDMDL
MODEL 7
REMARK VINA RESULT:    -3.311      5.787      7.497
REMARK INTER + INTRA:          -4.418
REMARK INTER:                  -4.154
REMARK INTRA:                  -0.264
REMARK UNBOUND:                -0.140
REMARK SMILES CCCCCCC=O
REMARK SMILES IDX 4 1 3 2 2 3 1 4 5 5 6 6 7 7 8 8
REMARK H PARENT
REMARK Flexibility Score: inf
ROOT
ATOM      1  C   UNL     1      31.135  56.450 -13.449  1.00  0.00     0.000 C 
ENDROOT
BRANCH   1   2
ATOM      2  C   UNL     1      32.375  56.688 -12.570  1.00  0.00    -0.000 C 
BRANCH   2   3
ATOM      3  C   UNL     1      33.671  56.786 -13.387  1.00  0.00    -0.003 C 
ATOM      4  C   UNL     1      33.729  58.096 -14.168  1.00  0.00     0.004 C 
ENDBRANCH   2   3
ENDBRANCH   1   2
BRANCH   1   5
ATOM      5  C   UNL     1      29.946  57.389 -13.164  1.00  0.00     0.008 C 
BRANCH   5   6
ATOM      6  C   UNL     1      30.363  58.814 -12.755  1.00  0.00     0.072 C 
BRANCH   6   7
ATOM      7  C   UNL     1      29.751  59.248 -11.454  1.00  0.00     0.224 C 
ATOM      8  O   UNL     1      28.627  58.875 -11.157  1.00  0.00    -0.303 OA
ENDBRANCH   6   7
ENDBRANCH   5   6
ENDBRANCH   1   5
TORSDOF 5
ENDMDL
MODEL 8
REMARK VINA RESULT:    -3.275      3.469      5.362
REMARK INTER + INTRA:          -4.372
REMARK INTER:                  -4.283
REMARK INTRA:                  -0.089
REMARK UNBOUND:                -0.140
REMARK SMILES CCCCCCC=O
REMARK SMILES IDX 4 1 3 2 2 3 1 4 5 5 6 6 7 7 8 8
REMARK H PARENT
REMARK Flexibility Score: inf
ROOT
ATOM      1  C   UNL     1      30.274  59.140 -11.361  1.00  0.00     0.000 C 
ENDROOT
BRANCH   1   2
ATOM      2  C   UNL     1      30.118  58.395 -12.698  1.00  0.00    -0.000 C 
BRANCH   2   3
ATOM      3  C   UNL     1      31.390  57.638 -13.107  1.00  0.00    -0.003 C 
ATOM      4  C   UNL     1      31.066  56.205 -13.519  1.00  0.00     0.004 C 
ENDBRANCH   2   3
ENDBRANCH   1   2
BRANCH   1   5
ATOM      5  C   UNL     1      29.002  59.854 -10.863  1.00  0.00     0.008 C 
BRANCH   5   6
ATOM      6  C   UNL     1      27.767  58.938 -10.778  1.00  0.00     0.072 C 
BRANCH   6   7
ATOM      7  C   UNL     1      26.829  59.326  -9.671  1.00  0.00     0.224 C 
ATOM      8  O   UNL     1      26.115  58.482  -9.156  1.00  0.00    -0.303 OA
ENDBRANCH   6   7
ENDBRANCH   5   6
ENDBRANCH   1   5
TORSDOF 5
ENDMDL
MODEL 9
REMARK VINA RESULT:    -3.227     15.391     16.952
REMARK INTER + INTRA:          -4.310
REMARK INTER:                  -4.219
REMARK INTRA:                  -0.090
REMARK UNBOUND:                -0.140
REMARK SMILES CCCCCCC=O
REMARK SMILES IDX 4 1 3 2 2 3 1 4 5 5 6 6 7 7 8 8
REMARK H PARENT
REMARK Flexibility Score: inf
ROOT
ATOM      1  C   UNL     1      31.877  45.477   1.154  1.00  0.00     0.000 C 
ENDROOT
BRANCH   1   2
ATOM      2  C   UNL     1      30.356  45.321   1.324  1.00  0.00    -0.000 C 
BRANCH   2   3
ATOM      3  C   UNL     1      29.690  44.648   0.115  1.00  0.00    -0.003 C 
ATOM      4  C   UNL     1      28.440  45.409  -0.316  1.00  0.00     0.004 C 
ENDBRANCH   2   3
ENDBRANCH   1   2
BRANCH   1   5
ATOM      5  C   UNL     1      32.667  45.618   2.470  1.00  0.00     0.008 C 
BRANCH   5   6
ATOM      6  C   UNL     1      33.035  47.071   2.823  1.00  0.00     0.072 C 
BRANCH   6   7
ATOM      7  C   UNL     1      32.142  47.657   3.879  1.00  0.00     0.224 C 
ATOM      8  O   UNL     1      31.897  48.852   3.873  1.00  0.00    -0.303 OA
ENDBRANCH   6   7
ENDBRANCH   5   6
ENDBRANCH   1   5
TORSDOF 5
ENDMDL
