MODEL 1
REMARK VINA RESULT:    -4.152      0.000      0.000
REMARK INTER + INTRA:          -9.755
REMARK INTER:                  -7.549
REMARK INTRA:                  -2.205
REMARK UNBOUND:                -2.205
REMARK SMILES CCCCCCCCCCCCCC[C@@H](C)C(=O)[O-]
REMARK SMILES IDX 9 1 10 2 11 3 12 4 13 5 14 6 15 7 16 8 17 9 18 10 19 11 8 12
REMARK SMILES IDX 7 13 6 14 5 15 4 16 3 17 2 18 1 19
REMARK H PARENT
REMARK Flexibility Score: inf
ROOT
ATOM      1  C   UNL     1     -27.397  67.100  84.405  1.00  0.00     0.000 C 
ENDROOT
BRANCH   1   2
ATOM      2  C   UNL     1     -28.527  67.247  83.374  1.00  0.00     0.000 C 
BRANCH   2   3
ATOM      3  C   UNL     1     -28.101  66.798  81.965  1.00  0.00     0.000 C 
BRANCH   3   4
ATOM      4  C   UNL     1     -28.247  65.281  81.762  1.00  0.00     0.000 C 
BRANCH   4   5
ATOM      5  C   UNL     1     -29.509  64.715  82.437  1.00  0.00     0.001 C 
BRANCH   5   6
ATOM      6  C   UNL     1     -29.395  63.217  82.782  1.00  0.00     0.009 C 
BRANCH   6   7
ATOM      7  C   UNL     1     -28.592  62.929  84.073  1.00  0.00     0.032 C 
ATOM      8  C   UNL     1     -29.525  62.881  85.288  1.00  0.00     0.014 C 
BRANCH   7   9
ATOM      9  C   UNL     1     -27.833  61.633  83.984  1.00  0.00     0.044 C 
ATOM     10  O   UNL     1     -28.188  60.748  83.162  1.00  0.00    -0.550 OA
ATOM     11  O   UNL     1     -26.713  61.419  84.779  1.00  0.00    -0.550 OA
ENDBRANCH   7   9
ENDBRANCH   6   7
ENDBRANCH   5   6
ENDBRANCH   4   5
ENDBRANCH   3   4
ENDBRANCH   2   3
ENDBRANCH   1   2
BRANCH   1  12
ATOM     12  C   UNL     1     -27.726  66.070  85.499  1.00  0.00     0.000 C 
BRANCH  12  13
ATOM     13  C   UNL     1     -28.298  66.721  86.769  1.00  0.00    -0.000 C 
BRANCH  13  14
ATOM     14  C   UNL     1     -28.086  68.244  86.797  1.00  0.00    -0.000 C 
BRANCH  14  15
ATOM     15  C   UNL     1     -29.374  69.012  87.132  1.00  0.00    -0.000 C 
BRANCH  15  16
ATOM     16  C   UNL     1     -30.506  68.733  86.126  1.00  0.00    -0.000 C 
BRANCH  16  17
ATOM     17  C   UNL     1     -31.776  68.194  86.801  1.00  0.00    -0.000 C 
BRANCH  17  18
ATOM     18  C   UNL     1     -32.043  66.719  86.463  1.00  0.00    -0.003 C 
ATOM     19  C   UNL     1     -31.440  66.349  85.111  1.00  0.00     0.004 C 
ENDBRANCH  17  18
ENDBRANCH  16  17
ENDBRANCH  15  16
ENDBRANCH  14  15
ENDBRANCH  13  14
ENDBRANCH  12  13
ENDBRANCH   1  12
TORSDOF 14
ENDMDL
MODEL 2
REMARK VINA RESULT:    -4.098      2.716      5.876
REMARK INTER + INTRA:          -9.657
REMARK INTER:                  -8.076
REMARK INTRA:                  -1.582
REMARK UNBOUND:                -2.205
REMARK SMILES CCCCCCCCCCCCCC[C@@H](C)C(=O)[O-]
REMARK SMILES IDX 9 1 10 2 11 3 12 4 13 5 14 6 15 7 16 8 17 9 18 10 19 11 8 12
REMARK SMILES IDX 7 13 6 14 5 15 4 16 3 17 2 18 1 19
REMARK H PARENT
REMARK Flexibility Score: inf
ROOT
ATOM      1  C   UNL     1     -28.995  63.530  84.459  1.00  0.00     0.000 C 
ENDROOT
BRANCH   1   2
ATOM      2  C   UNL     1     -30.170  63.422  85.442  1.00  0.00     0.000 C 
BRANCH   2   3
ATOM      3  C   UNL     1     -30.390  64.717  86.243  1.00  0.00     0.000 C 
BRANCH   3   4
ATOM      4  C   UNL     1     -30.899  65.871  85.366  1.00  0.00     0.000 C 
BRANCH   4   5
ATOM      5  C   UNL     1     -32.083  66.619  86.004  1.00  0.00     0.001 C 
BRANCH   5   6
ATOM      6  C   UNL     1     -31.649  67.803  86.890  1.00  0.00     0.009 C 
BRANCH   6   7
ATOM      7  C   UNL     1     -30.405  68.559  86.366  1.00  0.00     0.032 C 
ATOM      8  C   UNL     1     -30.726  70.043  86.154  1.00  0.00     0.014 C 
BRANCH   7   9
ATOM      9  C   UNL     1     -29.237  68.438  87.305  1.00  0.00     0.044 C 
ATOM     10  O   UNL     1     -28.810  69.451  87.917  1.00  0.00    -0.550 OA
ATOM     11  O   UNL     1     -28.644  67.201  87.534  1.00  0.00    -0.550 OA
ENDBRANCH   7   9
ENDBRANCH   6   7
ENDBRANCH   5   6
ENDBRANCH   4   5
ENDBRANCH   3   4
ENDBRANCH   2   3
ENDBRANCH   1   2
BRANCH   1  12
ATOM     12  C   UNL     1     -29.436  63.383  82.993  1.00  0.00     0.000 C 
BRANCH  12  13
ATOM     13  C   UNL     1     -29.575  64.738  82.280  1.00  0.00    -0.000 C 
BRANCH  13  14
ATOM     14  C   UNL     1     -28.214  65.397  81.996  1.00  0.00    -0.000 C 
BRANCH  14  15
ATOM     15  C   UNL     1     -28.238  66.917  82.221  1.00  0.00    -0.000 C 
BRANCH  15  16
ATOM     16  C   UNL     1     -28.331  67.290  83.712  1.00  0.00    -0.000 C 
BRANCH  16  17
ATOM     17  C   UNL     1     -27.415  66.429  84.595  1.00  0.00    -0.000 C 
BRANCH  17  18
ATOM     18  C   UNL     1     -26.201  67.208  85.121  1.00  0.00    -0.003 C 
ATOM     19  C   UNL     1     -26.535  68.685  85.306  1.00  0.00     0.004 C 
ENDBRANCH  17  18
ENDBRANCH  16  17
ENDBRANCH  15  16
ENDBRANCH  14  15
ENDBRANCH  13  14
ENDBRANCH  12  13
ENDBRANCH   1  12
TORSDOF 14
ENDMDL
MODEL 3
REMARK VINA RESULT:    -4.084      2.865      4.470
REMARK INTER + INTRA:          -9.632
REMARK INTER:                  -7.530
REMARK INTRA:                  -2.102
REMARK UNBOUND:                -2.205
REMARK SMILES CCCCCCCCCCCCCC[C@@H](C)C(=O)[O-]
REMARK SMILES IDX 9 1 10 2 11 3 12 4 13 5 14 6 15 7 16 8 17 9 18 10 19 11 8 12
REMARK SMILES IDX 7 13 6 14 5 15 4 16 3 17 2 18 1 19
REMARK H PARENT
REMARK Flexibility Score: inf
ROOT
ATOM      1  C   UNL     1     -29.014  63.317  83.400  1.00  0.00     0.000 C 
ENDROOT
BRANCH   1   2
ATOM      2  C   UNL     1     -29.471  64.478  82.503  1.00  0.00     0.000 C 
BRANCH   2   3
ATOM      3  C   UNL     1     -28.309  65.106  81.713  1.00  0.00     0.000 C 
BRANCH   3   4
ATOM      4  C   UNL     1     -28.182  66.618  81.957  1.00  0.00     0.000 C 
BRANCH   4   5
ATOM      5  C   UNL     1     -29.006  67.091  83.166  1.00  0.00     0.001 C 
BRANCH   5   6
ATOM      6  C   UNL     1     -28.208  67.987  84.134  1.00  0.00     0.009 C 
BRANCH   6   7
ATOM      7  C   UNL     1     -27.882  67.315  85.489  1.00  0.00     0.032 C 
ATOM      8  C   UNL     1     -26.805  66.239  85.312  1.00  0.00     0.014 C 
BRANCH   7   9
ATOM      9  C   UNL     1     -27.415  68.314  86.513  1.00  0.00     0.044 C 
ATOM     10  O   UNL     1     -28.060  68.470  87.582  1.00  0.00    -0.550 OA
ATOM     11  O   UNL     1     -26.249  69.041  86.305  1.00  0.00    -0.550 OA
ENDBRANCH   7   9
ENDBRANCH   6   7
ENDBRANCH   5   6
ENDBRANCH   4   5
ENDBRANCH   3   4
ENDBRANCH   2   3
ENDBRANCH   1   2
BRANCH   1  12
ATOM     12  C   UNL     1     -28.949  63.709  84.885  1.00  0.00     0.000 C 
BRANCH  12  13
ATOM     13  C   UNL     1     -30.340  63.949  85.493  1.00  0.00    -0.000 C 
BRANCH  13  14
ATOM     14  C   UNL     1     -30.472  65.342  86.132  1.00  0.00    -0.000 C 
BRANCH  14  15
ATOM     15  C   UNL     1     -31.544  66.206  85.448  1.00  0.00    -0.000 C 
BRANCH  15  16
ATOM     16  C   UNL     1     -32.361  67.036  86.454  1.00  0.00    -0.000 C 
BRANCH  16  17
ATOM     17  C   UNL     1     -31.578  68.239  87.000  1.00  0.00    -0.000 C 
BRANCH  17  18
ATOM     18  C   UNL     1     -30.938  69.081  85.886  1.00  0.00    -0.003 C 
ATOM     19  C   UNL     1     -31.078  70.573  86.177  1.00  0.00     0.004 C 
ENDBRANCH  17  18
ENDBRANCH  16  17
ENDBRANCH  15  16
ENDBRANCH  14  15
ENDBRANCH  13  14
ENDBRANCH  12  13
ENDBRANCH   1  12
TORSDOF 14
ENDMDL
MODEL 4
REMARK VINA RESULT:    -4.013      1.986      5.493
REMARK INTER + INTRA:          -9.503
REMARK INTER:                  -7.984
REMARK INTRA:                  -1.520
REMARK UNBOUND:                -2.205
REMARK SMILES CCCCCCCCCCCCCC[C@@H](C)C(=O)[O-]
REMARK SMILES IDX 9 1 10 2 11 3 12 4 13 5 14 6 15 7 16 8 17 9 18 10 19 11 8 12
REMARK SMILES IDX 7 13 6 14 5 15 4 16 3 17 2 18 1 19
REMARK H PARENT
REMARK Flexibility Score: inf
ROOT
ATOM      1  C   UNL     1     -27.509  66.449  84.390  1.00  0.00     0.000 C 
ENDROOT
BRANCH   1   2
ATOM      2  C   UNL     1     -26.449  67.265  85.146  1.00  0.00     0.000 C 
BRANCH   2   3
ATOM      3  C   UNL     1     -27.030  68.540  85.782  1.00  0.00     0.000 C 
BRANCH   3   4
ATOM      4  C   UNL     1     -28.101  68.233  86.840  1.00  0.00     0.000 C 
BRANCH   4   5
ATOM      5  C   UNL     1     -29.331  69.150  86.717  1.00  0.00     0.001 C 
BRANCH   5   6
ATOM      6  C   UNL     1     -30.495  68.505  85.939  1.00  0.00     0.009 C 
BRANCH   6   7
ATOM      7  C   UNL     1     -31.073  67.236  86.609  1.00  0.00     0.032 C 
ATOM      8  C   UNL     1     -32.574  67.401  86.872  1.00  0.00     0.014 C 
BRANCH   7   9
ATOM      9  C   UNL     1     -30.853  66.008  85.768  1.00  0.00     0.044 C 
ATOM     10  O   UNL     1     -31.190  66.004  84.555  1.00  0.00    -0.550 OA
ATOM     11  O   UNL     1     -30.243  64.884  86.311  1.00  0.00    -0.550 OA
ENDBRANCH   7   9
ENDBRANCH   6   7
ENDBRANCH   5   6
ENDBRANCH   4   5
ENDBRANCH   3   4
ENDBRANCH   2   3
ENDBRANCH   1   2
BRANCH   1  12
ATOM     12  C   UNL     1     -28.323  67.306  83.406  1.00  0.00     0.000 C 
BRANCH  12  13
ATOM     13  C   UNL     1     -28.234  66.789  81.961  1.00  0.00    -0.000 C 
BRANCH  13  14
ATOM     14  C   UNL     1     -28.179  65.254  81.887  1.00  0.00    -0.000 C 
BRANCH  14  15
ATOM     15  C   UNL     1     -29.576  64.614  81.873  1.00  0.00    -0.000 C 
BRANCH  15  16
ATOM     16  C   UNL     1     -29.669  63.381  82.791  1.00  0.00    -0.000 C 
BRANCH  16  17
ATOM     17  C   UNL     1     -28.599  63.385  83.894  1.00  0.00    -0.000 C 
BRANCH  17  18
ATOM     18  C   UNL     1     -28.452  62.018  84.578  1.00  0.00    -0.003 C 
ATOM     19  C   UNL     1     -27.456  61.135  83.829  1.00  0.00     0.004 C 
ENDBRANCH  17  18
ENDBRANCH  16  17
ENDBRANCH  15  16
ENDBRANCH  14  15
ENDBRANCH  13  14
ENDBRANCH  12  13
ENDBRANCH   1  12
TORSDOF 14
ENDMDL
MODEL 5
REMARK VINA RESULT:    -3.970      0.683      1.708
REMARK INTER + INTRA:          -9.424
REMARK INTER:                  -7.936
REMARK INTRA:                  -1.488
REMARK UNBOUND:                -2.205
REMARK SMILES CCCCCCCCCCCCCC[C@@H](C)C(=O)[O-]
REMARK SMILES IDX 9 1 10 2 11 3 12 4 13 5 14 6 15 7 16 8 17 9 18 10 19 11 8 12
REMARK SMILES IDX 7 13 6 14 5 15 4 16 3 17 2 18 1 19
REMARK H PARENT
REMARK Flexibility Score: inf
ROOT
ATOM      1  C   UNL     1     -27.777  67.443  84.410  1.00  0.00     0.000 C 
ENDROOT
BRANCH   1   2
ATOM      2  C   UNL     1     -28.736  67.244  83.226  1.00  0.00     0.000 C 
BRANCH   2   3
ATOM      3  C   UNL     1     -28.023  66.700  81.976  1.00  0.00     0.000 C 
BRANCH   3   4
ATOM      4  C   UNL     1     -28.215  65.185  81.803  1.00  0.00     0.000 C 
BRANCH   4   5
ATOM      5  C   UNL     1     -29.493  64.671  82.487  1.00  0.00     0.001 C 
BRANCH   5   6
ATOM      6  C   UNL     1     -29.433  63.172  82.842  1.00  0.00     0.009 C 
BRANCH   6   7
ATOM      7  C   UNL     1     -28.610  62.859  84.114  1.00  0.00     0.032 C 
ATOM      8  C   UNL     1     -29.531  62.721  85.331  1.00  0.00     0.014 C 
BRANCH   7   9
ATOM      9  C   UNL     1     -27.801  61.600  83.964  1.00  0.00     0.044 C 
ATOM     10  O   UNL     1     -28.123  60.741  83.103  1.00  0.00    -0.550 OA
ATOM     11  O   UNL     1     -26.671  61.392  84.747  1.00  0.00    -0.550 OA
ENDBRANCH   7   9
ENDBRANCH   6   7
ENDBRANCH   5   6
ENDBRANCH   4   5
ENDBRANCH   3   4
ENDBRANCH   2   3
ENDBRANCH   1   2
BRANCH   1  12
ATOM     12  C   UNL     1     -27.692  66.201  85.315  1.00  0.00     0.000 C 
BRANCH  12  13
ATOM     13  C   UNL     1     -28.518  66.352  86.602  1.00  0.00    -0.000 C 
BRANCH  13  14
ATOM     14  C   UNL     1     -29.850  65.586  86.542  1.00  0.00    -0.000 C 
BRANCH  14  15
ATOM     15  C   UNL     1     -30.828  66.185  85.518  1.00  0.00    -0.000 C 
BRANCH  15  16
ATOM     16  C   UNL     1     -31.995  66.935  86.187  1.00  0.00    -0.000 C 
BRANCH  16  17
ATOM     17  C   UNL     1     -31.526  68.158  86.991  1.00  0.00    -0.000 C 
BRANCH  17  18
ATOM     18  C   UNL     1     -30.594  69.073  86.183  1.00  0.00    -0.003 C 
ATOM     19  C   UNL     1     -31.115  70.507  86.164  1.00  0.00     0.004 C 
ENDBRANCH  17  18
ENDBRANCH  16  17
ENDBRANCH  15  16
ENDBRANCH  14  15
ENDBRANCH  13  14
ENDBRANCH  12  13
ENDBRANCH   1  12
TORSDOF 14
ENDMDL
MODEL 6
REMARK VINA RESULT:    -3.962      3.192      5.907
REMARK INTER + INTRA:          -9.410
REMARK INTER:                  -7.497
REMARK INTRA:                  -1.913
REMARK UNBOUND:                -2.205
REMARK SMILES CCCCCCCCCCCCCC[C@@H](C)C(=O)[O-]
REMARK SMILES IDX 9 1 10 2 11 3 12 4 13 5 14 6 15 7 16 8 17 9 18 10 19 11 8 12
REMARK SMILES IDX 7 13 6 14 5 15 4 16 3 17 2 18 1 19
REMARK H PARENT
REMARK Flexibility Score: inf
ROOT
ATOM      1  C   UNL     1     -30.021  65.512  82.908  1.00  0.00     0.000 C 
ENDROOT
BRANCH   1   2
ATOM      2  C   UNL     1     -28.579  65.898  82.544  1.00  0.00     0.000 C 
BRANCH   2   3
ATOM      3  C   UNL     1     -28.013  66.994  83.463  1.00  0.00     0.000 C 
BRANCH   3   4
ATOM      4  C   UNL     1     -27.188  66.419  84.626  1.00  0.00     0.000 C 
BRANCH   4   5
ATOM      5  C   UNL     1     -26.842  67.480  85.685  1.00  0.00     0.001 C 
BRANCH   5   6
ATOM      6  C   UNL     1     -27.887  68.609  85.780  1.00  0.00     0.009 C 
BRANCH   6   7
ATOM      7  C   UNL     1     -28.894  68.437  86.942  1.00  0.00     0.032 C 
ATOM      8  C   UNL     1     -28.301  68.968  88.252  1.00  0.00     0.014 C 
BRANCH   7   9
ATOM      9  C   UNL     1     -30.193  69.144  86.668  1.00  0.00     0.044 C 
ATOM     10  O   UNL     1     -31.278  68.507  86.701  1.00  0.00    -0.550 OA
ATOM     11  O   UNL     1     -30.210  70.511  86.416  1.00  0.00    -0.550 OA
ENDBRANCH   7   9
ENDBRANCH   6   7
ENDBRANCH   5   6
ENDBRANCH   4   5
ENDBRANCH   3   4
ENDBRANCH   2   3
ENDBRANCH   1   2
BRANCH   1  12
ATOM     12  C   UNL     1     -30.648  66.471  83.934  1.00  0.00     0.000 C 
BRANCH  12  13
ATOM     13  C   UNL     1     -31.209  65.736  85.162  1.00  0.00    -0.000 C 
BRANCH  13  14
ATOM     14  C   UNL     1     -30.105  65.285  86.134  1.00  0.00    -0.000 C 
BRANCH  14  15
ATOM     15  C   UNL     1     -30.229  63.802  86.518  1.00  0.00    -0.000 C 
BRANCH  15  16
ATOM     16  C   UNL     1     -30.008  62.862  85.319  1.00  0.00    -0.000 C 
BRANCH  16  17
ATOM     17  C   UNL     1     -28.600  62.993  84.719  1.00  0.00    -0.000 C 
BRANCH  17  18
ATOM     18  C   UNL     1     -28.237  61.815  83.803  1.00  0.00    -0.003 C 
ATOM     19  C   UNL     1     -27.068  61.016  84.374  1.00  0.00     0.004 C 
ENDBRANCH  17  18
ENDBRANCH  16  17
ENDBRANCH  15  16
ENDBRANCH  14  15
ENDBRANCH  13  14
ENDBRANCH  12  13
ENDBRANCH   1  12
TORSDOF 14
ENDMDL
MODEL 7
REMARK VINA RESULT:    -3.955      1.737      4.691
REMARK INTER + INTRA:          -9.397
REMARK INTER:                  -7.376
REMARK INTRA:                  -2.021
REMARK UNBOUND:                -2.205
REMARK SMILES CCCCCCCCCCCCCC[C@@H](C)C(=O)[O-]
REMARK SMILES IDX 9 1 10 2 11 3 12 4 13 5 14 6 15 7 16 8 17 9 18 10 19 11 8 12
REMARK SMILES IDX 7 13 6 14 5 15 4 16 3 17 2 18 1 19
REMARK H PARENT
REMARK Flexibility Score: inf
ROOT
ATOM      1  C   UNL     1     -30.646  68.759  86.038  1.00  0.00     0.000 C 
ENDROOT
BRANCH   1   2
ATOM      2  C   UNL     1     -29.477  69.309  86.871  1.00  0.00     0.000 C 
BRANCH   2   3
ATOM      3  C   UNL     1     -28.333  68.292  87.025  1.00  0.00     0.000 C 
BRANCH   3   4
ATOM      4  C   UNL     1     -27.494  68.153  85.745  1.00  0.00     0.000 C 
BRANCH   4   5
ATOM      5  C   UNL     1     -27.198  66.686  85.390  1.00  0.00     0.001 C 
BRANCH   5   6
ATOM      6  C   UNL     1     -27.224  66.409  83.874  1.00  0.00     0.009 C 
BRANCH   6   7
ATOM      7  C   UNL     1     -28.648  66.276  83.284  1.00  0.00     0.032 C 
ATOM      8  C   UNL     1     -29.178  67.645  82.842  1.00  0.00     0.014 C 
BRANCH   7   9
ATOM      9  C   UNL     1     -28.685  65.334  82.112  1.00  0.00     0.044 C 
ATOM     10  O   UNL     1     -27.804  65.406  81.215  1.00  0.00    -0.550 OA
ATOM     11  O   UNL     1     -29.666  64.353  82.029  1.00  0.00    -0.550 OA
ENDBRANCH   7   9
ENDBRANCH   6   7
ENDBRANCH   5   6
ENDBRANCH   4   5
ENDBRANCH   3   4
ENDBRANCH   2   3
ENDBRANCH   1   2
BRANCH   1  12
ATOM     12  C   UNL     1     -31.631  67.930  86.879  1.00  0.00     0.000 C 
BRANCH  12  13
ATOM     13  C   UNL     1     -32.182  66.716  86.114  1.00  0.00    -0.000 C 
BRANCH  13  14
ATOM     14  C   UNL     1     -31.076  65.912  85.408  1.00  0.00    -0.000 C 
BRANCH  14  15
ATOM     15  C   UNL     1     -30.159  65.176  86.398  1.00  0.00    -0.000 C 
BRANCH  15  16
ATOM     16  C   UNL     1     -30.446  63.665  86.455  1.00  0.00    -0.000 C 
BRANCH  16  17
ATOM     17  C   UNL     1     -30.025  62.936  85.169  1.00  0.00    -0.000 C 
BRANCH  17  18
ATOM     18  C   UNL     1     -28.516  63.034  84.902  1.00  0.00    -0.003 C 
ATOM     19  C   UNL     1     -28.021  61.831  84.105  1.00  0.00     0.004 C 
ENDBRANCH  17  18
ENDBRANCH  16  17
ENDBRANCH  15  16
ENDBRANCH  14  15
ENDBRANCH  13  14
ENDBRANCH  12  13
ENDBRANCH   1  12
TORSDOF 14
ENDMDL
MODEL 8
REMARK VINA RESULT:    -3.883      3.083      6.041
REMARK INTER + INTRA:          -9.266
REMARK INTER:                  -7.627
REMARK INTRA:                  -1.639
REMARK UNBOUND:                -2.205
REMARK SMILES CCCCCCCCCCCCCC[C@@H](C)C(=O)[O-]
REMARK SMILES IDX 9 1 10 2 11 3 12 4 13 5 14 6 15 7 16 8 17 9 18 10 19 11 8 12
REMARK SMILES IDX 7 13 6 14 5 15 4 16 3 17 2 18 1 19
REMARK H PARENT
REMARK Flexibility Score: inf
ROOT
ATOM      1  C   UNL     1     -27.568  67.496  84.305  1.00  0.00     0.000 C 
ENDROOT
BRANCH   1   2
ATOM      2  C   UNL     1     -27.293  66.235  85.141  1.00  0.00     0.000 C 
BRANCH   2   3
ATOM      3  C   UNL     1     -28.126  66.193  86.434  1.00  0.00     0.000 C 
BRANCH   3   4
ATOM      4  C   UNL     1     -29.205  65.100  86.403  1.00  0.00     0.000 C 
BRANCH   4   5
ATOM      5  C   UNL     1     -30.630  65.678  86.426  1.00  0.00     0.001 C 
BRANCH   5   6
ATOM      6  C   UNL     1     -30.839  66.824  85.417  1.00  0.00     0.009 C 
BRANCH   6   7
ATOM      7  C   UNL     1     -31.545  68.065  86.012  1.00  0.00     0.032 C 
ATOM      8  C   UNL     1     -32.352  67.681  87.257  1.00  0.00     0.014 C 
BRANCH   7   9
ATOM      9  C   UNL     1     -30.566  69.148  86.376  1.00  0.00     0.044 C 
ATOM     10  O   UNL     1     -29.450  68.848  86.874  1.00  0.00    -0.550 OA
ATOM     11  O   UNL     1     -30.870  70.482  86.131  1.00  0.00    -0.550 OA
ENDBRANCH   7   9
ENDBRANCH   6   7
ENDBRANCH   5   6
ENDBRANCH   4   5
ENDBRANCH   3   4
ENDBRANCH   2   3
ENDBRANCH   1   2
BRANCH   1  12
ATOM     12  C   UNL     1     -28.587  67.247  83.180  1.00  0.00     0.000 C 
BRANCH  12  13
ATOM     13  C   UNL     1     -27.951  66.594  81.942  1.00  0.00    -0.000 C 
BRANCH  13  14
ATOM     14  C   UNL     1     -28.329  65.109  81.799  1.00  0.00    -0.000 C 
BRANCH  14  15
ATOM     15  C   UNL     1     -29.712  64.794  82.391  1.00  0.00    -0.000 C 
BRANCH  15  16
ATOM     16  C   UNL     1     -29.670  63.630  83.398  1.00  0.00    -0.000 C 
BRANCH  16  17
ATOM     17  C   UNL     1     -28.236  63.193  83.735  1.00  0.00    -0.000 C 
BRANCH  17  18
ATOM     18  C   UNL     1     -28.188  61.848  84.475  1.00  0.00    -0.003 C 
ATOM     19  C   UNL     1     -27.438  60.799  83.659  1.00  0.00     0.004 C 
ENDBRANCH  17  18
ENDBRANCH  16  17
ENDBRANCH  15  16
ENDBRANCH  14  15
ENDBRANCH  13  14
ENDBRANCH  12  13
ENDBRANCH   1  12
TORSDOF 14
ENDMDL
MODEL 9
REMARK VINA RESULT:    -3.836      2.555      3.808
REMARK INTER + INTRA:          -9.182
REMARK INTER:                  -7.315
REMARK INTRA:                  -1.867
REMARK UNBOUND:                -2.205
REMARK SMILES CCCCCCCCCCCCCC[C@@H](C)C(=O)[O-]
REMARK SMILES IDX 9 1 10 2 11 3 12 4 13 5 14 6 15 7 16 8 17 9 18 10 19 11 8 12
REMARK SMILES IDX 7 13 6 14 5 15 4 16 3 17 2 18 1 19
REMARK H PARENT
REMARK Flexibility Score: inf
ROOT
ATOM      1  C   UNL     1     -28.258  66.826  82.196  1.00  0.00     0.000 C 
ENDROOT
BRANCH   1   2
ATOM      2  C   UNL     1     -28.201  65.322  81.884  1.00  0.00     0.000 C 
BRANCH   2   3
ATOM      3  C   UNL     1     -29.295  64.526  82.617  1.00  0.00     0.000 C 
BRANCH   3   4
ATOM      4  C   UNL     1     -28.733  63.309  83.368  1.00  0.00     0.000 C 
BRANCH   4   5
ATOM      5  C   UNL     1     -29.065  63.338  84.870  1.00  0.00     0.001 C 
BRANCH   5   6
ATOM      6  C   UNL     1     -30.508  63.793  85.165  1.00  0.00     0.009 C 
BRANCH   6   7
ATOM      7  C   UNL     1     -30.614  64.867  86.274  1.00  0.00     0.032 C 
ATOM      8  C   UNL     1     -29.219  65.290  86.749  1.00  0.00     0.014 C 
BRANCH   7   9
ATOM      9  C   UNL     1     -31.364  66.085  85.806  1.00  0.00     0.044 C 
ATOM     10  O   UNL     1     -31.957  66.819  86.639  1.00  0.00    -0.550 OA
ATOM     11  O   UNL     1     -31.377  66.429  84.460  1.00  0.00    -0.550 OA
ENDBRANCH   7   9
ENDBRANCH   6   7
ENDBRANCH   5   6
ENDBRANCH   4   5
ENDBRANCH   3   4
ENDBRANCH   2   3
ENDBRANCH   1   2
BRANCH   1  12
ATOM     12  C   UNL     1     -28.335  67.113  83.705  1.00  0.00     0.000 C 
BRANCH  12  13
ATOM     13  C   UNL     1     -27.150  66.514  84.479  1.00  0.00    -0.000 C 
BRANCH  13  14
ATOM     14  C   UNL     1     -26.393  67.567  85.306  1.00  0.00    -0.000 C 
BRANCH  14  15
ATOM     15  C   UNL     1     -27.303  68.714  85.775  1.00  0.00    -0.000 C 
BRANCH  15  16
ATOM     16  C   UNL     1     -27.854  68.485  87.194  1.00  0.00    -0.000 C 
BRANCH  16  17
ATOM     17  C   UNL     1     -29.330  68.893  87.326  1.00  0.00    -0.000 C 
BRANCH  17  18
ATOM     18  C   UNL     1     -29.935  69.357  85.993  1.00  0.00    -0.003 C 
ATOM     19  C   UNL     1     -30.922  70.501  86.207  1.00  0.00     0.004 C 
ENDBRANCH  17  18
ENDBRANCH  16  17
ENDBRANCH  15  16
ENDBRANCH  14  15
ENDBRANCH  13  14
ENDBRANCH  12  13
ENDBRANCH   1  12
TORSDOF 14
ENDMDL
