MODEL 1
REMARK VINA RESULT:    -3.784      0.000      0.000
REMARK INTER + INTRA:          -6.357
REMARK INTER:                  -5.442
REMARK INTRA:                  -0.914
REMARK UNBOUND:                -0.914
REMARK SMILES O=C(CO)[C@@H](O)[C@H](O)[C@@H](O)CO
REMARK SMILES IDX 7 1 9 2 11 3 12 4 10 6 5 8 2 9 1 10 3 11 4 12 6 14 8 16
REMARK H PARENT 12 5 10 7 4 13 6 15 8 17
REMARK Flexibility Score: inf
ROOT
ATOM      1  C   UNL     1      57.789  18.642  50.485  1.00  0.00     0.181 C 
ENDROOT
BRANCH   1   2
ATOM      2  C   UNL     1      58.298  17.385  49.719  1.00  0.00     0.171 C 
BRANCH   2   3
ATOM      3  C   UNL     1      59.561  17.665  48.879  1.00  0.00     0.190 C 
BRANCH   3   4
ATOM      4  O   UNL     1      59.217  18.269  47.662  1.00  0.00    -0.394 OA
ATOM      5  H   UNL     1      59.674  19.150  47.642  1.00  0.00     0.210 HD
ENDBRANCH   3   4
ENDBRANCH   2   3
BRANCH   2   6
ATOM      6  O   UNL     1      57.277  16.875  48.896  1.00  0.00    -0.388 OA
ATOM      7  H   UNL     1      56.776  16.200  49.426  1.00  0.00     0.211 HD
ENDBRANCH   2   6
ENDBRANCH   1   2
BRANCH   1   8
ATOM      8  C   UNL     1      56.460  18.403  51.254  1.00  0.00     0.214 C 
BRANCH   8   9
ATOM      9  C   UNL     1      56.111  19.579  52.147  1.00  0.00     0.189 C 
ATOM     10  O   UNL     1      57.003  20.273  52.615  1.00  0.00    -0.294 OA
BRANCH   9  11
ATOM     11  C   UNL     1      54.684  19.915  52.477  1.00  0.00     0.234 C 
BRANCH  11  12
ATOM     12  O   UNL     1      54.087  20.535  51.373  1.00  0.00    -0.388 OA
ATOM     13  H   UNL     1      53.666  19.809  50.843  1.00  0.00     0.211 HD
ENDBRANCH  11  12
ENDBRANCH   9  11
ENDBRANCH   8   9
BRANCH   8  14
ATOM     14  O   UNL     1      55.395  18.100  50.385  1.00  0.00    -0.382 OA
ATOM     15  H   UNL     1      55.741  17.515  49.663  1.00  0.00     0.211 HD
ENDBRANCH   8  14
ENDBRANCH   1   8
BRANCH   1  16
ATOM     16  O   UNL     1      57.676  19.738  49.610  1.00  0.00    -0.387 OA
ATOM     17  H   UNL     1      58.120  20.517  50.036  1.00  0.00     0.211 HD
ENDBRANCH   1  16
TORSDOF 10
ENDMDL
MODEL 2
REMARK VINA RESULT:    -3.748      1.339      4.610
REMARK INTER + INTRA:          -6.305
REMARK INTER:                  -5.617
REMARK INTRA:                  -0.688
REMARK UNBOUND:                -0.914
REMARK SMILES O=C(CO)[C@@H](O)[C@H](O)[C@@H](O)CO
REMARK SMILES IDX 7 1 9 2 11 3 12 4 10 6 5 8 2 9 1 10 3 11 4 12 6 14 8 16
REMARK H PARENT 12 5 10 7 4 13 6 15 8 17
REMARK Flexibility Score: inf
ROOT
ATOM      1  C   UNL     1      56.838  19.059  51.130  1.00  0.00     0.181 C 
ENDROOT
BRANCH   1   2
ATOM      2  C   UNL     1      55.329  19.362  50.895  1.00  0.00     0.171 C 
BRANCH   2   3
ATOM      3  C   UNL     1      54.587  19.752  52.189  1.00  0.00     0.190 C 
BRANCH   3   4
ATOM      4  O   UNL     1      53.206  19.563  52.039  1.00  0.00    -0.394 OA
ATOM      5  H   UNL     1      52.778  20.444  52.207  1.00  0.00     0.210 HD
ENDBRANCH   3   4
ENDBRANCH   2   3
BRANCH   2   6
ATOM      6  O   UNL     1      54.702  18.253  50.298  1.00  0.00    -0.388 OA
ATOM      7  H   UNL     1      55.068  18.162  49.379  1.00  0.00     0.211 HD
ENDBRANCH   2   6
ENDBRANCH   1   2
BRANCH   1   8
ATOM      8  C   UNL     1      57.535  18.397  49.909  1.00  0.00     0.214 C 
BRANCH   8   9
ATOM      9  C   UNL     1      59.005  18.766  49.834  1.00  0.00     0.189 C 
ATOM     10  O   UNL     1      59.667  18.835  50.860  1.00  0.00    -0.294 OA
BRANCH   9  11
ATOM     11  C   UNL     1      59.674  19.054  48.520  1.00  0.00     0.234 C 
BRANCH  11  12
ATOM     12  O   UNL     1      59.163  18.193  47.541  1.00  0.00    -0.388 OA
ATOM     13  H   UNL     1      59.305  18.650  46.671  1.00  0.00     0.211 HD
ENDBRANCH  11  12
ENDBRANCH   9  11
ENDBRANCH   8   9
BRANCH   8  14
ATOM     14  O   UNL     1      57.368  16.999  49.901  1.00  0.00    -0.382 OA
ATOM     15  H   UNL     1      57.623  16.651  50.794  1.00  0.00     0.211 HD
ENDBRANCH   8  14
ENDBRANCH   1   8
BRANCH   1  16
ATOM     16  O   UNL     1      57.009  18.283  52.291  1.00  0.00    -0.387 OA
ATOM     17  H   UNL     1      56.653  18.800  53.060  1.00  0.00     0.211 HD
ENDBRANCH   1  16
TORSDOF 10
ENDMDL
MODEL 3
REMARK VINA RESULT:    -3.735     13.834     15.507
REMARK INTER + INTRA:          -6.287
REMARK INTER:                  -4.995
REMARK INTRA:                  -1.292
REMARK UNBOUND:                -0.914
REMARK SMILES O=C(CO)[C@@H](O)[C@H](O)[C@@H](O)CO
REMARK SMILES IDX 7 1 9 2 11 3 12 4 10 6 5 8 2 9 1 10 3 11 4 12 6 14 8 16
REMARK H PARENT 12 5 10 7 4 13 6 15 8 17
REMARK Flexibility Score: inf
ROOT
ATOM      1  C   UNL     1      54.395  25.884  63.755  1.00  0.00     0.181 C 
ENDROOT
BRANCH   1   2
ATOM      2  C   UNL     1      54.844  24.459  64.192  1.00  0.00     0.171 C 
BRANCH   2   3
ATOM      3  C   UNL     1      54.040  23.918  65.393  1.00  0.00     0.190 C 
BRANCH   3   4
ATOM      4  O   UNL     1      52.955  24.760  65.676  1.00  0.00    -0.394 OA
ATOM      5  H   UNL     1      53.188  25.254  66.506  1.00  0.00     0.210 HD
ENDBRANCH   3   4
ENDBRANCH   2   3
BRANCH   2   6
ATOM      6  O   UNL     1      56.217  24.456  64.495  1.00  0.00    -0.388 OA
ATOM      7  H   UNL     1      56.574  23.559  64.258  1.00  0.00     0.211 HD
ENDBRANCH   2   6
ENDBRANCH   1   2
BRANCH   1   8
ATOM      8  C   UNL     1      54.885  26.279  62.334  1.00  0.00     0.214 C 
BRANCH   8   9
ATOM      9  C   UNL     1      55.780  27.504  62.371  1.00  0.00     0.189 C 
ATOM     10  O   UNL     1      55.318  28.585  62.708  1.00  0.00    -0.294 OA
BRANCH   9  11
ATOM     11  C   UNL     1      57.233  27.422  61.999  1.00  0.00     0.234 C 
BRANCH  11  12
ATOM     12  O   UNL     1      57.838  26.382  62.715  1.00  0.00    -0.388 OA
ATOM     13  H   UNL     1      57.598  25.544  62.240  1.00  0.00     0.211 HD
ENDBRANCH  11  12
ENDBRANCH   9  11
ENDBRANCH   8   9
BRANCH   8  14
ATOM     14  O   UNL     1      55.525  25.209  61.681  1.00  0.00    -0.382 OA
ATOM     15  H   UNL     1      55.330  24.377  62.184  1.00  0.00     0.211 HD
ENDBRANCH   8  14
ENDBRANCH   1   8
BRANCH   1  16
ATOM     16  O   UNL     1      54.792  26.839  64.710  1.00  0.00    -0.387 OA
ATOM     17  H   UNL     1      54.370  26.599  65.576  1.00  0.00     0.211 HD
ENDBRANCH   1  16
TORSDOF 10
ENDMDL
MODEL 4
REMARK VINA RESULT:    -3.696      1.677      2.479
REMARK INTER + INTRA:          -6.231
REMARK INTER:                  -5.362
REMARK INTRA:                  -0.869
REMARK UNBOUND:                -0.914
REMARK SMILES O=C(CO)[C@@H](O)[C@H](O)[C@@H](O)CO
REMARK SMILES IDX 7 1 9 2 11 3 12 4 10 6 5 8 2 9 1 10 3 11 4 12 6 14 8 16
REMARK H PARENT 12 5 10 7 4 13 6 15 8 17
REMARK Flexibility Score: inf
ROOT
ATOM      1  C   UNL     1      59.172  18.060  50.377  1.00  0.00     0.181 C 
ENDROOT
BRANCH   1   2
ATOM      2  C   UNL     1      59.206  19.505  49.799  1.00  0.00     0.171 C 
BRANCH   2   3
ATOM      3  C   UNL     1      59.836  19.574  48.393  1.00  0.00     0.190 C 
BRANCH   3   4
ATOM      4  O   UNL     1      59.255  18.620  47.547  1.00  0.00    -0.394 OA
ATOM      5  H   UNL     1      59.488  18.884  46.618  1.00  0.00     0.210 HD
ENDBRANCH   3   4
ENDBRANCH   2   3
BRANCH   2   6
ATOM      6  O   UNL     1      59.896  20.359  50.677  1.00  0.00    -0.388 OA
ATOM      7  H   UNL     1      60.806  19.982  50.807  1.00  0.00     0.211 HD
ENDBRANCH   2   6
ENDBRANCH   1   2
BRANCH   1   8
ATOM      8  C   UNL     1      57.746  17.443  50.421  1.00  0.00     0.214 C 
BRANCH   8   9
ATOM      9  C   UNL     1      56.787  18.303  51.223  1.00  0.00     0.189 C 
ATOM     10  O   UNL     1      56.906  18.375  52.438  1.00  0.00    -0.294 OA
BRANCH   9  11
ATOM     11  C   UNL     1      55.685  19.076  50.556  1.00  0.00     0.234 C 
BRANCH  11  12
ATOM     12  O   UNL     1      54.681  18.191  50.143  1.00  0.00    -0.388 OA
ATOM     13  H   UNL     1      55.053  17.695  49.368  1.00  0.00     0.211 HD
ENDBRANCH  11  12
ENDBRANCH   9  11
ENDBRANCH   8   9
BRANCH   8  14
ATOM     14  O   UNL     1      57.239  17.194  49.132  1.00  0.00    -0.382 OA
ATOM     15  H   UNL     1      57.729  17.770  48.490  1.00  0.00     0.211 HD
ENDBRANCH   8  14
ENDBRANCH   1   8
BRANCH   1  16
ATOM     16  O   UNL     1      59.777  18.023  51.647  1.00  0.00    -0.387 OA
ATOM     17  H   UNL     1      60.736  17.798  51.523  1.00  0.00     0.211 HD
ENDBRANCH   1  16
TORSDOF 10
ENDMDL
MODEL 5
REMARK VINA RESULT:    -3.690     14.524     15.590
REMARK INTER + INTRA:          -6.222
REMARK INTER:                  -5.459
REMARK INTRA:                  -0.763
REMARK UNBOUND:                -0.914
REMARK SMILES O=C(CO)[C@@H](O)[C@H](O)[C@@H](O)CO
REMARK SMILES IDX 7 1 9 2 11 3 12 4 10 6 5 8 2 9 1 10 3 11 4 12 6 14 8 16
REMARK H PARENT 12 5 10 7 4 13 6 15 8 17
REMARK Flexibility Score: inf
ROOT
ATOM      1  C   UNL     1      54.556  26.120  63.500  1.00  0.00     0.181 C 
ENDROOT
BRANCH   1   2
ATOM      2  C   UNL     1      54.684  24.619  63.891  1.00  0.00     0.171 C 
BRANCH   2   3
ATOM      3  C   UNL     1      53.392  24.049  64.513  1.00  0.00     0.190 C 
BRANCH   3   4
ATOM      4  O   UNL     1      52.985  24.831  65.602  1.00  0.00    -0.394 OA
ATOM      5  H   UNL     1      52.798  24.204  66.349  1.00  0.00     0.210 HD
ENDBRANCH   3   4
ENDBRANCH   2   3
BRANCH   2   6
ATOM      6  O   UNL     1      55.761  24.442  64.777  1.00  0.00    -0.388 OA
ATOM      7  H   UNL     1      56.453  23.907  64.303  1.00  0.00     0.211 HD
ENDBRANCH   2   6
ENDBRANCH   1   2
BRANCH   1   8
ATOM      8  C   UNL     1      55.543  26.556  62.382  1.00  0.00     0.214 C 
BRANCH   8   9
ATOM      9  C   UNL     1      55.452  28.045  62.102  1.00  0.00     0.189 C 
ATOM     10  O   UNL     1      55.991  28.840  62.860  1.00  0.00    -0.294 OA
BRANCH   9  11
ATOM     11  C   UNL     1      54.708  28.573  60.909  1.00  0.00     0.234 C 
BRANCH  11  12
ATOM     12  O   UNL     1      54.133  29.809  61.229  1.00  0.00    -0.388 OA
ATOM     13  H   UNL     1      53.891  29.759  62.191  1.00  0.00     0.211 HD
ENDBRANCH  11  12
ENDBRANCH   9  11
ENDBRANCH   8   9
BRANCH   8  14
ATOM     14  O   UNL     1      56.868  26.181  62.674  1.00  0.00    -0.382 OA
ATOM     15  H   UNL     1      57.432  26.397  61.886  1.00  0.00     0.211 HD
ENDBRANCH   8  14
ENDBRANCH   1   8
BRANCH   1  16
ATOM     16  O   UNL     1      54.687  26.938  64.637  1.00  0.00    -0.387 OA
ATOM     17  H   UNL     1      55.606  27.314  64.640  1.00  0.00     0.211 HD
ENDBRANCH   1  16
TORSDOF 10
ENDMDL
MODEL 6
REMARK VINA RESULT:    -3.630     21.190     22.541
REMARK INTER + INTRA:          -6.136
REMARK INTER:                  -5.168
REMARK INTRA:                  -0.968
REMARK UNBOUND:                -0.914
REMARK SMILES O=C(CO)[C@@H](O)[C@H](O)[C@@H](O)CO
REMARK SMILES IDX 7 1 9 2 11 3 12 4 10 6 5 8 2 9 1 10 3 11 4 12 6 14 8 16
REMARK H PARENT 12 5 10 7 4 13 6 15 8 17
REMARK Flexibility Score: inf
ROOT
ATOM      1  C   UNL     1      71.392  32.283  59.845  1.00  0.00     0.181 C 
ENDROOT
BRANCH   1   2
ATOM      2  C   UNL     1      71.170  33.821  59.947  1.00  0.00     0.171 C 
BRANCH   2   3
ATOM      3  C   UNL     1      70.821  34.468  58.591  1.00  0.00     0.190 C 
BRANCH   3   4
ATOM      4  O   UNL     1      71.988  34.758  57.871  1.00  0.00    -0.394 OA
ATOM      5  H   UNL     1      72.661  35.068  58.533  1.00  0.00     0.210 HD
ENDBRANCH   3   4
ENDBRANCH   2   3
BRANCH   2   6
ATOM      6  O   UNL     1      72.309  34.438  60.494  1.00  0.00    -0.388 OA
ATOM      7  H   UNL     1      72.470  35.274  59.983  1.00  0.00     0.211 HD
ENDBRANCH   2   6
ENDBRANCH   1   2
BRANCH   1   8
ATOM      8  C   UNL     1      71.708  31.610  61.209  1.00  0.00     0.214 C 
BRANCH   8   9
ATOM      9  C   UNL     1      71.540  30.104  61.143  1.00  0.00     0.189 C 
ATOM     10  O   UNL     1      71.319  29.563  60.069  1.00  0.00    -0.294 OA
BRANCH   9  11
ATOM     11  C   UNL     1      71.636  29.251  62.376  1.00  0.00     0.234 C 
BRANCH  11  12
ATOM     12  O   UNL     1      71.718  30.075  63.506  1.00  0.00    -0.388 OA
ATOM     13  H   UNL     1      72.016  29.491  64.251  1.00  0.00     0.211 HD
ENDBRANCH  11  12
ENDBRANCH   9  11
ENDBRANCH   8   9
BRANCH   8  14
ATOM     14  O   UNL     1      72.990  31.951  61.681  1.00  0.00    -0.382 OA
ATOM     15  H   UNL     1      73.259  32.807  61.257  1.00  0.00     0.211 HD
ENDBRANCH   8  14
ENDBRANCH   1   8
BRANCH   1  16
ATOM     16  O   UNL     1      72.390  31.993  58.895  1.00  0.00    -0.387 OA
ATOM     17  H   UNL     1      71.941  31.723  58.052  1.00  0.00     0.211 HD
ENDBRANCH   1  16
TORSDOF 10
ENDMDL
MODEL 7
REMARK VINA RESULT:    -3.621     20.925     22.278
REMARK INTER + INTRA:          -6.124
REMARK INTER:                  -5.294
REMARK INTRA:                  -0.829
REMARK UNBOUND:                -0.914
REMARK SMILES O=C(CO)[C@@H](O)[C@H](O)[C@@H](O)CO
REMARK SMILES IDX 7 1 9 2 11 3 12 4 10 6 5 8 2 9 1 10 3 11 4 12 6 14 8 16
REMARK H PARENT 12 5 10 7 4 13 6 15 8 17
REMARK Flexibility Score: inf
ROOT
ATOM      1  C   UNL     1      72.359  30.046  60.824  1.00  0.00     0.181 C 
ENDROOT
BRANCH   1   2
ATOM      2  C   UNL     1      70.845  30.031  61.182  1.00  0.00     0.171 C 
BRANCH   2   3
ATOM      3  C   UNL     1      70.580  29.665  62.657  1.00  0.00     0.190 C 
BRANCH   3   4
ATOM      4  O   UNL     1      71.658  30.060  63.461  1.00  0.00    -0.394 OA
ATOM      5  H   UNL     1      72.294  29.297  63.480  1.00  0.00     0.210 HD
ENDBRANCH   3   4
ENDBRANCH   2   3
BRANCH   2   6
ATOM      6  O   UNL     1      70.158  29.140  60.337  1.00  0.00    -0.388 OA
ATOM      7  H   UNL     1      70.226  29.495  59.411  1.00  0.00     0.211 HD
ENDBRANCH   2   6
ENDBRANCH   1   2
BRANCH   1   8
ATOM      8  C   UNL     1      72.951  31.478  60.693  1.00  0.00     0.214 C 
BRANCH   8   9
ATOM      9  C   UNL     1      72.113  32.349  59.775  1.00  0.00     0.189 C 
ATOM     10  O   UNL     1      72.001  32.055  58.593  1.00  0.00    -0.294 OA
BRANCH   9  11
ATOM     11  C   UNL     1      71.412  33.575  60.286  1.00  0.00     0.234 C 
BRANCH  11  12
ATOM     12  O   UNL     1      72.357  34.467  60.808  1.00  0.00    -0.388 OA
ATOM     13  H   UNL     1      71.916  34.917  61.575  1.00  0.00     0.211 HD
ENDBRANCH  11  12
ENDBRANCH   9  11
ENDBRANCH   8   9
BRANCH   8  14
ATOM     14  O   UNL     1      73.125  32.092  61.947  1.00  0.00    -0.382 OA
ATOM     15  H   UNL     1      73.682  31.495  62.510  1.00  0.00     0.211 HD
ENDBRANCH   8  14
ENDBRANCH   1   8
BRANCH   1  16
ATOM     16  O   UNL     1      72.597  29.293  59.659  1.00  0.00    -0.387 OA
ATOM     17  H   UNL     1      72.053  29.683  58.926  1.00  0.00     0.211 HD
ENDBRANCH   1  16
TORSDOF 10
ENDMDL
MODEL 8
REMARK VINA RESULT:    -3.605     21.792     22.883
REMARK INTER + INTRA:          -6.100
REMARK INTER:                  -4.894
REMARK INTRA:                  -1.206
REMARK UNBOUND:                -0.914
REMARK SMILES O=C(CO)[C@@H](O)[C@H](O)[C@@H](O)CO
REMARK SMILES IDX 7 1 9 2 11 3 12 4 10 6 5 8 2 9 1 10 3 11 4 12 6 14 8 16
REMARK H PARENT 12 5 10 7 4 13 6 15 8 17
REMARK Flexibility Score: inf
ROOT
ATOM      1  C   UNL     1      70.711  34.386  58.375  1.00  0.00     0.181 C 
ENDROOT
BRANCH   1   2
ATOM      2  C   UNL     1      71.304  34.339  59.813  1.00  0.00     0.171 C 
BRANCH   2   3
ATOM      3  C   UNL     1      71.459  32.902  60.352  1.00  0.00     0.190 C 
BRANCH   3   4
ATOM      4  O   UNL     1      72.533  32.827  61.249  1.00  0.00    -0.394 OA
ATOM      5  H   UNL     1      72.869  33.754  61.369  1.00  0.00     0.210 HD
ENDBRANCH   3   4
ENDBRANCH   2   3
BRANCH   2   6
ATOM      6  O   UNL     1      70.505  35.095  60.690  1.00  0.00    -0.388 OA
ATOM      7  H   UNL     1      69.935  35.691  60.135  1.00  0.00     0.211 HD
ENDBRANCH   2   6
ENDBRANCH   1   2
BRANCH   1   8
ATOM      8  C   UNL     1      70.646  35.820  57.778  1.00  0.00     0.214 C 
BRANCH   8   9
ATOM      9  C   UNL     1      69.241  36.176  57.330  1.00  0.00     0.189 C 
ATOM     10  O   UNL     1      68.825  35.770  56.253  1.00  0.00    -0.294 OA
BRANCH   9  11
ATOM     11  C   UNL     1      68.339  37.024  58.181  1.00  0.00     0.234 C 
BRANCH  11  12
ATOM     12  O   UNL     1      68.222  36.447  59.451  1.00  0.00    -0.388 OA
ATOM     13  H   UNL     1      69.056  36.679  59.937  1.00  0.00     0.211 HD
ENDBRANCH  11  12
ENDBRANCH   9  11
ENDBRANCH   8   9
BRANCH   8  14
ATOM     14  O   UNL     1      71.148  36.786  58.671  1.00  0.00    -0.382 OA
ATOM     15  H   UNL     1      71.770  36.335  59.297  1.00  0.00     0.211 HD
ENDBRANCH   8  14
ENDBRANCH   1   8
BRANCH   1  16
ATOM     16  O   UNL     1      69.447  33.767  58.343  1.00  0.00    -0.387 OA
ATOM     17  H   UNL     1      69.333  33.350  57.450  1.00  0.00     0.211 HD
ENDBRANCH   1  16
TORSDOF 10
ENDMDL
