MODEL 1
REMARK VINA RESULT:    -5.192      0.000      0.000
REMARK INTER + INTRA:          -8.142
REMARK INTER:                  -7.468
REMARK INTRA:                  -0.674
REMARK UNBOUND:                -0.674
REMARK SMILES O=C(CO)[C@H](O)[C@H](O)[C@@H](O)CO
REMARK SMILES IDX 7 1 9 2 11 3 12 4 10 6 5 8 2 9 1 10 3 11 4 12 6 14 8 16
REMARK H PARENT 12 5 10 7 4 13 6 15 8 17
REMARK Flexibility Score: inf
ROOT
ATOM      1  C   UNL     1      15.851 -13.727  18.656  1.00  0.00     0.181 C 
ENDROOT
BRANCH   1   2
ATOM      2  C   UNL     1      15.655 -13.063  17.267  1.00  0.00     0.171 C 
BRANCH   2   3
ATOM      3  C   UNL     1      16.571 -13.692  16.199  1.00  0.00     0.190 C 
BRANCH   3   4
ATOM      4  O   UNL     1      15.829 -14.038  15.060  1.00  0.00    -0.394 OA
ATOM      5  H   UNL     1      14.953 -14.376  15.383  1.00  0.00     0.210 HD
ENDBRANCH   3   4
ENDBRANCH   2   3
BRANCH   2   6
ATOM      6  O   UNL     1      15.834 -11.668  17.332  1.00  0.00    -0.388 OA
ATOM      7  H   UNL     1      15.433 -11.345  18.180  1.00  0.00     0.211 HD
ENDBRANCH   2   6
ENDBRANCH   1   2
BRANCH   1   8
ATOM      8  C   UNL     1      15.371 -12.813  19.820  1.00  0.00     0.214 C 
BRANCH   8   9
ATOM      9  C   UNL     1      15.525 -13.504  21.163  1.00  0.00     0.189 C 
ATOM     10  O   UNL     1      15.326 -14.708  21.236  1.00  0.00    -0.294 OA
BRANCH   9  11
ATOM     11  C   UNL     1      15.958 -12.766  22.401  1.00  0.00     0.234 C 
BRANCH  11  12
ATOM     12  O   UNL     1      15.150 -11.638  22.581  1.00  0.00    -0.388 OA
ATOM     13  H   UNL     1      14.247 -11.893  22.259  1.00  0.00     0.211 HD
ENDBRANCH  11  12
ENDBRANCH   9  11
ENDBRANCH   8   9
BRANCH   8  14
ATOM     14  O   UNL     1      14.046 -12.380  19.619  1.00  0.00    -0.382 OA
ATOM     15  H   UNL     1      13.439 -13.047  20.035  1.00  0.00     0.211 HD
ENDBRANCH   8  14
ENDBRANCH   1   8
BRANCH   1  16
ATOM     16  O   UNL     1      17.189 -14.126  18.838  1.00  0.00    -0.387 OA
ATOM     17  H   UNL     1      17.189 -14.979  19.345  1.00  0.00     0.211 HD
ENDBRANCH   1  16
TORSDOF 10
ENDMDL
MODEL 2
REMARK VINA RESULT:    -4.857      5.997      7.124
REMARK INTER + INTRA:          -7.660
REMARK INTER:                  -6.952
REMARK INTRA:                  -0.708
REMARK UNBOUND:                -0.674
REMARK SMILES O=C(CO)[C@H](O)[C@H](O)[C@@H](O)CO
REMARK SMILES IDX 7 1 9 2 11 3 12 4 10 6 5 8 2 9 1 10 3 11 4 12 6 14 8 16
REMARK H PARENT 12 5 10 7 4 13 6 15 8 17
REMARK Flexibility Score: inf
ROOT
ATOM      1  C   UNL     1      21.985 -12.166  22.006  1.00  0.00     0.181 C 
ENDROOT
BRANCH   1   2
ATOM      2  C   UNL     1      21.463 -13.382  21.195  1.00  0.00     0.171 C 
BRANCH   2   3
ATOM      3  C   UNL     1      22.612 -14.144  20.505  1.00  0.00     0.190 C 
BRANCH   3   4
ATOM      4  O   UNL     1      22.934 -15.302  21.228  1.00  0.00    -0.394 OA
ATOM      5  H   UNL     1      23.518 -15.015  21.978  1.00  0.00     0.210 HD
ENDBRANCH   3   4
ENDBRANCH   2   3
BRANCH   2   6
ATOM      6  O   UNL     1      20.479 -12.997  20.265  1.00  0.00    -0.388 OA
ATOM      7  H   UNL     1      20.578 -13.565  19.458  1.00  0.00     0.211 HD
ENDBRANCH   2   6
ENDBRANCH   1   2
BRANCH   1   8
ATOM      8  C   UNL     1      20.837 -11.214  22.447  1.00  0.00     0.214 C 
BRANCH   8   9
ATOM      9  C   UNL     1      21.339 -10.154  23.411  1.00  0.00     0.189 C 
ATOM     10  O   UNL     1      22.376  -9.561  23.152  1.00  0.00    -0.294 OA
BRANCH   9  11
ATOM     11  C   UNL     1      20.581  -9.776  24.655  1.00  0.00     0.234 C 
BRANCH  11  12
ATOM     12  O   UNL     1      20.351 -10.919  25.429  1.00  0.00    -0.388 OA
ATOM     13  H   UNL     1      21.246 -11.273  25.670  1.00  0.00     0.211 HD
ENDBRANCH  11  12
ENDBRANCH   9  11
ENDBRANCH   8   9
BRANCH   8  14
ATOM     14  O   UNL     1      19.757 -11.932  22.998  1.00  0.00    -0.382 OA
ATOM     15  H   UNL     1      19.304 -12.418  22.260  1.00  0.00     0.211 HD
ENDBRANCH   8  14
ENDBRANCH   1   8
BRANCH   1  16
ATOM     16  O   UNL     1      22.977 -11.471  21.287  1.00  0.00    -0.387 OA
ATOM     17  H   UNL     1      23.824 -11.525  21.802  1.00  0.00     0.211 HD
ENDBRANCH   1  16
TORSDOF 10
ENDMDL
MODEL 3
REMARK VINA RESULT:    -4.767      1.494      2.207
REMARK INTER + INTRA:          -7.531
REMARK INTER:                  -7.312
REMARK INTRA:                  -0.220
REMARK UNBOUND:                -0.674
REMARK SMILES O=C(CO)[C@H](O)[C@H](O)[C@@H](O)CO
REMARK SMILES IDX 7 1 9 2 11 3 12 4 10 6 5 8 2 9 1 10 3 11 4 12 6 14 8 16
REMARK H PARENT 12 5 10 7 4 13 6 15 8 17
REMARK Flexibility Score: inf
ROOT
ATOM      1  C   UNL     1      14.606 -13.924  19.121  1.00  0.00     0.181 C 
ENDROOT
BRANCH   1   2
ATOM      2  C   UNL     1      15.939 -13.303  18.625  1.00  0.00     0.171 C 
BRANCH   2   3
ATOM      3  C   UNL     1      15.915 -13.034  17.108  1.00  0.00     0.190 C 
BRANCH   3   4
ATOM      4  O   UNL     1      16.414 -14.141  16.406  1.00  0.00    -0.394 OA
ATOM      5  H   UNL     1      17.304 -13.876  16.054  1.00  0.00     0.210 HD
ENDBRANCH   3   4
ENDBRANCH   2   3
BRANCH   2   6
ATOM      6  O   UNL     1      17.043 -14.102  18.981  1.00  0.00    -0.388 OA
ATOM      7  H   UNL     1      17.856 -13.534  18.955  1.00  0.00     0.211 HD
ENDBRANCH   2   6
ENDBRANCH   1   2
BRANCH   1   8
ATOM      8  C   UNL     1      14.719 -14.490  20.565  1.00  0.00     0.214 C 
BRANCH   8   9
ATOM      9  C   UNL     1      14.822 -13.373  21.589  1.00  0.00     0.189 C 
ATOM     10  O   UNL     1      13.832 -13.071  22.238  1.00  0.00    -0.294 OA
BRANCH   9  11
ATOM     11  C   UNL     1      16.115 -12.653  21.864  1.00  0.00     0.234 C 
BRANCH  11  12
ATOM     12  O   UNL     1      16.935 -13.452  22.667  1.00  0.00    -0.388 OA
ATOM     13  H   UNL     1      16.470 -14.325  22.752  1.00  0.00     0.211 HD
ENDBRANCH  11  12
ENDBRANCH   9  11
ENDBRANCH   8   9
BRANCH   8  14
ATOM     14  O   UNL     1      15.798 -15.387  20.682  1.00  0.00    -0.382 OA
ATOM     15  H   UNL     1      15.467 -16.296  20.458  1.00  0.00     0.211 HD
ENDBRANCH   8  14
ENDBRANCH   1   8
BRANCH   1  16
ATOM     16  O   UNL     1      14.143 -14.905  18.223  1.00  0.00    -0.387 OA
ATOM     17  H   UNL     1      13.992 -15.742  18.733  1.00  0.00     0.211 HD
ENDBRANCH   1  16
TORSDOF 10
ENDMDL
MODEL 4
REMARK VINA RESULT:    -4.759      1.441      1.742
REMARK INTER + INTRA:          -7.520
REMARK INTER:                  -6.630
REMARK INTRA:                  -0.891
REMARK UNBOUND:                -0.674
REMARK SMILES O=C(CO)[C@H](O)[C@H](O)[C@@H](O)CO
REMARK SMILES IDX 7 1 9 2 11 3 12 4 10 6 5 8 2 9 1 10 3 11 4 12 6 14 8 16
REMARK H PARENT 12 5 10 7 4 13 6 15 8 17
REMARK Flexibility Score: inf
ROOT
ATOM      1  C   UNL     1      15.221 -13.628  18.411  1.00  0.00     0.181 C 
ENDROOT
BRANCH   1   2
ATOM      2  C   UNL     1      16.327 -13.161  17.428  1.00  0.00     0.171 C 
BRANCH   2   3
ATOM      3  C   UNL     1      15.819 -13.124  15.973  1.00  0.00     0.190 C 
BRANCH   3   4
ATOM      4  O   UNL     1      16.203 -14.289  15.292  1.00  0.00    -0.394 OA
ATOM      5  H   UNL     1      16.305 -14.999  15.977  1.00  0.00     0.210 HD
ENDBRANCH   3   4
ENDBRANCH   2   3
BRANCH   2   6
ATOM      6  O   UNL     1      17.486 -13.952  17.542  1.00  0.00    -0.388 OA
ATOM      7  H   UNL     1      17.268 -14.865  17.222  1.00  0.00     0.211 HD
ENDBRANCH   2   6
ENDBRANCH   1   2
BRANCH   1   8
ATOM      8  C   UNL     1      15.801 -14.073  19.784  1.00  0.00     0.214 C 
BRANCH   8   9
ATOM      9  C   UNL     1      14.739 -14.037  20.869  1.00  0.00     0.189 C 
ATOM     10  O   UNL     1      13.853 -14.879  20.859  1.00  0.00    -0.294 OA
BRANCH   9  11
ATOM     11  C   UNL     1      14.764 -13.026  21.984  1.00  0.00     0.234 C 
BRANCH  11  12
ATOM     12  O   UNL     1      15.123 -11.773  21.473  1.00  0.00    -0.388 OA
ATOM     13  H   UNL     1      15.330 -11.917  20.513  1.00  0.00     0.211 HD
ENDBRANCH  11  12
ENDBRANCH   9  11
ENDBRANCH   8   9
BRANCH   8  14
ATOM     14  O   UNL     1      16.921 -13.298  20.143  1.00  0.00    -0.382 OA
ATOM     15  H   UNL     1      17.721 -13.698  19.713  1.00  0.00     0.211 HD
ENDBRANCH   8  14
ENDBRANCH   1   8
BRANCH   1  16
ATOM     16  O   UNL     1      14.434 -14.645  17.836  1.00  0.00    -0.387 OA
ATOM     17  H   UNL     1      15.004 -15.156  17.205  1.00  0.00     0.211 HD
ENDBRANCH   1  16
TORSDOF 10
ENDMDL
MODEL 5
REMARK VINA RESULT:    -4.662      6.183      7.768
REMARK INTER + INTRA:          -7.380
REMARK INTER:                  -6.669
REMARK INTRA:                  -0.710
REMARK UNBOUND:                -0.674
REMARK SMILES O=C(CO)[C@H](O)[C@H](O)[C@@H](O)CO
REMARK SMILES IDX 7 1 9 2 11 3 12 4 10 6 5 8 2 9 1 10 3 11 4 12 6 14 8 16
REMARK H PARENT 12 5 10 7 4 13 6 15 8 17
REMARK Flexibility Score: inf
ROOT
ATOM      1  C   UNL     1      21.460 -10.534  23.200  1.00  0.00     0.181 C 
ENDROOT
BRANCH   1   2
ATOM      2  C   UNL     1      20.870 -11.912  22.800  1.00  0.00     0.171 C 
BRANCH   2   3
ATOM      3  C   UNL     1      21.300 -12.327  21.379  1.00  0.00     0.190 C 
BRANCH   3   4
ATOM      4  O   UNL     1      20.229 -12.923  20.698  1.00  0.00    -0.394 OA
ATOM      5  H   UNL     1      20.313 -12.656  19.745  1.00  0.00     0.210 HD
ENDBRANCH   3   4
ENDBRANCH   2   3
BRANCH   2   6
ATOM      6  O   UNL     1      19.468 -11.930  22.932  1.00  0.00    -0.388 OA
ATOM      7  H   UNL     1      19.078 -12.145  22.045  1.00  0.00     0.211 HD
ENDBRANCH   2   6
ENDBRANCH   1   2
BRANCH   1   8
ATOM      8  C   UNL     1      20.613  -9.824  24.294  1.00  0.00     0.214 C 
BRANCH   8   9
ATOM      9  C   UNL     1      21.275  -8.538  24.756  1.00  0.00     0.189 C 
ATOM     10  O   UNL     1      22.344  -8.211  24.263  1.00  0.00    -0.294 OA
BRANCH   9  11
ATOM     11  C   UNL     1      20.637  -7.626  25.770  1.00  0.00     0.234 C 
BRANCH  11  12
ATOM     12  O   UNL     1      19.244  -7.736  25.690  1.00  0.00    -0.388 OA
ATOM     13  H   UNL     1      19.002  -8.544  26.215  1.00  0.00     0.211 HD
ENDBRANCH  11  12
ENDBRANCH   9  11
ENDBRANCH   8   9
BRANCH   8  14
ATOM     14  O   UNL     1      20.355 -10.682  25.382  1.00  0.00    -0.382 OA
ATOM     15  H   UNL     1      19.372 -10.722  25.514  1.00  0.00     0.211 HD
ENDBRANCH   8  14
ENDBRANCH   1   8
BRANCH   1  16
ATOM     16  O   UNL     1      21.628  -9.711  22.070  1.00  0.00    -0.387 OA
ATOM     17  H   UNL     1      21.806  -8.787  22.386  1.00  0.00     0.211 HD
ENDBRANCH   1  16
TORSDOF 10
ENDMDL
MODEL 6
REMARK VINA RESULT:    -4.441      6.908      9.060
REMARK INTER + INTRA:          -7.062
REMARK INTER:                  -6.424
REMARK INTRA:                  -0.638
REMARK UNBOUND:                -0.674
REMARK SMILES O=C(CO)[C@H](O)[C@H](O)[C@@H](O)CO
REMARK SMILES IDX 7 1 9 2 11 3 12 4 10 6 5 8 2 9 1 10 3 11 4 12 6 14 8 16
REMARK H PARENT 12 5 10 7 4 13 6 15 8 17
REMARK Flexibility Score: inf
ROOT
ATOM      1  C   UNL     1      20.914  -8.791  24.227  1.00  0.00     0.181 C 
ENDROOT
BRANCH   1   2
ATOM      2  C   UNL     1      20.121  -8.038  25.329  1.00  0.00     0.171 C 
BRANCH   2   3
ATOM      3  C   UNL     1      19.874  -6.565  24.950  1.00  0.00     0.190 C 
BRANCH   3   4
ATOM      4  O   UNL     1      20.066  -6.375  23.574  1.00  0.00    -0.394 OA
ATOM      5  H   UNL     1      21.031  -6.527  23.398  1.00  0.00     0.210 HD
ENDBRANCH   3   4
ENDBRANCH   2   3
BRANCH   2   6
ATOM      6  O   UNL     1      20.756  -8.141  26.582  1.00  0.00    -0.388 OA
ATOM      7  H   UNL     1      20.694  -7.259  27.032  1.00  0.00     0.211 HD
ENDBRANCH   2   6
ENDBRANCH   1   2
BRANCH   1   8
ATOM      8  C   UNL     1      20.993 -10.320  24.497  1.00  0.00     0.214 C 
BRANCH   8   9
ATOM      9  C   UNL     1      20.969 -11.111  23.201  1.00  0.00     0.189 C 
ATOM     10  O   UNL     1      19.951 -11.713  22.893  1.00  0.00    -0.294 OA
BRANCH   9  11
ATOM     11  C   UNL     1      22.141 -11.142  22.258  1.00  0.00     0.234 C 
BRANCH  11  12
ATOM     12  O   UNL     1      22.146  -9.981  21.477  1.00  0.00    -0.388 OA
ATOM     13  H   UNL     1      22.790  -9.362  21.910  1.00  0.00     0.211 HD
ENDBRANCH  11  12
ENDBRANCH   9  11
ENDBRANCH   8   9
BRANCH   8  14
ATOM     14  O   UNL     1      19.970 -10.741  25.369  1.00  0.00    -0.382 OA
ATOM     15  H   UNL     1      19.762  -9.990  25.984  1.00  0.00     0.211 HD
ENDBRANCH   8  14
ENDBRANCH   1   8
BRANCH   1  16
ATOM     16  O   UNL     1      22.197  -8.234  24.062  1.00  0.00    -0.387 OA
ATOM     17  H   UNL     1      22.302  -7.981  23.108  1.00  0.00     0.211 HD
ENDBRANCH   1  16
TORSDOF 10
ENDMDL
MODEL 7
REMARK VINA RESULT:    -4.390     10.221     11.248
REMARK INTER + INTRA:          -6.989
REMARK INTER:                  -6.023
REMARK INTRA:                  -0.966
REMARK UNBOUND:                -0.674
REMARK SMILES O=C(CO)[C@H](O)[C@H](O)[C@@H](O)CO
REMARK SMILES IDX 7 1 9 2 11 3 12 4 10 6 5 8 2 9 1 10 3 11 4 12 6 14 8 16
REMARK H PARENT 12 5 10 7 4 13 6 15 8 17
REMARK Flexibility Score: inf
ROOT
ATOM      1  C   UNL     1      11.043  -5.057  25.592  1.00  0.00     0.181 C 
ENDROOT
BRANCH   1   2
ATOM      2  C   UNL     1      10.410  -5.478  24.239  1.00  0.00     0.171 C 
BRANCH   2   3
ATOM      3  C   UNL     1       8.886  -5.247  24.224  1.00  0.00     0.190 C 
BRANCH   3   4
ATOM      4  O   UNL     1       8.210  -6.418  24.596  1.00  0.00    -0.394 OA
ATOM      5  H   UNL     1       7.437  -6.136  25.151  1.00  0.00     0.210 HD
ENDBRANCH   3   4
ENDBRANCH   2   3
BRANCH   2   6
ATOM      6  O   UNL     1      10.725  -6.812  23.916  1.00  0.00    -0.388 OA
ATOM      7  H   UNL     1      11.662  -6.983  24.193  1.00  0.00     0.211 HD
ENDBRANCH   2   6
ENDBRANCH   1   2
BRANCH   1   8
ATOM      8  C   UNL     1      12.373  -5.809  25.882  1.00  0.00     0.214 C 
BRANCH   8   9
ATOM      9  C   UNL     1      13.042  -5.281  27.138  1.00  0.00     0.189 C 
ATOM     10  O   UNL     1      12.752  -4.164  27.539  1.00  0.00    -0.294 OA
BRANCH   9  11
ATOM     11  C   UNL     1      14.020  -6.104  27.933  1.00  0.00     0.234 C 
BRANCH  11  12
ATOM     12  O   UNL     1      14.455  -7.189  27.163  1.00  0.00    -0.388 OA
ATOM     13  H   UNL     1      15.395  -6.991  26.915  1.00  0.00     0.211 HD
ENDBRANCH  11  12
ENDBRANCH   9  11
ENDBRANCH   8   9
BRANCH   8  14
ATOM     14  O   UNL     1      13.246  -5.752  24.778  1.00  0.00    -0.382 OA
ATOM     15  H   UNL     1      13.312  -6.664  24.392  1.00  0.00     0.211 HD
ENDBRANCH   8  14
ENDBRANCH   1   8
BRANCH   1  16
ATOM     16  O   UNL     1      10.124  -5.217  26.648  1.00  0.00    -0.387 OA
ATOM     17  H   UNL     1      10.638  -5.402  27.477  1.00  0.00     0.211 HD
ENDBRANCH   1  16
TORSDOF 10
ENDMDL
MODEL 8
REMARK VINA RESULT:    -4.294      7.214      9.487
REMARK INTER + INTRA:          -6.851
REMARK INTER:                  -5.945
REMARK INTRA:                  -0.906
REMARK UNBOUND:                -0.674
REMARK SMILES O=C(CO)[C@H](O)[C@H](O)[C@@H](O)CO
REMARK SMILES IDX 7 1 9 2 11 3 12 4 10 6 5 8 2 9 1 10 3 11 4 12 6 14 8 16
REMARK H PARENT 12 5 10 7 4 13 6 15 8 17
REMARK Flexibility Score: inf
ROOT
ATOM      1  C   UNL     1      14.567 -17.371  12.004  1.00  0.00     0.181 C 
ENDROOT
BRANCH   1   2
ATOM      2  C   UNL     1      13.796 -16.043  11.775  1.00  0.00     0.171 C 
BRANCH   2   3
ATOM      3  C   UNL     1      14.683 -14.813  12.049  1.00  0.00     0.190 C 
BRANCH   3   4
ATOM      4  O   UNL     1      14.817 -14.604  13.430  1.00  0.00    -0.394 OA
ATOM      5  H   UNL     1      13.898 -14.509  13.794  1.00  0.00     0.210 HD
ENDBRANCH   3   4
ENDBRANCH   2   3
BRANCH   2   6
ATOM      6  O   UNL     1      12.613 -15.997  12.537  1.00  0.00    -0.388 OA
ATOM      7  H   UNL     1      12.510 -15.075  12.890  1.00  0.00     0.211 HD
ENDBRANCH   2   6
ENDBRANCH   1   2
BRANCH   1   8
ATOM      8  C   UNL     1      13.614 -18.567  12.284  1.00  0.00     0.214 C 
BRANCH   8   9
ATOM      9  C   UNL     1      14.364 -19.886  12.263  1.00  0.00     0.189 C 
ATOM     10  O   UNL     1      15.486 -19.938  12.745  1.00  0.00    -0.294 OA
BRANCH   9  11
ATOM     11  C   UNL     1      13.756 -21.147  11.710  1.00  0.00     0.234 C 
BRANCH  11  12
ATOM     12  O   UNL     1      13.831 -21.130  10.312  1.00  0.00    -0.388 OA
ATOM     13  H   UNL     1      13.488 -22.010  10.008  1.00  0.00     0.211 HD
ENDBRANCH  11  12
ENDBRANCH   9  11
ENDBRANCH   8   9
BRANCH   8  14
ATOM     14  O   UNL     1      12.532 -18.583  11.382  1.00  0.00    -0.382 OA
ATOM     15  H   UNL     1      12.900 -18.537  10.461  1.00  0.00     0.211 HD
ENDBRANCH   8  14
ENDBRANCH   1   8
BRANCH   1  16
ATOM     16  O   UNL     1      15.522 -17.227  13.030  1.00  0.00    -0.387 OA
ATOM     17  H   UNL     1      15.036 -17.106  13.887  1.00  0.00     0.211 HD
ENDBRANCH   1  16
TORSDOF 10
ENDMDL
MODEL 9
REMARK VINA RESULT:    -4.246      9.796     11.053
REMARK INTER + INTRA:          -6.782
REMARK INTER:                  -5.984
REMARK INTRA:                  -0.798
REMARK UNBOUND:                -0.674
REMARK SMILES O=C(CO)[C@H](O)[C@H](O)[C@@H](O)CO
REMARK SMILES IDX 7 1 9 2 11 3 12 4 10 6 5 8 2 9 1 10 3 11 4 12 6 14 8 16
REMARK H PARENT 12 5 10 7 4 13 6 15 8 17
REMARK Flexibility Score: inf
ROOT
ATOM      1  C   UNL     1      13.087  -4.366  25.661  1.00  0.00     0.181 C 
ENDROOT
BRANCH   1   2
ATOM      2  C   UNL     1      14.428  -5.105  25.408  1.00  0.00     0.171 C 
BRANCH   2   3
ATOM      3  C   UNL     1      15.456  -4.198  24.704  1.00  0.00     0.190 C 
BRANCH   3   4
ATOM      4  O   UNL     1      15.201  -4.146  23.326  1.00  0.00    -0.394 OA
ATOM      5  H   UNL     1      15.894  -4.706  22.887  1.00  0.00     0.210 HD
ENDBRANCH   3   4
ENDBRANCH   2   3
BRANCH   2   6
ATOM      6  O   UNL     1      14.231  -6.300  24.692  1.00  0.00    -0.388 OA
ATOM      7  H   UNL     1      14.907  -6.959  24.998  1.00  0.00     0.211 HD
ENDBRANCH   2   6
ENDBRANCH   1   2
BRANCH   1   8
ATOM      8  C   UNL     1      12.084  -5.227  26.480  1.00  0.00     0.214 C 
BRANCH   8   9
ATOM      9  C   UNL     1      10.827  -5.521  25.680  1.00  0.00     0.189 C 
ATOM     10  O   UNL     1       9.892  -4.737  25.737  1.00  0.00    -0.294 OA
BRANCH   9  11
ATOM     11  C   UNL     1      10.710  -6.724  24.784  1.00  0.00     0.234 C 
BRANCH  11  12
ATOM     12  O   UNL     1      10.706  -6.313  23.446  1.00  0.00    -0.388 OA
ATOM     13  H   UNL     1      11.036  -5.377  23.445  1.00  0.00     0.211 HD
ENDBRANCH  11  12
ENDBRANCH   9  11
ENDBRANCH   8   9
BRANCH   8  14
ATOM     14  O   UNL     1      11.772  -4.618  27.712  1.00  0.00    -0.382 OA
ATOM     15  H   UNL     1      12.030  -5.244  28.438  1.00  0.00     0.211 HD
ENDBRANCH   8  14
ENDBRANCH   1   8
BRANCH   1  16
ATOM     16  O   UNL     1      12.516  -3.932  24.449  1.00  0.00    -0.387 OA
ATOM     17  H   UNL     1      12.900  -3.044  24.229  1.00  0.00     0.211 HD
ENDBRANCH   1  16
TORSDOF 10
ENDMDL
