MODEL 1
REMARK VINA RESULT:    -5.242      0.000      0.000
REMARK INTER + INTRA:          -5.395
REMARK INTER:                  -5.395
REMARK INTRA:                   0.000
REMARK UNBOUND:                 0.000
REMARK SMILES Oc1ccc2[nH]ccc2c1
REMARK SMILES IDX 3 1 4 2 5 3 9 4 8 5 7 6 6 7 10 8 2 9 1 11
REMARK H PARENT 6 10 1 12
REMARK Flexibility Score: inf
ROOT
ATOM      1  C   UNL     1      83.492  32.002  66.568  1.00  0.00     0.048 A 
ATOM      2  C   UNL     1      84.637  31.983  67.386  1.00  0.00     0.030 A 
ATOM      3  C   UNL     1      85.808  31.447  66.854  1.00  0.00     0.046 A 
ATOM      4  C   UNL     1      85.858  30.950  65.578  1.00  0.00     0.003 A 
ATOM      5  C   UNL     1      87.142  30.502  65.361  1.00  0.00     0.028 A 
ATOM      6  C   UNL     1      87.822  30.755  66.549  1.00  0.00     0.083 A 
ATOM      7  N   UNL     1      87.002  31.333  67.457  1.00  0.00    -0.361 N 
ATOM      8  C   UNL     1      84.744  30.955  64.743  1.00  0.00     0.056 A 
ATOM      9  C   UNL     1      83.541  31.491  65.250  1.00  0.00     0.116 A 
ATOM     10  H   UNL     1      87.252  31.628  68.428  1.00  0.00     0.166 HD
ENDROOT
BRANCH   9  11
ATOM     11  O   UNL     1      82.394  31.521  64.462  1.00  0.00    -0.508 OA
ATOM     12  H   UNL     1      82.442  31.427  63.454  1.00  0.00     0.293 HD
ENDBRANCH   9  11
TORSDOF 1
ENDMDL
MODEL 2
REMARK VINA RESULT:    -4.465      2.567      3.934
REMARK INTER + INTRA:          -4.596
REMARK INTER:                  -4.596
REMARK INTRA:                   0.000
REMARK UNBOUND:                 0.000
REMARK SMILES Oc1ccc2[nH]ccc2c1
REMARK SMILES IDX 3 1 4 2 5 3 9 4 8 5 7 6 6 7 10 8 2 9 1 11
REMARK H PARENT 6 10 1 12
REMARK Flexibility Score: inf
ROOT
ATOM      1  C   UNL     1      87.351  30.782  65.995  1.00  0.00     0.048 A 
ATOM      2  C   UNL     1      86.463  29.998  65.235  1.00  0.00     0.030 A 
ATOM      3  C   UNL     1      85.123  30.382  65.199  1.00  0.00     0.046 A 
ATOM      4  C   UNL     1      84.672  31.483  65.877  1.00  0.00     0.003 A 
ATOM      5  C   UNL     1      83.318  31.587  65.639  1.00  0.00     0.028 A 
ATOM      6  C   UNL     1      83.012  30.515  64.807  1.00  0.00     0.083 A 
ATOM      7  N   UNL     1      84.118  29.782  64.541  1.00  0.00    -0.361 N 
ATOM      8  C   UNL     1      85.524  32.280  66.638  1.00  0.00     0.056 A 
ATOM      9  C   UNL     1      86.887  31.920  66.695  1.00  0.00     0.116 A 
ATOM     10  H   UNL     1      84.174  28.925  63.946  1.00  0.00     0.166 HD
ENDROOT
BRANCH   9  11
ATOM     11  O   UNL     1      87.787  32.678  67.440  1.00  0.00    -0.508 OA
ATOM     12  H   UNL     1      87.471  33.415  68.060  1.00  0.00     0.293 HD
ENDBRANCH   9  11
TORSDOF 1
ENDMDL
MODEL 3
REMARK VINA RESULT:    -4.383      2.015      3.322
REMARK INTER + INTRA:          -4.511
REMARK INTER:                  -4.511
REMARK INTRA:                   0.000
REMARK UNBOUND:                 0.000
REMARK SMILES Oc1ccc2[nH]ccc2c1
REMARK SMILES IDX 3 1 4 2 5 3 9 4 8 5 7 6 6 7 10 8 2 9 1 11
REMARK H PARENT 6 10 1 12
REMARK Flexibility Score: inf
ROOT
ATOM      1  C   UNL     1      87.819  31.094  65.966  1.00  0.00     0.048 A 
ATOM      2  C   UNL     1      87.171  31.490  67.151  1.00  0.00     0.030 A 
ATOM      3  C   UNL     1      85.785  31.635  67.116  1.00  0.00     0.046 A 
ATOM      4  C   UNL     1      85.065  31.405  65.975  1.00  0.00     0.003 A 
ATOM      5  C   UNL     1      83.739  31.633  66.271  1.00  0.00     0.028 A 
ATOM      6  C   UNL     1      83.724  32.000  67.613  1.00  0.00     0.083 A 
ATOM      7  N   UNL     1      84.977  31.999  68.125  1.00  0.00    -0.361 N 
ATOM      8  C   UNL     1      85.675  31.012  64.786  1.00  0.00     0.056 A 
ATOM      9  C   UNL     1      87.078  30.855  64.786  1.00  0.00     0.116 A 
ATOM     10  H   UNL     1      85.254  32.236  69.104  1.00  0.00     0.166 HD
ENDROOT
BRANCH   9  11
ATOM     11  O   UNL     1      87.744  30.465  63.627  1.00  0.00    -0.508 OA
ATOM     12  H   UNL     1      87.242  30.095  62.827  1.00  0.00     0.293 HD
ENDBRANCH   9  11
TORSDOF 1
ENDMDL
MODEL 4
REMARK VINA RESULT:    -4.377      1.681      2.284
REMARK INTER + INTRA:          -4.505
REMARK INTER:                  -4.505
REMARK INTRA:                   0.000
REMARK UNBOUND:                 0.000
REMARK SMILES Oc1ccc2[nH]ccc2c1
REMARK SMILES IDX 3 1 4 2 5 3 9 4 8 5 7 6 6 7 10 8 2 9 1 11
REMARK H PARENT 6 10 1 12
REMARK Flexibility Score: inf
ROOT
ATOM      1  C   UNL     1      83.313  31.616  65.232  1.00  0.00     0.048 A 
ATOM      2  C   UNL     1      84.506  31.884  64.535  1.00  0.00     0.030 A 
ATOM      3  C   UNL     1      85.655  32.133  65.283  1.00  0.00     0.046 A 
ATOM      4  C   UNL     1      85.640  32.122  66.653  1.00  0.00     0.003 A 
ATOM      5  C   UNL     1      86.919  32.401  67.082  1.00  0.00     0.028 A 
ATOM      6  C   UNL     1      87.663  32.572  65.919  1.00  0.00     0.083 A 
ATOM      7  N   UNL     1      86.887  32.406  64.823  1.00  0.00    -0.361 N 
ATOM      8  C   UNL     1      84.477  31.860  67.373  1.00  0.00     0.056 A 
ATOM      9  C   UNL     1      83.294  31.604  66.646  1.00  0.00     0.116 A 
ATOM     10  H   UNL     1      87.188  32.479  63.825  1.00  0.00     0.166 HD
ENDROOT
BRANCH   9  11
ATOM     11  O   UNL     1      82.101  31.337  67.312  1.00  0.00    -0.508 OA
ATOM     12  H   UNL     1      81.525  32.082  67.686  1.00  0.00     0.293 HD
ENDBRANCH   9  11
TORSDOF 1
ENDMDL
MODEL 5
REMARK VINA RESULT:    -4.340      2.620      3.556
REMARK INTER + INTRA:          -4.467
REMARK INTER:                  -4.467
REMARK INTRA:                   0.000
REMARK UNBOUND:                 0.000
REMARK SMILES Oc1ccc2[nH]ccc2c1
REMARK SMILES IDX 3 1 4 2 5 3 9 4 8 5 7 6 6 7 10 8 2 9 1 11
REMARK H PARENT 6 10 1 12
REMARK Flexibility Score: inf
ROOT
ATOM      1  C   UNL     1      85.825  32.322  67.978  1.00  0.00     0.048 A 
ATOM      2  C   UNL     1      84.445  32.101  67.813  1.00  0.00     0.030 A 
ATOM      3  C   UNL     1      84.005  31.623  66.580  1.00  0.00     0.046 A 
ATOM      4  C   UNL     1      84.875  31.373  65.553  1.00  0.00     0.003 A 
ATOM      5  C   UNL     1      84.133  30.916  64.486  1.00  0.00     0.028 A 
ATOM      6  C   UNL     1      82.816  30.914  64.934  1.00  0.00     0.083 A 
ATOM      7  N   UNL     1      82.743  31.346  66.214  1.00  0.00    -0.361 N 
ATOM      8  C   UNL     1      86.247  31.580  65.683  1.00  0.00     0.056 A 
ATOM      9  C   UNL     1      86.726  32.063  66.919  1.00  0.00     0.116 A 
ATOM     10  H   UNL     1      81.880  31.445  66.794  1.00  0.00     0.166 HD
ENDROOT
BRANCH   9  11
ATOM     11  O   UNL     1      88.087  32.290  67.108  1.00  0.00    -0.508 OA
ATOM     12  H   UNL     1      88.421  32.999  67.751  1.00  0.00     0.293 HD
ENDBRANCH   9  11
TORSDOF 1
ENDMDL
MODEL 6
REMARK VINA RESULT:    -4.292     17.031     17.307
REMARK INTER + INTRA:          -4.418
REMARK INTER:                  -4.418
REMARK INTRA:                   0.000
REMARK UNBOUND:                 0.000
REMARK SMILES Oc1ccc2[nH]ccc2c1
REMARK SMILES IDX 3 1 4 2 5 3 9 4 8 5 7 6 6 7 10 8 2 9 1 11
REMARK H PARENT 6 10 1 12
REMARK Flexibility Score: inf
ROOT
ATOM      1  C   UNL     1      74.765  36.125  53.538  1.00  0.00     0.048 A 
ATOM      2  C   UNL     1      73.876  36.121  54.629  1.00  0.00     0.030 A 
ATOM      3  C   UNL     1      73.123  34.969  54.850  1.00  0.00     0.046 A 
ATOM      4  C   UNL     1      73.232  33.870  54.039  1.00  0.00     0.003 A 
ATOM      5  C   UNL     1      72.365  32.915  54.521  1.00  0.00     0.028 A 
ATOM      6  C   UNL     1      71.758  33.499  55.628  1.00  0.00     0.083 A 
ATOM      7  N   UNL     1      72.224  34.754  55.824  1.00  0.00    -0.361 N 
ATOM      8  C   UNL     1      74.103  33.842  52.952  1.00  0.00     0.056 A 
ATOM      9  C   UNL     1      74.881  34.992  52.700  1.00  0.00     0.116 A 
ATOM     10  H   UNL     1      71.940  35.417  56.580  1.00  0.00     0.166 HD
ENDROOT
BRANCH   9  11
ATOM     11  O   UNL     1      75.768  35.023  51.627  1.00  0.00    -0.508 OA
ATOM     12  H   UNL     1      76.241  35.877  51.356  1.00  0.00     0.293 HD
ENDBRANCH   9  11
TORSDOF 1
ENDMDL
MODEL 7
REMARK VINA RESULT:    -4.197     15.548     16.865
REMARK INTER + INTRA:          -4.320
REMARK INTER:                  -4.320
REMARK INTRA:                   0.000
REMARK UNBOUND:                 0.000
REMARK SMILES Oc1ccc2[nH]ccc2c1
REMARK SMILES IDX 3 1 4 2 5 3 9 4 8 5 7 6 6 7 10 8 2 9 1 11
REMARK H PARENT 6 10 1 12
REMARK Flexibility Score: inf
ROOT
ATOM      1  C   UNL     1      80.622  33.627  50.853  1.00  0.00     0.048 A 
ATOM      2  C   UNL     1      80.014  34.628  50.073  1.00  0.00     0.030 A 
ATOM      3  C   UNL     1      78.757  35.086  50.465  1.00  0.00     0.046 A 
ATOM      4  C   UNL     1      78.122  34.586  51.571  1.00  0.00     0.003 A 
ATOM      5  C   UNL     1      76.914  35.240  51.682  1.00  0.00     0.028 A 
ATOM      6  C   UNL     1      76.879  36.125  50.610  1.00  0.00     0.083 A 
ATOM      7  N   UNL     1      78.007  36.027  49.869  1.00  0.00    -0.361 N 
ATOM      8  C   UNL     1      78.695  33.596  52.365  1.00  0.00     0.056 A 
ATOM      9  C   UNL     1      79.968  33.110  51.996  1.00  0.00     0.116 A 
ATOM     10  H   UNL     1      78.243  36.573  49.010  1.00  0.00     0.166 HD
ENDROOT
BRANCH   9  11
ATOM     11  O   UNL     1      80.591  32.120  52.750  1.00  0.00    -0.508 OA
ATOM     12  H   UNL     1      80.792  32.252  53.735  1.00  0.00     0.293 HD
ENDBRANCH   9  11
TORSDOF 1
ENDMDL
MODEL 8
REMARK VINA RESULT:    -4.178     17.085     17.277
REMARK INTER + INTRA:          -4.300
REMARK INTER:                  -4.300
REMARK INTRA:                   0.000
REMARK UNBOUND:                 0.000
REMARK SMILES Oc1ccc2[nH]ccc2c1
REMARK SMILES IDX 3 1 4 2 5 3 9 4 8 5 7 6 6 7 10 8 2 9 1 11
REMARK H PARENT 6 10 1 12
REMARK Flexibility Score: inf
ROOT
ATOM      1  C   UNL     1      72.066  33.076  55.023  1.00  0.00     0.048 A 
ATOM      2  C   UNL     1      72.905  32.956  53.899  1.00  0.00     0.030 A 
ATOM      3  C   UNL     1      73.669  34.064  53.537  1.00  0.00     0.046 A 
ATOM      4  C   UNL     1      73.615  35.238  54.242  1.00  0.00     0.003 A 
ATOM      5  C   UNL     1      74.478  36.123  53.634  1.00  0.00     0.028 A 
ATOM      6  C   UNL     1      75.024  35.422  52.563  1.00  0.00     0.083 A 
ATOM      7  N   UNL     1      74.527  34.165  52.509  1.00  0.00    -0.361 N 
ATOM      8  C   UNL     1      72.796  35.389  55.358  1.00  0.00     0.056 A 
ATOM      9  C   UNL     1      72.009  34.286  55.753  1.00  0.00     0.116 A 
ATOM     10  H   UNL     1      74.764  33.427  51.808  1.00  0.00     0.166 HD
ENDROOT
BRANCH   9  11
ATOM     11  O   UNL     1      71.171  34.377  56.861  1.00  0.00    -0.508 OA
ATOM     12  H   UNL     1      70.369  34.997  56.868  1.00  0.00     0.293 HD
ENDBRANCH   9  11
TORSDOF 1
ENDMDL
MODEL 9
REMARK VINA RESULT:    -4.031     15.788     16.903
REMARK INTER + INTRA:          -4.149
REMARK INTER:                  -4.149
REMARK INTRA:                   0.000
REMARK UNBOUND:                 0.000
REMARK SMILES Oc1ccc2[nH]ccc2c1
REMARK SMILES IDX 3 1 4 2 5 3 9 4 8 5 7 6 6 7 10 8 2 9 1 11
REMARK H PARENT 6 10 1 12
REMARK Flexibility Score: inf
ROOT
ATOM      1  C   UNL     1      70.895  33.652  57.400  1.00  0.00     0.048 A 
ATOM      2  C   UNL     1      70.683  33.996  56.052  1.00  0.00     0.030 A 
ATOM      3  C   UNL     1      71.674  33.659  55.131  1.00  0.00     0.046 A 
ATOM      4  C   UNL     1      72.821  33.014  55.511  1.00  0.00     0.003 A 
ATOM      5  C   UNL     1      73.583  32.828  54.378  1.00  0.00     0.028 A 
ATOM      6  C   UNL     1      72.839  33.385  53.343  1.00  0.00     0.083 A 
ATOM      7  N   UNL     1      71.673  33.891  53.808  1.00  0.00    -0.361 N 
ATOM      8  C   UNL     1      73.061  32.659  56.836  1.00  0.00     0.056 A 
ATOM      9  C   UNL     1      72.078  32.986  57.795  1.00  0.00     0.116 A 
ATOM     10  H   UNL     1      70.928  34.365  53.249  1.00  0.00     0.166 HD
ENDROOT
BRANCH   9  11
ATOM     11  O   UNL     1      72.263  32.657  59.135  1.00  0.00    -0.508 OA
ATOM     12  H   UNL     1      71.544  32.834  59.827  1.00  0.00     0.293 HD
ENDBRANCH   9  11
TORSDOF 1
ENDMDL
