MODEL 1
REMARK VINA RESULT:    -2.093      0.000      0.000
REMARK INTER + INTRA:          -2.093
REMARK INTER:                  -2.093
REMARK INTRA:                   0.000
REMARK UNBOUND:                 0.000
REMARK SMILES CC(=O)[O-]
REMARK SMILES IDX 1 1 2 2 3 3 4 4
REMARK H PARENT
REMARK Flexibility Score: inf
ROOT
ATOM      1  C   UNL     1     192.018   3.671  95.211  1.00  0.00     0.063 C 
ATOM      2  C   UNL     1     192.024   2.248  94.765  1.00  0.00     0.038 C 
ATOM      3  O   UNL     1     192.518   1.356  95.504  1.00  0.00    -0.550 OA
ATOM      4  O   UNL     1     191.438   1.895  93.556  1.00  0.00    -0.550 OA
ENDROOT
TORSDOF 0
ENDMDL
MODEL 2
REMARK VINA RESULT:    -2.090      3.917      4.252
REMARK INTER + INTRA:          -2.090
REMARK INTER:                  -2.090
REMARK INTRA:                   0.000
REMARK UNBOUND:                 0.000
REMARK SMILES CC(=O)[O-]
REMARK SMILES IDX 1 1 2 2 3 3 4 4
REMARK H PARENT
REMARK Flexibility Score: inf
ROOT
ATOM      1  C   UNL     1     192.432   4.456  98.901  1.00  0.00     0.063 C 
ATOM      2  C   UNL     1     191.650   3.231  98.566  1.00  0.00     0.038 C 
ATOM      3  O   UNL     1     190.522   3.332  98.016  1.00  0.00    -0.550 OA
ATOM      4  O   UNL     1     192.187   1.974  98.810  1.00  0.00    -0.550 OA
ENDROOT
TORSDOF 0
ENDMDL
MODEL 3
REMARK VINA RESULT:    -2.048      3.483      3.804
REMARK INTER + INTRA:          -2.048
REMARK INTER:                  -2.048
REMARK INTRA:                   0.000
REMARK UNBOUND:                 0.000
REMARK SMILES CC(=O)[O-]
REMARK SMILES IDX 1 1 2 2 3 3 4 4
REMARK H PARENT
REMARK Flexibility Score: inf
ROOT
ATOM      1  C   UNL     1     192.047   4.246  98.618  1.00  0.00     0.063 C 
ATOM      2  C   UNL     1     190.890   3.600  97.935  1.00  0.00     0.038 C 
ATOM      3  O   UNL     1     189.751   3.615  98.472  1.00  0.00    -0.550 OA
ATOM      4  O   UNL     1     191.053   3.026  96.681  1.00  0.00    -0.550 OA
ENDROOT
TORSDOF 0
ENDMDL
MODEL 4
REMARK VINA RESULT:    -2.046      3.310      3.706
REMARK INTER + INTRA:          -2.046
REMARK INTER:                  -2.046
REMARK INTRA:                   0.000
REMARK UNBOUND:                 0.000
REMARK SMILES CC(=O)[O-]
REMARK SMILES IDX 1 1 2 2 3 3 4 4
REMARK H PARENT
REMARK Flexibility Score: inf
ROOT
ATOM      1  C   UNL     1     192.101   4.255  98.627  1.00  0.00     0.063 C 
ATOM      2  C   UNL     1     191.109   3.503  97.806  1.00  0.00     0.038 C 
ATOM      3  O   UNL     1     191.500   2.762  96.866  1.00  0.00    -0.550 OA
ATOM      4  O   UNL     1     189.756   3.576  98.109  1.00  0.00    -0.550 OA
ENDROOT
TORSDOF 0
ENDMDL
MODEL 5
REMARK VINA RESULT:    -2.038      1.859      1.997
REMARK INTER + INTRA:          -2.038
REMARK INTER:                  -2.038
REMARK INTRA:                   0.000
REMARK UNBOUND:                 0.000
REMARK SMILES CC(=O)[O-]
REMARK SMILES IDX 1 1 2 2 3 3 4 4
REMARK H PARENT
REMARK Flexibility Score: inf
ROOT
ATOM      1  C   UNL     1     191.264   3.637  96.710  1.00  0.00     0.063 C 
ATOM      2  C   UNL     1     191.860   3.592  95.344  1.00  0.00     0.038 C 
ATOM      3  O   UNL     1     192.315   2.509  94.889  1.00  0.00    -0.550 OA
ATOM      4  O   UNL     1     191.868   4.731  94.549  1.00  0.00    -0.550 OA
ENDROOT
TORSDOF 0
ENDMDL
MODEL 6
REMARK VINA RESULT:    -2.026     13.893     14.177
REMARK INTER + INTRA:          -2.026
REMARK INTER:                  -2.026
REMARK INTRA:                   0.000
REMARK UNBOUND:                 0.000
REMARK SMILES CC(=O)[O-]
REMARK SMILES IDX 1 1 2 2 3 3 4 4
REMARK H PARENT
REMARK Flexibility Score: inf
ROOT
ATOM      1  C   UNL     1     184.829  12.125 103.826  1.00  0.00     0.063 C 
ATOM      2  C   UNL     1     184.951  11.838 102.368  1.00  0.00     0.038 C 
ATOM      3  O   UNL     1     186.059  11.978 101.787  1.00  0.00    -0.550 OA
ATOM      4  O   UNL     1     183.856  11.364 101.658  1.00  0.00    -0.550 OA
ENDROOT
TORSDOF 0
ENDMDL
MODEL 7
REMARK VINA RESULT:    -1.950     12.122     12.300
REMARK INTER + INTRA:          -1.950
REMARK INTER:                  -1.950
REMARK INTRA:                   0.000
REMARK UNBOUND:                 0.000
REMARK SMILES CC(=O)[O-]
REMARK SMILES IDX 1 1 2 2 3 3 4 4
REMARK H PARENT
REMARK Flexibility Score: inf
ROOT
ATOM      1  C   UNL     1     188.232  -8.125 100.500  1.00  0.00     0.063 C 
ATOM      2  C   UNL     1     188.944  -7.319 101.533  1.00  0.00     0.038 C 
ATOM      3  O   UNL     1     190.201  -7.360 101.611  1.00  0.00    -0.550 OA
ATOM      4  O   UNL     1     188.229  -6.481 102.378  1.00  0.00    -0.550 OA
ENDROOT
TORSDOF 0
ENDMDL
MODEL 8
REMARK VINA RESULT:    -1.938      2.269      2.344
REMARK INTER + INTRA:          -1.938
REMARK INTER:                  -1.938
REMARK INTRA:                   0.000
REMARK UNBOUND:                 0.000
REMARK SMILES CC(=O)[O-]
REMARK SMILES IDX 1 1 2 2 3 3 4 4
REMARK H PARENT
REMARK Flexibility Score: inf
ROOT
ATOM      1  C   UNL     1     192.015   3.864  95.270  1.00  0.00     0.063 C 
ATOM      2  C   UNL     1     191.041   3.298  96.246  1.00  0.00     0.038 C 
ATOM      3  O   UNL     1     191.443   2.844  97.349  1.00  0.00    -0.550 OA
ATOM      4  O   UNL     1     189.681   3.317  95.964  1.00  0.00    -0.550 OA
ENDROOT
TORSDOF 0
ENDMDL
MODEL 9
REMARK VINA RESULT:    -1.932      3.764      3.953
REMARK INTER + INTRA:          -1.932
REMARK INTER:                  -1.932
REMARK INTRA:                   0.000
REMARK UNBOUND:                 0.000
REMARK SMILES CC(=O)[O-]
REMARK SMILES IDX 1 1 2 2 3 3 4 4
REMARK H PARENT
REMARK Flexibility Score: inf
ROOT
ATOM      1  C   UNL     1     190.160   3.850  97.936  1.00  0.00     0.063 C 
ATOM      2  C   UNL     1     189.262   3.486  96.803  1.00  0.00     0.038 C 
ATOM      3  O   UNL     1     189.703   3.481  95.623  1.00  0.00    -0.550 OA
ATOM      4  O   UNL     1     187.951   3.100  97.049  1.00  0.00    -0.550 OA
ENDROOT
TORSDOF 0
ENDMDL
