MODEL 1
REMARK VINA RESULT:    -4.679      0.000      0.000
REMARK INTER + INTRA:          -5.528
REMARK INTER:                  -5.363
REMARK INTRA:                  -0.165
REMARK UNBOUND:                -0.165
REMARK SMILES CC=Cc1ccc(O)c(OC)c1
REMARK SMILES IDX 4 1 12 2 9 3 7 4 6 5 5 6 3 7 1 8 2 9 10 10 11 11 8 12
REMARK H PARENT 8 13
REMARK Flexibility Score: inf
ROOT
ATOM      1  C   UNL     1      68.603  50.843  21.172  1.00  0.00    -0.022 A 
ATOM      2  C   UNL     1      69.616  51.556  21.835  1.00  0.00     0.058 A 
ATOM      3  C   UNL     1      70.412  50.936  22.819  1.00  0.00     0.161 A 
ATOM      4  C   UNL     1      70.189  49.583  23.129  1.00  0.00     0.157 A 
ATOM      5  C   UNL     1      69.194  48.867  22.461  1.00  0.00     0.051 A 
ATOM      6  C   UNL     1      68.408  49.486  21.486  1.00  0.00     0.012 A 
ENDROOT
BRANCH   1   7
ATOM      7  C   UNL     1      67.802  51.543  20.136  1.00  0.00     0.003 C 
ATOM      8  C   UNL     1      65.964  51.793  18.515  1.00  0.00     0.035 C 
ATOM      9  C   UNL     1      66.727  51.016  19.538  1.00  0.00    -0.030 C 
ENDBRANCH   1   7
BRANCH   3  10
ATOM     10  O   UNL     1      71.423  51.631  23.503  1.00  0.00    -0.493 OA
ATOM     11  C   UNL     1      72.119  52.761  22.988  1.00  0.00     0.278 C 
ENDBRANCH   3  10
BRANCH   4  12
ATOM     12  O   UNL     1      70.953  48.931  24.098  1.00  0.00    -0.504 OA
ATOM     13  H   UNL     1      70.702  48.938  25.079  1.00  0.00     0.293 HD
ENDBRANCH   4  12
TORSDOF 3
ENDMDL
MODEL 2
REMARK VINA RESULT:    -4.610      1.351      2.916
REMARK INTER + INTRA:          -5.449
REMARK INTER:                  -5.297
REMARK INTRA:                  -0.151
REMARK UNBOUND:                -0.165
REMARK SMILES CC=Cc1ccc(O)c(OC)c1
REMARK SMILES IDX 4 1 12 2 9 3 7 4 6 5 5 6 3 7 1 8 2 9 10 10 11 11 8 12
REMARK H PARENT 8 13
REMARK Flexibility Score: inf
ROOT
ATOM      1  C   UNL     1      68.568  52.251  19.980  1.00  0.00    -0.022 A 
ATOM      2  C   UNL     1      68.648  51.156  20.857  1.00  0.00     0.058 A 
ATOM      3  C   UNL     1      69.715  51.037  21.770  1.00  0.00     0.161 A 
ATOM      4  C   UNL     1      70.703  52.036  21.804  1.00  0.00     0.157 A 
ATOM      5  C   UNL     1      70.618  53.133  20.945  1.00  0.00     0.051 A 
ATOM      6  C   UNL     1      69.560  53.247  20.042  1.00  0.00     0.012 A 
ENDROOT
BRANCH   1   7
ATOM      7  C   UNL     1      67.416  52.330  19.046  1.00  0.00     0.003 C 
ATOM      8  C   UNL     1      65.206  51.701  18.155  1.00  0.00     0.035 C 
ATOM      9  C   UNL     1      66.333  51.548  19.127  1.00  0.00    -0.030 C 
ENDBRANCH   1   7
BRANCH   3  10
ATOM     10  O   UNL     1      69.821  49.947  22.649  1.00  0.00    -0.493 OA
ATOM     11  C   UNL     1      68.971  48.805  22.631  1.00  0.00     0.278 C 
ENDBRANCH   3  10
BRANCH   4  12
ATOM     12  O   UNL     1      71.777  51.957  22.691  1.00  0.00    -0.504 OA
ATOM     13  H   UNL     1      72.718  52.225  22.427  1.00  0.00     0.293 HD
ENDBRANCH   4  12
TORSDOF 3
ENDMDL
MODEL 3
REMARK VINA RESULT:    -4.543      5.078      6.173
REMARK INTER + INTRA:          -5.371
REMARK INTER:                  -5.194
REMARK INTRA:                  -0.177
REMARK UNBOUND:                -0.165
REMARK SMILES CC=Cc1ccc(O)c(OC)c1
REMARK SMILES IDX 4 1 12 2 9 3 7 4 6 5 5 6 3 7 1 8 2 9 10 10 11 11 8 12
REMARK H PARENT 8 13
REMARK Flexibility Score: inf
ROOT
ATOM      1  C   UNL     1      69.298  52.968  17.589  1.00  0.00    -0.022 A 
ATOM      2  C   UNL     1      69.725  53.933  16.661  1.00  0.00     0.058 A 
ATOM      3  C   UNL     1      71.087  54.278  16.552  1.00  0.00     0.161 A 
ATOM      4  C   UNL     1      72.026  53.638  17.379  1.00  0.00     0.157 A 
ATOM      5  C   UNL     1      71.607  52.667  18.292  1.00  0.00     0.051 A 
ATOM      6  C   UNL     1      70.256  52.329  18.397  1.00  0.00     0.012 A 
ENDROOT
BRANCH   1   7
ATOM      7  C   UNL     1      67.852  52.636  17.654  1.00  0.00     0.003 C 
ATOM      8  C   UNL     1      65.815  51.683  18.661  1.00  0.00     0.035 C 
ATOM      9  C   UNL     1      67.284  51.965  18.663  1.00  0.00    -0.030 C 
ENDBRANCH   1   7
BRANCH   3  10
ATOM     10  O   UNL     1      71.537  55.246  15.639  1.00  0.00    -0.493 OA
ATOM     11  C   UNL     1      71.423  55.139  14.223  1.00  0.00     0.278 C 
ENDBRANCH   3  10
BRANCH   4  12
ATOM     12  O   UNL     1      73.384  53.950  17.305  1.00  0.00    -0.504 OA
ATOM     13  H   UNL     1      74.105  53.293  17.578  1.00  0.00     0.293 HD
ENDBRANCH   4  12
TORSDOF 3
ENDMDL
MODEL 4
REMARK VINA RESULT:    -4.359      3.901      5.335
REMARK INTER + INTRA:          -5.161
REMARK INTER:                  -5.007
REMARK INTRA:                  -0.154
REMARK UNBOUND:                -0.165
REMARK SMILES CC=Cc1ccc(O)c(OC)c1
REMARK SMILES IDX 4 1 12 2 9 3 7 4 6 5 5 6 3 7 1 8 2 9 10 10 11 11 8 12
REMARK H PARENT 8 13
REMARK Flexibility Score: inf
ROOT
ATOM      1  C   UNL     1      70.224  52.721  18.128  1.00  0.00    -0.022 A 
ATOM      2  C   UNL     1      70.050  52.156  19.402  1.00  0.00     0.058 A 
ATOM      3  C   UNL     1      68.773  51.767  19.854  1.00  0.00     0.161 A 
ATOM      4  C   UNL     1      67.664  51.941  19.008  1.00  0.00     0.157 A 
ATOM      5  C   UNL     1      67.835  52.488  17.734  1.00  0.00     0.051 A 
ATOM      6  C   UNL     1      69.102  52.872  17.291  1.00  0.00     0.012 A 
ENDROOT
BRANCH   1   7
ATOM      7  C   UNL     1      71.593  53.103  17.700  1.00  0.00     0.003 C 
ATOM      8  C   UNL     1      73.485  54.644  17.357  1.00  0.00     0.035 C 
ATOM      9  C   UNL     1      72.088  54.343  17.796  1.00  0.00    -0.030 C 
ENDBRANCH   1   7
BRANCH   3  10
ATOM     10  O   UNL     1      68.574  51.210  21.127  1.00  0.00    -0.493 OA
ATOM     11  C   UNL     1      69.337  50.138  21.671  1.00  0.00     0.278 C 
ENDBRANCH   3  10
BRANCH   4  12
ATOM     12  O   UNL     1      66.382  51.571  19.415  1.00  0.00    -0.504 OA
ATOM     13  H   UNL     1      65.689  52.251  19.704  1.00  0.00     0.293 HD
ENDBRANCH   4  12
TORSDOF 3
ENDMDL
MODEL 5
REMARK VINA RESULT:    -4.268      3.491      5.022
REMARK INTER + INTRA:          -5.056
REMARK INTER:                  -4.908
REMARK INTRA:                  -0.148
REMARK UNBOUND:                -0.165
REMARK SMILES CC=Cc1ccc(O)c(OC)c1
REMARK SMILES IDX 4 1 12 2 9 3 7 4 6 5 5 6 3 7 1 8 2 9 10 10 11 11 8 12
REMARK H PARENT 8 13
REMARK Flexibility Score: inf
ROOT
ATOM      1  C   UNL     1      69.029  51.876  19.793  1.00  0.00    -0.022 A 
ATOM      2  C   UNL     1      70.286  52.505  19.807  1.00  0.00     0.058 A 
ATOM      3  C   UNL     1      70.729  53.262  18.705  1.00  0.00     0.161 A 
ATOM      4  C   UNL     1      69.893  53.394  17.582  1.00  0.00     0.157 A 
ATOM      5  C   UNL     1      68.637  52.784  17.571  1.00  0.00     0.051 A 
ATOM      6  C   UNL     1      68.202  52.034  18.665  1.00  0.00     0.012 A 
ENDROOT
BRANCH   1   7
ATOM      7  C   UNL     1      68.610  51.099  20.986  1.00  0.00     0.003 C 
ATOM      8  C   UNL     1      68.867  49.417  22.768  1.00  0.00     0.035 C 
ATOM      9  C   UNL     1      69.355  50.144  21.557  1.00  0.00    -0.030 C 
ENDBRANCH   1   7
BRANCH   3  10
ATOM     10  O   UNL     1      71.984  53.891  18.692  1.00  0.00    -0.493 OA
ATOM     11  C   UNL     1      72.715  54.265  19.856  1.00  0.00     0.278 C 
ENDBRANCH   3  10
BRANCH   4  12
ATOM     12  O   UNL     1      70.292  54.134  16.469  1.00  0.00    -0.504 OA
ATOM     13  H   UNL     1      69.634  54.656  15.903  1.00  0.00     0.293 HD
ENDBRANCH   4  12
TORSDOF 3
ENDMDL
MODEL 6
REMARK VINA RESULT:    -4.238      4.027      5.323
REMARK INTER + INTRA:          -5.023
REMARK INTER:                  -4.863
REMARK INTRA:                  -0.160
REMARK UNBOUND:                -0.165
REMARK SMILES CC=Cc1ccc(O)c(OC)c1
REMARK SMILES IDX 4 1 12 2 9 3 7 4 6 5 5 6 3 7 1 8 2 9 10 10 11 11 8 12
REMARK H PARENT 8 13
REMARK Flexibility Score: inf
ROOT
ATOM      1  C   UNL     1      69.866  53.307  18.016  1.00  0.00    -0.022 A 
ATOM      2  C   UNL     1      68.604  52.702  18.141  1.00  0.00     0.058 A 
ATOM      3  C   UNL     1      68.281  51.933  19.277  1.00  0.00     0.161 A 
ATOM      4  C   UNL     1      69.235  51.781  20.297  1.00  0.00     0.157 A 
ATOM      5  C   UNL     1      70.485  52.394  20.183  1.00  0.00     0.051 A 
ATOM      6  C   UNL     1      70.801  53.155  19.056  1.00  0.00     0.012 A 
ENDROOT
BRANCH   1   7
ATOM      7  C   UNL     1      70.149  54.115  16.803  1.00  0.00     0.003 C 
ATOM      8  C   UNL     1      71.561  55.050  15.012  1.00  0.00     0.035 C 
ATOM      9  C   UNL     1      71.361  54.227  16.245  1.00  0.00    -0.030 C 
ENDBRANCH   1   7
BRANCH   3  10
ATOM     10  O   UNL     1      67.030  51.311  19.420  1.00  0.00    -0.493 OA
ATOM     11  C   UNL     1      65.846  51.703  18.732  1.00  0.00     0.278 C 
ENDBRANCH   3  10
BRANCH   4  12
ATOM     12  O   UNL     1      68.957  51.027  21.438  1.00  0.00    -0.504 OA
ATOM     13  H   UNL     1      69.682  50.735  22.083  1.00  0.00     0.293 HD
ENDBRANCH   4  12
TORSDOF 3
ENDMDL
MODEL 7
REMARK VINA RESULT:    -4.138      4.568      5.700
REMARK INTER + INTRA:          -4.908
REMARK INTER:                  -4.742
REMARK INTRA:                  -0.166
REMARK UNBOUND:                -0.165
REMARK SMILES CC=Cc1ccc(O)c(OC)c1
REMARK SMILES IDX 4 1 12 2 9 3 7 4 6 5 5 6 3 7 1 8 2 9 10 10 11 11 8 12
REMARK H PARENT 8 13
REMARK Flexibility Score: inf
ROOT
ATOM      1  C   UNL     1      69.213  52.976  18.271  1.00  0.00    -0.022 A 
ATOM      2  C   UNL     1      68.745  53.703  19.378  1.00  0.00     0.058 A 
ATOM      3  C   UNL     1      67.418  53.557  19.831  1.00  0.00     0.161 A 
ATOM      4  C   UNL     1      66.560  52.663  19.165  1.00  0.00     0.157 A 
ATOM      5  C   UNL     1      67.028  51.928  18.074  1.00  0.00     0.051 A 
ATOM      6  C   UNL     1      68.343  52.076  17.629  1.00  0.00     0.012 A 
ENDROOT
BRANCH   1   7
ATOM      7  C   UNL     1      70.623  53.161  17.845  1.00  0.00     0.003 C 
ATOM      8  C   UNL     1      72.480  54.275  16.669  1.00  0.00     0.035 C 
ATOM      9  C   UNL     1      71.038  54.148  17.040  1.00  0.00    -0.030 C 
ENDBRANCH   1   7
BRANCH   3  10
ATOM     10  O   UNL     1      66.924  54.279  20.929  1.00  0.00    -0.493 OA
ATOM     11  C   UNL     1      66.433  55.614  20.865  1.00  0.00     0.278 C 
ENDBRANCH   3  10
BRANCH   4  12
ATOM     12  O   UNL     1      65.239  52.489  19.579  1.00  0.00    -0.504 OA
ATOM     13  H   UNL     1      64.965  51.749  20.215  1.00  0.00     0.293 HD
ENDBRANCH   4  12
TORSDOF 3
ENDMDL
MODEL 8
REMARK VINA RESULT:    -4.052      3.611      4.823
REMARK INTER + INTRA:          -4.809
REMARK INTER:                  -4.659
REMARK INTRA:                  -0.150
REMARK UNBOUND:                -0.165
REMARK SMILES CC=Cc1ccc(O)c(OC)c1
REMARK SMILES IDX 4 1 12 2 9 3 7 4 6 5 5 6 3 7 1 8 2 9 10 10 11 11 8 12
REMARK H PARENT 8 13
REMARK Flexibility Score: inf
ROOT
ATOM      1  C   UNL     1      69.421  52.842  18.016  1.00  0.00    -0.022 A 
ATOM      2  C   UNL     1      70.050  52.839  19.273  1.00  0.00     0.058 A 
ATOM      3  C   UNL     1      71.286  53.487  19.464  1.00  0.00     0.161 A 
ATOM      4  C   UNL     1      71.888  54.151  18.382  1.00  0.00     0.157 A 
ATOM      5  C   UNL     1      71.259  54.169  17.135  1.00  0.00     0.051 A 
ATOM      6  C   UNL     1      70.034  53.526  16.950  1.00  0.00     0.012 A 
ENDROOT
BRANCH   1   7
ATOM      7  C   UNL     1      68.114  52.152  17.874  1.00  0.00     0.003 C 
ATOM      8  C   UNL     1      65.900  51.370  18.622  1.00  0.00     0.035 C 
ATOM      9  C   UNL     1      67.201  52.071  18.850  1.00  0.00    -0.030 C 
ENDBRANCH   1   7
BRANCH   3  10
ATOM     10  O   UNL     1      71.938  53.490  20.708  1.00  0.00    -0.493 OA
ATOM     11  C   UNL     1      71.499  52.768  21.854  1.00  0.00     0.278 C 
ENDBRANCH   3  10
BRANCH   4  12
ATOM     12  O   UNL     1      73.112  54.805  18.527  1.00  0.00    -0.504 OA
ATOM     13  H   UNL     1      73.311  55.411  19.314  1.00  0.00     0.293 HD
ENDBRANCH   4  12
TORSDOF 3
ENDMDL
