MODEL 1
REMARK VINA RESULT:    -4.830      0.000      0.000
REMARK INTER + INTRA:         -15.913
REMARK INTER:                 -12.171
REMARK INTRA:                  -3.742
REMARK UNBOUND:                -3.742
REMARK SMILES CCCCCCCCCCCCCCCCCCCCCCCCCCCC(=O)[O-]
REMARK SMILES IDX 15 1 16 2 17 3 18 4 19 5 20 6 21 7 22 8 23 9 24 10 25 11
REMARK SMILES IDX 26 12 27 13 28 14 29 15 30 16 14 17 13 18 12 19 11 20 10 21
REMARK SMILES IDX 9 22 8 23 7 24 6 25 5 26 4 27 3 28 2 29 1 30
REMARK H PARENT
REMARK Flexibility Score: inf
ROOT
ATOM      1  C   UNL     1      40.960 116.874  14.583  1.00  0.00     0.000 C 
ENDROOT
BRANCH   1   2
ATOM      2  C   UNL     1      40.316 115.813  15.502  1.00  0.00     0.000 C 
BRANCH   2   3
ATOM      3  C   UNL     1      40.834 114.387  15.248  1.00  0.00     0.000 C 
BRANCH   3   4
ATOM      4  C   UNL     1      40.282 113.365  16.256  1.00  0.00     0.000 C 
BRANCH   4   5
ATOM      5  C   UNL     1      39.091 112.570  15.696  1.00  0.00     0.000 C 
BRANCH   5   6
ATOM      6  C   UNL     1      37.870 112.595  16.627  1.00  0.00     0.000 C 
BRANCH   6   7
ATOM      7  C   UNL     1      36.605 112.990  15.856  1.00  0.00     0.000 C 
BRANCH   7   8
ATOM      8  C   UNL     1      36.735 114.400  15.260  1.00  0.00     0.000 C 
BRANCH   8   9
ATOM      9  C   UNL     1      36.633 115.512  16.328  1.00  0.00     0.000 C 
BRANCH   9  10
ATOM     10  C   UNL     1      36.717 116.937  15.748  1.00  0.00     0.000 C 
BRANCH  10  11
ATOM     11  C   UNL     1      37.135 116.989  14.269  1.00  0.00     0.000 C 
BRANCH  11  12
ATOM     12  C   UNL     1      36.231 117.906  13.414  1.00  0.00     0.006 C 
BRANCH  12  13
ATOM     13  C   UNL     1      35.481 118.938  14.267  1.00  0.00     0.053 C 
BRANCH  13  14
ATOM     14  C   UNL     1      36.373 120.091  14.602  1.00  0.00     0.041 C 
ATOM     15  O   UNL     1      37.060 120.644  13.703  1.00  0.00    -0.550 OA
ATOM     16  O   UNL     1      36.411 120.585  15.901  1.00  0.00    -0.550 OA
ENDBRANCH  13  14
ENDBRANCH  12  13
ENDBRANCH  11  12
ENDBRANCH  10  11
ENDBRANCH   9  10
ENDBRANCH   8   9
ENDBRANCH   7   8
ENDBRANCH   6   7
ENDBRANCH   5   6
ENDBRANCH   4   5
ENDBRANCH   3   4
ENDBRANCH   2   3
ENDBRANCH   1   2
BRANCH   1  17
ATOM     17  C   UNL     1      41.111 116.372  13.136  1.00  0.00     0.000 C 
BRANCH  17  18
ATOM     18  C   UNL     1      40.268 117.196  12.138  1.00  0.00     0.000 C 
BRANCH  18  19
ATOM     19  C   UNL     1      41.098 117.870  11.034  1.00  0.00     0.000 C 
BRANCH  19  20
ATOM     20  C   UNL     1      42.327 117.048  10.621  1.00  0.00     0.000 C 
BRANCH  20  21
ATOM     21  C   UNL     1      42.537 117.098   9.102  1.00  0.00     0.000 C 
BRANCH  21  22
ATOM     22  C   UNL     1      43.842 116.392   8.705  1.00  0.00    -0.000 C 
BRANCH  22  23
ATOM     23  C   UNL     1      43.849 114.894   9.062  1.00  0.00    -0.000 C 
BRANCH  23  24
ATOM     24  C   UNL     1      45.163 114.373   9.674  1.00  0.00    -0.000 C 
BRANCH  24  25
ATOM     25  C   UNL     1      44.996 113.392  10.851  1.00  0.00    -0.000 C 
BRANCH  25  26
ATOM     26  C   UNL     1      43.747 113.660  11.723  1.00  0.00    -0.000 C 
BRANCH  26  27
ATOM     27  C   UNL     1      44.042 114.371  13.056  1.00  0.00    -0.000 C 
BRANCH  27  28
ATOM     28  C   UNL     1      45.547 114.493  13.347  1.00  0.00    -0.000 C 
BRANCH  28  29
ATOM     29  C   UNL     1      45.934 115.953  13.611  1.00  0.00    -0.003 C 
ATOM     30  C   UNL     1      45.402 116.872  12.516  1.00  0.00     0.004 C 
ENDBRANCH  28  29
ENDBRANCH  27  28
ENDBRANCH  26  27
ENDBRANCH  25  26
ENDBRANCH  24  25
ENDBRANCH  23  24
ENDBRANCH  22  23
ENDBRANCH  21  22
ENDBRANCH  20  21
ENDBRANCH  19  20
ENDBRANCH  18  19
ENDBRANCH  17  18
ENDBRANCH   1  17
TORSDOF 26
ENDMDL
MODEL 2
REMARK VINA RESULT:    -4.821      2.648      4.776
REMARK INTER + INTRA:         -15.890
REMARK INTER:                 -11.723
REMARK INTRA:                  -4.166
REMARK UNBOUND:                -3.742
REMARK SMILES CCCCCCCCCCCCCCCCCCCCCCCCCCCC(=O)[O-]
REMARK SMILES IDX 15 1 16 2 17 3 18 4 19 5 20 6 21 7 22 8 23 9 24 10 25 11
REMARK SMILES IDX 26 12 27 13 28 14 29 15 30 16 14 17 13 18 12 19 11 20 10 21
REMARK SMILES IDX 9 22 8 23 7 24 6 25 5 26 4 27 3 28 2 29 1 30
REMARK H PARENT
REMARK Flexibility Score: inf
ROOT
ATOM      1  C   UNL     1      39.517 117.279  11.844  1.00  0.00     0.000 C 
ENDROOT
BRANCH   1   2
ATOM      2  C   UNL     1      38.989 117.831  13.187  1.00  0.00     0.000 C 
BRANCH   2   3
ATOM      3  C   UNL     1      39.111 119.359  13.311  1.00  0.00     0.000 C 
BRANCH   3   4
ATOM      4  C   UNL     1      37.804 120.025  13.774  1.00  0.00     0.000 C 
BRANCH   4   5
ATOM      5  C   UNL     1      36.564 119.427  13.089  1.00  0.00     0.000 C 
BRANCH   5   6
ATOM      6  C   UNL     1      35.618 118.728  14.077  1.00  0.00     0.000 C 
BRANCH   6   7
ATOM      7  C   UNL     1      35.766 119.318  15.484  1.00  0.00     0.000 C 
BRANCH   7   8
ATOM      8  C   UNL     1      36.039 118.219  16.522  1.00  0.00     0.000 C 
BRANCH   8   9
ATOM      9  C   UNL     1      37.517 118.175  16.971  1.00  0.00     0.000 C 
BRANCH   9  10
ATOM     10  C   UNL     1      38.233 116.859  16.617  1.00  0.00     0.000 C 
BRANCH  10  11
ATOM     11  C   UNL     1      37.382 115.884  15.786  1.00  0.00     0.000 C 
BRANCH  11  12
ATOM     12  C   UNL     1      37.333 114.459  16.382  1.00  0.00     0.006 C 
BRANCH  12  13
ATOM     13  C   UNL     1      36.079 113.692  15.946  1.00  0.00     0.053 C 
BRANCH  13  14
ATOM     14  C   UNL     1      36.448 112.360  15.373  1.00  0.00     0.041 C 
ATOM     15  O   UNL     1      37.646 111.972  15.390  1.00  0.00    -0.550 OA
ATOM     16  O   UNL     1      35.461 111.525  14.862  1.00  0.00    -0.550 OA
ENDBRANCH  13  14
ENDBRANCH  12  13
ENDBRANCH  11  12
ENDBRANCH  10  11
ENDBRANCH   9  10
ENDBRANCH   8   9
ENDBRANCH   7   8
ENDBRANCH   6   7
ENDBRANCH   5   6
ENDBRANCH   4   5
ENDBRANCH   3   4
ENDBRANCH   2   3
ENDBRANCH   1   2
BRANCH   1  17
ATOM     17  C   UNL     1      41.043 117.431  11.717  1.00  0.00     0.000 C 
BRANCH  17  18
ATOM     18  C   UNL     1      41.473 117.860  10.297  1.00  0.00     0.000 C 
BRANCH  18  19
ATOM     19  C   UNL     1      42.900 117.427   9.923  1.00  0.00     0.000 C 
BRANCH  19  20
ATOM     20  C   UNL     1      42.932 116.242   8.949  1.00  0.00     0.000 C 
BRANCH  20  21
ATOM     21  C   UNL     1      44.356 115.986   8.440  1.00  0.00     0.000 C 
BRANCH  21  22
ATOM     22  C   UNL     1      44.924 114.687   9.029  1.00  0.00    -0.000 C 
BRANCH  22  23
ATOM     23  C   UNL     1      44.023 114.073  10.116  1.00  0.00    -0.000 C 
BRANCH  23  24
ATOM     24  C   UNL     1      44.650 113.998  11.521  1.00  0.00    -0.000 C 
BRANCH  24  25
ATOM     25  C   UNL     1      44.725 115.338  12.279  1.00  0.00    -0.000 C 
BRANCH  25  26
ATOM     26  C   UNL     1      43.648 115.504  13.376  1.00  0.00    -0.000 C 
BRANCH  26  27
ATOM     27  C   UNL     1      42.594 114.382  13.407  1.00  0.00    -0.000 C 
BRANCH  27  28
ATOM     28  C   UNL     1      41.323 114.779  14.176  1.00  0.00    -0.000 C 
BRANCH  28  29
ATOM     29  C   UNL     1      41.599 115.958  15.115  1.00  0.00    -0.003 C 
ATOM     30  C   UNL     1      41.658 115.502  16.570  1.00  0.00     0.004 C 
ENDBRANCH  28  29
ENDBRANCH  27  28
ENDBRANCH  26  27
ENDBRANCH  25  26
ENDBRANCH  24  25
ENDBRANCH  23  24
ENDBRANCH  22  23
ENDBRANCH  21  22
ENDBRANCH  20  21
ENDBRANCH  19  20
ENDBRANCH  18  19
ENDBRANCH  17  18
ENDBRANCH   1  17
TORSDOF 26
ENDMDL
MODEL 3
REMARK VINA RESULT:    -4.765      1.983      4.613
REMARK INTER + INTRA:         -15.749
REMARK INTER:                 -11.041
REMARK INTRA:                  -4.707
REMARK UNBOUND:                -3.742
REMARK SMILES CCCCCCCCCCCCCCCCCCCCCCCCCCCC(=O)[O-]
REMARK SMILES IDX 15 1 16 2 17 3 18 4 19 5 20 6 21 7 22 8 23 9 24 10 25 11
REMARK SMILES IDX 26 12 27 13 28 14 29 15 30 16 14 17 13 18 12 19 11 20 10 21
REMARK SMILES IDX 9 22 8 23 7 24 6 25 5 26 4 27 3 28 2 29 1 30
REMARK H PARENT
REMARK Flexibility Score: inf
ROOT
ATOM      1  C   UNL     1      43.884 115.359   9.690  1.00  0.00     0.000 C 
ENDROOT
BRANCH   1   2
ATOM      2  C   UNL     1      43.109 116.694   9.708  1.00  0.00     0.000 C 
BRANCH   2   3
ATOM      3  C   UNL     1      42.286 116.907  10.989  1.00  0.00     0.000 C 
BRANCH   3   4
ATOM      4  C   UNL     1      41.029 117.762  10.753  1.00  0.00     0.000 C 
BRANCH   4   5
ATOM      5  C   UNL     1      40.019 117.655  11.908  1.00  0.00     0.000 C 
BRANCH   5   6
ATOM      6  C   UNL     1      39.971 118.922  12.774  1.00  0.00     0.000 C 
BRANCH   6   7
ATOM      7  C   UNL     1      39.839 118.563  14.259  1.00  0.00     0.000 C 
BRANCH   7   8
ATOM      8  C   UNL     1      39.347 117.119  14.439  1.00  0.00     0.000 C 
BRANCH   8   9
ATOM      9  C   UNL     1      37.905 117.044  14.991  1.00  0.00     0.000 C 
BRANCH   9  10
ATOM     10  C   UNL     1      36.874 116.541  13.964  1.00  0.00     0.000 C 
BRANCH  10  11
ATOM     11  C   UNL     1      36.464 117.592  12.919  1.00  0.00     0.000 C 
BRANCH  11  12
ATOM     12  C   UNL     1      35.737 118.810  13.535  1.00  0.00     0.006 C 
BRANCH  12  13
ATOM     13  C   UNL     1      36.570 120.093  13.434  1.00  0.00     0.053 C 
BRANCH  13  14
ATOM     14  C   UNL     1      36.677 120.759  14.770  1.00  0.00     0.041 C 
ATOM     15  O   UNL     1      36.371 120.131  15.818  1.00  0.00    -0.550 OA
ATOM     16  O   UNL     1      37.159 122.059  14.861  1.00  0.00    -0.550 OA
ENDBRANCH  13  14
ENDBRANCH  12  13
ENDBRANCH  11  12
ENDBRANCH  10  11
ENDBRANCH   9  10
ENDBRANCH   8   9
ENDBRANCH   7   8
ENDBRANCH   6   7
ENDBRANCH   5   6
ENDBRANCH   4   5
ENDBRANCH   3   4
ENDBRANCH   2   3
ENDBRANCH   1   2
BRANCH   1  17
ATOM     17  C   UNL     1      45.101 115.383  10.631  1.00  0.00     0.000 C 
BRANCH  17  18
ATOM     18  C   UNL     1      45.857 116.729  10.578  1.00  0.00     0.000 C 
BRANCH  18  19
ATOM     19  C   UNL     1      45.960 117.436  11.939  1.00  0.00     0.000 C 
BRANCH  19  20
ATOM     20  C   UNL     1      45.704 116.496  13.124  1.00  0.00     0.000 C 
BRANCH  20  21
ATOM     21  C   UNL     1      45.334 117.288  14.385  1.00  0.00     0.000 C 
BRANCH  21  22
ATOM     22  C   UNL     1      44.330 116.509  15.247  1.00  0.00    -0.000 C 
BRANCH  22  23
ATOM     23  C   UNL     1      42.952 116.353  14.577  1.00  0.00    -0.000 C 
BRANCH  23  24
ATOM     24  C   UNL     1      42.399 114.916  14.547  1.00  0.00    -0.000 C 
BRANCH  24  25
ATOM     25  C   UNL     1      42.732 114.110  13.277  1.00  0.00    -0.000 C 
BRANCH  25  26
ATOM     26  C   UNL     1      44.093 113.378  13.334  1.00  0.00    -0.000 C 
BRANCH  26  27
ATOM     27  C   UNL     1      44.394 112.699  14.682  1.00  0.00    -0.000 C 
BRANCH  27  28
ATOM     28  C   UNL     1      45.674 113.233  15.348  1.00  0.00    -0.000 C 
BRANCH  28  29
ATOM     29  C   UNL     1      46.916 112.826  14.547  1.00  0.00    -0.003 C 
ATOM     30  C   UNL     1      47.949 113.949  14.523  1.00  0.00     0.004 C 
ENDBRANCH  28  29
ENDBRANCH  27  28
ENDBRANCH  26  27
ENDBRANCH  25  26
ENDBRANCH  24  25
ENDBRANCH  23  24
ENDBRANCH  22  23
ENDBRANCH  21  22
ENDBRANCH  20  21
ENDBRANCH  19  20
ENDBRANCH  18  19
ENDBRANCH  17  18
ENDBRANCH   1  17
TORSDOF 26
ENDMDL
MODEL 4
REMARK VINA RESULT:    -4.748      1.529      4.062
REMARK INTER + INTRA:         -15.707
REMARK INTER:                 -11.407
REMARK INTRA:                  -4.300
REMARK UNBOUND:                -3.742
REMARK SMILES CCCCCCCCCCCCCCCCCCCCCCCCCCCC(=O)[O-]
REMARK SMILES IDX 15 1 16 2 17 3 18 4 19 5 20 6 21 7 22 8 23 9 24 10 25 11
REMARK SMILES IDX 26 12 27 13 28 14 29 15 30 16 14 17 13 18 12 19 11 20 10 21
REMARK SMILES IDX 9 22 8 23 7 24 6 25 5 26 4 27 3 28 2 29 1 30
REMARK H PARENT
REMARK Flexibility Score: inf
ROOT
ATOM      1  C   UNL     1      42.569 117.495   9.261  1.00  0.00     0.000 C 
ENDROOT
BRANCH   1   2
ATOM      2  C   UNL     1      42.018 117.094  10.647  1.00  0.00     0.000 C 
BRANCH   2   3
ATOM      3  C   UNL     1      40.922 118.040  11.167  1.00  0.00     0.000 C 
BRANCH   3   4
ATOM      4  C   UNL     1      39.876 117.319  12.034  1.00  0.00     0.000 C 
BRANCH   4   5
ATOM      5  C   UNL     1      40.480 116.732  13.319  1.00  0.00     0.000 C 
BRANCH   5   6
ATOM      6  C   UNL     1      40.530 117.748  14.470  1.00  0.00     0.000 C 
BRANCH   6   7
ATOM      7  C   UNL     1      40.448 117.040  15.827  1.00  0.00     0.000 C 
BRANCH   7   8
ATOM      8  C   UNL     1      39.002 116.996  16.344  1.00  0.00     0.000 C 
BRANCH   8   9
ATOM      9  C   UNL     1      38.310 115.641  16.068  1.00  0.00     0.000 C 
BRANCH   9  10
ATOM     10  C   UNL     1      37.005 115.766  15.260  1.00  0.00     0.000 C 
BRANCH  10  11
ATOM     11  C   UNL     1      36.562 117.216  15.003  1.00  0.00     0.000 C 
BRANCH  11  12
ATOM     12  C   UNL     1      36.545 117.589  13.502  1.00  0.00     0.006 C 
BRANCH  12  13
ATOM     13  C   UNL     1      35.940 118.978  13.258  1.00  0.00     0.053 C 
BRANCH  13  14
ATOM     14  C   UNL     1      36.876 120.049  13.722  1.00  0.00     0.041 C 
ATOM     15  O   UNL     1      36.566 120.784  14.696  1.00  0.00    -0.550 OA
ATOM     16  O   UNL     1      38.112 120.206  13.105  1.00  0.00    -0.550 OA
ENDBRANCH  13  14
ENDBRANCH  12  13
ENDBRANCH  11  12
ENDBRANCH  10  11
ENDBRANCH   9  10
ENDBRANCH   8   9
ENDBRANCH   7   8
ENDBRANCH   6   7
ENDBRANCH   5   6
ENDBRANCH   4   5
ENDBRANCH   3   4
ENDBRANCH   2   3
ENDBRANCH   1   2
BRANCH   1  17
ATOM     17  C   UNL     1      43.041 116.274   8.451  1.00  0.00     0.000 C 
BRANCH  17  18
ATOM     18  C   UNL     1      44.542 115.978   8.658  1.00  0.00     0.000 C 
BRANCH  18  19
ATOM     19  C   UNL     1      44.884 114.479   8.665  1.00  0.00     0.000 C 
BRANCH  19  20
ATOM     20  C   UNL     1      45.266 113.958  10.057  1.00  0.00     0.000 C 
BRANCH  20  21
ATOM     21  C   UNL     1      44.016 113.640  10.887  1.00  0.00     0.000 C 
BRANCH  21  22
ATOM     22  C   UNL     1      44.342 112.646  12.011  1.00  0.00    -0.000 C 
BRANCH  22  23
ATOM     23  C   UNL     1      45.844 112.587  12.347  1.00  0.00    -0.000 C 
BRANCH  23  24
ATOM     24  C   UNL     1      46.174 112.459  13.846  1.00  0.00    -0.000 C 
BRANCH  24  25
ATOM     25  C   UNL     1      45.029 112.836  14.806  1.00  0.00    -0.000 C 
BRANCH  25  26
ATOM     26  C   UNL     1      45.409 113.914  15.847  1.00  0.00    -0.000 C 
BRANCH  26  27
ATOM     27  C   UNL     1      44.766 115.291  15.600  1.00  0.00    -0.000 C 
BRANCH  27  28
ATOM     28  C   UNL     1      43.803 115.294  14.401  1.00  0.00    -0.000 C 
BRANCH  28  29
ATOM     29  C   UNL     1      44.169 116.403  13.409  1.00  0.00    -0.003 C 
ATOM     30  C   UNL     1      45.632 116.304  12.987  1.00  0.00     0.004 C 
ENDBRANCH  28  29
ENDBRANCH  27  28
ENDBRANCH  26  27
ENDBRANCH  25  26
ENDBRANCH  24  25
ENDBRANCH  23  24
ENDBRANCH  22  23
ENDBRANCH  21  22
ENDBRANCH  20  21
ENDBRANCH  19  20
ENDBRANCH  18  19
ENDBRANCH  17  18
ENDBRANCH   1  17
TORSDOF 26
ENDMDL
MODEL 5
REMARK VINA RESULT:    -4.683      6.184     10.351
REMARK INTER + INTRA:         -15.543
REMARK INTER:                 -11.895
REMARK INTRA:                  -3.648
REMARK UNBOUND:                -3.742
REMARK SMILES CCCCCCCCCCCCCCCCCCCCCCCCCCCC(=O)[O-]
REMARK SMILES IDX 15 1 16 2 17 3 18 4 19 5 20 6 21 7 22 8 23 9 24 10 25 11
REMARK SMILES IDX 26 12 27 13 28 14 29 15 30 16 14 17 13 18 12 19 11 20 10 21
REMARK SMILES IDX 9 22 8 23 7 24 6 25 5 26 4 27 3 28 2 29 1 30
REMARK H PARENT
REMARK Flexibility Score: inf
ROOT
ATOM      1  C   UNL     1      43.125 117.258  10.015  1.00  0.00     0.000 C 
ENDROOT
BRANCH   1   2
ATOM      2  C   UNL     1      43.082 116.411   8.724  1.00  0.00     0.000 C 
BRANCH   2   3
ATOM      3  C   UNL     1      44.382 115.634   8.458  1.00  0.00     0.000 C 
BRANCH   3   4
ATOM      4  C   UNL     1      44.300 114.165   8.907  1.00  0.00     0.000 C 
BRANCH   4   5
ATOM      5  C   UNL     1      45.609 113.670   9.544  1.00  0.00     0.000 C 
BRANCH   5   6
ATOM      6  C   UNL     1      46.209 112.464   8.807  1.00  0.00     0.000 C 
BRANCH   6   7
ATOM      7  C   UNL     1      45.632 112.346   7.392  1.00  0.00     0.000 C 
BRANCH   7   8
ATOM      8  C   UNL     1      46.596 112.933   6.349  1.00  0.00     0.000 C 
BRANCH   8   9
ATOM      9  C   UNL     1      48.015 112.328   6.439  1.00  0.00     0.000 C 
BRANCH   9  10
ATOM     10  C   UNL     1      48.917 112.681   5.242  1.00  0.00     0.000 C 
BRANCH  10  11
ATOM     11  C   UNL     1      49.606 114.051   5.359  1.00  0.00     0.000 C 
BRANCH  11  12
ATOM     12  C   UNL     1      49.308 114.986   4.164  1.00  0.00     0.006 C 
BRANCH  12  13
ATOM     13  C   UNL     1      48.021 114.591   3.429  1.00  0.00     0.053 C 
BRANCH  13  14
ATOM     14  C   UNL     1      46.933 115.582   3.701  1.00  0.00     0.041 C 
ATOM     15  O   UNL     1      46.780 116.053   4.859  1.00  0.00    -0.550 OA
ATOM     16  O   UNL     1      46.117 116.020   2.665  1.00  0.00    -0.550 OA
ENDBRANCH  13  14
ENDBRANCH  12  13
ENDBRANCH  11  12
ENDBRANCH  10  11
ENDBRANCH   9  10
ENDBRANCH   8   9
ENDBRANCH   7   8
ENDBRANCH   6   7
ENDBRANCH   5   6
ENDBRANCH   4   5
ENDBRANCH   3   4
ENDBRANCH   2   3
ENDBRANCH   1   2
BRANCH   1  17
ATOM     17  C   UNL     1      42.622 116.473  11.239  1.00  0.00     0.000 C 
BRANCH  17  18
ATOM     18  C   UNL     1      43.777 116.008  12.152  1.00  0.00     0.000 C 
BRANCH  18  19
ATOM     19  C   UNL     1      45.086 116.788  11.944  1.00  0.00     0.000 C 
BRANCH  19  20
ATOM     20  C   UNL     1      45.918 116.915  13.227  1.00  0.00     0.000 C 
BRANCH  20  21
ATOM     21  C   UNL     1      45.022 116.863  14.471  1.00  0.00     0.000 C 
BRANCH  21  22
ATOM     22  C   UNL     1      45.858 116.981  15.754  1.00  0.00    -0.000 C 
BRANCH  22  23
ATOM     23  C   UNL     1      47.370 117.088  15.482  1.00  0.00    -0.000 C 
BRANCH  23  24
ATOM     24  C   UNL     1      48.275 116.487  16.573  1.00  0.00    -0.000 C 
BRANCH  24  25
ATOM     25  C   UNL     1      48.913 115.128  16.222  1.00  0.00    -0.000 C 
BRANCH  25  26
ATOM     26  C   UNL     1      48.504 114.579  14.836  1.00  0.00    -0.000 C 
BRANCH  26  27
ATOM     27  C   UNL     1      47.688 113.275  14.883  1.00  0.00    -0.000 C 
BRANCH  27  28
ATOM     28  C   UNL     1      46.236 113.462  14.412  1.00  0.00    -0.000 C 
BRANCH  28  29
ATOM     29  C   UNL     1      46.046 112.912  12.994  1.00  0.00    -0.003 C 
ATOM     30  C   UNL     1      46.743 111.565  12.828  1.00  0.00     0.004 C 
ENDBRANCH  28  29
ENDBRANCH  27  28
ENDBRANCH  26  27
ENDBRANCH  25  26
ENDBRANCH  24  25
ENDBRANCH  23  24
ENDBRANCH  22  23
ENDBRANCH  21  22
ENDBRANCH  20  21
ENDBRANCH  19  20
ENDBRANCH  18  19
ENDBRANCH  17  18
ENDBRANCH   1  17
TORSDOF 26
ENDMDL
MODEL 6
REMARK VINA RESULT:    -4.657      6.136     10.360
REMARK INTER + INTRA:         -15.477
REMARK INTER:                 -10.979
REMARK INTRA:                  -4.498
REMARK UNBOUND:                -3.742
REMARK SMILES CCCCCCCCCCCCCCCCCCCCCCCCCCCC(=O)[O-]
REMARK SMILES IDX 15 1 16 2 17 3 18 4 19 5 20 6 21 7 22 8 23 9 24 10 25 11
REMARK SMILES IDX 26 12 27 13 28 14 29 15 30 16 14 17 13 18 12 19 11 20 10 21
REMARK SMILES IDX 9 22 8 23 7 24 6 25 5 26 4 27 3 28 2 29 1 30
REMARK H PARENT
REMARK Flexibility Score: inf
ROOT
ATOM      1  C   UNL     1      43.744 116.851  10.761  1.00  0.00     0.000 C 
ENDROOT
BRANCH   1   2
ATOM      2  C   UNL     1      43.430 116.643   9.263  1.00  0.00     0.000 C 
BRANCH   2   3
ATOM      3  C   UNL     1      44.563 115.945   8.491  1.00  0.00     0.000 C 
BRANCH   3   4
ATOM      4  C   UNL     1      44.427 114.413   8.491  1.00  0.00     0.000 C 
BRANCH   4   5
ATOM      5  C   UNL     1      45.447 113.732   7.564  1.00  0.00     0.000 C 
BRANCH   5   6
ATOM      6  C   UNL     1      46.285 112.665   8.285  1.00  0.00     0.000 C 
BRANCH   6   7
ATOM      7  C   UNL     1      45.961 111.265   7.753  1.00  0.00     0.000 C 
BRANCH   7   8
ATOM      8  C   UNL     1      46.850 110.200   8.413  1.00  0.00     0.000 C 
BRANCH   8   9
ATOM      9  C   UNL     1      48.303 110.683   8.625  1.00  0.00     0.000 C 
BRANCH   9  10
ATOM     10  C   UNL     1      49.260 110.287   7.485  1.00  0.00     0.000 C 
BRANCH  10  11
ATOM     11  C   UNL     1      49.836 111.481   6.705  1.00  0.00     0.000 C 
BRANCH  11  12
ATOM     12  C   UNL     1      48.870 112.026   5.628  1.00  0.00     0.006 C 
BRANCH  12  13
ATOM     13  C   UNL     1      48.761 113.556   5.669  1.00  0.00     0.053 C 
BRANCH  13  14
ATOM     14  C   UNL     1      48.113 114.072   4.424  1.00  0.00     0.041 C 
ATOM     15  O   UNL     1      46.917 114.465   4.447  1.00  0.00    -0.550 OA
ATOM     16  O   UNL     1      48.845 114.160   3.245  1.00  0.00    -0.550 OA
ENDBRANCH  13  14
ENDBRANCH  12  13
ENDBRANCH  11  12
ENDBRANCH  10  11
ENDBRANCH   9  10
ENDBRANCH   8   9
ENDBRANCH   7   8
ENDBRANCH   6   7
ENDBRANCH   5   6
ENDBRANCH   4   5
ENDBRANCH   3   4
ENDBRANCH   2   3
ENDBRANCH   1   2
BRANCH   1  17
ATOM     17  C   UNL     1      45.245 116.700  11.064  1.00  0.00     0.000 C 
BRANCH  17  18
ATOM     18  C   UNL     1      45.638 117.336  12.415  1.00  0.00     0.000 C 
BRANCH  18  19
ATOM     19  C   UNL     1      45.676 116.338  13.584  1.00  0.00     0.000 C 
BRANCH  19  20
ATOM     20  C   UNL     1      44.298 116.104  14.217  1.00  0.00     0.000 C 
BRANCH  20  21
ATOM     21  C   UNL     1      44.298 114.837  15.083  1.00  0.00     0.000 C 
BRANCH  21  22
ATOM     22  C   UNL     1      43.528 113.702  14.394  1.00  0.00    -0.000 C 
BRANCH  22  23
ATOM     23  C   UNL     1      43.048 114.071  12.978  1.00  0.00    -0.000 C 
BRANCH  23  24
ATOM     24  C   UNL     1      43.704 113.271  11.837  1.00  0.00    -0.000 C 
BRANCH  24  25
ATOM     25  C   UNL     1      45.244 113.218  11.872  1.00  0.00    -0.000 C 
BRANCH  25  26
ATOM     26  C   UNL     1      45.833 111.813  11.605  1.00  0.00    -0.000 C 
BRANCH  26  27
ATOM     27  C   UNL     1      46.843 111.335  12.663  1.00  0.00    -0.000 C 
BRANCH  27  28
ATOM     28  C   UNL     1      47.017 112.337  13.817  1.00  0.00    -0.000 C 
BRANCH  28  29
ATOM     29  C   UNL     1      46.456 111.766  15.124  1.00  0.00    -0.003 C 
ATOM     30  C   UNL     1      46.175 110.272  14.998  1.00  0.00     0.004 C 
ENDBRANCH  28  29
ENDBRANCH  27  28
ENDBRANCH  26  27
ENDBRANCH  25  26
ENDBRANCH  24  25
ENDBRANCH  23  24
ENDBRANCH  22  23
ENDBRANCH  21  22
ENDBRANCH  20  21
ENDBRANCH  19  20
ENDBRANCH  18  19
ENDBRANCH  17  18
ENDBRANCH   1  17
TORSDOF 26
ENDMDL
MODEL 7
REMARK VINA RESULT:    -4.635      2.552      8.584
REMARK INTER + INTRA:         -15.423
REMARK INTER:                 -11.725
REMARK INTRA:                  -3.698
REMARK UNBOUND:                -3.742
REMARK SMILES CCCCCCCCCCCCCCCCCCCCCCCCCCCC(=O)[O-]
REMARK SMILES IDX 15 1 16 2 17 3 18 4 19 5 20 6 21 7 22 8 23 9 24 10 25 11
REMARK SMILES IDX 26 12 27 13 28 14 29 15 30 16 14 17 13 18 12 19 11 20 10 21
REMARK SMILES IDX 9 22 8 23 7 24 6 25 5 26 4 27 3 28 2 29 1 30
REMARK H PARENT
REMARK Flexibility Score: inf
ROOT
ATOM      1  C   UNL     1      40.684 116.866  12.546  1.00  0.00     0.000 C 
ENDROOT
BRANCH   1   2
ATOM      2  C   UNL     1      41.027 117.513  11.186  1.00  0.00     0.000 C 
BRANCH   2   3
ATOM      3  C   UNL     1      42.469 117.244  10.727  1.00  0.00     0.000 C 
BRANCH   3   4
ATOM      4  C   UNL     1      42.596 117.129   9.198  1.00  0.00     0.000 C 
BRANCH   4   5
ATOM      5  C   UNL     1      43.564 116.014   8.770  1.00  0.00     0.000 C 
BRANCH   5   6
ATOM      6  C   UNL     1      44.822 115.949   9.649  1.00  0.00     0.000 C 
BRANCH   6   7
ATOM      7  C   UNL     1      45.101 114.510  10.096  1.00  0.00     0.000 C 
BRANCH   7   8
ATOM      8  C   UNL     1      44.009 114.004  11.051  1.00  0.00     0.000 C 
BRANCH   8   9
ATOM      9  C   UNL     1      44.429 112.728  11.816  1.00  0.00     0.000 C 
BRANCH   9  10
ATOM     10  C   UNL     1      45.651 112.928  12.731  1.00  0.00     0.000 C 
BRANCH  10  11
ATOM     11  C   UNL     1      45.300 113.104  14.218  1.00  0.00     0.000 C 
BRANCH  11  12
ATOM     12  C   UNL     1      45.266 114.585  14.663  1.00  0.00     0.006 C 
BRANCH  12  13
ATOM     13  C   UNL     1      46.187 115.466  13.811  1.00  0.00     0.053 C 
BRANCH  13  14
ATOM     14  C   UNL     1      45.634 116.851  13.697  1.00  0.00     0.041 C 
ATOM     15  O   UNL     1      45.531 117.402  12.569  1.00  0.00    -0.550 OA
ATOM     16  O   UNL     1      45.190 117.518  14.833  1.00  0.00    -0.550 OA
ENDBRANCH  13  14
ENDBRANCH  12  13
ENDBRANCH  11  12
ENDBRANCH  10  11
ENDBRANCH   9  10
ENDBRANCH   8   9
ENDBRANCH   7   8
ENDBRANCH   6   7
ENDBRANCH   5   6
ENDBRANCH   4   5
ENDBRANCH   3   4
ENDBRANCH   2   3
ENDBRANCH   1   2
BRANCH   1  17
ATOM     17  C   UNL     1      41.937 116.348  13.273  1.00  0.00     0.000 C 
BRANCH  17  18
ATOM     18  C   UNL     1      41.789 114.878  13.721  1.00  0.00     0.000 C 
BRANCH  18  19
ATOM     19  C   UNL     1      41.596 114.707  15.237  1.00  0.00     0.000 C 
BRANCH  19  20
ATOM     20  C   UNL     1      41.589 113.238  15.679  1.00  0.00     0.000 C 
BRANCH  20  21
ATOM     21  C   UNL     1      40.343 112.921  16.516  1.00  0.00     0.000 C 
BRANCH  21  22
ATOM     22  C   UNL     1      39.068 113.035  15.667  1.00  0.00    -0.000 C 
BRANCH  22  23
ATOM     23  C   UNL     1      37.893 113.677  16.428  1.00  0.00    -0.000 C 
BRANCH  23  24
ATOM     24  C   UNL     1      37.169 114.811  15.676  1.00  0.00    -0.000 C 
BRANCH  24  25
ATOM     25  C   UNL     1      37.997 116.094  15.469  1.00  0.00    -0.000 C 
BRANCH  25  26
ATOM     26  C   UNL     1      37.340 117.120  14.516  1.00  0.00    -0.000 C 
BRANCH  26  27
ATOM     27  C   UNL     1      36.181 117.918  15.140  1.00  0.00    -0.000 C 
BRANCH  27  28
ATOM     28  C   UNL     1      35.593 118.966  14.181  1.00  0.00    -0.000 C 
BRANCH  28  29
ATOM     29  C   UNL     1      36.704 119.666  13.391  1.00  0.00    -0.003 C 
ATOM     30  C   UNL     1      37.214 120.900  14.131  1.00  0.00     0.004 C 
ENDBRANCH  28  29
ENDBRANCH  27  28
ENDBRANCH  26  27
ENDBRANCH  25  26
ENDBRANCH  24  25
ENDBRANCH  23  24
ENDBRANCH  22  23
ENDBRANCH  21  22
ENDBRANCH  20  21
ENDBRANCH  19  20
ENDBRANCH  18  19
ENDBRANCH  17  18
ENDBRANCH   1  17
TORSDOF 26
ENDMDL
MODEL 8
REMARK VINA RESULT:    -4.621      1.629      5.839
REMARK INTER + INTRA:         -15.386
REMARK INTER:                 -11.643
REMARK INTRA:                  -3.742
REMARK UNBOUND:                -3.742
REMARK SMILES CCCCCCCCCCCCCCCCCCCCCCCCCCCC(=O)[O-]
REMARK SMILES IDX 15 1 16 2 17 3 18 4 19 5 20 6 21 7 22 8 23 9 24 10 25 11
REMARK SMILES IDX 26 12 27 13 28 14 29 15 30 16 14 17 13 18 12 19 11 20 10 21
REMARK SMILES IDX 9 22 8 23 7 24 6 25 5 26 4 27 3 28 2 29 1 30
REMARK H PARENT
REMARK Flexibility Score: inf
ROOT
ATOM      1  C   UNL     1      43.397 116.809   9.063  1.00  0.00     0.000 C 
ENDROOT
BRANCH   1   2
ATOM      2  C   UNL     1      41.969 117.355   9.280  1.00  0.00     0.000 C 
BRANCH   2   3
ATOM      3  C   UNL     1      41.729 117.893  10.701  1.00  0.00     0.000 C 
BRANCH   3   4
ATOM      4  C   UNL     1      40.430 117.360  11.327  1.00  0.00     0.000 C 
BRANCH   4   5
ATOM      5  C   UNL     1      39.964 118.204  12.525  1.00  0.00     0.000 C 
BRANCH   5   6
ATOM      6  C   UNL     1      39.408 117.350  13.674  1.00  0.00     0.000 C 
BRANCH   6   7
ATOM      7  C   UNL     1      40.282 117.483  14.926  1.00  0.00     0.000 C 
BRANCH   7   8
ATOM      8  C   UNL     1      39.493 117.127  16.195  1.00  0.00     0.000 C 
BRANCH   8   9
ATOM      9  C   UNL     1      37.990 116.893  15.918  1.00  0.00     0.000 C 
BRANCH   9  10
ATOM     10  C   UNL     1      37.075 117.983  16.507  1.00  0.00     0.000 C 
BRANCH  10  11
ATOM     11  C   UNL     1      35.935 118.419  15.570  1.00  0.00     0.000 C 
BRANCH  11  12
ATOM     12  C   UNL     1      36.161 119.815  14.946  1.00  0.00     0.006 C 
BRANCH  12  13
ATOM     13  C   UNL     1      36.542 119.731  13.463  1.00  0.00     0.053 C 
BRANCH  13  14
ATOM     14  C   UNL     1      35.674 118.743  12.751  1.00  0.00     0.041 C 
ATOM     15  O   UNL     1      34.448 118.978  12.586  1.00  0.00    -0.550 OA
ATOM     16  O   UNL     1      36.229 117.580  12.229  1.00  0.00    -0.550 OA
ENDBRANCH  13  14
ENDBRANCH  12  13
ENDBRANCH  11  12
ENDBRANCH  10  11
ENDBRANCH   9  10
ENDBRANCH   8   9
ENDBRANCH   7   8
ENDBRANCH   6   7
ENDBRANCH   5   6
ENDBRANCH   4   5
ENDBRANCH   3   4
ENDBRANCH   2   3
ENDBRANCH   1   2
BRANCH   1  17
ATOM     17  C   UNL     1      43.406 115.289   8.824  1.00  0.00     0.000 C 
BRANCH  17  18
ATOM     18  C   UNL     1      44.155 114.525   9.936  1.00  0.00     0.000 C 
BRANCH  18  19
ATOM     19  C   UNL     1      43.423 114.522  11.289  1.00  0.00     0.000 C 
BRANCH  19  20
ATOM     20  C   UNL     1      44.086 115.434  12.330  1.00  0.00     0.000 C 
BRANCH  20  21
ATOM     21  C   UNL     1      43.102 115.793  13.452  1.00  0.00     0.000 C 
BRANCH  21  22
ATOM     22  C   UNL     1      42.286 114.565  13.880  1.00  0.00    -0.000 C 
BRANCH  22  23
ATOM     23  C   UNL     1      42.914 113.807  15.065  1.00  0.00    -0.000 C 
BRANCH  23  24
ATOM     24  C   UNL     1      42.026 113.701  16.319  1.00  0.00    -0.000 C 
BRANCH  24  25
ATOM     25  C   UNL     1      40.863 112.695  16.216  1.00  0.00    -0.000 C 
BRANCH  25  26
ATOM     26  C   UNL     1      39.515 113.330  15.803  1.00  0.00    -0.000 C 
BRANCH  26  27
ATOM     27  C   UNL     1      38.340 112.994  16.739  1.00  0.00    -0.000 C 
BRANCH  27  28
ATOM     28  C   UNL     1      36.973 113.107  16.044  1.00  0.00    -0.000 C 
BRANCH  28  29
ATOM     29  C   UNL     1      36.323 111.727  15.889  1.00  0.00    -0.003 C 
ATOM     30  C   UNL     1      35.342 111.708  14.721  1.00  0.00     0.004 C 
ENDBRANCH  28  29
ENDBRANCH  27  28
ENDBRANCH  26  27
ENDBRANCH  25  26
ENDBRANCH  24  25
ENDBRANCH  23  24
ENDBRANCH  22  23
ENDBRANCH  21  22
ENDBRANCH  20  21
ENDBRANCH  19  20
ENDBRANCH  18  19
ENDBRANCH  17  18
ENDBRANCH   1  17
TORSDOF 26
ENDMDL
MODEL 9
REMARK VINA RESULT:    -4.594      6.084     10.385
REMARK INTER + INTRA:         -15.317
REMARK INTER:                 -10.689
REMARK INTRA:                  -4.629
REMARK UNBOUND:                -3.742
REMARK SMILES CCCCCCCCCCCCCCCCCCCCCCCCCCCC(=O)[O-]
REMARK SMILES IDX 15 1 16 2 17 3 18 4 19 5 20 6 21 7 22 8 23 9 24 10 25 11
REMARK SMILES IDX 26 12 27 13 28 14 29 15 30 16 14 17 13 18 12 19 11 20 10 21
REMARK SMILES IDX 9 22 8 23 7 24 6 25 5 26 4 27 3 28 2 29 1 30
REMARK H PARENT
REMARK Flexibility Score: inf
ROOT
ATOM      1  C   UNL     1      43.561 116.752   9.970  1.00  0.00     0.000 C 
ENDROOT
BRANCH   1   2
ATOM      2  C   UNL     1      43.597 116.172   8.539  1.00  0.00     0.000 C 
BRANCH   2   3
ATOM      3  C   UNL     1      44.904 115.430   8.211  1.00  0.00     0.000 C 
BRANCH   3   4
ATOM      4  C   UNL     1      44.722 113.905   8.148  1.00  0.00     0.000 C 
BRANCH   4   5
ATOM      5  C   UNL     1      46.043 113.145   8.356  1.00  0.00     0.000 C 
BRANCH   5   6
ATOM      6  C   UNL     1      46.046 111.764   7.683  1.00  0.00     0.000 C 
BRANCH   6   7
ATOM      7  C   UNL     1      46.367 110.663   8.700  1.00  0.00     0.000 C 
BRANCH   7   8
ATOM      8  C   UNL     1      47.800 110.140   8.519  1.00  0.00     0.000 C 
BRANCH   8   9
ATOM      9  C   UNL     1      48.093 109.689   7.070  1.00  0.00     0.000 C 
BRANCH   9  10
ATOM     10  C   UNL     1      49.087 110.599   6.326  1.00  0.00     0.000 C 
BRANCH  10  11
ATOM     11  C   UNL     1      49.709 111.698   7.204  1.00  0.00     0.000 C 
BRANCH  11  12
ATOM     12  C   UNL     1      49.641 113.102   6.560  1.00  0.00     0.006 C 
BRANCH  12  13
ATOM     13  C   UNL     1      49.008 113.067   5.163  1.00  0.00     0.053 C 
BRANCH  13  14
ATOM     14  C   UNL     1      48.217 114.313   4.911  1.00  0.00     0.041 C 
ATOM     15  O   UNL     1      48.750 115.296   4.333  1.00  0.00    -0.550 OA
ATOM     16  O   UNL     1      46.877 114.370   5.276  1.00  0.00    -0.550 OA
ENDBRANCH  13  14
ENDBRANCH  12  13
ENDBRANCH  11  12
ENDBRANCH  10  11
ENDBRANCH   9  10
ENDBRANCH   8   9
ENDBRANCH   7   8
ENDBRANCH   6   7
ENDBRANCH   5   6
ENDBRANCH   4   5
ENDBRANCH   3   4
ENDBRANCH   2   3
ENDBRANCH   1   2
BRANCH   1  17
ATOM     17  C   UNL     1      44.923 116.635  10.676  1.00  0.00     0.000 C 
BRANCH  17  18
ATOM     18  C   UNL     1      44.854 115.747  11.938  1.00  0.00     0.000 C 
BRANCH  18  19
ATOM     19  C   UNL     1      43.536 114.968  12.077  1.00  0.00     0.000 C 
BRANCH  19  20
ATOM     20  C   UNL     1      43.675 113.484  11.709  1.00  0.00     0.000 C 
BRANCH  20  21
ATOM     21  C   UNL     1      45.145 113.048  11.730  1.00  0.00     0.000 C 
BRANCH  21  22
ATOM     22  C   UNL     1      45.277 111.585  12.180  1.00  0.00    -0.000 C 
BRANCH  22  23
ATOM     23  C   UNL     1      45.977 111.435  13.544  1.00  0.00    -0.000 C 
BRANCH  23  24
ATOM     24  C   UNL     1      47.494 111.698  13.533  1.00  0.00    -0.000 C 
BRANCH  24  25
ATOM     25  C   UNL     1      47.976 112.804  14.492  1.00  0.00    -0.000 C 
BRANCH  25  26
ATOM     26  C   UNL     1      47.143 114.105  14.423  1.00  0.00    -0.000 C 
BRANCH  26  27
ATOM     27  C   UNL     1      46.440 114.482  15.739  1.00  0.00    -0.000 C 
BRANCH  27  28
ATOM     28  C   UNL     1      45.041 115.082  15.519  1.00  0.00    -0.000 C 
BRANCH  28  29
ATOM     29  C   UNL     1      43.978 114.284  16.283  1.00  0.00    -0.003 C 
ATOM     30  C   UNL     1      43.392 113.175  15.415  1.00  0.00     0.004 C 
ENDBRANCH  28  29
ENDBRANCH  27  28
ENDBRANCH  26  27
ENDBRANCH  25  26
ENDBRANCH  24  25
ENDBRANCH  23  24
ENDBRANCH  22  23
ENDBRANCH  21  22
ENDBRANCH  20  21
ENDBRANCH  19  20
ENDBRANCH  18  19
ENDBRANCH  17  18
ENDBRANCH   1  17
TORSDOF 26
ENDMDL
