MODEL 1
REMARK VINA RESULT:    -7.871      0.000      0.000
REMARK INTER + INTRA:          -9.218
REMARK INTER:                  -9.252
REMARK INTRA:                   0.033
REMARK UNBOUND:                 0.033
REMARK SMILES O=c1c(O)c(-c2ccc(O)cc2)oc2cc(O)cc(O)c12
REMARK SMILES IDX 5 1 3 2 2 3 1 4 21 5 19 6 18 7 16 8 15 9 14 10 13 11 6 12
REMARK SMILES IDX 7 13 8 14 9 15 12 16 11 17 10 18 4 20 20 22 17 24
REMARK H PARENT 10 19 4 21 20 23 17 25
REMARK Flexibility Score: inf
ROOT
ATOM      1  C   UNL     1      44.574  45.478  44.598  1.00  0.00     0.180 A 
ATOM      2  C   UNL     1      44.182  46.440  45.545  1.00  0.00     0.208 A 
ATOM      3  C   UNL     1      44.766  46.416  46.822  1.00  0.00     0.238 A 
ATOM      4  O   UNL     1      44.372  47.245  47.682  1.00  0.00    -0.285 OA
ATOM      5  C   UNL     1      45.746  45.442  47.129  1.00  0.00     0.111 A 
ATOM      6  C   UNL     1      46.433  45.350  48.377  1.00  0.00     0.134 A 
ATOM      7  C   UNL     1      47.287  44.266  48.618  1.00  0.00     0.093 A 
ATOM      8  C   UNL     1      47.530  43.310  47.634  1.00  0.00     0.123 A 
ATOM      9  C   UNL     1      46.910  43.423  46.389  1.00  0.00     0.094 A 
ATOM     10  C   UNL     1      46.024  44.471  46.132  1.00  0.00     0.146 A 
ATOM     11  O   UNL     1      45.447  44.537  44.939  1.00  0.00    -0.452 OA
ENDROOT
BRANCH   1  12
ATOM     12  C   UNL     1      44.021  45.454  43.224  1.00  0.00     0.021 A 
ATOM     13  C   UNL     1      44.862  45.406  42.097  1.00  0.00     0.016 A 
ATOM     14  C   UNL     1      44.317  45.359  40.810  1.00  0.00     0.047 A 
ATOM     15  C   UNL     1      42.931  45.345  40.632  1.00  0.00     0.115 A 
ATOM     16  C   UNL     1      42.630  45.417  43.039  1.00  0.00     0.016 A 
ATOM     17  C   UNL     1      42.088  45.371  41.751  1.00  0.00     0.047 A 
BRANCH  15  18
ATOM     18  O   UNL     1      42.402  45.299  39.344  1.00  0.00    -0.508 OA
ATOM     19  H   UNL     1      41.699  45.961  39.037  1.00  0.00     0.293 HD
ENDBRANCH  15  18
ENDBRANCH   1  12
BRANCH   2  20
ATOM     20  O   UNL     1      43.196  47.379  45.227  1.00  0.00    -0.502 OA
ATOM     21  H   UNL     1      42.341  47.472  45.761  1.00  0.00     0.293 HD
ENDBRANCH   2  20
BRANCH   6  22
ATOM     22  O   UNL     1      46.332  46.303  49.396  1.00  0.00    -0.507 OA
ATOM     23  H   UNL     1      46.002  47.248  49.268  1.00  0.00     0.293 HD
ENDBRANCH   6  22
BRANCH   8  24
ATOM     24  O   UNL     1      48.398  42.253  47.901  1.00  0.00    -0.508 OA
ATOM     25  H   UNL     1      48.355  41.386  47.380  1.00  0.00     0.293 HD
ENDBRANCH   8  24
TORSDOF 5
ENDMDL
MODEL 2
REMARK VINA RESULT:    -7.622      2.236      6.481
REMARK INTER + INTRA:          -8.926
REMARK INTER:                  -8.818
REMARK INTRA:                  -0.108
REMARK UNBOUND:                 0.033
REMARK SMILES O=c1c(O)c(-c2ccc(O)cc2)oc2cc(O)cc(O)c12
REMARK SMILES IDX 5 1 3 2 2 3 1 4 21 5 19 6 18 7 16 8 15 9 14 10 13 11 6 12
REMARK SMILES IDX 7 13 8 14 9 15 12 16 11 17 10 18 4 20 20 22 17 24
REMARK H PARENT 10 19 4 21 20 23 17 25
REMARK Flexibility Score: inf
ROOT
ATOM      1  C   UNL     1      47.185  43.120  46.717  1.00  0.00     0.180 A 
ATOM      2  C   UNL     1      47.064  43.933  47.857  1.00  0.00     0.208 A 
ATOM      3  C   UNL     1      46.202  45.041  47.815  1.00  0.00     0.238 A 
ATOM      4  O   UNL     1      46.139  45.796  48.820  1.00  0.00    -0.285 OA
ATOM      5  C   UNL     1      45.461  45.312  46.640  1.00  0.00     0.111 A 
ATOM      6  C   UNL     1      44.528  46.383  46.500  1.00  0.00     0.134 A 
ATOM      7  C   UNL     1      43.949  46.636  45.249  1.00  0.00     0.093 A 
ATOM      8  C   UNL     1      44.217  45.818  44.154  1.00  0.00     0.123 A 
ATOM      9  C   UNL     1      45.081  44.731  44.294  1.00  0.00     0.094 A 
ATOM     10  C   UNL     1      45.703  44.476  45.519  1.00  0.00     0.146 A 
ATOM     11  O   UNL     1      46.526  43.439  45.609  1.00  0.00    -0.452 OA
ENDROOT
BRANCH   1  12
ATOM     12  C   UNL     1      48.054  41.921  46.693  1.00  0.00     0.021 A 
ATOM     13  C   UNL     1      47.522  40.634  46.487  1.00  0.00     0.016 A 
ATOM     14  C   UNL     1      48.365  39.520  46.443  1.00  0.00     0.047 A 
ATOM     15  C   UNL     1      49.746  39.675  46.591  1.00  0.00     0.115 A 
ATOM     16  C   UNL     1      49.444  42.072  46.818  1.00  0.00     0.016 A 
ATOM     17  C   UNL     1      50.285  40.955  46.775  1.00  0.00     0.047 A 
BRANCH  15  18
ATOM     18  O   UNL     1      50.574  38.555  46.546  1.00  0.00    -0.508 OA
ATOM     19  H   UNL     1      51.575  38.641  46.416  1.00  0.00     0.293 HD
ENDBRANCH  15  18
ENDBRANCH   1  12
BRANCH   2  20
ATOM     20  O   UNL     1      47.821  43.659  49.000  1.00  0.00    -0.502 OA
ATOM     21  H   UNL     1      48.206  42.742  49.191  1.00  0.00     0.293 HD
ENDBRANCH   2  20
BRANCH   6  22
ATOM     22  O   UNL     1      44.119  47.206  47.554  1.00  0.00    -0.507 OA
ATOM     23  H   UNL     1      43.264  47.087  48.077  1.00  0.00     0.293 HD
ENDBRANCH   6  22
BRANCH   8  24
ATOM     24  O   UNL     1      43.612  46.089  42.929  1.00  0.00    -0.508 OA
ATOM     25  H   UNL     1      43.081  46.938  42.774  1.00  0.00     0.293 HD
ENDBRANCH   8  24
TORSDOF 5
ENDMDL
MODEL 3
REMARK VINA RESULT:    -7.375      1.303      2.920
REMARK INTER + INTRA:          -8.635
REMARK INTER:                  -8.540
REMARK INTRA:                  -0.095
REMARK UNBOUND:                 0.033
REMARK SMILES O=c1c(O)c(-c2ccc(O)cc2)oc2cc(O)cc(O)c12
REMARK SMILES IDX 5 1 3 2 2 3 1 4 21 5 19 6 18 7 16 8 15 9 14 10 13 11 6 12
REMARK SMILES IDX 7 13 8 14 9 15 12 16 11 17 10 18 4 20 20 22 17 24
REMARK H PARENT 10 19 4 21 20 23 17 25
REMARK Flexibility Score: inf
ROOT
ATOM      1  C   UNL     1      45.004  45.107  44.644  1.00  0.00     0.180 A 
ATOM      2  C   UNL     1      45.627  43.926  45.082  1.00  0.00     0.208 A 
ATOM      3  C   UNL     1      46.171  43.883  46.376  1.00  0.00     0.238 A 
ATOM      4  O   UNL     1      46.775  42.842  46.743  1.00  0.00    -0.285 OA
ATOM      5  C   UNL     1      46.070  45.015  47.220  1.00  0.00     0.111 A 
ATOM      6  C   UNL     1      46.549  45.068  48.564  1.00  0.00     0.134 A 
ATOM      7  C   UNL     1      46.513  46.282  49.263  1.00  0.00     0.093 A 
ATOM      8  C   UNL     1      45.957  47.425  48.691  1.00  0.00     0.123 A 
ATOM      9  C   UNL     1      45.431  47.369  47.400  1.00  0.00     0.094 A 
ATOM     10  C   UNL     1      45.486  46.182  46.664  1.00  0.00     0.146 A 
ATOM     11  O   UNL     1      44.985  46.173  45.436  1.00  0.00    -0.452 OA
ENDROOT
BRANCH   1  12
ATOM     12  C   UNL     1      44.387  45.222  43.303  1.00  0.00     0.021 A 
ATOM     13  C   UNL     1      45.150  45.076  42.129  1.00  0.00     0.016 A 
ATOM     14  C   UNL     1      44.541  45.164  40.874  1.00  0.00     0.047 A 
ATOM     15  C   UNL     1      43.163  45.383  40.774  1.00  0.00     0.115 A 
ATOM     16  C   UNL     1      43.001  45.420  43.194  1.00  0.00     0.016 A 
ATOM     17  C   UNL     1      42.394  45.509  41.937  1.00  0.00     0.047 A 
BRANCH  15  18
ATOM     18  O   UNL     1      42.570  45.470  39.516  1.00  0.00    -0.508 OA
ATOM     19  H   UNL     1      42.809  44.824  38.772  1.00  0.00     0.293 HD
ENDBRANCH  15  18
ENDBRANCH   1  12
BRANCH   2  20
ATOM     20  O   UNL     1      45.735  42.828  44.224  1.00  0.00    -0.502 OA
ATOM     21  H   UNL     1      44.976  42.173  44.081  1.00  0.00     0.293 HD
ENDBRANCH   2  20
BRANCH   6  22
ATOM     22  O   UNL     1      47.040  43.961  49.262  1.00  0.00    -0.507 OA
ATOM     23  H   UNL     1      47.017  43.011  48.923  1.00  0.00     0.293 HD
ENDBRANCH   6  22
BRANCH   8  24
ATOM     24  O   UNL     1      45.924  48.611  49.420  1.00  0.00    -0.508 OA
ATOM     25  H   UNL     1      45.061  48.971  49.810  1.00  0.00     0.293 HD
ENDBRANCH   8  24
TORSDOF 5
ENDMDL
MODEL 4
REMARK VINA RESULT:    -7.291     11.124     11.613
REMARK INTER + INTRA:          -8.536
REMARK INTER:                  -8.244
REMARK INTRA:                  -0.292
REMARK UNBOUND:                 0.033
REMARK SMILES O=c1c(O)c(-c2ccc(O)cc2)oc2cc(O)cc(O)c12
REMARK SMILES IDX 5 1 3 2 2 3 1 4 21 5 19 6 18 7 16 8 15 9 14 10 13 11 6 12
REMARK SMILES IDX 7 13 8 14 9 15 12 16 11 17 10 18 4 20 20 22 17 24
REMARK H PARENT 10 19 4 21 20 23 17 25
REMARK Flexibility Score: inf
ROOT
ATOM      1  C   UNL     1      49.899  45.734  35.029  1.00  0.00     0.180 A 
ATOM      2  C   UNL     1      49.452  47.066  35.072  1.00  0.00     0.208 A 
ATOM      3  C   UNL     1      50.288  48.046  35.630  1.00  0.00     0.238 A 
ATOM      4  O   UNL     1      49.861  49.227  35.715  1.00  0.00    -0.285 OA
ATOM      5  C   UNL     1      51.566  47.686  36.121  1.00  0.00     0.111 A 
ATOM      6  C   UNL     1      52.511  48.604  36.669  1.00  0.00     0.134 A 
ATOM      7  C   UNL     1      53.692  48.118  37.246  1.00  0.00     0.093 A 
ATOM      8  C   UNL     1      53.991  46.757  37.235  1.00  0.00     0.123 A 
ATOM      9  C   UNL     1      53.101  45.856  36.647  1.00  0.00     0.094 A 
ATOM     10  C   UNL     1      51.898  46.306  36.098  1.00  0.00     0.146 A 
ATOM     11  O   UNL     1      51.075  45.417  35.558  1.00  0.00    -0.452 OA
ENDROOT
BRANCH   1  12
ATOM     12  C   UNL     1      49.085  44.648  34.434  1.00  0.00     0.021 A 
ATOM     13  C   UNL     1      49.098  44.397  33.050  1.00  0.00     0.016 A 
ATOM     14  C   UNL     1      48.340  43.351  32.515  1.00  0.00     0.047 A 
ATOM     15  C   UNL     1      47.573  42.536  33.353  1.00  0.00     0.115 A 
ATOM     16  C   UNL     1      48.329  43.812  35.273  1.00  0.00     0.016 A 
ATOM     17  C   UNL     1      47.572  42.768  34.734  1.00  0.00     0.047 A 
BRANCH  15  18
ATOM     18  O   UNL     1      46.822  41.498  32.805  1.00  0.00    -0.508 OA
ATOM     19  H   UNL     1      46.139  40.991  33.355  1.00  0.00     0.293 HD
ENDBRANCH  15  18
ENDBRANCH   1  12
BRANCH   2  20
ATOM     20  O   UNL     1      48.178  47.396  34.600  1.00  0.00    -0.502 OA
ATOM     21  H   UNL     1      47.366  47.428  35.205  1.00  0.00     0.293 HD
ENDBRANCH   2  20
BRANCH   6  22
ATOM     22  O   UNL     1      52.353  49.993  36.650  1.00  0.00    -0.507 OA
ATOM     23  H   UNL     1      52.522  50.602  37.436  1.00  0.00     0.293 HD
ENDBRANCH   6  22
BRANCH   8  24
ATOM     24  O   UNL     1      55.182  46.310  37.803  1.00  0.00    -0.508 OA
ATOM     25  H   UNL     1      55.235  46.034  38.776  1.00  0.00     0.293 HD
ENDBRANCH   8  24
TORSDOF 5
ENDMDL
MODEL 5
REMARK VINA RESULT:    -7.221      4.163      6.830
REMARK INTER + INTRA:          -8.454
REMARK INTER:                  -8.165
REMARK INTRA:                  -0.289
REMARK UNBOUND:                 0.033
REMARK SMILES O=c1c(O)c(-c2ccc(O)cc2)oc2cc(O)cc(O)c12
REMARK SMILES IDX 5 1 3 2 2 3 1 4 21 5 19 6 18 7 16 8 15 9 14 10 13 11 6 12
REMARK SMILES IDX 7 13 8 14 9 15 12 16 11 17 10 18 4 20 20 22 17 24
REMARK H PARENT 10 19 4 21 20 23 17 25
REMARK Flexibility Score: inf
ROOT
ATOM      1  C   UNL     1      47.977  43.191  46.880  1.00  0.00     0.180 A 
ATOM      2  C   UNL     1      47.945  41.845  46.477  1.00  0.00     0.208 A 
ATOM      3  C   UNL     1      49.073  41.296  45.846  1.00  0.00     0.238 A 
ATOM      4  O   UNL     1      49.018  40.107  45.438  1.00  0.00    -0.285 OA
ATOM      5  C   UNL     1      50.224  42.095  45.643  1.00  0.00     0.111 A 
ATOM      6  C   UNL     1      51.438  41.630  45.052  1.00  0.00     0.134 A 
ATOM      7  C   UNL     1      52.466  42.542  44.780  1.00  0.00     0.093 A 
ATOM      8  C   UNL     1      52.352  43.883  45.137  1.00  0.00     0.123 A 
ATOM      9  C   UNL     1      51.194  44.336  45.771  1.00  0.00     0.094 A 
ATOM     10  C   UNL     1      50.135  43.460  46.021  1.00  0.00     0.146 A 
ATOM     11  O   UNL     1      49.047  43.931  46.616  1.00  0.00    -0.452 OA
ENDROOT
BRANCH   1  12
ATOM     12  C   UNL     1      46.837  43.834  47.573  1.00  0.00     0.021 A 
ATOM     13  C   UNL     1      46.651  43.698  48.961  1.00  0.00     0.016 A 
ATOM     14  C   UNL     1      45.581  44.334  49.596  1.00  0.00     0.047 A 
ATOM     15  C   UNL     1      44.692  45.123  48.860  1.00  0.00     0.115 A 
ATOM     16  C   UNL     1      45.953  44.645  46.843  1.00  0.00     0.016 A 
ATOM     17  C   UNL     1      44.882  45.279  47.481  1.00  0.00     0.047 A 
BRANCH  15  18
ATOM     18  O   UNL     1      43.629  45.750  49.507  1.00  0.00    -0.508 OA
ATOM     19  H   UNL     1      43.623  45.880  50.512  1.00  0.00     0.293 HD
ENDBRANCH  15  18
ENDBRANCH   1  12
BRANCH   2  20
ATOM     20  O   UNL     1      46.790  41.081  46.668  1.00  0.00    -0.502 OA
ATOM     21  H   UNL     1      45.949  41.220  46.121  1.00  0.00     0.293 HD
ENDBRANCH   2  20
BRANCH   6  22
ATOM     22  O   UNL     1      51.691  40.291  44.739  1.00  0.00    -0.507 OA
ATOM     23  H   UNL     1      51.136  39.734  44.108  1.00  0.00     0.293 HD
ENDBRANCH   6  22
BRANCH   8  24
ATOM     24  O   UNL     1      53.401  44.759  44.867  1.00  0.00    -0.508 OA
ATOM     25  H   UNL     1      54.283  44.432  44.491  1.00  0.00     0.293 HD
ENDBRANCH   8  24
TORSDOF 5
ENDMDL
MODEL 6
REMARK VINA RESULT:    -7.057      3.837      6.498
REMARK INTER + INTRA:          -8.261
REMARK INTER:                  -7.960
REMARK INTRA:                  -0.300
REMARK UNBOUND:                 0.033
REMARK SMILES O=c1c(O)c(-c2ccc(O)cc2)oc2cc(O)cc(O)c12
REMARK SMILES IDX 5 1 3 2 2 3 1 4 21 5 19 6 18 7 16 8 15 9 14 10 13 11 6 12
REMARK SMILES IDX 7 13 8 14 9 15 12 16 11 17 10 18 4 20 20 22 17 24
REMARK H PARENT 10 19 4 21 20 23 17 25
REMARK Flexibility Score: inf
ROOT
ATOM      1  C   UNL     1      47.707  43.042  47.232  1.00  0.00     0.180 A 
ATOM      2  C   UNL     1      47.294  41.829  46.653  1.00  0.00     0.208 A 
ATOM      3  C   UNL     1      48.242  40.812  46.454  1.00  0.00     0.238 A 
ATOM      4  O   UNL     1      47.877  39.750  45.886  1.00  0.00    -0.285 OA
ATOM      5  C   UNL     1      49.585  41.013  46.853  1.00  0.00     0.111 A 
ATOM      6  C   UNL     1      50.619  40.036  46.737  1.00  0.00     0.134 A 
ATOM      7  C   UNL     1      51.940  40.389  47.041  1.00  0.00     0.093 A 
ATOM      8  C   UNL     1      52.253  41.660  47.519  1.00  0.00     0.123 A 
ATOM      9  C   UNL     1      51.241  42.604  47.694  1.00  0.00     0.094 A 
ATOM     10  C   UNL     1      49.919  42.294  47.363  1.00  0.00     0.146 A 
ATOM     11  O   UNL     1      48.987  43.223  47.534  1.00  0.00    -0.452 OA
ENDROOT
BRANCH   1  12
ATOM     12  C   UNL     1      46.763  44.151  47.495  1.00  0.00     0.021 A 
ATOM     13  C   UNL     1      46.048  44.234  48.704  1.00  0.00     0.016 A 
ATOM     14  C   UNL     1      45.180  45.305  48.940  1.00  0.00     0.047 A 
ATOM     15  C   UNL     1      45.025  46.311  47.981  1.00  0.00     0.115 A 
ATOM     16  C   UNL     1      46.618  45.176  46.546  1.00  0.00     0.016 A 
ATOM     17  C   UNL     1      45.749  46.245  46.784  1.00  0.00     0.047 A 
BRANCH  15  18
ATOM     18  O   UNL     1      44.156  47.371  48.230  1.00  0.00    -0.508 OA
ATOM     19  H   UNL     1      43.761  47.920  47.475  1.00  0.00     0.293 HD
ENDBRANCH  15  18
ENDBRANCH   1  12
BRANCH   2  20
ATOM     20  O   UNL     1      45.967  41.660  46.247  1.00  0.00    -0.502 OA
ATOM     21  H   UNL     1      45.684  41.713  45.276  1.00  0.00     0.293 HD
ENDBRANCH   2  20
BRANCH   6  22
ATOM     22  O   UNL     1      50.400  38.709  46.356  1.00  0.00    -0.507 OA
ATOM     23  H   UNL     1      49.702  38.409  45.693  1.00  0.00     0.293 HD
ENDBRANCH   6  22
BRANCH   8  24
ATOM     24  O   UNL     1      53.576  41.972  47.827  1.00  0.00    -0.508 OA
ATOM     25  H   UNL     1      54.346  41.404  47.497  1.00  0.00     0.293 HD
ENDBRANCH   8  24
TORSDOF 5
ENDMDL
MODEL 7
REMARK VINA RESULT:    -7.034     10.969     12.185
REMARK INTER + INTRA:          -8.235
REMARK INTER:                  -7.958
REMARK INTRA:                  -0.277
REMARK UNBOUND:                 0.033
REMARK SMILES O=c1c(O)c(-c2ccc(O)cc2)oc2cc(O)cc(O)c12
REMARK SMILES IDX 5 1 3 2 2 3 1 4 21 5 19 6 18 7 16 8 15 9 14 10 13 11 6 12
REMARK SMILES IDX 7 13 8 14 9 15 12 16 11 17 10 18 4 20 20 22 17 24
REMARK H PARENT 10 19 4 21 20 23 17 25
REMARK Flexibility Score: inf
ROOT
ATOM      1  C   UNL     1      50.099  45.889  35.147  1.00  0.00     0.180 A 
ATOM      2  C   UNL     1      51.272  45.640  35.880  1.00  0.00     0.208 A 
ATOM      3  C   UNL     1      52.042  46.728  36.323  1.00  0.00     0.238 A 
ATOM      4  O   UNL     1      53.119  46.498  36.932  1.00  0.00    -0.285 OA
ATOM      5  C   UNL     1      51.620  48.049  36.042  1.00  0.00     0.111 A 
ATOM      6  C   UNL     1      52.300  49.227  36.478  1.00  0.00     0.134 A 
ATOM      7  C   UNL     1      51.866  50.481  36.031  1.00  0.00     0.093 A 
ATOM      8  C   UNL     1      50.739  50.605  35.221  1.00  0.00     0.123 A 
ATOM      9  C   UNL     1      50.030  49.465  34.838  1.00  0.00     0.094 A 
ATOM     10  C   UNL     1      50.461  48.197  35.237  1.00  0.00     0.146 A 
ATOM     11  O   UNL     1      49.766  47.138  34.844  1.00  0.00    -0.452 OA
ENDROOT
BRANCH   1  12
ATOM     12  C   UNL     1      49.223  44.796  34.667  1.00  0.00     0.021 A 
ATOM     13  C   UNL     1      48.302  44.165  35.524  1.00  0.00     0.016 A 
ATOM     14  C   UNL     1      47.468  43.152  35.042  1.00  0.00     0.047 A 
ATOM     15  C   UNL     1      47.532  42.765  33.700  1.00  0.00     0.115 A 
ATOM     16  C   UNL     1      49.267  44.417  33.315  1.00  0.00     0.016 A 
ATOM     17  C   UNL     1      48.432  43.403  32.837  1.00  0.00     0.047 A 
BRANCH  15  18
ATOM     18  O   UNL     1      46.695  41.753  33.234  1.00  0.00    -0.508 OA
ATOM     19  H   UNL     1      45.712  41.919  33.056  1.00  0.00     0.293 HD
ENDBRANCH  15  18
ENDBRANCH   1  12
BRANCH   2  20
ATOM     20  O   UNL     1      51.682  44.326  36.128  1.00  0.00    -0.502 OA
ATOM     21  H   UNL     1      51.092  43.527  35.933  1.00  0.00     0.293 HD
ENDBRANCH   2  20
BRANCH   6  22
ATOM     22  O   UNL     1      53.383  49.221  37.363  1.00  0.00    -0.507 OA
ATOM     23  H   UNL     1      53.481  49.837  38.155  1.00  0.00     0.293 HD
ENDBRANCH   6  22
BRANCH   8  24
ATOM     24  O   UNL     1      50.325  51.869  34.807  1.00  0.00    -0.508 OA
ATOM     25  H   UNL     1      49.392  52.212  35.000  1.00  0.00     0.293 HD
ENDBRANCH   8  24
TORSDOF 5
ENDMDL
MODEL 8
REMARK VINA RESULT:    -6.944      9.619     10.308
REMARK INTER + INTRA:          -8.128
REMARK INTER:                  -7.831
REMARK INTRA:                  -0.297
REMARK UNBOUND:                 0.033
REMARK SMILES O=c1c(O)c(-c2ccc(O)cc2)oc2cc(O)cc(O)c12
REMARK SMILES IDX 5 1 3 2 2 3 1 4 21 5 19 6 18 7 16 8 15 9 14 10 13 11 6 12
REMARK SMILES IDX 7 13 8 14 9 15 12 16 11 17 10 18 4 20 20 22 17 24
REMARK H PARENT 10 19 4 21 20 23 17 25
REMARK Flexibility Score: inf
ROOT
ATOM      1  C   UNL     1      49.618  45.081  35.986  1.00  0.00     0.180 A 
ATOM      2  C   UNL     1      49.135  46.301  36.491  1.00  0.00     0.208 A 
ATOM      3  C   UNL     1      49.901  46.995  37.441  1.00  0.00     0.238 A 
ATOM      4  O   UNL     1      49.439  48.058  37.930  1.00  0.00    -0.285 OA
ATOM      5  C   UNL     1      51.147  46.470  37.861  1.00  0.00     0.111 A 
ATOM      6  C   UNL     1      52.025  47.110  38.787  1.00  0.00     0.134 A 
ATOM      7  C   UNL     1      53.171  46.437  39.231  1.00  0.00     0.093 A 
ATOM      8  C   UNL     1      53.505  45.180  38.732  1.00  0.00     0.123 A 
ATOM      9  C   UNL     1      52.686  44.571  37.780  1.00  0.00     0.094 A 
ATOM     10  C   UNL     1      51.516  45.200  37.347  1.00  0.00     0.146 A 
ATOM     11  O   UNL     1      50.759  44.583  36.449  1.00  0.00    -0.452 OA
ENDROOT
BRANCH   1  12
ATOM     12  C   UNL     1      48.880  44.304  34.964  1.00  0.00     0.021 A 
ATOM     13  C   UNL     1      49.036  44.564  33.590  1.00  0.00     0.016 A 
ATOM     14  C   UNL     1      48.347  43.801  32.643  1.00  0.00     0.047 A 
ATOM     15  C   UNL     1      47.506  42.761  33.053  1.00  0.00     0.115 A 
ATOM     16  C   UNL     1      48.050  43.244  35.368  1.00  0.00     0.016 A 
ATOM     17  C   UNL     1      47.362  42.483  34.418  1.00  0.00     0.047 A 
BRANCH  15  18
ATOM     18  O   UNL     1      46.825  42.010  32.098  1.00  0.00    -0.508 OA
ATOM     19  H   UNL     1      46.243  41.223  32.360  1.00  0.00     0.293 HD
ENDBRANCH  15  18
ENDBRANCH   1  12
BRANCH   2  20
ATOM     20  O   UNL     1      47.892  46.790  36.079  1.00  0.00    -0.502 OA
ATOM     21  H   UNL     1      47.023  46.491  36.503  1.00  0.00     0.293 HD
ENDBRANCH   2  20
BRANCH   6  22
ATOM     22  O   UNL     1      51.832  48.404  39.279  1.00  0.00    -0.507 OA
ATOM     23  H   UNL     1      51.048  48.995  39.049  1.00  0.00     0.293 HD
ENDBRANCH   6  22
BRANCH   8  24
ATOM     24  O   UNL     1      54.661  44.546  39.183  1.00  0.00    -0.508 OA
ATOM     25  H   UNL     1      55.567  44.998  39.138  1.00  0.00     0.293 HD
ENDBRANCH   8  24
TORSDOF 5
ENDMDL
MODEL 9
REMARK VINA RESULT:    -6.937      2.205      3.101
REMARK INTER + INTRA:          -8.120
REMARK INTER:                  -8.516
REMARK INTRA:                   0.396
REMARK UNBOUND:                 0.033
REMARK SMILES O=c1c(O)c(-c2ccc(O)cc2)oc2cc(O)cc(O)c12
REMARK SMILES IDX 5 1 3 2 2 3 1 4 21 5 19 6 18 7 16 8 15 9 14 10 13 11 6 12
REMARK SMILES IDX 7 13 8 14 9 15 12 16 11 17 10 18 4 20 20 22 17 24
REMARK H PARENT 10 19 4 21 20 23 17 25
REMARK Flexibility Score: inf
ROOT
ATOM      1  C   UNL     1      43.901  45.732  43.236  1.00  0.00     0.180 A 
ATOM      2  C   UNL     1      45.215  46.217  43.365  1.00  0.00     0.208 A 
ATOM      3  C   UNL     1      45.720  46.480  44.649  1.00  0.00     0.238 A 
ATOM      4  O   UNL     1      46.877  46.965  44.754  1.00  0.00    -0.285 OA
ATOM      5  C   UNL     1      44.913  46.240  45.786  1.00  0.00     0.111 A 
ATOM      6  C   UNL     1      45.338  46.432  47.136  1.00  0.00     0.134 A 
ATOM      7  C   UNL     1      44.413  46.288  48.178  1.00  0.00     0.093 A 
ATOM      8  C   UNL     1      43.101  45.895  47.926  1.00  0.00     0.123 A 
ATOM      9  C   UNL     1      42.690  45.645  46.615  1.00  0.00     0.094 A 
ATOM     10  C   UNL     1      43.579  45.817  45.551  1.00  0.00     0.146 A 
ATOM     11  O   UNL     1      43.148  45.580  44.319  1.00  0.00    -0.452 OA
ENDROOT
BRANCH   1  12
ATOM     12  C   UNL     1      43.306  45.408  41.920  1.00  0.00     0.021 A 
ATOM     13  C   UNL     1      44.111  45.182  40.787  1.00  0.00     0.016 A 
ATOM     14  C   UNL     1      43.528  44.854  39.560  1.00  0.00     0.047 A 
ATOM     15  C   UNL     1      42.139  44.734  39.450  1.00  0.00     0.115 A 
ATOM     16  C   UNL     1      41.914  45.264  41.806  1.00  0.00     0.016 A 
ATOM     17  C   UNL     1      41.333  44.937  40.577  1.00  0.00     0.047 A 
BRANCH  15  18
ATOM     18  O   UNL     1      41.572  44.407  38.220  1.00  0.00    -0.508 OA
ATOM     19  H   UNL     1      40.568  44.335  38.102  1.00  0.00     0.293 HD
ENDBRANCH  15  18
ENDBRANCH   1  12
BRANCH   2  20
ATOM     20  O   UNL     1      45.986  46.468  42.227  1.00  0.00    -0.502 OA
ATOM     21  H   UNL     1      46.731  47.154  42.215  1.00  0.00     0.293 HD
ENDBRANCH   2  20
BRANCH   6  22
ATOM     22  O   UNL     1      46.652  46.737  47.505  1.00  0.00    -0.507 OA
ATOM     23  H   UNL     1      46.988  46.770  48.455  1.00  0.00     0.293 HD
ENDBRANCH   6  22
BRANCH   8  24
ATOM     24  O   UNL     1      42.211  45.746  48.988  1.00  0.00    -0.508 OA
ATOM     25  H   UNL     1      41.820  46.547  49.469  1.00  0.00     0.293 HD
ENDBRANCH   8  24
TORSDOF 5
ENDMDL
