MODEL 1
REMARK VINA RESULT:    -3.302      0.000      0.000
REMARK INTER + INTRA:          -3.974
REMARK INTER:                  -3.882
REMARK INTRA:                  -0.093
REMARK UNBOUND:                -0.093
REMARK SMILES O=C([O-])CCC(=O)[O-]
REMARK SMILES IDX 4 1 2 2 1 3 3 4 5 5 6 6 7 7 8 8
REMARK H PARENT
REMARK Flexibility Score: inf
ROOT
ATOM      1  C   UNL     1       7.412  10.068  32.461  1.00  0.00     0.059 C 
ENDROOT
BRANCH   1   2
ATOM      2  C   UNL     1       8.470   9.922  31.411  1.00  0.00     0.042 C 
ATOM      3  O   UNL     1       8.610  10.806  30.525  1.00  0.00    -0.550 OA
ATOM      4  O   UNL     1       9.328   8.830  31.435  1.00  0.00    -0.550 OA
ENDBRANCH   1   2
BRANCH   1   5
ATOM      5  C   UNL     1       6.371  11.122  32.069  1.00  0.00     0.059 C 
BRANCH   5   6
ATOM      6  C   UNL     1       5.029  10.505  31.818  1.00  0.00     0.042 C 
ATOM      7  O   UNL     1       4.931   9.461  31.120  1.00  0.00    -0.550 OA
ATOM      8  O   UNL     1       3.882  11.106  32.321  1.00  0.00    -0.550 OA
ENDBRANCH   5   6
ENDBRANCH   1   5
TORSDOF 3
ENDMDL
MODEL 2
REMARK VINA RESULT:    -3.293      0.352      4.007
REMARK INTER + INTRA:          -3.963
REMARK INTER:                  -3.882
REMARK INTRA:                  -0.081
REMARK UNBOUND:                -0.093
REMARK SMILES O=C([O-])CCC(=O)[O-]
REMARK SMILES IDX 4 1 2 2 1 3 3 4 5 5 6 6 7 7 8 8
REMARK H PARENT
REMARK Flexibility Score: inf
ROOT
ATOM      1  C   UNL     1       6.366  11.117  31.517  1.00  0.00     0.059 C 
ENDROOT
BRANCH   1   2
ATOM      2  C   UNL     1       5.061  10.384  31.537  1.00  0.00     0.042 C 
ATOM      3  O   UNL     1       4.954   9.265  30.967  1.00  0.00    -0.550 OA
ATOM      4  O   UNL     1       3.974  10.915  32.218  1.00  0.00    -0.550 OA
ENDBRANCH   1   2
BRANCH   1   5
ATOM      5  C   UNL     1       7.465  10.334  32.242  1.00  0.00     0.059 C 
BRANCH   5   6
ATOM      6  C   UNL     1       8.571   9.943  31.310  1.00  0.00     0.042 C 
ATOM      7  O   UNL     1       9.391   9.046  31.640  1.00  0.00    -0.550 OA
ATOM      8  O   UNL     1       8.720  10.598  30.095  1.00  0.00    -0.550 OA
ENDBRANCH   5   6
ENDBRANCH   1   5
TORSDOF 3
ENDMDL
MODEL 3
REMARK VINA RESULT:    -3.237      0.527      3.994
REMARK INTER + INTRA:          -3.897
REMARK INTER:                  -3.785
REMARK INTRA:                  -0.112
REMARK UNBOUND:                -0.093
REMARK SMILES O=C([O-])CCC(=O)[O-]
REMARK SMILES IDX 4 1 2 2 1 3 3 4 5 5 6 6 7 7 8 8
REMARK H PARENT
REMARK Flexibility Score: inf
ROOT
ATOM      1  C   UNL     1       6.380  11.109  31.382  1.00  0.00     0.059 C 
ENDROOT
BRANCH   1   2
ATOM      2  C   UNL     1       5.108  10.318  31.373  1.00  0.00     0.042 C 
ATOM      3  O   UNL     1       5.050   9.218  30.760  1.00  0.00    -0.550 OA
ATOM      4  O   UNL     1       3.999  10.774  32.072  1.00  0.00    -0.550 OA
ENDBRANCH   1   2
BRANCH   1   5
ATOM      5  C   UNL     1       7.464  10.424  32.220  1.00  0.00     0.059 C 
BRANCH   5   6
ATOM      6  C   UNL     1       8.522   9.808  31.356  1.00  0.00     0.042 C 
ATOM      7  O   UNL     1       8.575  10.080  30.128  1.00  0.00    -0.550 OA
ATOM      8  O   UNL     1       9.422   8.901  31.900  1.00  0.00    -0.550 OA
ENDBRANCH   5   6
ENDBRANCH   1   5
TORSDOF 3
ENDMDL
MODEL 4
REMARK VINA RESULT:    -3.049      3.080      4.524
REMARK INTER + INTRA:          -3.677
REMARK INTER:                  -3.562
REMARK INTRA:                  -0.115
REMARK UNBOUND:                -0.093
REMARK SMILES O=C([O-])CCC(=O)[O-]
REMARK SMILES IDX 4 1 2 2 1 3 3 4 5 5 6 6 7 7 8 8
REMARK H PARENT
REMARK Flexibility Score: inf
ROOT
ATOM      1  C   UNL     1       4.406   8.718  30.002  1.00  0.00     0.059 C 
ENDROOT
BRANCH   1   2
ATOM      2  C   UNL     1       4.830   9.743  31.008  1.00  0.00     0.042 C 
ATOM      3  O   UNL     1       6.053   9.986  31.188  1.00  0.00    -0.550 OA
ATOM      4  O   UNL     1       3.875  10.457  31.720  1.00  0.00    -0.550 OA
ENDBRANCH   1   2
BRANCH   1   5
ATOM      5  C   UNL     1       4.810   9.123  28.580  1.00  0.00     0.059 C 
BRANCH   5   6
ATOM      6  C   UNL     1       5.980   8.325  28.091  1.00  0.00     0.042 C 
ATOM      7  O   UNL     1       6.492   7.436  28.822  1.00  0.00    -0.550 OA
ATOM      8  O   UNL     1       6.530   8.591  26.844  1.00  0.00    -0.550 OA
ENDBRANCH   5   6
ENDBRANCH   1   5
TORSDOF 3
ENDMDL
MODEL 5
REMARK VINA RESULT:    -3.042      2.420      2.928
REMARK INTER + INTRA:          -3.668
REMARK INTER:                  -3.546
REMARK INTRA:                  -0.122
REMARK UNBOUND:                -0.093
REMARK SMILES O=C([O-])CCC(=O)[O-]
REMARK SMILES IDX 4 1 2 2 1 3 3 4 5 5 6 6 7 7 8 8
REMARK H PARENT
REMARK Flexibility Score: inf
ROOT
ATOM      1  C   UNL     1       5.334   9.606  29.262  1.00  0.00     0.059 C 
ENDROOT
BRANCH   1   2
ATOM      2  C   UNL     1       6.403   8.609  28.935  1.00  0.00     0.042 C 
ATOM      3  O   UNL     1       7.557   8.734  29.424  1.00  0.00    -0.550 OA
ATOM      4  O   UNL     1       6.114   7.519  28.124  1.00  0.00    -0.550 OA
ENDBRANCH   1   2
BRANCH   1   5
ATOM      5  C   UNL     1       4.611   9.252  30.565  1.00  0.00     0.059 C 
BRANCH   5   6
ATOM      6  C   UNL     1       4.963  10.203  31.667  1.00  0.00     0.042 C 
ATOM      7  O   UNL     1       6.130  10.223  32.139  1.00  0.00    -0.550 OA
ATOM      8  O   UNL     1       3.990  11.039  32.201  1.00  0.00    -0.550 OA
ENDBRANCH   5   6
ENDBRANCH   1   5
TORSDOF 3
ENDMDL
MODEL 6
REMARK VINA RESULT:    -3.041      2.846      3.760
REMARK INTER + INTRA:          -3.667
REMARK INTER:                  -3.576
REMARK INTRA:                  -0.091
REMARK UNBOUND:                -0.093
REMARK SMILES O=C([O-])CCC(=O)[O-]
REMARK SMILES IDX 4 1 2 2 1 3 3 4 5 5 6 6 7 7 8 8
REMARK H PARENT
REMARK Flexibility Score: inf
ROOT
ATOM      1  C   UNL     1       5.277   8.524  29.334  1.00  0.00     0.059 C 
ENDROOT
BRANCH   1   2
ATOM      2  C   UNL     1       5.381   9.227  28.015  1.00  0.00     0.042 C 
ATOM      3  O   UNL     1       4.461   9.999  27.635  1.00  0.00    -0.550 OA
ATOM      4  O   UNL     1       6.510   9.060  27.225  1.00  0.00    -0.550 OA
ENDBRANCH   1   2
BRANCH   1   5
ATOM      5  C   UNL     1       4.185   9.137  30.216  1.00  0.00     0.059 C 
BRANCH   5   6
ATOM      6  C   UNL     1       4.766   9.993  31.300  1.00  0.00     0.042 C 
ATOM      7  O   UNL     1       4.015  10.701  32.020  1.00  0.00    -0.550 OA
ATOM      8  O   UNL     1       6.142  10.038  31.487  1.00  0.00    -0.550 OA
ENDBRANCH   5   6
ENDBRANCH   1   5
TORSDOF 3
ENDMDL
MODEL 7
REMARK VINA RESULT:    -2.902     16.943     17.436
REMARK INTER + INTRA:          -3.503
REMARK INTER:                  -3.384
REMARK INTRA:                  -0.119
REMARK UNBOUND:                -0.093
REMARK SMILES O=C([O-])CCC(=O)[O-]
REMARK SMILES IDX 4 1 2 2 1 3 3 4 5 5 6 6 7 7 8 8
REMARK H PARENT
REMARK Flexibility Score: inf
ROOT
ATOM      1  C   UNL     1       8.443  -6.317  37.804  1.00  0.00     0.059 C 
ENDROOT
BRANCH   1   2
ATOM      2  C   UNL     1       9.758  -5.762  37.351  1.00  0.00     0.042 C 
ATOM      3  O   UNL     1      10.261  -6.137  36.258  1.00  0.00    -0.550 OA
ATOM      4  O   UNL     1      10.410  -4.803  38.114  1.00  0.00    -0.550 OA
ENDBRANCH   1   2
BRANCH   1   5
ATOM      5  C   UNL     1       7.277  -5.730  37.003  1.00  0.00     0.059 C 
BRANCH   5   6
ATOM      6  C   UNL     1       6.591  -6.776  36.179  1.00  0.00     0.042 C 
ATOM      7  O   UNL     1       5.405  -6.602  35.793  1.00  0.00    -0.550 OA
ATOM      8  O   UNL     1       7.248  -7.961  35.872  1.00  0.00    -0.550 OA
ENDBRANCH   5   6
ENDBRANCH   1   5
TORSDOF 3
ENDMDL
MODEL 8
REMARK VINA RESULT:    -2.842      1.553      4.041
REMARK INTER + INTRA:          -3.433
REMARK INTER:                  -3.312
REMARK INTRA:                  -0.121
REMARK UNBOUND:                -0.093
REMARK SMILES O=C([O-])CCC(=O)[O-]
REMARK SMILES IDX 4 1 2 2 1 3 3 4 5 5 6 6 7 7 8 8
REMARK H PARENT
REMARK Flexibility Score: inf
ROOT
ATOM      1  C   UNL     1       6.084   9.983  30.548  1.00  0.00     0.059 C 
ENDROOT
BRANCH   1   2
ATOM      2  C   UNL     1       5.337  10.520  31.729  1.00  0.00     0.042 C 
ATOM      3  O   UNL     1       4.080  10.442  31.772  1.00  0.00    -0.550 OA
ATOM      4  O   UNL     1       6.029  11.071  32.799  1.00  0.00    -0.550 OA
ENDBRANCH   1   2
BRANCH   1   5
ATOM      5  C   UNL     1       7.014  11.038  29.940  1.00  0.00     0.059 C 
BRANCH   5   6
ATOM      6  C   UNL     1       8.456  10.690  30.151  1.00  0.00     0.042 C 
ATOM      7  O   UNL     1       8.808  10.034  31.167  1.00  0.00    -0.550 OA
ATOM      8  O   UNL     1       9.416  11.125  29.247  1.00  0.00    -0.550 OA
ENDBRANCH   5   6
ENDBRANCH   1   5
TORSDOF 3
ENDMDL
