MODEL 1
REMARK VINA RESULT:    -4.648      0.000      0.000
REMARK INTER + INTRA:          -4.648
REMARK INTER:                  -4.648
REMARK INTRA:                   0.000
REMARK UNBOUND:                 0.000
REMARK SMILES C=C1CCC[C@@]2(C)CC(=O)C(=C(C)C)C[C@H]12
REMARK SMILES IDX 13 1 12 2 11 3 15 4 16 5 2 6 1 7 3 8 4 9 5 10 6 11 8 12 9 13
REMARK SMILES IDX 10 14 7 15 14 16
REMARK H PARENT
REMARK Flexibility Score: inf
ROOT
ATOM      1  C   UNL     1      78.827 -10.106  19.909  1.00  0.00     0.039 C 
ATOM      2  C   UNL     1      79.586  -9.197  18.970  1.00  0.00    -0.070 C 
ATOM      3  C   UNL     1      79.262  -9.097  17.646  1.00  0.00    -0.006 C 
ATOM      4  C   UNL     1      80.075  -8.223  16.700  1.00  0.00     0.047 C 
ATOM      5  C   UNL     1      80.087  -8.761  15.248  1.00  0.00     0.025 C 
ATOM      6  C   UNL     1      80.855  -7.903  14.243  1.00  0.00    -0.073 C 
ATOM      7  C   UNL     1      81.479  -6.751  14.556  1.00  0.00     0.008 C 
ATOM      8  C   UNL     1      80.932  -8.435  12.831  1.00  0.00     0.031 C 
ATOM      9  C   UNL     1      79.530  -8.752  12.303  1.00  0.00     0.005 C 
ATOM     10  C   UNL     1      78.749  -9.653  13.275  1.00  0.00     0.008 C 
ATOM     11  C   UNL     1      78.651  -9.060  14.714  1.00  0.00    -0.018 C 
ATOM     12  C   UNL     1      77.994 -10.123  15.628  1.00  0.00     0.088 C 
ATOM     13  C   UNL     1      78.037  -9.728  17.076  1.00  0.00     0.159 C 
ATOM     14  O   UNL     1      77.015  -9.929  17.786  1.00  0.00    -0.295 OA
ATOM     15  C   UNL     1      77.765  -7.784  14.691  1.00  0.00     0.012 C 
ATOM     16  C   UNL     1      80.750  -8.428  19.553  1.00  0.00     0.039 C 
ENDROOT
TORSDOF 0
ENDMDL
MODEL 2
REMARK VINA RESULT:    -4.558      9.790     12.957
REMARK INTER + INTRA:          -4.558
REMARK INTER:                  -4.558
REMARK INTRA:                   0.000
REMARK UNBOUND:                 0.000
REMARK SMILES C=C1CCC[C@@]2(C)CC(=O)C(=C(C)C)C[C@H]12
REMARK SMILES IDX 13 1 12 2 11 3 15 4 16 5 2 6 1 7 3 8 4 9 5 10 6 11 8 12 9 13
REMARK SMILES IDX 10 14 7 15 14 16
REMARK H PARENT
REMARK Flexibility Score: inf
ROOT
ATOM      1  C   UNL     1      84.322  -6.715  31.601  1.00  0.00     0.039 C 
ATOM      2  C   UNL     1      83.182  -7.469  30.956  1.00  0.00    -0.070 C 
ATOM      3  C   UNL     1      83.189  -7.784  29.626  1.00  0.00    -0.006 C 
ATOM      4  C   UNL     1      82.005  -8.490  28.978  1.00  0.00     0.047 C 
ATOM      5  C   UNL     1      81.827  -8.115  27.486  1.00  0.00     0.025 C 
ATOM      6  C   UNL     1      80.677  -8.825  26.770  1.00  0.00    -0.073 C 
ATOM      7  C   UNL     1      79.864  -9.724  27.357  1.00  0.00     0.008 C 
ATOM      8  C   UNL     1      80.444  -8.434  25.329  1.00  0.00     0.031 C 
ATOM      9  C   UNL     1      81.740  -8.568  24.524  1.00  0.00     0.005 C 
ATOM     10  C   UNL     1      82.906  -7.824  25.199  1.00  0.00     0.008 C 
ATOM     11  C   UNL     1      83.149  -8.276  26.672  1.00  0.00    -0.018 C 
ATOM     12  C   UNL     1      84.225  -7.349  27.287  1.00  0.00     0.088 C 
ATOM     13  C   UNL     1      84.387  -7.572  28.764  1.00  0.00     0.159 C 
ATOM     14  O   UNL     1      85.551  -7.591  29.246  1.00  0.00    -0.295 OA
ATOM     15  C   UNL     1      83.663  -9.742  26.687  1.00  0.00     0.012 C 
ATOM     16  C   UNL     1      82.010  -7.828  31.842  1.00  0.00     0.039 C 
ENDROOT
TORSDOF 0
ENDMDL
MODEL 3
REMARK VINA RESULT:    -4.426      1.604      3.027
REMARK INTER + INTRA:          -4.426
REMARK INTER:                  -4.426
REMARK INTRA:                   0.000
REMARK UNBOUND:                 0.000
REMARK SMILES C=C1CCC[C@@]2(C)CC(=O)C(=C(C)C)C[C@H]12
REMARK SMILES IDX 13 1 12 2 11 3 15 4 16 5 2 6 1 7 3 8 4 9 5 10 6 11 8 12 9 13
REMARK SMILES IDX 10 14 7 15 14 16
REMARK H PARENT
REMARK Flexibility Score: inf
ROOT
ATOM      1  C   UNL     1      78.497  -9.286  19.596  1.00  0.00     0.039 C 
ATOM      2  C   UNL     1      77.887  -9.499  18.230  1.00  0.00    -0.070 C 
ATOM      3  C   UNL     1      78.531  -9.114  17.087  1.00  0.00    -0.006 C 
ATOM      4  C   UNL     1      77.877  -9.279  15.721  1.00  0.00     0.047 C 
ATOM      5  C   UNL     1      78.327  -8.200  14.706  1.00  0.00     0.025 C 
ATOM      6  C   UNL     1      77.734  -8.339  13.304  1.00  0.00    -0.073 C 
ATOM      7  C   UNL     1      76.888  -9.321  12.937  1.00  0.00     0.008 C 
ATOM      8  C   UNL     1      78.110  -7.265  12.310  1.00  0.00     0.031 C 
ATOM      9  C   UNL     1      79.633  -7.117  12.235  1.00  0.00     0.005 C 
ATOM     10  C   UNL     1      80.253  -6.930  13.631  1.00  0.00     0.008 C 
ATOM     11  C   UNL     1      79.881  -8.073  14.624  1.00  0.00    -0.018 C 
ATOM     12  C   UNL     1      80.421  -7.690  16.023  1.00  0.00     0.088 C 
ATOM     13  C   UNL     1      79.941  -8.629  17.092  1.00  0.00     0.159 C 
ATOM     14  O   UNL     1      80.758  -9.005  17.975  1.00  0.00    -0.295 OA
ATOM     15  C   UNL     1      80.546  -9.399  14.162  1.00  0.00     0.012 C 
ATOM     16  C   UNL     1      76.512 -10.125  18.183  1.00  0.00     0.039 C 
ENDROOT
TORSDOF 0
ENDMDL
MODEL 4
REMARK VINA RESULT:    -4.245      9.863     13.997
REMARK INTER + INTRA:          -4.245
REMARK INTER:                  -4.245
REMARK INTRA:                   0.000
REMARK UNBOUND:                 0.000
REMARK SMILES C=C1CCC[C@@]2(C)CC(=O)C(=C(C)C)C[C@H]12
REMARK SMILES IDX 13 1 12 2 11 3 15 4 16 5 2 6 1 7 3 8 4 9 5 10 6 11 8 12 9 13
REMARK SMILES IDX 10 14 7 15 14 16
REMARK H PARENT
REMARK Flexibility Score: inf
ROOT
ATOM      1  C   UNL     1      81.602  -8.972  24.690  1.00  0.00     0.039 C 
ATOM      2  C   UNL     1      82.780  -9.091  25.629  1.00  0.00    -0.070 C 
ATOM      3  C   UNL     1      82.648  -8.900  26.976  1.00  0.00    -0.006 C 
ATOM      4  C   UNL     1      83.855  -8.963  27.902  1.00  0.00     0.047 C 
ATOM      5  C   UNL     1      83.708  -8.048  29.143  1.00  0.00     0.025 C 
ATOM      6  C   UNL     1      84.874  -8.100  30.131  1.00  0.00    -0.073 C 
ATOM      7  C   UNL     1      85.960  -8.880  29.975  1.00  0.00     0.008 C 
ATOM      8  C   UNL     1      84.783  -7.173  31.321  1.00  0.00     0.031 C 
ATOM      9  C   UNL     1      83.452  -7.372  32.051  1.00  0.00     0.005 C 
ATOM     10  C   UNL     1      82.256  -7.280  31.087  1.00  0.00     0.008 C 
ATOM     11  C   UNL     1      82.357  -8.275  29.891  1.00  0.00    -0.018 C 
ATOM     12  C   UNL     1      81.194  -7.973  28.915  1.00  0.00     0.088 C 
ATOM     13  C   UNL     1      81.318  -8.744  27.632  1.00  0.00     0.159 C 
ATOM     14  O   UNL     1      80.281  -9.261  27.137  1.00  0.00    -0.295 OA
ATOM     15  C   UNL     1      82.224  -9.732  30.415  1.00  0.00     0.012 C 
ATOM     16  C   UNL     1      84.124  -9.395  25.007  1.00  0.00     0.039 C 
ENDROOT
TORSDOF 0
ENDMDL
MODEL 5
REMARK VINA RESULT:    -4.091     14.760     16.669
REMARK INTER + INTRA:          -4.091
REMARK INTER:                  -4.091
REMARK INTRA:                   0.000
REMARK UNBOUND:                 0.000
REMARK SMILES C=C1CCC[C@@]2(C)CC(=O)C(=C(C)C)C[C@H]12
REMARK SMILES IDX 13 1 12 2 11 3 15 4 16 5 2 6 1 7 3 8 4 9 5 10 6 11 8 12 9 13
REMARK SMILES IDX 10 14 7 15 14 16
REMARK H PARENT
REMARK Flexibility Score: inf
ROOT
ATOM      1  C   UNL     1      89.088  -6.259  31.368  1.00  0.00     0.039 C 
ATOM      2  C   UNL     1      87.627  -5.973  31.629  1.00  0.00    -0.070 C 
ATOM      3  C   UNL     1      86.659  -6.911  31.401  1.00  0.00    -0.006 C 
ATOM      4  C   UNL     1      85.185  -6.588  31.611  1.00  0.00     0.047 C 
ATOM      5  C   UNL     1      84.256  -7.388  30.665  1.00  0.00     0.025 C 
ATOM      6  C   UNL     1      82.760  -7.135  30.857  1.00  0.00    -0.073 C 
ATOM      7  C   UNL     1      82.250  -6.296  31.778  1.00  0.00     0.008 C 
ATOM      8  C   UNL     1      81.833  -7.858  29.908  1.00  0.00     0.031 C 
ATOM      9  C   UNL     1      82.128  -9.361  29.915  1.00  0.00     0.005 C 
ATOM     10  C   UNL     1      83.622  -9.647  29.679  1.00  0.00     0.008 C 
ATOM     11  C   UNL     1      84.552  -8.920  30.697  1.00  0.00    -0.018 C 
ATOM     12  C   UNL     1      86.018  -9.150  30.258  1.00  0.00     0.088 C 
ATOM     13  C   UNL     1      86.985  -8.325  31.057  1.00  0.00     0.159 C 
ATOM     14  O   UNL     1      88.061  -8.859  31.439  1.00  0.00    -0.295 OA
ATOM     15  C   UNL     1      84.340  -9.521  32.115  1.00  0.00     0.012 C 
ATOM     16  C   UNL     1      87.277  -4.587  32.120  1.00  0.00     0.039 C 
ENDROOT
TORSDOF 0
ENDMDL
MODEL 6
REMARK VINA RESULT:    -3.877      9.349     13.582
REMARK INTER + INTRA:          -3.877
REMARK INTER:                  -3.877
REMARK INTRA:                   0.000
REMARK UNBOUND:                 0.000
REMARK SMILES C=C1CCC[C@@]2(C)CC(=O)C(=C(C)C)C[C@H]12
REMARK SMILES IDX 13 1 12 2 11 3 15 4 16 5 2 6 1 7 3 8 4 9 5 10 6 11 8 12 9 13
REMARK SMILES IDX 10 14 7 15 14 16
REMARK H PARENT
REMARK Flexibility Score: inf
ROOT
ATOM      1  C   UNL     1      82.494  -9.857  23.789  1.00  0.00     0.039 C 
ATOM      2  C   UNL     1      81.852  -9.379  25.071  1.00  0.00    -0.070 C 
ATOM      3  C   UNL     1      82.550  -9.315  26.245  1.00  0.00    -0.006 C 
ATOM      4  C   UNL     1      81.874  -8.890  27.541  1.00  0.00     0.047 C 
ATOM      5  C   UNL     1      82.504  -9.551  28.792  1.00  0.00     0.025 C 
ATOM      6  C   UNL     1      81.891  -9.130  30.128  1.00  0.00    -0.073 C 
ATOM      7  C   UNL     1      80.884  -8.244  30.250  1.00  0.00     0.008 C 
ATOM      8  C   UNL     1      82.448  -9.804  31.360  1.00  0.00     0.031 C 
ATOM      9  C   UNL     1      83.972  -9.664  31.402  1.00  0.00     0.005 C 
ATOM     10  C   UNL     1      84.620 -10.124  30.084  1.00  0.00     0.008 C 
ATOM     11  C   UNL     1      84.055  -9.383  28.834  1.00  0.00    -0.018 C 
ATOM     12  C   UNL     1      84.659 -10.043  27.571  1.00  0.00     0.088 C 
ATOM     13  C   UNL     1      84.024  -9.534  26.308  1.00  0.00     0.159 C 
ATOM     14  O   UNL     1      84.765  -9.286  25.319  1.00  0.00    -0.295 OA
ATOM     15  C   UNL     1      84.474  -7.888  28.883  1.00  0.00     0.012 C 
ATOM     16  C   UNL     1      80.388  -9.009  25.008  1.00  0.00     0.039 C 
ENDROOT
TORSDOF 0
ENDMDL
MODEL 7
REMARK VINA RESULT:    -3.704     13.830     15.667
REMARK INTER + INTRA:          -3.704
REMARK INTER:                  -3.704
REMARK INTRA:                   0.000
REMARK UNBOUND:                 0.000
REMARK SMILES C=C1CCC[C@@]2(C)CC(=O)C(=C(C)C)C[C@H]12
REMARK SMILES IDX 13 1 12 2 11 3 15 4 16 5 2 6 1 7 3 8 4 9 5 10 6 11 8 12 9 13
REMARK SMILES IDX 10 14 7 15 14 16
REMARK H PARENT
REMARK Flexibility Score: inf
ROOT
ATOM      1  C   UNL     1      80.642  -9.728  29.575  1.00  0.00     0.039 C 
ATOM      2  C   UNL     1      81.204  -8.492  30.239  1.00  0.00    -0.070 C 
ATOM      3  C   UNL     1      82.504  -8.108  30.062  1.00  0.00    -0.006 C 
ATOM      4  C   UNL     1      83.073  -6.895  30.786  1.00  0.00     0.047 C 
ATOM      5  C   UNL     1      84.587  -7.028  31.081  1.00  0.00     0.025 C 
ATOM      6  C   UNL     1      85.222  -5.821  31.772  1.00  0.00    -0.073 C 
ATOM      7  C   UNL     1      84.551  -4.702  32.104  1.00  0.00     0.008 C 
ATOM      8  C   UNL     1      86.686  -5.948  32.125  1.00  0.00     0.031 C 
ATOM      9  C   UNL     1      87.500  -6.349  30.891  1.00  0.00     0.005 C 
ATOM     10  C   UNL     1      86.907  -7.590  30.200  1.00  0.00     0.008 C 
ATOM     11  C   UNL     1      85.408  -7.416  29.812  1.00  0.00    -0.018 C 
ATOM     12  C   UNL     1      84.888  -8.775  29.283  1.00  0.00     0.088 C 
ATOM     13  C   UNL     1      83.401  -8.768  29.069  1.00  0.00     0.159 C 
ATOM     14  O   UNL     1      82.938  -9.315  28.033  1.00  0.00    -0.295 OA
ATOM     15  C   UNL     1      85.282  -6.346  28.692  1.00  0.00     0.012 C 
ATOM     16  C   UNL     1      80.272  -7.715  31.142  1.00  0.00     0.039 C 
ENDROOT
TORSDOF 0
ENDMDL
MODEL 8
REMARK VINA RESULT:    -3.665     11.903     14.254
REMARK INTER + INTRA:          -3.665
REMARK INTER:                  -3.665
REMARK INTRA:                   0.000
REMARK UNBOUND:                 0.000
REMARK SMILES C=C1CCC[C@@]2(C)CC(=O)C(=C(C)C)C[C@H]12
REMARK SMILES IDX 13 1 12 2 11 3 15 4 16 5 2 6 1 7 3 8 4 9 5 10 6 11 8 12 9 13
REMARK SMILES IDX 10 14 7 15 14 16
REMARK H PARENT
REMARK Flexibility Score: inf
ROOT
ATOM      1  C   UNL     1      78.810 -10.124  29.688  1.00  0.00     0.039 C 
ATOM      2  C   UNL     1      79.946  -9.819  28.739  1.00  0.00    -0.070 C 
ATOM      3  C   UNL     1      81.158  -9.374  29.187  1.00  0.00    -0.006 C 
ATOM      4  C   UNL     1      82.273  -9.012  28.214  1.00  0.00     0.047 C 
ATOM      5  C   UNL     1      83.203  -7.898  28.754  1.00  0.00     0.025 C 
ATOM      6  C   UNL     1      84.366  -7.521  27.836  1.00  0.00    -0.073 C 
ATOM      7  C   UNL     1      84.605  -8.101  26.645  1.00  0.00     0.008 C 
ATOM      8  C   UNL     1      85.254  -6.395  28.312  1.00  0.00     0.031 C 
ATOM      9  C   UNL     1      85.760  -6.677  29.730  1.00  0.00     0.005 C 
ATOM     10  C   UNL     1      84.603  -7.016  30.687  1.00  0.00     0.008 C 
ATOM     11  C   UNL     1      83.728  -8.207  30.191  1.00  0.00    -0.018 C 
ATOM     12  C   UNL     1      82.515  -8.341  31.143  1.00  0.00     0.088 C 
ATOM     13  C   UNL     1      81.505  -9.330  30.637  1.00  0.00     0.159 C 
ATOM     14  O   UNL     1      80.974 -10.125  31.459  1.00  0.00    -0.295 OA
ATOM     15  C   UNL     1      84.561  -9.518  30.232  1.00  0.00     0.012 C 
ATOM     16  C   UNL     1      79.671  -9.993  27.262  1.00  0.00     0.039 C 
ENDROOT
TORSDOF 0
ENDMDL
MODEL 9
REMARK VINA RESULT:    -3.545     11.000     15.155
REMARK INTER + INTRA:          -3.545
REMARK INTER:                  -3.545
REMARK INTRA:                   0.000
REMARK UNBOUND:                 0.000
REMARK SMILES C=C1CCC[C@@]2(C)CC(=O)C(=C(C)C)C[C@H]12
REMARK SMILES IDX 13 1 12 2 11 3 15 4 16 5 2 6 1 7 3 8 4 9 5 10 6 11 8 12 9 13
REMARK SMILES IDX 10 14 7 15 14 16
REMARK H PARENT
REMARK Flexibility Score: inf
ROOT
ATOM      1  C   UNL     1      82.633  -8.245  25.556  1.00  0.00     0.039 C 
ATOM      2  C   UNL     1      82.780  -8.867  26.926  1.00  0.00    -0.070 C 
ATOM      3  C   UNL     1      83.618  -8.341  27.869  1.00  0.00    -0.006 C 
ATOM      4  C   UNL     1      83.802  -9.014  29.223  1.00  0.00     0.047 C 
ATOM      5  C   UNL     1      85.213  -8.786  29.819  1.00  0.00     0.025 C 
ATOM      6  C   UNL     1      85.443  -9.405  31.198  1.00  0.00    -0.073 C 
ATOM      7  C   UNL     1      84.510 -10.096  31.880  1.00  0.00     0.008 C 
ATOM      8  C   UNL     1      86.830  -9.247  31.778  1.00  0.00     0.031 C 
ATOM      9  C   UNL     1      87.244  -7.773  31.777  1.00  0.00     0.005 C 
ATOM     10  C   UNL     1      87.064  -7.134  30.388  1.00  0.00     0.008 C 
ATOM     11  C   UNL     1      85.614  -7.277  29.832  1.00  0.00    -0.018 C 
ATOM     12  C   UNL     1      85.603  -6.750  28.377  1.00  0.00     0.088 C 
ATOM     13  C   UNL     1      84.301  -7.028  27.684  1.00  0.00     0.159 C 
ATOM     14  O   UNL     1      83.798  -6.126  26.961  1.00  0.00    -0.295 OA
ATOM     15  C   UNL     1      84.641  -6.427  30.695  1.00  0.00     0.012 C 
ATOM     16  C   UNL     1      81.986 -10.125  27.196  1.00  0.00     0.039 C 
ENDROOT
TORSDOF 0
ENDMDL
