MODEL 1
REMARK VINA RESULT:    12.615      0.000      0.000
REMARK INTER + INTRA:          16.047
REMARK INTER:                  15.565
REMARK INTRA:                   0.481
REMARK UNBOUND:                 0.481
REMARK SMILES O=c1c(O)c(-c2cc(O)c(O)c(O)c2)oc2cc(O)cc(O)c12
REMARK SMILES IDX 5 1 3 2 2 3 1 4 23 5 21 6 20 7 18 8 17 9 16 10 15 11 6 12
REMARK SMILES IDX 7 13 8 14 14 15 10 16 12 17 9 18 11 20 13 22 4 24 22 26
REMARK SMILES IDX 19 28
REMARK H PARENT 9 19 11 21 13 23 4 25 22 27 19 29
REMARK Flexibility Score: inf
ROOT
ATOM      1  C   UNL     1       3.105 135.230 155.559  1.00  0.00     0.180 A 
ATOM      2  C   UNL     1       3.904 135.884 154.601  1.00  0.00     0.208 A 
ATOM      3  C   UNL     1       4.360 135.159 153.488  1.00  0.00     0.238 A 
ATOM      4  O   UNL     1       5.067 135.738 152.619  1.00  0.00    -0.285 OA
ATOM      5  C   UNL     1       4.029 133.795 153.363  1.00  0.00     0.111 A 
ATOM      6  C   UNL     1       4.452 132.993 152.274  1.00  0.00     0.134 A 
ATOM      7  C   UNL     1       4.089 131.640 152.225  1.00  0.00     0.093 A 
ATOM      8  C   UNL     1       3.314 131.073 153.239  1.00  0.00     0.123 A 
ATOM      9  C   UNL     1       2.892 131.860 154.317  1.00  0.00     0.094 A 
ATOM     10  C   UNL     1       3.243 133.212 154.383  1.00  0.00     0.146 A 
ATOM     11  O   UNL     1       2.826 133.938 155.414  1.00  0.00    -0.452 OA
ENDROOT
BRANCH   1  12
ATOM     12  C   UNL     1       2.571 135.930 156.749  1.00  0.00     0.029 A 
ATOM     13  C   UNL     1       1.998 135.220 157.819  1.00  0.00     0.062 A 
ATOM     14  C   UNL     1       1.519 135.899 158.948  1.00  0.00     0.162 A 
ATOM     15  C   UNL     1       2.691 137.325 156.841  1.00  0.00     0.062 A 
ATOM     16  C   UNL     1       1.622 137.299 159.020  1.00  0.00     0.200 A 
ATOM     17  C   UNL     1       2.215 138.009 157.963  1.00  0.00     0.162 A 
BRANCH  14  18
ATOM     18  O   UNL     1       0.946 135.187 160.000  1.00  0.00    -0.504 OA
ATOM     19  H   UNL     1       1.446 135.021 160.865  1.00  0.00     0.293 HD
ENDBRANCH  14  18
BRANCH  16  20
ATOM     20  O   UNL     1       1.147 137.991 160.135  1.00  0.00    -0.502 OA
ATOM     21  H   UNL     1       0.599 137.539 160.858  1.00  0.00     0.293 HD
ENDBRANCH  16  20
BRANCH  17  22
ATOM     22  O   UNL     1       2.340 139.398 158.009  1.00  0.00    -0.504 OA
ATOM     23  H   UNL     1       2.440 139.959 157.172  1.00  0.00     0.293 HD
ENDBRANCH  17  22
ENDBRANCH   1  12
BRANCH   2  24
ATOM     24  O   UNL     1       4.258 137.225 154.775  1.00  0.00    -0.502 OA
ATOM     25  H   UNL     1       4.047 137.736 155.625  1.00  0.00     0.293 HD
ENDBRANCH   2  24
BRANCH   6  26
ATOM     26  O   UNL     1       5.227 133.530 151.245  1.00  0.00    -0.507 OA
ATOM     27  H   UNL     1       5.042 133.318 150.272  1.00  0.00     0.293 HD
ENDBRANCH   6  26
BRANCH   8  28
ATOM     28  O   UNL     1       2.967 129.725 153.167  1.00  0.00    -0.508 OA
ATOM     29  H   UNL     1       3.347 129.045 153.816  1.00  0.00     0.293 HD
ENDBRANCH   8  28
TORSDOF 7
ENDMDL
MODEL 2
REMARK VINA RESULT:    12.708      0.221      1.769
REMARK INTER + INTRA:          16.160
REMARK INTER:                  15.800
REMARK INTRA:                   0.360
REMARK UNBOUND:                 0.481
REMARK SMILES O=c1c(O)c(-c2cc(O)c(O)c(O)c2)oc2cc(O)cc(O)c12
REMARK SMILES IDX 5 1 3 2 2 3 1 4 23 5 21 6 20 7 18 8 17 9 16 10 15 11 6 12
REMARK SMILES IDX 7 13 8 14 14 15 10 16 12 17 9 18 11 20 13 22 4 24 22 26
REMARK SMILES IDX 19 28
REMARK H PARENT 9 19 11 21 13 23 4 25 22 27 19 29
REMARK Flexibility Score: inf
ROOT
ATOM      1  C   UNL     1       3.057 135.174 155.556  1.00  0.00     0.180 A 
ATOM      2  C   UNL     1       3.880 135.772 154.582  1.00  0.00     0.208 A 
ATOM      3  C   UNL     1       4.261 135.020 153.460  1.00  0.00     0.238 A 
ATOM      4  O   UNL     1       4.990 135.550 152.577  1.00  0.00    -0.285 OA
ATOM      5  C   UNL     1       3.832 133.683 153.340  1.00  0.00     0.111 A 
ATOM      6  C   UNL     1       4.174 132.856 152.242  1.00  0.00     0.134 A 
ATOM      7  C   UNL     1       3.715 131.532 152.199  1.00  0.00     0.093 A 
ATOM      8  C   UNL     1       2.922 131.019 153.228  1.00  0.00     0.123 A 
ATOM      9  C   UNL     1       2.580 131.831 154.315  1.00  0.00     0.094 A 
ATOM     10  C   UNL     1       3.027 133.155 154.375  1.00  0.00     0.146 A 
ATOM     11  O   UNL     1       2.684 133.906 155.415  1.00  0.00    -0.452 OA
ENDROOT
BRANCH   1  12
ATOM     12  C   UNL     1       2.598 135.908 156.758  1.00  0.00     0.029 A 
ATOM     13  C   UNL     1       2.670 137.309 156.830  1.00  0.00     0.062 A 
ATOM     14  C   UNL     1       2.209 137.988 157.967  1.00  0.00     0.162 A 
ATOM     15  C   UNL     1       2.027 135.197 157.824  1.00  0.00     0.062 A 
ATOM     16  C   UNL     1       1.659 137.265 159.039  1.00  0.00     0.200 A 
ATOM     17  C   UNL     1       1.565 135.865 158.961  1.00  0.00     0.162 A 
BRANCH  14  18
ATOM     18  O   UNL     1       2.292 139.378 158.032  1.00  0.00    -0.504 OA
ATOM     19  H   UNL     1       3.184 139.855 158.094  1.00  0.00     0.293 HD
ENDBRANCH  14  18
BRANCH  16  20
ATOM     20  O   UNL     1       1.200 137.924 160.180  1.00  0.00    -0.502 OA
ATOM     21  H   UNL     1       0.377 137.618 160.686  1.00  0.00     0.293 HD
ENDBRANCH  16  20
BRANCH  17  22
ATOM     22  O   UNL     1       1.016 135.121 160.006  1.00  0.00    -0.504 OA
ATOM     23  H   UNL     1       1.020 134.108 160.007  1.00  0.00     0.293 HD
ENDBRANCH  17  22
ENDBRANCH   1  12
BRANCH   2  24
ATOM     24  O   UNL     1       4.333 137.084 154.751  1.00  0.00    -0.502 OA
ATOM     25  H   UNL     1       5.232 137.299 155.168  1.00  0.00     0.293 HD
ENDBRANCH   2  24
BRANCH   6  26
ATOM     26  O   UNL     1       4.965 133.339 151.198  1.00  0.00    -0.507 OA
ATOM     27  H   UNL     1       4.972 134.320 150.944  1.00  0.00     0.293 HD
ENDBRANCH   6  26
BRANCH   8  28
ATOM     28  O   UNL     1       2.479 129.700 153.162  1.00  0.00    -0.508 OA
ATOM     29  H   UNL     1       2.050 129.244 153.959  1.00  0.00     0.293 HD
ENDBRANCH   8  28
TORSDOF 7
ENDMDL
