MODEL 1
REMARK VINA RESULT:    -2.804      0.000      0.000
REMARK INTER + INTRA:          -4.061
REMARK INTER:                  -3.952
REMARK INTRA:                  -0.109
REMARK UNBOUND:                -0.109
REMARK SMILES C=CCCCCCCC(=O)[O-]
REMARK SMILES IDX 6 1 7 2 8 3 9 4 10 5 11 6 5 7 4 8 3 9 2 10 1 11
REMARK H PARENT
REMARK Flexibility Score: inf
ROOT
ATOM      1  C   UNL     1      64.169 130.688  -8.122  1.00  0.00     0.000 C 
ENDROOT
BRANCH   1   2
ATOM      2  C   UNL     1      65.130 130.680  -6.921  1.00  0.00     0.006 C 
BRANCH   2   3
ATOM      3  C   UNL     1      64.561 129.899  -5.729  1.00  0.00     0.053 C 
BRANCH   3   4
ATOM      4  C   UNL     1      65.553 128.920  -5.178  1.00  0.00     0.041 C 
ATOM      5  O   UNL     1      65.253 128.207  -4.185  1.00  0.00    -0.550 OA
ATOM      6  O   UNL     1      66.796 128.775  -5.779  1.00  0.00    -0.550 OA
ENDBRANCH   3   4
ENDBRANCH   2   3
ENDBRANCH   1   2
BRANCH   1   7
ATOM      7  C   UNL     1      62.746 130.248  -7.744  1.00  0.00     0.000 C 
BRANCH   7   8
ATOM      8  C   UNL     1      62.524 128.739  -7.925  1.00  0.00     0.004 C 
BRANCH   8   9
ATOM      9  C   UNL     1      61.085 128.349  -7.563  1.00  0.00     0.027 C 
BRANCH   9  10
ATOM     10  C   UNL     1      60.962 128.006  -6.104  1.00  0.00    -0.035 C 
ATOM     11  C   UNL     1      59.771 127.875  -5.510  1.00  0.00     0.004 C 
ENDBRANCH   9  10
ENDBRANCH   8   9
ENDBRANCH   7   8
ENDBRANCH   1   7
TORSDOF 7
ENDMDL
MODEL 2
REMARK VINA RESULT:    -2.608      1.775      2.087
REMARK INTER + INTRA:          -3.784
REMARK INTER:                  -3.592
REMARK INTRA:                  -0.192
REMARK UNBOUND:                -0.109
REMARK SMILES C=CCCCCCCC(=O)[O-]
REMARK SMILES IDX 6 1 7 2 8 3 9 4 10 5 11 6 5 7 4 8 3 9 2 10 1 11
REMARK H PARENT
REMARK Flexibility Score: inf
ROOT
ATOM      1  C   UNL     1      63.941 130.099  -5.723  1.00  0.00     0.000 C 
ENDROOT
BRANCH   1   2
ATOM      2  C   UNL     1      65.350 129.681  -5.266  1.00  0.00     0.006 C 
BRANCH   2   3
ATOM      3  C   UNL     1      65.866 128.454  -6.028  1.00  0.00     0.053 C 
BRANCH   3   4
ATOM      4  C   UNL     1      66.651 128.841  -7.244  1.00  0.00     0.041 C 
ATOM      5  O   UNL     1      67.070 127.955  -8.035  1.00  0.00    -0.550 OA
ATOM      6  O   UNL     1      66.893 130.180  -7.521  1.00  0.00    -0.550 OA
ENDBRANCH   3   4
ENDBRANCH   2   3
ENDBRANCH   1   2
BRANCH   1   7
ATOM      7  C   UNL     1      63.411 129.229  -6.874  1.00  0.00     0.000 C 
BRANCH   7   8
ATOM      8  C   UNL     1      62.309 129.926  -7.685  1.00  0.00     0.004 C 
BRANCH   8   9
ATOM      9  C   UNL     1      61.154 128.961  -7.985  1.00  0.00     0.027 C 
BRANCH   9  10
ATOM     10  C   UNL     1      61.066 127.875  -6.949  1.00  0.00    -0.035 C 
ATOM     11  C   UNL     1      60.119 127.878  -6.006  1.00  0.00     0.004 C 
ENDBRANCH   9  10
ENDBRANCH   8   9
ENDBRANCH   7   8
ENDBRANCH   1   7
TORSDOF 7
ENDMDL
MODEL 3
REMARK VINA RESULT:    -2.237     21.617     22.264
REMARK INTER + INTRA:          -3.262
REMARK INTER:                  -3.106
REMARK INTRA:                  -0.155
REMARK UNBOUND:                -0.109
REMARK SMILES C=CCCCCCCC(=O)[O-]
REMARK SMILES IDX 6 1 7 2 8 3 9 4 10 5 11 6 5 7 4 8 3 9 2 10 1 11
REMARK H PARENT
REMARK Flexibility Score: inf
ROOT
ATOM      1  C   UNL     1      54.716 147.230  -1.828  1.00  0.00     0.000 C 
ENDROOT
BRANCH   1   2
ATOM      2  C   UNL     1      54.688 147.962  -3.181  1.00  0.00     0.006 C 
BRANCH   2   3
ATOM      3  C   UNL     1      53.262 148.120  -3.725  1.00  0.00     0.053 C 
BRANCH   3   4
ATOM      4  C   UNL     1      53.206 147.922  -5.209  1.00  0.00     0.041 C 
ATOM      5  O   UNL     1      54.269 147.881  -5.883  1.00  0.00    -0.550 OA
ATOM      6  O   UNL     1      51.982 147.753  -5.843  1.00  0.00    -0.550 OA
ENDBRANCH   3   4
ENDBRANCH   2   3
ENDBRANCH   1   2
BRANCH   1   7
ATOM      7  C   UNL     1      54.263 148.125  -0.663  1.00  0.00     0.000 C 
BRANCH   7   8
ATOM      8  C   UNL     1      52.785 147.920  -0.297  1.00  0.00     0.004 C 
BRANCH   8   9
ATOM      9  C   UNL     1      52.636 147.495   1.169  1.00  0.00     0.027 C 
BRANCH   9  10
ATOM     10  C   UNL     1      51.235 147.720   1.665  1.00  0.00    -0.035 C 
ATOM     11  C   UNL     1      50.253 148.106   0.844  1.00  0.00     0.004 C 
ENDBRANCH   9  10
ENDBRANCH   8   9
ENDBRANCH   7   8
ENDBRANCH   1   7
TORSDOF 7
ENDMDL
MODEL 4
REMARK VINA RESULT:    -1.867     22.314     22.931
REMARK INTER + INTRA:          -2.740
REMARK INTER:                  -2.449
REMARK INTRA:                  -0.291
REMARK UNBOUND:                -0.109
REMARK SMILES C=CCCCCCCC(=O)[O-]
REMARK SMILES IDX 6 1 7 2 8 3 9 4 10 5 11 6 5 7 4 8 3 9 2 10 1 11
REMARK H PARENT
REMARK Flexibility Score: inf
ROOT
ATOM      1  C   UNL     1      52.891 148.049   1.793  1.00  0.00     0.000 C 
ENDROOT
BRANCH   1   2
ATOM      2  C   UNL     1      53.931 148.115   0.660  1.00  0.00     0.006 C 
BRANCH   2   3
ATOM      3  C   UNL     1      53.557 147.211  -0.522  1.00  0.00     0.053 C 
BRANCH   3   4
ATOM      4  C   UNL     1      54.430 147.461  -1.714  1.00  0.00     0.041 C 
ATOM      5  O   UNL     1      53.992 148.124  -2.691  1.00  0.00    -0.550 OA
ATOM      6  O   UNL     1      55.736 146.989  -1.733  1.00  0.00    -0.550 OA
ENDBRANCH   3   4
ENDBRANCH   2   3
ENDBRANCH   1   2
BRANCH   1   7
ATOM      7  C   UNL     1      51.663 147.203   1.419  1.00  0.00     0.000 C 
BRANCH   7   8
ATOM      8  C   UNL     1      50.337 147.912   1.736  1.00  0.00     0.004 C 
BRANCH   8   9
ATOM      9  C   UNL     1      49.498 148.099   0.466  1.00  0.00     0.027 C 
BRANCH   9  10
ATOM     10  C   UNL     1      48.113 147.540   0.639  1.00  0.00    -0.035 C 
ATOM     11  C   UNL     1      47.286 147.377  -0.399  1.00  0.00     0.004 C 
ENDBRANCH   9  10
ENDBRANCH   8   9
ENDBRANCH   7   8
ENDBRANCH   1   7
TORSDOF 7
ENDMDL
MODEL 5
REMARK VINA RESULT:    -1.641     22.230     22.864
REMARK INTER + INTRA:          -2.421
REMARK INTER:                  -2.075
REMARK INTRA:                  -0.346
REMARK UNBOUND:                -0.109
REMARK SMILES C=CCCCCCCC(=O)[O-]
REMARK SMILES IDX 6 1 7 2 8 3 9 4 10 5 11 6 5 7 4 8 3 9 2 10 1 11
REMARK H PARENT
REMARK Flexibility Score: inf
ROOT
ATOM      1  C   UNL     1      53.041 147.047   0.340  1.00  0.00     0.000 C 
ENDROOT
BRANCH   1   2
ATOM      2  C   UNL     1      53.947 147.603  -0.772  1.00  0.00     0.006 C 
BRANCH   2   3
ATOM      3  C   UNL     1      53.141 148.125  -1.968  1.00  0.00     0.053 C 
BRANCH   3   4
ATOM      4  C   UNL     1      53.880 147.945  -3.260  1.00  0.00     0.041 C 
ATOM      5  O   UNL     1      55.137 148.007  -3.284  1.00  0.00    -0.550 OA
ATOM      6  O   UNL     1      53.182 147.679  -4.431  1.00  0.00    -0.550 OA
ENDBRANCH   3   4
ENDBRANCH   2   3
ENDBRANCH   1   2
BRANCH   1   7
ATOM      7  C   UNL     1      52.765 148.075   1.449  1.00  0.00     0.000 C 
BRANCH   7   8
ATOM      8  C   UNL     1      51.312 148.036   1.946  1.00  0.00     0.004 C 
BRANCH   8   9
ATOM      9  C   UNL     1      50.328 148.123   0.773  1.00  0.00     0.027 C 
BRANCH   9  10
ATOM     10  C   UNL     1      48.940 147.729   1.193  1.00  0.00    -0.035 C 
ATOM     11  C   UNL     1      47.965 147.527   0.300  1.00  0.00     0.004 C 
ENDBRANCH   9  10
ENDBRANCH   8   9
ENDBRANCH   7   8
ENDBRANCH   1   7
TORSDOF 7
ENDMDL
MODEL 6
REMARK VINA RESULT:    -1.513      2.371      3.161
REMARK INTER + INTRA:          -2.242
REMARK INTER:                  -2.483
REMARK INTRA:                   0.241
REMARK UNBOUND:                -0.109
REMARK SMILES C=CCCCCCCC(=O)[O-]
REMARK SMILES IDX 6 1 7 2 8 3 9 4 10 5 11 6 5 7 4 8 3 9 2 10 1 11
REMARK H PARENT
REMARK Flexibility Score: inf
ROOT
ATOM      1  C   UNL     1      64.570 129.203  -5.429  1.00  0.00     0.000 C 
ENDROOT
BRANCH   1   2
ATOM      2  C   UNL     1      65.959 129.024  -4.792  1.00  0.00     0.006 C 
BRANCH   2   3
ATOM      3  C   UNL     1      66.897 128.190  -5.674  1.00  0.00     0.053 C 
BRANCH   3   4
ATOM      4  C   UNL     1      66.984 128.734  -7.067  1.00  0.00     0.041 C 
ATOM      5  O   UNL     1      66.928 127.954  -8.055  1.00  0.00    -0.550 OA
ATOM      6  O   UNL     1      67.095 130.102  -7.276  1.00  0.00    -0.550 OA
ENDBRANCH   3   4
ENDBRANCH   2   3
ENDBRANCH   1   2
BRANCH   1   7
ATOM      7  C   UNL     1      63.966 127.875  -5.913  1.00  0.00     0.000 C 
BRANCH   7   8
ATOM      8  C   UNL     1      63.624 127.890  -7.411  1.00  0.00     0.004 C 
BRANCH   8   9
ATOM      9  C   UNL     1      63.747 129.306  -7.988  1.00  0.00     0.027 C 
BRANCH   9  10
ATOM     10  C   UNL     1      62.555 130.149  -7.627  1.00  0.00    -0.035 C 
ATOM     11  C   UNL     1      62.494 131.448  -7.935  1.00  0.00     0.004 C 
ENDBRANCH   9  10
ENDBRANCH   8   9
ENDBRANCH   7   8
ENDBRANCH   1   7
TORSDOF 7
ENDMDL
MODEL 7
REMARK VINA RESULT:    -1.499     22.029     22.855
REMARK INTER + INTRA:          -2.221
REMARK INTER:                  -1.975
REMARK INTRA:                  -0.247
REMARK UNBOUND:                -0.109
REMARK SMILES C=CCCCCCCC(=O)[O-]
REMARK SMILES IDX 6 1 7 2 8 3 9 4 10 5 11 6 5 7 4 8 3 9 2 10 1 11
REMARK H PARENT
REMARK Flexibility Score: inf
ROOT
ATOM      1  C   UNL     1      53.902 147.759   0.587  1.00  0.00     0.000 C 
ENDROOT
BRANCH   1   2
ATOM      2  C   UNL     1      52.514 147.203   0.946  1.00  0.00     0.006 C 
BRANCH   2   3
ATOM      3  C   UNL     1      51.381 148.020   0.311  1.00  0.00     0.053 C 
BRANCH   3   4
ATOM      4  C   UNL     1      50.147 148.020   1.162  1.00  0.00     0.041 C 
ATOM      5  O   UNL     1      50.244 147.956   2.416  1.00  0.00    -0.550 OA
ATOM      6  O   UNL     1      48.894 148.122   0.572  1.00  0.00    -0.550 OA
ENDBRANCH   3   4
ENDBRANCH   2   3
ENDBRANCH   1   2
BRANCH   1   7
ATOM      7  C   UNL     1      54.465 147.155  -0.709  1.00  0.00     0.000 C 
BRANCH   7   8
ATOM      8  C   UNL     1      54.382 148.121  -1.900  1.00  0.00     0.004 C 
BRANCH   8   9
ATOM      9  C   UNL     1      54.425 147.359  -3.230  1.00  0.00     0.027 C 
BRANCH   9  10
ATOM     10  C   UNL     1      53.674 148.093  -4.306  1.00  0.00    -0.035 C 
ATOM     11  C   UNL     1      54.008 147.985  -5.596  1.00  0.00     0.004 C 
ENDBRANCH   9  10
ENDBRANCH   8   9
ENDBRANCH   7   8
ENDBRANCH   1   7
TORSDOF 7
ENDMDL
MODEL 8
REMARK VINA RESULT:    -1.301     21.404     22.130
REMARK INTER + INTRA:          -1.943
REMARK INTER:                  -2.591
REMARK INTRA:                   0.648
REMARK UNBOUND:                -0.109
REMARK SMILES C=CCCCCCCC(=O)[O-]
REMARK SMILES IDX 6 1 7 2 8 3 9 4 10 5 11 6 5 7 4 8 3 9 2 10 1 11
REMARK H PARENT
REMARK Flexibility Score: inf
ROOT
ATOM      1  C   UNL     1      54.271 147.160  -1.270  1.00  0.00     0.000 C 
ENDROOT
BRANCH   1   2
ATOM      2  C   UNL     1      54.447 147.880   0.078  1.00  0.00     0.006 C 
BRANCH   2   3
ATOM      3  C   UNL     1      53.354 147.500   1.085  1.00  0.00     0.053 C 
BRANCH   3   4
ATOM      4  C   UNL     1      51.981 147.773   0.548  1.00  0.00     0.041 C 
ATOM      5  O   UNL     1      50.983 147.731   1.314  1.00  0.00    -0.550 OA
ATOM      6  O   UNL     1      51.809 148.103  -0.789  1.00  0.00    -0.550 OA
ENDBRANCH   3   4
ENDBRANCH   2   3
ENDBRANCH   1   2
BRANCH   1   7
ATOM      7  C   UNL     1      54.650 148.046  -2.467  1.00  0.00     0.000 C 
BRANCH   7   8
ATOM      8  C   UNL     1      53.536 148.125  -3.522  1.00  0.00     0.004 C 
BRANCH   8   9
ATOM      9  C   UNL     1      54.114 148.023  -4.939  1.00  0.00     0.027 C 
BRANCH   9  10
ATOM     10  C   UNL     1      53.186 147.274  -5.856  1.00  0.00    -0.035 C 
ATOM     11  C   UNL     1      52.127 147.865  -6.420  1.00  0.00     0.004 C 
ENDBRANCH   9  10
ENDBRANCH   8   9
ENDBRANCH   7   8
ENDBRANCH   1   7
TORSDOF 7
ENDMDL
