MODEL 1
REMARK VINA RESULT:     0.375      0.000      0.000
REMARK INTER + INTRA:           0.214
REMARK INTER:                   0.572
REMARK INTRA:                  -0.358
REMARK UNBOUND:                -0.358
REMARK SMILES CCCCCCCCCCC(=O)[O-]
REMARK SMILES IDX 7 1 8 2 9 3 10 4 11 5 12 6 13 7 6 8 5 9 4 10 3 11 2 12 1 13
REMARK H PARENT
REMARK Flexibility Score: inf
ROOT
ATOM      1  C   UNL     1     -19.111  17.426  17.902  1.00  0.00     0.000 C 
ENDROOT
BRANCH   1   2
ATOM      2  C   UNL     1     -19.110  16.659  16.570  1.00  0.00     0.000 C 
BRANCH   2   3
ATOM      3  C   UNL     1     -19.065  17.591  15.350  1.00  0.00     0.006 C 
BRANCH   3   4
ATOM      4  C   UNL     1     -19.125  16.791  14.046  1.00  0.00     0.053 C 
BRANCH   4   5
ATOM      5  C   UNL     1     -18.528  17.576  12.921  1.00  0.00     0.041 C 
ATOM      6  O   UNL     1     -19.035  17.519  11.770  1.00  0.00    -0.550 OA
ATOM      7  O   UNL     1     -17.382  18.331  13.132  1.00  0.00    -0.550 OA
ENDBRANCH   4   5
ENDBRANCH   3   4
ENDBRANCH   2   3
ENDBRANCH   1   2
BRANCH   1   8
ATOM      8  C   UNL     1     -18.695  16.544  19.092  1.00  0.00     0.000 C 
BRANCH   8   9
ATOM      9  C   UNL     1     -18.751  17.295  20.432  1.00  0.00    -0.000 C 
BRANCH   9  10
ATOM     10  C   UNL     1     -19.118  18.777  20.263  1.00  0.00    -0.000 C 
BRANCH  10  11
ATOM     11  C   UNL     1     -18.501  19.626  21.385  1.00  0.00    -0.000 C 
BRANCH  11  12
ATOM     12  C   UNL     1     -18.848  21.117  21.257  1.00  0.00    -0.003 C 
ATOM     13  C   UNL     1     -18.937  21.581  19.804  1.00  0.00     0.004 C 
ENDBRANCH  11  12
ENDBRANCH  10  11
ENDBRANCH   9  10
ENDBRANCH   8   9
ENDBRANCH   1   8
TORSDOF 9
ENDMDL
MODEL 2
REMARK VINA RESULT:     2.196      1.307      2.032
REMARK INTER + INTRA:           2.993
REMARK INTER:                   3.298
REMARK INTRA:                  -0.305
REMARK UNBOUND:                -0.358
REMARK SMILES CCCCCCCCCCC(=O)[O-]
REMARK SMILES IDX 7 1 8 2 9 3 10 4 11 5 12 6 13 7 6 8 5 9 4 10 3 11 2 12 1 13
REMARK H PARENT
REMARK Flexibility Score: inf
ROOT
ATOM      1  C   UNL     1     -18.568  16.677  16.398  1.00  0.00     0.000 C 
ENDROOT
BRANCH   1   2
ATOM      2  C   UNL     1     -19.117  16.549  14.968  1.00  0.00     0.000 C 
BRANCH   2   3
ATOM      3  C   UNL     1     -18.339  17.406  13.957  1.00  0.00     0.006 C 
BRANCH   3   4
ATOM      4  C   UNL     1     -17.774  16.541  12.827  1.00  0.00     0.053 C 
BRANCH   4   5
ATOM      5  C   UNL     1     -18.184  17.085  11.495  1.00  0.00     0.041 C 
ATOM      6  O   UNL     1     -19.100  17.945  11.416  1.00  0.00    -0.550 OA
ATOM      7  O   UNL     1     -17.589  16.606  10.335  1.00  0.00    -0.550 OA
ENDBRANCH   4   5
ENDBRANCH   3   4
ENDBRANCH   2   3
ENDBRANCH   1   2
BRANCH   1   8
ATOM      8  C   UNL     1     -19.085  15.567  17.330  1.00  0.00     0.000 C 
BRANCH   8   9
ATOM      9  C   UNL     1     -19.119  16.002  18.804  1.00  0.00    -0.000 C 
BRANCH   9  10
ATOM     10  C   UNL     1     -18.893  17.511  18.979  1.00  0.00    -0.000 C 
BRANCH  10  11
ATOM     11  C   UNL     1     -19.114  17.932  20.440  1.00  0.00    -0.000 C 
BRANCH  11  12
ATOM     12  C   UNL     1     -18.805  19.417  20.680  1.00  0.00    -0.003 C 
ATOM     13  C   UNL     1     -17.993  19.654  21.953  1.00  0.00     0.004 C 
ENDBRANCH  11  12
ENDBRANCH  10  11
ENDBRANCH   9  10
ENDBRANCH   8   9
ENDBRANCH   1   8
TORSDOF 9
ENDMDL
