MODEL 1
REMARK VINA RESULT:    -4.513      0.000      0.000
REMARK INTER + INTRA:          -9.025
REMARK INTER:                  -6.887
REMARK INTRA:                  -2.138
REMARK UNBOUND:                -2.138
REMARK SMILES CC(=O)CCC=C(C)CCC=C(C)CCC=C(C)C
REMARK SMILES IDX 10 1 11 2 12 3 13 4 14 5 15 6 16 7 18 8 17 9 19 10 9 11 7 12
REMARK SMILES IDX 6 13 8 14 5 15 4 16 2 17 3 18 1 19
REMARK H PARENT
REMARK Flexibility Score: inf
ROOT
ATOM      1  C   UNL     1       6.480  30.949  17.680  1.00  0.00     0.032 C 
ENDROOT
BRANCH   1   2
ATOM      2  C   UNL     1       7.851  30.398  17.363  1.00  0.00    -0.028 C 
ATOM      3  C   UNL     1       8.289  30.082  16.123  1.00  0.00    -0.077 C 
ATOM      4  C   UNL     1       7.444  30.315  14.892  1.00  0.00     0.039 C 
BRANCH   3   5
ATOM      5  C   UNL     1       9.667  29.474  15.964  1.00  0.00     0.034 C 
BRANCH   5   6
ATOM      6  C   UNL     1       9.835  28.785  14.602  1.00  0.00     0.032 C 
BRANCH   6   7
ATOM      7  C   UNL     1      10.443  27.409  14.743  1.00  0.00    -0.028 C 
ATOM      8  C   UNL     1      12.798  28.263  14.752  1.00  0.00     0.039 C 
ATOM      9  C   UNL     1      11.768  27.161  14.842  1.00  0.00    -0.080 C 
ATOM     10  C   UNL     1      12.218  25.736  15.030  1.00  0.00     0.039 C 
ENDBRANCH   6   7
ENDBRANCH   5   6
ENDBRANCH   3   5
ENDBRANCH   1   2
BRANCH   1  11
ATOM     11  C   UNL     1       5.465  29.821  17.908  1.00  0.00     0.034 C 
BRANCH  11  12
ATOM     12  C   UNL     1       4.371  29.816  16.856  1.00  0.00    -0.077 C 
ATOM     13  C   UNL     1       3.937  28.688  16.248  1.00  0.00    -0.028 C 
ATOM     14  C   UNL     1       3.708  31.120  16.491  1.00  0.00     0.039 C 
BRANCH  13  15
ATOM     15  C   UNL     1       4.524  27.314  16.459  1.00  0.00     0.035 C 
BRANCH  15  16
ATOM     16  C   UNL     1       5.645  27.045  15.444  1.00  0.00     0.079 C 
BRANCH  16  17
ATOM     17  C   UNL     1       6.874  26.386  16.029  1.00  0.00     0.130 C 
ATOM     18  O   UNL     1       7.490  25.589  15.338  1.00  0.00    -0.300 OA
ATOM     19  C   UNL     1       7.374  26.674  17.419  1.00  0.00     0.087 C 
ENDBRANCH  16  17
ENDBRANCH  15  16
ENDBRANCH  13  15
ENDBRANCH  11  12
ENDBRANCH   1  11
TORSDOF 9
ENDMDL
MODEL 2
REMARK VINA RESULT:    -4.434     12.083     15.726
REMARK INTER + INTRA:          -8.904
REMARK INTER:                  -7.670
REMARK INTRA:                  -1.234
REMARK UNBOUND:                -2.138
REMARK SMILES CC(=O)CCC=C(C)CCC=C(C)CCC=C(C)C
REMARK SMILES IDX 10 1 11 2 12 3 13 4 14 5 15 6 16 7 18 8 17 9 19 10 9 11 7 12
REMARK SMILES IDX 6 13 8 14 5 15 4 16 2 17 3 18 1 19
REMARK H PARENT
REMARK Flexibility Score: inf
ROOT
ATOM      1  C   UNL     1      10.857  15.150  13.508  1.00  0.00     0.032 C 
ENDROOT
BRANCH   1   2
ATOM      2  C   UNL     1       9.907  16.157  14.111  1.00  0.00    -0.028 C 
ATOM      3  C   UNL     1       8.568  15.994  14.210  1.00  0.00    -0.077 C 
ATOM      4  C   UNL     1       7.883  14.722  13.768  1.00  0.00     0.039 C 
BRANCH   3   5
ATOM      5  C   UNL     1       7.730  17.120  14.779  1.00  0.00     0.034 C 
BRANCH   5   6
ATOM      6  C   UNL     1       6.690  16.608  15.785  1.00  0.00     0.032 C 
BRANCH   6   7
ATOM      7  C   UNL     1       5.364  17.313  15.626  1.00  0.00    -0.028 C 
ATOM      8  C   UNL     1       4.256  15.351  14.532  1.00  0.00     0.039 C 
ATOM      9  C   UNL     1       4.255  16.753  15.094  1.00  0.00    -0.080 C 
ATOM     10  C   UNL     1       2.990  17.570  15.050  1.00  0.00     0.039 C 
ENDBRANCH   6   7
ENDBRANCH   5   6
ENDBRANCH   3   5
ENDBRANCH   1   2
BRANCH   1  11
ATOM     11  C   UNL     1      12.053  14.887  14.434  1.00  0.00     0.034 C 
BRANCH  11  12
ATOM     12  C   UNL     1      12.047  13.472  14.985  1.00  0.00    -0.077 C 
ATOM     13  C   UNL     1      12.969  13.019  15.864  1.00  0.00    -0.028 C 
ATOM     14  C   UNL     1      10.944  12.534  14.564  1.00  0.00     0.039 C 
BRANCH  13  15
ATOM     15  C   UNL     1      14.161  13.808  16.347  1.00  0.00     0.035 C 
BRANCH  15  16
ATOM     16  C   UNL     1      15.397  12.903  16.462  1.00  0.00     0.079 C 
BRANCH  16  17
ATOM     17  C   UNL     1      15.821  12.256  15.162  1.00  0.00     0.130 C 
ATOM     18  O   UNL     1      15.903  11.039  15.120  1.00  0.00    -0.300 OA
ATOM     19  C   UNL     1      16.139  13.044  13.921  1.00  0.00     0.087 C 
ENDBRANCH  16  17
ENDBRANCH  15  16
ENDBRANCH  13  15
ENDBRANCH  11  12
ENDBRANCH   1  11
TORSDOF 9
ENDMDL
MODEL 3
REMARK VINA RESULT:    -4.286      1.704      3.827
REMARK INTER + INTRA:          -8.679
REMARK INTER:                  -6.991
REMARK INTRA:                  -1.688
REMARK UNBOUND:                -2.138
REMARK SMILES CC(=O)CCC=C(C)CCC=C(C)CCC=C(C)C
REMARK SMILES IDX 10 1 11 2 12 3 13 4 14 5 15 6 16 7 18 8 17 9 19 10 9 11 7 12
REMARK SMILES IDX 6 13 8 14 5 15 4 16 2 17 3 18 1 19
REMARK H PARENT
REMARK Flexibility Score: inf
ROOT
ATOM      1  C   UNL     1       7.696  25.952  15.746  1.00  0.00     0.032 C 
ENDROOT
BRANCH   1   2
ATOM      2  C   UNL     1       8.703  26.832  15.043  1.00  0.00    -0.028 C 
ATOM      3  C   UNL     1       9.989  26.490  14.798  1.00  0.00    -0.077 C 
ATOM      4  C   UNL     1      10.538  25.130  15.159  1.00  0.00     0.039 C 
BRANCH   3   5
ATOM      5  C   UNL     1      10.906  27.502  14.142  1.00  0.00     0.034 C 
BRANCH   5   6
ATOM      6  C   UNL     1      11.661  28.345  15.179  1.00  0.00     0.032 C 
BRANCH   6   7
ATOM      7  C   UNL     1      13.139  28.412  14.874  1.00  0.00    -0.028 C 
ATOM      8  C   UNL     1      13.719  26.527  16.418  1.00  0.00     0.039 C 
ATOM      9  C   UNL     1      14.070  27.585  15.398  1.00  0.00    -0.080 C 
ATOM     10  C   UNL     1      15.502  27.746  14.957  1.00  0.00     0.039 C 
ENDBRANCH   6   7
ENDBRANCH   5   6
ENDBRANCH   3   5
ENDBRANCH   1   2
BRANCH   1  11
ATOM     11  C   UNL     1       7.073  26.670  16.951  1.00  0.00     0.034 C 
BRANCH  11  12
ATOM     12  C   UNL     1       5.642  27.099  16.682  1.00  0.00    -0.077 C 
ATOM     13  C   UNL     1       5.165  28.322  17.008  1.00  0.00    -0.028 C 
ATOM     14  C   UNL     1       4.713  26.135  15.988  1.00  0.00     0.039 C 
BRANCH  13  15
ATOM     15  C   UNL     1       5.942  29.382  17.749  1.00  0.00     0.035 C 
BRANCH  15  16
ATOM     16  C   UNL     1       6.278  30.555  16.817  1.00  0.00     0.079 C 
BRANCH  16  17
ATOM     17  C   UNL     1       7.491  30.332  15.942  1.00  0.00     0.130 C 
ATOM     18  O   UNL     1       7.322  30.205  14.739  1.00  0.00    -0.300 OA
ATOM     19  C   UNL     1       8.892  30.266  16.485  1.00  0.00     0.087 C 
ENDBRANCH  16  17
ENDBRANCH  15  16
ENDBRANCH  13  15
ENDBRANCH  11  12
ENDBRANCH   1  11
TORSDOF 9
ENDMDL
MODEL 4
REMARK VINA RESULT:    -4.279      1.825      3.882
REMARK INTER + INTRA:          -8.669
REMARK INTER:                  -6.852
REMARK INTRA:                  -1.817
REMARK UNBOUND:                -2.138
REMARK SMILES CC(=O)CCC=C(C)CCC=C(C)CCC=C(C)C
REMARK SMILES IDX 10 1 11 2 12 3 13 4 14 5 15 6 16 7 18 8 17 9 19 10 9 11 7 12
REMARK SMILES IDX 6 13 8 14 5 15 4 16 2 17 3 18 1 19
REMARK H PARENT
REMARK Flexibility Score: inf
ROOT
ATOM      1  C   UNL     1       7.039  28.679  14.562  1.00  0.00     0.032 C 
ENDROOT
BRANCH   1   2
ATOM      2  C   UNL     1       8.101  27.609  14.465  1.00  0.00    -0.028 C 
ATOM      3  C   UNL     1       8.307  26.640  15.386  1.00  0.00    -0.077 C 
ATOM      4  C   UNL     1       7.428  26.495  16.606  1.00  0.00     0.039 C 
BRANCH   3   5
ATOM      5  C   UNL     1       9.456  25.672  15.189  1.00  0.00     0.034 C 
BRANCH   5   6
ATOM      6  C   UNL     1      10.697  26.367  14.611  1.00  0.00     0.032 C 
BRANCH   6   7
ATOM      7  C   UNL     1      11.968  25.872  15.260  1.00  0.00    -0.028 C 
ATOM      8  C   UNL     1      13.104  28.101  15.137  1.00  0.00     0.039 C 
ATOM      9  C   UNL     1      13.044  26.643  15.530  1.00  0.00    -0.080 C 
ATOM     10  C   UNL     1      14.220  26.013  16.230  1.00  0.00     0.039 C 
ENDBRANCH   6   7
ENDBRANCH   5   6
ENDBRANCH   3   5
ENDBRANCH   1   2
BRANCH   1  11
ATOM     11  C   UNL     1       7.663  30.072  14.720  1.00  0.00     0.034 C 
BRANCH  11  12
ATOM     12  C   UNL     1       8.488  30.188  15.989  1.00  0.00    -0.077 C 
ATOM     13  C   UNL     1       7.949  30.473  17.196  1.00  0.00    -0.028 C 
ATOM     14  C   UNL     1       9.974  29.940  15.914  1.00  0.00     0.039 C 
BRANCH  13  15
ATOM     15  C   UNL     1       6.495  30.797  17.437  1.00  0.00     0.035 C 
BRANCH  15  16
ATOM     16  C   UNL     1       5.726  29.540  17.868  1.00  0.00     0.079 C 
BRANCH  16  17
ATOM     17  C   UNL     1       4.441  29.301  17.106  1.00  0.00     0.130 C 
ATOM     18  O   UNL     1       3.770  30.267  16.782  1.00  0.00    -0.300 OA
ATOM     19  C   UNL     1       3.960  27.927  16.724  1.00  0.00     0.087 C 
ENDBRANCH  16  17
ENDBRANCH  15  16
ENDBRANCH  13  15
ENDBRANCH  11  12
ENDBRANCH   1  11
TORSDOF 9
ENDMDL
MODEL 5
REMARK VINA RESULT:    -4.257      1.477      2.540
REMARK INTER + INTRA:          -8.634
REMARK INTER:                  -6.331
REMARK INTRA:                  -2.303
REMARK UNBOUND:                -2.138
REMARK SMILES CC(=O)CCC=C(C)CCC=C(C)CCC=C(C)C
REMARK SMILES IDX 10 1 11 2 12 3 13 4 14 5 15 6 16 7 18 8 17 9 19 10 9 11 7 12
REMARK SMILES IDX 6 13 8 14 5 15 4 16 2 17 3 18 1 19
REMARK H PARENT
REMARK Flexibility Score: inf
ROOT
ATOM      1  C   UNL     1       9.023  30.353  16.271  1.00  0.00     0.032 C 
ENDROOT
BRANCH   1   2
ATOM      2  C   UNL     1       9.838  29.297  15.563  1.00  0.00    -0.028 C 
ATOM      3  C   UNL     1       9.540  28.774  14.352  1.00  0.00    -0.077 C 
ATOM      4  C   UNL     1       8.361  29.257  13.540  1.00  0.00     0.039 C 
BRANCH   3   5
ATOM      5  C   UNL     1      10.413  27.670  13.793  1.00  0.00     0.034 C 
BRANCH   5   6
ATOM      6  C   UNL     1      11.517  27.259  14.778  1.00  0.00     0.032 C 
BRANCH   6   7
ATOM      7  C   UNL     1      11.388  25.812  15.191  1.00  0.00    -0.028 C 
ATOM      8  C   UNL     1      13.635  25.748  16.297  1.00  0.00     0.039 C 
ATOM      9  C   UNL     1      12.316  25.129  15.898  1.00  0.00    -0.080 C 
ATOM     10  C   UNL     1      12.019  23.702  16.279  1.00  0.00     0.039 C 
ENDBRANCH   6   7
ENDBRANCH   5   6
ENDBRANCH   3   5
ENDBRANCH   1   2
BRANCH   1  11
ATOM     11  C   UNL     1       8.147  29.738  17.371  1.00  0.00     0.034 C 
BRANCH  11  12
ATOM     12  C   UNL     1       6.771  29.356  16.857  1.00  0.00    -0.077 C 
ATOM     13  C   UNL     1       6.285  28.095  16.919  1.00  0.00    -0.028 C 
ATOM     14  C   UNL     1       5.885  30.432  16.282  1.00  0.00     0.039 C 
BRANCH  13  15
ATOM     15  C   UNL     1       7.056  26.896  17.415  1.00  0.00     0.035 C 
BRANCH  15  16
ATOM     16  C   UNL     1       7.813  26.226  16.260  1.00  0.00     0.079 C 
BRANCH  16  17
ATOM     17  C   UNL     1       6.925  25.576  15.222  1.00  0.00     0.130 C 
ATOM     18  O   UNL     1       5.985  24.898  15.606  1.00  0.00    -0.300 OA
ATOM     19  C   UNL     1       7.144  25.734  13.742  1.00  0.00     0.087 C 
ENDBRANCH  16  17
ENDBRANCH  15  16
ENDBRANCH  13  15
ENDBRANCH  11  12
ENDBRANCH   1  11
TORSDOF 9
ENDMDL
MODEL 6
REMARK VINA RESULT:    -4.257     11.842     16.226
REMARK INTER + INTRA:          -8.634
REMARK INTER:                  -7.245
REMARK INTRA:                  -1.389
REMARK UNBOUND:                -2.138
REMARK SMILES CC(=O)CCC=C(C)CCC=C(C)CCC=C(C)C
REMARK SMILES IDX 10 1 11 2 12 3 13 4 14 5 15 6 16 7 18 8 17 9 19 10 9 11 7 12
REMARK SMILES IDX 6 13 8 14 5 15 4 16 2 17 3 18 1 19
REMARK H PARENT
REMARK Flexibility Score: inf
ROOT
ATOM      1  C   UNL     1      13.217  12.349  16.198  1.00  0.00     0.032 C 
ENDROOT
BRANCH   1   2
ATOM      2  C   UNL     1      12.581  13.552  15.544  1.00  0.00    -0.028 C 
ATOM      3  C   UNL     1      11.519  13.505  14.708  1.00  0.00    -0.077 C 
ATOM      4  C   UNL     1      10.809  12.211  14.387  1.00  0.00     0.039 C 
BRANCH   3   5
ATOM      5  C   UNL     1      11.028  14.789  14.072  1.00  0.00     0.034 C 
BRANCH   5   6
ATOM      6  C   UNL     1       9.521  14.745  13.781  1.00  0.00     0.032 C 
BRANCH   6   7
ATOM      7  C   UNL     1       8.770  15.800  14.557  1.00  0.00    -0.028 C 
ATOM      8  C   UNL     1       6.545  14.696  14.242  1.00  0.00     0.039 C 
ATOM      9  C   UNL     1       7.441  15.776  14.799  1.00  0.00    -0.080 C 
ATOM     10  C   UNL     1       6.844  16.878  15.636  1.00  0.00     0.039 C 
ENDBRANCH   6   7
ENDBRANCH   5   6
ENDBRANCH   3   5
ENDBRANCH   1   2
BRANCH   1  11
ATOM     11  C   UNL     1      14.624  12.675  16.718  1.00  0.00     0.034 C 
BRANCH  11  12
ATOM     12  C   UNL     1      15.670  12.600  15.621  1.00  0.00    -0.077 C 
ATOM     13  C   UNL     1      16.347  13.681  15.172  1.00  0.00    -0.028 C 
ATOM     14  C   UNL     1      16.000  11.255  15.024  1.00  0.00     0.039 C 
BRANCH  13  15
ATOM     15  C   UNL     1      16.104  15.100  15.623  1.00  0.00     0.035 C 
BRANCH  15  16
ATOM     16  C   UNL     1      15.369  15.895  14.534  1.00  0.00     0.079 C 
BRANCH  16  17
ATOM     17  C   UNL     1      14.173  16.677  15.030  1.00  0.00     0.130 C 
ATOM     18  O   UNL     1      13.813  16.516  16.185  1.00  0.00    -0.300 OA
ATOM     19  C   UNL     1      13.415  17.648  14.165  1.00  0.00     0.087 C 
ENDBRANCH  16  17
ENDBRANCH  15  16
ENDBRANCH  13  15
ENDBRANCH  11  12
ENDBRANCH   1  11
TORSDOF 9
ENDMDL
MODEL 7
REMARK VINA RESULT:    -4.229      1.886      5.830
REMARK INTER + INTRA:          -8.592
REMARK INTER:                  -7.081
REMARK INTRA:                  -1.510
REMARK UNBOUND:                -2.138
REMARK SMILES CC(=O)CCC=C(C)CCC=C(C)CCC=C(C)C
REMARK SMILES IDX 10 1 11 2 12 3 13 4 14 5 15 6 16 7 18 8 17 9 19 10 9 11 7 12
REMARK SMILES IDX 6 13 8 14 5 15 4 16 2 17 3 18 1 19
REMARK H PARENT
REMARK Flexibility Score: inf
ROOT
ATOM      1  C   UNL     1       9.754  30.372  15.983  1.00  0.00     0.032 C 
ENDROOT
BRANCH   1   2
ATOM      2  C   UNL     1       8.437  30.409  16.723  1.00  0.00    -0.028 C 
ATOM      3  C   UNL     1       7.222  30.484  16.134  1.00  0.00    -0.077 C 
ATOM      4  C   UNL     1       7.058  30.475  14.633  1.00  0.00     0.039 C 
BRANCH   3   5
ATOM      5  C   UNL     1       5.988  30.582  17.007  1.00  0.00     0.034 C 
BRANCH   5   6
ATOM      6  C   UNL     1       5.757  29.300  17.819  1.00  0.00     0.032 C 
BRANCH   6   7
ATOM      7  C   UNL     1       5.272  28.166  16.948  1.00  0.00    -0.028 C 
ATOM      8  C   UNL     1       7.286  26.741  17.384  1.00  0.00     0.039 C 
ATOM      9  C   UNL     1       5.932  27.000  16.767  1.00  0.00    -0.080 C 
ATOM     10  C   UNL     1       5.293  25.942  15.905  1.00  0.00     0.039 C 
ENDBRANCH   6   7
ENDBRANCH   5   6
ENDBRANCH   3   5
ENDBRANCH   1   2
BRANCH   1  11
ATOM     11  C   UNL     1      10.099  28.946  15.530  1.00  0.00     0.034 C 
BRANCH  11  12
ATOM     12  C   UNL     1      10.931  28.936  14.261  1.00  0.00    -0.077 C 
ATOM     13  C   UNL     1      12.017  28.146  14.097  1.00  0.00    -0.028 C 
ATOM     14  C   UNL     1      10.514  29.819  13.112  1.00  0.00     0.039 C 
BRANCH  13  15
ATOM     15  C   UNL     1      12.597  27.246  15.160  1.00  0.00     0.035 C 
BRANCH  15  16
ATOM     16  C   UNL     1      12.116  25.801  14.964  1.00  0.00     0.079 C 
BRANCH  16  17
ATOM     17  C   UNL     1      12.722  24.804  15.927  1.00  0.00     0.130 C 
ATOM     18  O   UNL     1      13.902  24.922  16.218  1.00  0.00    -0.300 OA
ATOM     19  C   UNL     1      11.935  23.681  16.546  1.00  0.00     0.087 C 
ENDBRANCH  16  17
ENDBRANCH  15  16
ENDBRANCH  13  15
ENDBRANCH  11  12
ENDBRANCH   1  11
TORSDOF 9
ENDMDL
MODEL 8
REMARK VINA RESULT:    -4.142      1.886      3.149
REMARK INTER + INTRA:          -8.459
REMARK INTER:                  -6.262
REMARK INTRA:                  -2.197
REMARK UNBOUND:                -2.138
REMARK SMILES CC(=O)CCC=C(C)CCC=C(C)CCC=C(C)C
REMARK SMILES IDX 10 1 11 2 12 3 13 4 14 5 15 6 16 7 18 8 17 9 19 10 9 11 7 12
REMARK SMILES IDX 6 13 8 14 5 15 4 16 2 17 3 18 1 19
REMARK H PARENT
REMARK Flexibility Score: inf
ROOT
ATOM      1  C   UNL     1       6.218  30.826  17.477  1.00  0.00     0.032 C 
ENDROOT
BRANCH   1   2
ATOM      2  C   UNL     1       7.488  30.334  16.825  1.00  0.00    -0.028 C 
ATOM      3  C   UNL     1       7.665  30.187  15.492  1.00  0.00    -0.077 C 
ATOM      4  C   UNL     1       6.597  30.571  14.495  1.00  0.00     0.039 C 
BRANCH   3   5
ATOM      5  C   UNL     1       8.973  29.617  14.983  1.00  0.00     0.034 C 
BRANCH   5   6
ATOM      6  C   UNL     1       9.254  28.223  15.560  1.00  0.00     0.032 C 
BRANCH   6   7
ATOM      7  C   UNL     1       8.303  27.187  15.008  1.00  0.00    -0.028 C 
ATOM      8  C   UNL     1       7.331  26.634  17.250  1.00  0.00     0.039 C 
ATOM      9  C   UNL     1       7.414  26.489  15.748  1.00  0.00    -0.080 C 
ATOM     10  C   UNL     1       6.494  25.525  15.043  1.00  0.00     0.039 C 
ENDBRANCH   6   7
ENDBRANCH   5   6
ENDBRANCH   3   5
ENDBRANCH   1   2
BRANCH   1  11
ATOM     11  C   UNL     1       5.249  29.669  17.756  1.00  0.00     0.034 C 
BRANCH  11  12
ATOM     12  C   UNL     1       4.016  29.732  16.873  1.00  0.00    -0.077 C 
ATOM     13  C   UNL     1       3.362  28.630  16.439  1.00  0.00    -0.028 C 
ATOM     14  C   UNL     1       3.469  31.082  16.486  1.00  0.00     0.039 C 
BRANCH  13  15
ATOM     15  C   UNL     1       3.804  27.210  16.691  1.00  0.00     0.035 C 
BRANCH  15  16
ATOM     16  C   UNL     1       2.676  26.225  16.349  1.00  0.00     0.079 C 
BRANCH  16  17
ATOM     17  C   UNL     1       2.963  24.789  16.729  1.00  0.00     0.130 C 
ATOM     18  O   UNL     1       3.882  24.566  17.501  1.00  0.00    -0.300 OA
ATOM     19  C   UNL     1       2.163  23.628  16.204  1.00  0.00     0.087 C 
ENDBRANCH  16  17
ENDBRANCH  15  16
ENDBRANCH  13  15
ENDBRANCH  11  12
ENDBRANCH   1  11
TORSDOF 9
ENDMDL
MODEL 9
REMARK VINA RESULT:    -4.093      2.465      5.326
REMARK INTER + INTRA:          -8.384
REMARK INTER:                  -5.685
REMARK INTRA:                  -2.699
REMARK UNBOUND:                -2.138
REMARK SMILES CC(=O)CCC=C(C)CCC=C(C)CCC=C(C)C
REMARK SMILES IDX 10 1 11 2 12 3 13 4 14 5 15 6 16 7 18 8 17 9 19 10 9 11 7 12
REMARK SMILES IDX 6 13 8 14 5 15 4 16 2 17 3 18 1 19
REMARK H PARENT
REMARK Flexibility Score: inf
ROOT
ATOM      1  C   UNL     1       7.748  26.266  16.673  1.00  0.00     0.032 C 
ENDROOT
BRANCH   1   2
ATOM      2  C   UNL     1       6.751  27.294  17.154  1.00  0.00    -0.028 C 
ATOM      3  C   UNL     1       6.980  28.626  17.209  1.00  0.00    -0.077 C 
ATOM      4  C   UNL     1       8.272  29.237  16.721  1.00  0.00     0.039 C 
BRANCH   3   5
ATOM      5  C   UNL     1       5.908  29.532  17.779  1.00  0.00     0.034 C 
BRANCH   5   6
ATOM      6  C   UNL     1       5.928  30.922  17.128  1.00  0.00     0.032 C 
BRANCH   6   7
ATOM      7  C   UNL     1       4.806  31.087  16.130  1.00  0.00    -0.028 C 
ATOM      8  C   UNL     1       6.293  30.754  14.142  1.00  0.00     0.039 C 
ATOM      9  C   UNL     1       4.948  30.985  14.790  1.00  0.00    -0.080 C 
ATOM     10  C   UNL     1       3.721  31.125  13.926  1.00  0.00     0.039 C 
ENDBRANCH   6   7
ENDBRANCH   5   6
ENDBRANCH   3   5
ENDBRANCH   1   2
BRANCH   1  11
ATOM     11  C   UNL     1       7.262  25.575  15.392  1.00  0.00     0.034 C 
BRANCH  11  12
ATOM     12  C   UNL     1       7.057  26.560  14.255  1.00  0.00    -0.077 C 
ATOM     13  C   UNL     1       5.837  27.002  13.872  1.00  0.00    -0.028 C 
ATOM     14  C   UNL     1       8.267  27.101  13.537  1.00  0.00     0.039 C 
BRANCH  13  15
ATOM     15  C   UNL     1       4.527  26.524  14.448  1.00  0.00     0.035 C 
BRANCH  15  16
ATOM     16  C   UNL     1       3.686  27.714  14.934  1.00  0.00     0.079 C 
BRANCH  16  17
ATOM     17  C   UNL     1       2.911  27.453  16.207  1.00  0.00     0.130 C 
ATOM     18  O   UNL     1       2.856  26.309  16.629  1.00  0.00    -0.300 OA
ATOM     19  C   UNL     1       2.215  28.541  16.978  1.00  0.00     0.087 C 
ENDBRANCH  16  17
ENDBRANCH  15  16
ENDBRANCH  13  15
ENDBRANCH  11  12
ENDBRANCH   1  11
TORSDOF 9
ENDMDL
