MODEL 1
REMARK VINA RESULT:    -3.203      0.000      0.000
REMARK INTER + INTRA:          -7.852
REMARK INTER:                  -5.824
REMARK INTRA:                  -2.028
REMARK UNBOUND:                -2.028
REMARK SMILES CCCCCCCCCCCCCC[C@@H](C)C(=O)[O-]
REMARK SMILES IDX 9 1 10 2 11 3 12 4 13 5 14 6 15 7 16 8 17 9 18 10 19 11 8 12
REMARK SMILES IDX 7 13 6 14 5 15 4 16 3 17 2 18 1 19
REMARK H PARENT
REMARK Flexibility Score: inf
ROOT
ATOM      1  C   UNL     1      -4.682   8.025  -6.214  1.00  0.00     0.000 C 
ENDROOT
BRANCH   1   2
ATOM      2  C   UNL     1      -5.277   8.633  -4.930  1.00  0.00     0.000 C 
BRANCH   2   3
ATOM      3  C   UNL     1      -4.584   9.920  -4.439  1.00  0.00     0.000 C 
BRANCH   3   4
ATOM      4  C   UNL     1      -5.093  11.226  -5.082  1.00  0.00     0.000 C 
BRANCH   4   5
ATOM      5  C   UNL     1      -4.986  12.475  -4.189  1.00  0.00     0.001 C 
BRANCH   5   6
ATOM      6  C   UNL     1      -4.330  12.183  -2.828  1.00  0.00     0.009 C 
BRANCH   6   7
ATOM      7  C   UNL     1      -4.564  13.322  -1.813  1.00  0.00     0.032 C 
ATOM      8  C   UNL     1      -6.040  13.734  -1.797  1.00  0.00     0.014 C 
BRANCH   7   9
ATOM      9  C   UNL     1      -4.136  12.919  -0.428  1.00  0.00     0.044 C 
ATOM     10  O   UNL     1      -2.937  12.605  -0.204  1.00  0.00    -0.550 OA
ATOM     11  O   UNL     1      -5.055  12.896   0.614  1.00  0.00    -0.550 OA
ENDBRANCH   7   9
ENDBRANCH   6   7
ENDBRANCH   5   6
ENDBRANCH   4   5
ENDBRANCH   3   4
ENDBRANCH   2   3
ENDBRANCH   1   2
BRANCH   1  12
ATOM     12  C   UNL     1      -3.192   7.683  -6.076  1.00  0.00     0.000 C 
BRANCH  12  13
ATOM     13  C   UNL     1      -2.398   8.190  -7.287  1.00  0.00    -0.000 C 
BRANCH  13  14
ATOM     14  C   UNL     1      -2.878   9.587  -7.711  1.00  0.00    -0.000 C 
BRANCH  14  15
ATOM     15  C   UNL     1      -1.805  10.670  -7.507  1.00  0.00    -0.000 C 
BRANCH  15  16
ATOM     16  C   UNL     1      -0.510  10.110  -6.891  1.00  0.00    -0.000 C 
BRANCH  16  17
ATOM     17  C   UNL     1      -0.288  10.589  -5.448  1.00  0.00    -0.000 C 
BRANCH  17  18
ATOM     18  C   UNL     1      -1.410  11.514  -4.950  1.00  0.00    -0.003 C 
ATOM     19  C   UNL     1      -0.871  12.904  -4.625  1.00  0.00     0.004 C 
ENDBRANCH  17  18
ENDBRANCH  16  17
ENDBRANCH  15  16
ENDBRANCH  14  15
ENDBRANCH  13  14
ENDBRANCH  12  13
ENDBRANCH   1  12
TORSDOF 14
ENDMDL
MODEL 2
REMARK VINA RESULT:    -3.153      2.500      5.522
REMARK INTER + INTRA:          -7.761
REMARK INTER:                  -5.773
REMARK INTRA:                  -1.987
REMARK UNBOUND:                -2.028
REMARK SMILES CCCCCCCCCCCCCC[C@@H](C)C(=O)[O-]
REMARK SMILES IDX 9 1 10 2 11 3 12 4 13 5 14 6 15 7 16 8 17 9 18 10 19 11 8 12
REMARK SMILES IDX 7 13 6 14 5 15 4 16 3 17 2 18 1 19
REMARK H PARENT
REMARK Flexibility Score: inf
ROOT
ATOM      1  C   UNL     1      -3.144   8.254  -5.739  1.00  0.00     0.000 C 
ENDROOT
BRANCH   1   2
ATOM      2  C   UNL     1      -2.978   7.558  -7.101  1.00  0.00     0.000 C 
BRANCH   2   3
ATOM      3  C   UNL     1      -3.140   8.480  -8.327  1.00  0.00     0.000 C 
BRANCH   3   4
ATOM      4  C   UNL     1      -3.034   9.989  -8.031  1.00  0.00     0.000 C 
BRANCH   4   5
ATOM      5  C   UNL     1      -1.667  10.621  -8.351  1.00  0.00     0.001 C 
BRANCH   5   6
ATOM      6  C   UNL     1      -1.014  11.284  -7.125  1.00  0.00     0.009 C 
BRANCH   6   7
ATOM      7  C   UNL     1      -0.150  10.291  -6.320  1.00  0.00     0.032 C 
ATOM      8  C   UNL     1       0.731   9.460  -7.258  1.00  0.00     0.014 C 
BRANCH   7   9
ATOM      9  C   UNL     1       0.714  11.006  -5.316  1.00  0.00     0.044 C 
ATOM     10  O   UNL     1       0.321  12.086  -4.800  1.00  0.00    -0.550 OA
ATOM     11  O   UNL     1       1.946  10.480  -4.945  1.00  0.00    -0.550 OA
ENDBRANCH   7   9
ENDBRANCH   6   7
ENDBRANCH   5   6
ENDBRANCH   4   5
ENDBRANCH   3   4
ENDBRANCH   2   3
ENDBRANCH   1   2
BRANCH   1  12
ATOM     12  C   UNL     1      -4.615   8.448  -5.343  1.00  0.00     0.000 C 
BRANCH  12  13
ATOM     13  C   UNL     1      -4.820   9.791  -4.631  1.00  0.00    -0.000 C 
BRANCH  13  14
ATOM     14  C   UNL     1      -3.554  10.203  -3.863  1.00  0.00    -0.000 C 
BRANCH  14  15
ATOM     15  C   UNL     1      -3.118  11.645  -4.170  1.00  0.00    -0.000 C 
BRANCH  15  16
ATOM     16  C   UNL     1      -3.019  12.515  -2.904  1.00  0.00    -0.000 C 
BRANCH  16  17
ATOM     17  C   UNL     1      -4.339  12.568  -2.120  1.00  0.00    -0.000 C 
BRANCH  17  18
ATOM     18  C   UNL     1      -4.130  12.501  -0.600  1.00  0.00    -0.003 C 
ATOM     19  C   UNL     1      -2.774  13.078  -0.207  1.00  0.00     0.004 C 
ENDBRANCH  17  18
ENDBRANCH  16  17
ENDBRANCH  15  16
ENDBRANCH  14  15
ENDBRANCH  13  14
ENDBRANCH  12  13
ENDBRANCH   1  12
TORSDOF 14
ENDMDL
MODEL 3
REMARK VINA RESULT:    -3.102      1.274      1.909
REMARK INTER + INTRA:          -7.668
REMARK INTER:                  -6.105
REMARK INTRA:                  -1.563
REMARK UNBOUND:                -2.028
REMARK SMILES CCCCCCCCCCCCCC[C@@H](C)C(=O)[O-]
REMARK SMILES IDX 9 1 10 2 11 3 12 4 13 5 14 6 15 7 16 8 17 9 18 10 19 11 8 12
REMARK SMILES IDX 7 13 6 14 5 15 4 16 3 17 2 18 1 19
REMARK H PARENT
REMARK Flexibility Score: inf
ROOT
ATOM      1  C   UNL     1      -5.064   8.050  -5.563  1.00  0.00     0.000 C 
ENDROOT
BRANCH   1   2
ATOM      2  C   UNL     1      -5.499   9.393  -4.950  1.00  0.00     0.000 C 
BRANCH   2   3
ATOM      3  C   UNL     1      -4.414  10.488  -4.947  1.00  0.00     0.000 C 
BRANCH   3   4
ATOM      4  C   UNL     1      -3.580  10.583  -3.653  1.00  0.00     0.000 C 
BRANCH   4   5
ATOM      5  C   UNL     1      -3.267  12.015  -3.183  1.00  0.00     0.001 C 
BRANCH   5   6
ATOM      6  C   UNL     1      -4.445  12.671  -2.440  1.00  0.00     0.009 C 
BRANCH   6   7
ATOM      7  C   UNL     1      -4.293  12.571  -0.908  1.00  0.00     0.032 C 
ATOM      8  C   UNL     1      -2.907  13.055  -0.471  1.00  0.00     0.014 C 
BRANCH   7   9
ATOM      9  C   UNL     1      -5.354  13.369  -0.199  1.00  0.00     0.044 C 
ATOM     10  O   UNL     1      -6.411  13.691  -0.804  1.00  0.00    -0.550 OA
ATOM     11  O   UNL     1      -5.181  13.750   1.126  1.00  0.00    -0.550 OA
ENDBRANCH   7   9
ENDBRANCH   6   7
ENDBRANCH   5   6
ENDBRANCH   4   5
ENDBRANCH   3   4
ENDBRANCH   2   3
ENDBRANCH   1   2
BRANCH   1  12
ATOM     12  C   UNL     1      -4.270   8.220  -6.867  1.00  0.00     0.000 C 
BRANCH  12  13
ATOM     13  C   UNL     1      -2.914   7.509  -6.781  1.00  0.00    -0.000 C 
BRANCH  13  14
ATOM     14  C   UNL     1      -1.897   8.150  -7.737  1.00  0.00    -0.000 C 
BRANCH  14  15
ATOM     15  C   UNL     1      -1.630   9.630  -7.414  1.00  0.00    -0.000 C 
BRANCH  15  16
ATOM     16  C   UNL     1      -0.896   9.819  -6.076  1.00  0.00    -0.000 C 
BRANCH  16  17
ATOM     17  C   UNL     1      -0.607  11.297  -5.765  1.00  0.00    -0.000 C 
BRANCH  17  18
ATOM     18  C   UNL     1       0.850  11.540  -5.343  1.00  0.00    -0.003 C 
ATOM     19  C   UNL     1       1.682  10.270  -5.487  1.00  0.00     0.004 C 
ENDBRANCH  17  18
ENDBRANCH  16  17
ENDBRANCH  15  16
ENDBRANCH  14  15
ENDBRANCH  13  14
ENDBRANCH  12  13
ENDBRANCH   1  12
TORSDOF 14
ENDMDL
MODEL 4
REMARK VINA RESULT:    -3.044      1.783      3.575
REMARK INTER + INTRA:          -7.564
REMARK INTER:                  -5.580
REMARK INTRA:                  -1.984
REMARK UNBOUND:                -2.028
REMARK SMILES CCCCCCCCCCCCCC[C@@H](C)C(=O)[O-]
REMARK SMILES IDX 9 1 10 2 11 3 12 4 13 5 14 6 15 7 16 8 17 9 18 10 19 11 8 12
REMARK SMILES IDX 7 13 6 14 5 15 4 16 3 17 2 18 1 19
REMARK H PARENT
REMARK Flexibility Score: inf
ROOT
ATOM      1  C   UNL     1      -2.940   9.676  -5.335  1.00  0.00     0.000 C 
ENDROOT
BRANCH   1   2
ATOM      2  C   UNL     1      -3.736  10.005  -4.059  1.00  0.00     0.000 C 
BRANCH   2   3
ATOM      3  C   UNL     1      -3.553  11.442  -3.532  1.00  0.00     0.000 C 
BRANCH   3   4
ATOM      4  C   UNL     1      -4.459  12.503  -4.189  1.00  0.00     0.000 C 
BRANCH   4   5
ATOM      5  C   UNL     1      -4.812  13.704  -3.292  1.00  0.00     0.001 C 
BRANCH   5   6
ATOM      6  C   UNL     1      -5.742  13.325  -2.125  1.00  0.00     0.009 C 
BRANCH   6   7
ATOM      7  C   UNL     1      -5.462  14.167  -0.863  1.00  0.00     0.032 C 
ATOM      8  C   UNL     1      -6.756  14.411  -0.081  1.00  0.00     0.014 C 
BRANCH   7   9
ATOM      9  C   UNL     1      -4.450  13.498   0.028  1.00  0.00     0.044 C 
ATOM     10  O   UNL     1      -3.942  14.130   0.992  1.00  0.00    -0.550 OA
ATOM     11  O   UNL     1      -4.075  12.179  -0.199  1.00  0.00    -0.550 OA
ENDBRANCH   7   9
ENDBRANCH   6   7
ENDBRANCH   5   6
ENDBRANCH   4   5
ENDBRANCH   3   4
ENDBRANCH   2   3
ENDBRANCH   1   2
BRANCH   1  12
ATOM     12  C   UNL     1      -3.130   8.224  -5.797  1.00  0.00     0.000 C 
BRANCH  12  13
ATOM     13  C   UNL     1      -3.612   8.170  -7.252  1.00  0.00    -0.000 C 
BRANCH  13  14
ATOM     14  C   UNL     1      -4.115   9.547  -7.715  1.00  0.00    -0.000 C 
BRANCH  14  15
ATOM     15  C   UNL     1      -5.646   9.607  -7.842  1.00  0.00    -0.000 C 
BRANCH  15  16
ATOM     16  C   UNL     1      -6.287  10.561  -6.819  1.00  0.00    -0.000 C 
BRANCH  16  17
ATOM     17  C   UNL     1      -7.028   9.814  -5.698  1.00  0.00    -0.000 C 
BRANCH  17  18
ATOM     18  C   UNL     1      -6.920   8.288  -5.831  1.00  0.00    -0.003 C 
ATOM     19  C   UNL     1      -6.843   7.623  -4.460  1.00  0.00     0.004 C 
ENDBRANCH  17  18
ENDBRANCH  16  17
ENDBRANCH  15  16
ENDBRANCH  14  15
ENDBRANCH  13  14
ENDBRANCH  12  13
ENDBRANCH   1  12
TORSDOF 14
ENDMDL
MODEL 5
REMARK VINA RESULT:    -3.038      2.275      5.094
REMARK INTER + INTRA:          -7.553
REMARK INTER:                  -5.675
REMARK INTRA:                  -1.878
REMARK UNBOUND:                -2.028
REMARK SMILES CCCCCCCCCCCCCC[C@@H](C)C(=O)[O-]
REMARK SMILES IDX 9 1 10 2 11 3 12 4 13 5 14 6 15 7 16 8 17 9 18 10 19 11 8 12
REMARK SMILES IDX 7 13 6 14 5 15 4 16 3 17 2 18 1 19
REMARK H PARENT
REMARK Flexibility Score: inf
ROOT
ATOM      1  C   UNL     1      -4.739   8.019  -6.102  1.00  0.00     0.000 C 
ENDROOT
BRANCH   1   2
ATOM      2  C   UNL     1      -3.212   7.880  -5.967  1.00  0.00     0.000 C 
BRANCH   2   3
ATOM      3  C   UNL     1      -2.401   8.442  -7.152  1.00  0.00     0.000 C 
BRANCH   3   4
ATOM      4  C   UNL     1      -1.872   9.878  -6.964  1.00  0.00     0.000 C 
BRANCH   4   5
ATOM      5  C   UNL     1      -0.894  10.063  -5.789  1.00  0.00     0.001 C 
BRANCH   5   6
ATOM      6  C   UNL     1      -1.187  11.327  -4.961  1.00  0.00     0.009 C 
BRANCH   6   7
ATOM      7  C   UNL     1      -0.595  12.596  -5.610  1.00  0.00     0.032 C 
ATOM      8  C   UNL     1      -1.664  13.688  -5.730  1.00  0.00     0.014 C 
BRANCH   7   9
ATOM      9  C   UNL     1       0.576  13.119  -4.823  1.00  0.00     0.044 C 
ATOM     10  O   UNL     1       1.599  12.402  -4.662  1.00  0.00    -0.550 OA
ATOM     11  O   UNL     1       0.542  14.395  -4.274  1.00  0.00    -0.550 OA
ENDBRANCH   7   9
ENDBRANCH   6   7
ENDBRANCH   5   6
ENDBRANCH   4   5
ENDBRANCH   3   4
ENDBRANCH   2   3
ENDBRANCH   1   2
BRANCH   1  12
ATOM     12  C   UNL     1      -5.384   8.705  -4.888  1.00  0.00     0.000 C 
BRANCH  12  13
ATOM     13  C   UNL     1      -4.546   9.903  -4.425  1.00  0.00    -0.000 C 
BRANCH  13  14
ATOM     14  C   UNL     1      -5.129  11.220  -4.961  1.00  0.00    -0.000 C 
BRANCH  14  15
ATOM     15  C   UNL     1      -4.687  12.442  -4.139  1.00  0.00    -0.000 C 
BRANCH  15  16
ATOM     16  C   UNL     1      -4.115  12.054  -2.765  1.00  0.00    -0.000 C 
BRANCH  16  17
ATOM     17  C   UNL     1      -4.147  13.219  -1.762  1.00  0.00    -0.000 C 
BRANCH  17  18
ATOM     18  C   UNL     1      -5.555  13.491  -1.214  1.00  0.00    -0.003 C 
ATOM     19  C   UNL     1      -5.556  13.512   0.311  1.00  0.00     0.004 C 
ENDBRANCH  17  18
ENDBRANCH  16  17
ENDBRANCH  15  16
ENDBRANCH  14  15
ENDBRANCH  13  14
ENDBRANCH  12  13
ENDBRANCH   1  12
TORSDOF 14
ENDMDL
MODEL 6
REMARK VINA RESULT:    -3.031      2.115      5.732
REMARK INTER + INTRA:          -7.539
REMARK INTER:                  -5.939
REMARK INTRA:                  -1.600
REMARK UNBOUND:                -2.028
REMARK SMILES CCCCCCCCCCCCCC[C@@H](C)C(=O)[O-]
REMARK SMILES IDX 9 1 10 2 11 3 12 4 13 5 14 6 15 7 16 8 17 9 18 10 19 11 8 12
REMARK SMILES IDX 7 13 6 14 5 15 4 16 3 17 2 18 1 19
REMARK H PARENT
REMARK Flexibility Score: inf
ROOT
ATOM      1  C   UNL     1      -4.461  10.614  -4.475  1.00  0.00     0.000 C 
ENDROOT
BRANCH   1   2
ATOM      2  C   UNL     1      -3.510   9.404  -4.526  1.00  0.00     0.000 C 
BRANCH   2   3
ATOM      3  C   UNL     1      -3.890   8.322  -5.557  1.00  0.00     0.000 C 
BRANCH   3   4
ATOM      4  C   UNL     1      -2.820   8.033  -6.629  1.00  0.00     0.000 C 
BRANCH   4   5
ATOM      5  C   UNL     1      -2.340   9.264  -7.419  1.00  0.00     0.001 C 
BRANCH   5   6
ATOM      6  C   UNL     1      -0.869   9.619  -7.136  1.00  0.00     0.009 C 
BRANCH   6   7
ATOM      7  C   UNL     1      -0.689  11.110  -6.784  1.00  0.00     0.032 C 
ATOM      8  C   UNL     1      -2.008  11.869  -6.962  1.00  0.00     0.014 C 
BRANCH   7   9
ATOM      9  C   UNL     1      -0.191  11.284  -5.374  1.00  0.00     0.044 C 
ATOM     10  O   UNL     1       0.966  10.897  -5.060  1.00  0.00    -0.550 OA
ATOM     11  O   UNL     1      -0.999  11.876  -4.410  1.00  0.00    -0.550 OA
ENDBRANCH   7   9
ENDBRANCH   6   7
ENDBRANCH   5   6
ENDBRANCH   4   5
ENDBRANCH   3   4
ENDBRANCH   2   3
ENDBRANCH   1   2
BRANCH   1  12
ATOM     12  C   UNL     1      -5.590  10.529  -5.512  1.00  0.00     0.000 C 
BRANCH  12  13
ATOM     13  C   UNL     1      -6.491  11.767  -5.445  1.00  0.00    -0.000 C 
BRANCH  13  14
ATOM     14  C   UNL     1      -5.702  12.995  -4.965  1.00  0.00    -0.000 C 
BRANCH  14  15
ATOM     15  C   UNL     1      -6.276  13.601  -3.673  1.00  0.00    -0.000 C 
BRANCH  15  16
ATOM     16  C   UNL     1      -5.398  13.310  -2.443  1.00  0.00    -0.000 C 
BRANCH  16  17
ATOM     17  C   UNL     1      -6.034  13.803  -1.134  1.00  0.00    -0.000 C 
BRANCH  17  18
ATOM     18  C   UNL     1      -5.280  13.318   0.113  1.00  0.00    -0.003 C 
ATOM     19  C   UNL     1      -3.911  12.756  -0.259  1.00  0.00     0.004 C 
ENDBRANCH  17  18
ENDBRANCH  16  17
ENDBRANCH  15  16
ENDBRANCH  14  15
ENDBRANCH  13  14
ENDBRANCH  12  13
ENDBRANCH   1  12
TORSDOF 14
ENDMDL
MODEL 7
REMARK VINA RESULT:    -3.019      8.084     10.749
REMARK INTER + INTRA:          -7.518
REMARK INTER:                  -5.391
REMARK INTRA:                  -2.126
REMARK UNBOUND:                -2.028
REMARK SMILES CCCCCCCCCCCCCC[C@@H](C)C(=O)[O-]
REMARK SMILES IDX 9 1 10 2 11 3 12 4 13 5 14 6 15 7 16 8 17 9 18 10 19 11 8 12
REMARK SMILES IDX 7 13 6 14 5 15 4 16 3 17 2 18 1 19
REMARK H PARENT
REMARK Flexibility Score: inf
ROOT
ATOM      1  C   UNL     1       7.253  11.319  -3.036  1.00  0.00     0.000 C 
ENDROOT
BRANCH   1   2
ATOM      2  C   UNL     1       6.077  12.272  -2.756  1.00  0.00     0.000 C 
BRANCH   2   3
ATOM      3  C   UNL     1       5.314  11.995  -1.445  1.00  0.00     0.000 C 
BRANCH   3   4
ATOM      4  C   UNL     1       6.058  12.395  -0.155  1.00  0.00     0.000 C 
BRANCH   4   5
ATOM      5  C   UNL     1       6.696  11.226   0.618  1.00  0.00     0.001 C 
BRANCH   5   6
ATOM      6  C   UNL     1       6.190   9.851   0.145  1.00  0.00     0.009 C 
BRANCH   6   7
ATOM      7  C   UNL     1       7.305   8.784   0.168  1.00  0.00     0.032 C 
ATOM      8  C   UNL     1       8.686   9.447   0.164  1.00  0.00     0.014 C 
BRANCH   7   9
ATOM      9  C   UNL     1       7.178   7.886   1.370  1.00  0.00     0.044 C 
ATOM     10  O   UNL     1       6.194   8.006   2.146  1.00  0.00    -0.550 OA
ATOM     11  O   UNL     1       8.140   6.916   1.628  1.00  0.00    -0.550 OA
ENDBRANCH   7   9
ENDBRANCH   6   7
ENDBRANCH   5   6
ENDBRANCH   4   5
ENDBRANCH   3   4
ENDBRANCH   2   3
ENDBRANCH   1   2
BRANCH   1  12
ATOM     12  C   UNL     1       6.938  10.290  -4.132  1.00  0.00     0.000 C 
BRANCH  12  13
ATOM     13  C   UNL     1       6.847   8.875  -3.546  1.00  0.00    -0.000 C 
BRANCH  13  14
ATOM     14  C   UNL     1       5.783   8.045  -4.281  1.00  0.00    -0.000 C 
BRANCH  14  15
ATOM     15  C   UNL     1       5.822   8.246  -5.805  1.00  0.00    -0.000 C 
BRANCH  15  16
ATOM     16  C   UNL     1       4.419   8.255  -6.436  1.00  0.00    -0.000 C 
BRANCH  16  17
ATOM     17  C   UNL     1       3.300   8.355  -5.387  1.00  0.00    -0.000 C 
BRANCH  17  18
ATOM     18  C   UNL     1       2.497   9.659  -5.499  1.00  0.00    -0.003 C 
ATOM     19  C   UNL     1       3.295  10.843  -4.963  1.00  0.00     0.004 C 
ENDBRANCH  17  18
ENDBRANCH  16  17
ENDBRANCH  15  16
ENDBRANCH  14  15
ENDBRANCH  13  14
ENDBRANCH  12  13
ENDBRANCH   1  12
TORSDOF 14
ENDMDL
MODEL 8
REMARK VINA RESULT:    -3.002      8.363     11.403
REMARK INTER + INTRA:          -7.488
REMARK INTER:                  -5.528
REMARK INTRA:                  -1.960
REMARK UNBOUND:                -2.028
REMARK SMILES CCCCCCCCCCCCCC[C@@H](C)C(=O)[O-]
REMARK SMILES IDX 9 1 10 2 11 3 12 4 13 5 14 6 15 7 16 8 17 9 18 10 19 11 8 12
REMARK SMILES IDX 7 13 6 14 5 15 4 16 3 17 2 18 1 19
REMARK H PARENT
REMARK Flexibility Score: inf
ROOT
ATOM      1  C   UNL     1       6.346  11.267  -2.136  1.00  0.00     0.000 C 
ENDROOT
BRANCH   1   2
ATOM      2  C   UNL     1       6.261  10.402  -3.406  1.00  0.00     0.000 C 
BRANCH   2   3
ATOM      3  C   UNL     1       6.304   8.881  -3.161  1.00  0.00     0.000 C 
BRANCH   3   4
ATOM      4  C   UNL     1       6.370   8.011  -4.433  1.00  0.00     0.000 C 
BRANCH   4   5
ATOM      5  C   UNL     1       5.306   8.333  -5.497  1.00  0.00     0.001 C 
BRANCH   5   6
ATOM      6  C   UNL     1       3.876   8.002  -5.032  1.00  0.00     0.009 C 
BRANCH   6   7
ATOM      7  C   UNL     1       2.824   8.917  -5.692  1.00  0.00     0.032 C 
ATOM      8  C   UNL     1       2.981  10.360  -5.201  1.00  0.00     0.014 C 
BRANCH   7   9
ATOM      9  C   UNL     1       2.929   8.879  -7.193  1.00  0.00     0.044 C 
ATOM     10  O   UNL     1       2.682   7.813  -7.817  1.00  0.00    -0.550 OA
ATOM     11  O   UNL     1       3.292  10.018  -7.903  1.00  0.00    -0.550 OA
ENDBRANCH   7   9
ENDBRANCH   6   7
ENDBRANCH   5   6
ENDBRANCH   4   5
ENDBRANCH   3   4
ENDBRANCH   2   3
ENDBRANCH   1   2
BRANCH   1  12
ATOM     12  C   UNL     1       6.169  10.452  -0.847  1.00  0.00     0.000 C 
BRANCH  12  13
ATOM     13  C   UNL     1       6.612  11.260   0.379  1.00  0.00    -0.000 C 
BRANCH  13  14
ATOM     14  C   UNL     1       6.822  10.342   1.594  1.00  0.00    -0.000 C 
BRANCH  14  15
ATOM     15  C   UNL     1       6.236   8.936   1.385  1.00  0.00    -0.000 C 
BRANCH  15  16
ATOM     16  C   UNL     1       7.271   7.823   1.623  1.00  0.00    -0.000 C 
BRANCH  16  17
ATOM     17  C   UNL     1       8.629   8.131   0.972  1.00  0.00    -0.000 C 
BRANCH  17  18
ATOM     18  C   UNL     1       8.681   7.730  -0.510  1.00  0.00    -0.003 C 
ATOM     19  C   UNL     1       9.506   8.726  -1.319  1.00  0.00     0.004 C 
ENDBRANCH  17  18
ENDBRANCH  16  17
ENDBRANCH  15  16
ENDBRANCH  14  15
ENDBRANCH  13  14
ENDBRANCH  12  13
ENDBRANCH   1  12
TORSDOF 14
ENDMDL
MODEL 9
REMARK VINA RESULT:    -2.906      1.275      1.999
REMARK INTER + INTRA:          -7.313
REMARK INTER:                  -4.887
REMARK INTRA:                  -2.426
REMARK UNBOUND:                -2.028
REMARK SMILES CCCCCCCCCCCCCC[C@@H](C)C(=O)[O-]
REMARK SMILES IDX 9 1 10 2 11 3 12 4 13 5 14 6 15 7 16 8 17 9 18 10 19 11 8 12
REMARK SMILES IDX 7 13 6 14 5 15 4 16 3 17 2 18 1 19
REMARK H PARENT
REMARK Flexibility Score: inf
ROOT
ATOM      1  C   UNL     1      -5.762   8.764  -5.001  1.00  0.00     0.000 C 
ENDROOT
BRANCH   1   2
ATOM      2  C   UNL     1      -6.563   9.841  -5.755  1.00  0.00     0.000 C 
BRANCH   2   3
ATOM      3  C   UNL     1      -5.740  10.687  -6.748  1.00  0.00     0.000 C 
BRANCH   3   4
ATOM      4  C   UNL     1      -5.675  12.194  -6.429  1.00  0.00     0.000 C 
BRANCH   4   5
ATOM      5  C   UNL     1      -6.167  12.584  -5.023  1.00  0.00     0.001 C 
BRANCH   5   6
ATOM      6  C   UNL     1      -5.065  13.228  -4.162  1.00  0.00     0.009 C 
BRANCH   6   7
ATOM      7  C   UNL     1      -4.895  12.511  -2.806  1.00  0.00     0.032 C 
ATOM      8  C   UNL     1      -3.537  11.807  -2.735  1.00  0.00     0.014 C 
BRANCH   7   9
ATOM      9  C   UNL     1      -5.027  13.475  -1.657  1.00  0.00     0.044 C 
ATOM     10  O   UNL     1      -4.036  14.163  -1.294  1.00  0.00    -0.550 OA
ATOM     11  O   UNL     1      -6.240  13.618  -0.994  1.00  0.00    -0.550 OA
ENDBRANCH   7   9
ENDBRANCH   6   7
ENDBRANCH   5   6
ENDBRANCH   4   5
ENDBRANCH   3   4
ENDBRANCH   2   3
ENDBRANCH   1   2
BRANCH   1  12
ATOM     12  C   UNL     1      -4.248   9.022  -5.025  1.00  0.00     0.000 C 
BRANCH  12  13
ATOM     13  C   UNL     1      -3.492   7.803  -5.566  1.00  0.00    -0.000 C 
BRANCH  13  14
ATOM     14  C   UNL     1      -3.401   7.851  -7.100  1.00  0.00    -0.000 C 
BRANCH  14  15
ATOM     15  C   UNL     1      -1.958   8.024  -7.603  1.00  0.00    -0.000 C 
BRANCH  15  16
ATOM     16  C   UNL     1      -1.536   9.501  -7.690  1.00  0.00    -0.000 C 
BRANCH  16  17
ATOM     17  C   UNL     1      -0.472   9.873  -6.644  1.00  0.00    -0.000 C 
BRANCH  17  18
ATOM     18  C   UNL     1      -1.039  10.726  -5.499  1.00  0.00    -0.003 C 
ATOM     19  C   UNL     1      -1.976  11.805  -6.031  1.00  0.00     0.004 C 
ENDBRANCH  17  18
ENDBRANCH  16  17
ENDBRANCH  15  16
ENDBRANCH  14  15
ENDBRANCH  13  14
ENDBRANCH  12  13
ENDBRANCH   1  12
TORSDOF 14
ENDMDL
