MODEL 1
REMARK VINA RESULT:    16.451      0.000      0.000
REMARK INTER + INTRA:          26.449
REMARK INTER:                  25.107
REMARK INTRA:                   1.341
REMARK UNBOUND:                 1.341
REMARK SMILES CC1=CCC[C@@H](C)C(=O)C[C@H](C(C)C)C(=O)C1
REMARK SMILES IDX 8 1 9 2 6 3 7 4 5 5 4 6 3 7 2 8 1 9 10 11 11 12 15 13 16 14
REMARK SMILES IDX 17 15 12 17 13 18 14 19
REMARK H PARENT
REMARK Flexibility Score: 70.00
ROOT
ATOM      1  C   UNL     1      17.996  19.735 -13.202  1.00  0.00     0.136 C 
ATOM      2  O   UNL     1      16.966  20.382 -13.298  1.00  0.00    -0.299 OA
ENDROOT
BRANCH   1   3
ATOM      3  C   UNL     1      19.151  20.335 -12.414  1.00  0.00     0.053 C 
ATOM      4  C   UNL     1      19.022  21.859 -12.274  1.00  0.00     0.016 C 
BRANCH   3   5
ATOM      5  C   UNL     1      20.509  19.942 -13.027  1.00  0.00     0.015 C 
BRANCH   5   6
ATOM      6  C   UNL     1      21.481  19.392 -11.961  1.00  0.00     0.028 C 
BRANCH   6   7
ATOM      7  C   UNL     1      21.602  17.891 -12.023  1.00  0.00    -0.028 C 
ATOM      8  C   UNL     1      20.731  17.026 -11.454  1.00  0.00    -0.070 CG0
ATOM      9  C   UNL     1      21.003  15.549 -11.590  1.00  0.00     0.039 C 
ATOM     10  G   UNL     1      19.477  17.471 -10.718  1.00  0.00     0.000 G0
ENDBRANCH   6   7
ENDBRANCH   5   6
ENDBRANCH   3   5
ENDBRANCH   1   3
BRANCH   1  11
ATOM     11  C   UNL     1      18.107  18.403 -13.924  1.00  0.00     0.087 C 
BRANCH  11  12
ATOM     12  C   UNL     1      18.257  17.126 -13.048  1.00  0.00     0.066 C 
BRANCH  12  13
ATOM     13  C   UNL     1      18.230  17.382 -11.543  1.00  0.00     0.140 C 
ATOM     14  O   UNL     1      17.145  17.601 -11.017  1.00  0.00    -0.299 OA
BRANCH  13  15
ATOM     15  C   UNL     1      19.475  17.448 -10.689  1.00  0.00     0.106 CG0
ATOM     16  G   UNL     1      20.717  17.021 -11.457  1.00  0.00     0.000 G0
ENDBRANCH  13  15
ENDBRANCH  12  13
BRANCH  12  17
ATOM     17  C   UNL     1      17.479  15.864 -13.548  1.00  0.00    -0.006 C 
ATOM     18  C   UNL     1      16.129  15.598 -12.869  1.00  0.00     0.008 C 
ATOM     19  C   UNL     1      18.356  14.602 -13.507  1.00  0.00     0.008 C 
ENDBRANCH  12  17
ENDBRANCH  11  12
ENDBRANCH   1  11
TORSDOF 1
ENDMDL
MODEL 2
REMARK VINA RESULT:    16.533      1.657      3.588
REMARK INTER + INTRA:          26.573
REMARK INTER:                  25.966
REMARK INTRA:                   0.607
REMARK UNBOUND:                 1.341
REMARK SMILES CC1=CCC[C@@H](C)C(=O)C[C@H](C(C)C)C(=O)C1
REMARK SMILES IDX 8 1 9 2 6 3 7 4 5 5 4 6 3 7 2 8 1 9 10 11 11 12 15 13 16 14
REMARK SMILES IDX 17 15 12 17 13 18 14 19
REMARK H PARENT
REMARK Flexibility Score: 70.00
ROOT
ATOM      1  C   UNL     1      20.812  16.645 -11.552  1.00  0.00     0.136 C 
ATOM      2  O   UNL     1      20.883  16.389 -10.361  1.00  0.00    -0.299 OA
ENDROOT
BRANCH   1   3
ATOM      3  C   UNL     1      21.632  17.810 -12.086  1.00  0.00     0.053 C 
ATOM      4  C   UNL     1      23.122  17.673 -11.740  1.00  0.00     0.016 C 
BRANCH   3   5
ATOM      5  C   UNL     1      21.066  19.160 -11.604  1.00  0.00     0.015 C 
BRANCH   5   6
ATOM      6  C   UNL     1      20.793  20.120 -12.780  1.00  0.00     0.028 C 
BRANCH   6   7
ATOM      7  C   UNL     1      19.428  20.752 -12.693  1.00  0.00    -0.028 C 
ATOM      8  C   UNL     1      18.270  20.128 -13.014  1.00  0.00    -0.070 CG0
ATOM      9  C   UNL     1      16.985  20.906 -12.890  1.00  0.00     0.039 C 
ATOM     10  G   UNL     1      18.204  18.675 -13.457  1.00  0.00     0.000 G0
ENDBRANCH   6   7
ENDBRANCH   5   6
ENDBRANCH   3   5
ENDBRANCH   1   3
BRANCH   1  11
ATOM     11  C   UNL     1      19.865  15.845 -12.429  1.00  0.00     0.087 C 
BRANCH  11  12
ATOM     12  C   UNL     1      18.358  16.228 -12.387  1.00  0.00     0.066 C 
BRANCH  12  13
ATOM     13  C   UNL     1      18.087  17.726 -12.269  1.00  0.00     0.140 C 
ATOM     14  O   UNL     1      17.739  18.163 -11.179  1.00  0.00    -0.299 OA
BRANCH  13  15
ATOM     15  C   UNL     1      18.157  18.678 -13.442  1.00  0.00     0.106 CG0
ATOM     16  G   UNL     1      18.276  20.126 -12.995  1.00  0.00     0.000 G0
ENDBRANCH  13  15
ENDBRANCH  12  13
BRANCH  12  17
ATOM     17  C   UNL     1      17.427  15.433 -13.361  1.00  0.00    -0.006 C 
ATOM     18  C   UNL     1      15.963  15.296 -12.924  1.00  0.00     0.008 C 
ATOM     19  C   UNL     1      18.013  14.054 -13.709  1.00  0.00     0.008 C 
ENDBRANCH  12  17
ENDBRANCH  11  12
ENDBRANCH   1  11
TORSDOF 1
ENDMDL
MODEL 3
REMARK VINA RESULT:    16.741      1.378      1.949
REMARK INTER + INTRA:          26.890
REMARK INTER:                  25.183
REMARK INTRA:                   1.707
REMARK UNBOUND:                 1.341
REMARK SMILES CC1=CCC[C@@H](C)C(=O)C[C@H](C(C)C)C(=O)C1
REMARK SMILES IDX 8 1 9 2 6 3 7 4 5 5 4 6 3 7 2 8 1 9 10 11 11 12 15 13 16 14
REMARK SMILES IDX 17 15 12 17 13 18 14 19
REMARK H PARENT
REMARK Flexibility Score: 70.00
ROOT
ATOM      1  C   UNL     1      17.880  19.123 -11.566  1.00  0.00     0.136 C 
ATOM      2  O   UNL     1      17.984  19.573 -10.436  1.00  0.00    -0.299 OA
ENDROOT
BRANCH   1   3
ATOM      3  C   UNL     1      18.008  20.085 -12.737  1.00  0.00     0.053 C 
ATOM      4  C   UNL     1      17.072  19.711 -13.895  1.00  0.00     0.016 C 
BRANCH   3   5
ATOM      5  C   UNL     1      19.470  20.197 -13.212  1.00  0.00     0.015 C 
BRANCH   5   6
ATOM      6  C   UNL     1      20.454  20.268 -12.025  1.00  0.00     0.028 C 
BRANCH   6   7
ATOM      7  C   UNL     1      21.655  19.381 -12.228  1.00  0.00    -0.028 C 
ATOM      8  C   UNL     1      21.751  18.105 -11.787  1.00  0.00    -0.070 CG0
ATOM      9  C   UNL     1      23.030  17.354 -12.055  1.00  0.00     0.039 C 
ATOM     10  G   UNL     1      20.619  17.386 -11.070  1.00  0.00     0.000 G0
ENDBRANCH   6   7
ENDBRANCH   5   6
ENDBRANCH   3   5
ENDBRANCH   1   3
BRANCH   1  11
ATOM     11  C   UNL     1      17.560  17.650 -11.752  1.00  0.00     0.087 C 
BRANCH  11  12
ATOM     12  C   UNL     1      18.524  16.817 -12.646  1.00  0.00     0.066 C 
BRANCH  12  13
ATOM     13  C   UNL     1      19.844  16.442 -11.977  1.00  0.00     0.140 C 
ATOM     14  O   UNL     1      20.273  15.308 -12.147  1.00  0.00    -0.299 OA
BRANCH  13  15
ATOM     15  C   UNL     1      20.607  17.376 -11.065  1.00  0.00     0.106 CG0
ATOM     16  G   UNL     1      21.738  18.086 -11.791  1.00  0.00     0.000 G0
ENDBRANCH  13  15
ENDBRANCH  12  13
BRANCH  12  17
ATOM     17  C   UNL     1      17.851  15.705 -13.517  1.00  0.00    -0.006 C 
ATOM     18  C   UNL     1      16.370  15.431 -13.226  1.00  0.00     0.008 C 
ATOM     19  C   UNL     1      18.654  14.394 -13.486  1.00  0.00     0.008 C 
ENDBRANCH  12  17
ENDBRANCH  11  12
ENDBRANCH   1  11
TORSDOF 1
ENDMDL
MODEL 4
REMARK VINA RESULT:    16.796      1.241      4.078
REMARK INTER + INTRA:          26.975
REMARK INTER:                  25.810
REMARK INTRA:                   1.164
REMARK UNBOUND:                 1.341
REMARK SMILES CC1=CCC[C@@H](C)C(=O)C[C@H](C(C)C)C(=O)C1
REMARK SMILES IDX 8 1 9 2 6 3 7 4 5 5 4 6 3 7 2 8 1 9 10 11 11 12 15 13 16 14
REMARK SMILES IDX 17 15 12 17 13 18 14 19
REMARK H PARENT
REMARK Flexibility Score: 70.00
ROOT
ATOM      1  C   UNL     1      17.347  15.862 -13.252  1.00  0.00     0.136 C 
ATOM      2  O   UNL     1      16.259  16.022 -12.724  1.00  0.00    -0.299 OA
ENDROOT
BRANCH   1   3
ATOM      3  C   UNL     1      17.774  14.444 -13.601  1.00  0.00     0.053 C 
ATOM      4  C   UNL     1      17.139  13.404 -12.666  1.00  0.00     0.016 C 
BRANCH   3   5
ATOM      5  C   UNL     1      19.309  14.312 -13.626  1.00  0.00     0.015 C 
BRANCH   5   6
ATOM      6  C   UNL     1      19.916  14.422 -12.211  1.00  0.00     0.028 C 
BRANCH   6   7
ATOM      7  C   UNL     1      20.845  15.601 -12.081  1.00  0.00    -0.028 C 
ATOM      8  C   UNL     1      20.559  16.733 -11.396  1.00  0.00    -0.070 CG0
ATOM      9  C   UNL     1      21.590  17.832 -11.375  1.00  0.00     0.039 C 
ATOM     10  G   UNL     1      19.267  16.930 -10.619  1.00  0.00     0.000 G0
ENDBRANCH   6   7
ENDBRANCH   5   6
ENDBRANCH   3   5
ENDBRANCH   1   3
BRANCH   1  11
ATOM     11  C   UNL     1      18.251  17.062 -13.471  1.00  0.00     0.087 C 
BRANCH  11  12
ATOM     12  C   UNL     1      18.032  18.298 -12.552  1.00  0.00     0.066 C 
BRANCH  12  13
ATOM     13  C   UNL     1      18.407  18.075 -11.089  1.00  0.00     0.140 C 
ATOM     14  O   UNL     1      18.046  18.911 -10.269  1.00  0.00    -0.299 OA
BRANCH  13  15
ATOM     15  C   UNL     1      19.256  16.917 -10.617  1.00  0.00     0.106 CG0
ATOM     16  G   UNL     1      20.547  16.794 -11.411  1.00  0.00     0.000 G0
ENDBRANCH  13  15
ENDBRANCH  12  13
BRANCH  12  17
ATOM     17  C   UNL     1      18.435  19.681 -13.164  1.00  0.00    -0.006 C 
ATOM     18  C   UNL     1      19.381  20.538 -12.314  1.00  0.00     0.008 C 
ATOM     19  C   UNL     1      17.202  20.498 -13.583  1.00  0.00     0.008 C 
ENDBRANCH  12  17
ENDBRANCH  11  12
ENDBRANCH   1  11
TORSDOF 1
ENDMDL
MODEL 5
REMARK VINA RESULT:    17.860      1.896      4.550
REMARK INTER + INTRA:          28.598
REMARK INTER:                  26.722
REMARK INTRA:                   1.877
REMARK UNBOUND:                 1.341
REMARK SMILES CC1=CCC[C@@H](C)C(=O)C[C@H](C(C)C)C(=O)C1
REMARK SMILES IDX 8 1 9 2 6 3 7 4 5 5 4 6 3 7 2 8 1 9 10 11 11 12 15 13 16 14
REMARK SMILES IDX 17 15 12 17 13 18 14 19
REMARK H PARENT
REMARK Flexibility Score: 70.00
ROOT
ATOM      1  C   UNL     1      21.103  17.346 -11.764  1.00  0.00     0.136 C 
ATOM      2  O   UNL     1      22.207  17.031 -12.177  1.00  0.00    -0.299 OA
ENDROOT
BRANCH   1   3
ATOM      3  C   UNL     1      20.231  16.264 -11.144  1.00  0.00     0.053 C 
ATOM      4  C   UNL     1      20.334  16.250  -9.611  1.00  0.00     0.016 C 
BRANCH   3   5
ATOM      5  C   UNL     1      20.551  14.879 -11.740  1.00  0.00     0.015 C 
BRANCH   5   6
ATOM      6  C   UNL     1      19.905  14.690 -13.128  1.00  0.00     0.028 C 
BRANCH   6   7
ATOM      7  C   UNL     1      18.412  14.500 -13.040  1.00  0.00    -0.028 C 
ATOM      8  C   UNL     1      17.500  15.480 -13.240  1.00  0.00    -0.070 CG0
ATOM      9  C   UNL     1      16.041  15.132 -13.097  1.00  0.00     0.039 C 
ATOM     10  G   UNL     1      17.877  16.898 -13.637  1.00  0.00     0.000 G0
ENDBRANCH   6   7
ENDBRANCH   5   6
ENDBRANCH   3   5
ENDBRANCH   1   3
BRANCH   1  11
ATOM     11  C   UNL     1      20.620  18.774 -11.949  1.00  0.00     0.087 C 
BRANCH  11  12
ATOM     12  C   UNL     1      19.240  18.979 -12.638  1.00  0.00     0.066 C 
BRANCH  12  13
ATOM     13  C   UNL     1      18.278  17.802 -12.493  1.00  0.00     0.140 C 
ATOM     14  O   UNL     1      17.856  17.540 -11.374  1.00  0.00    -0.299 OA
BRANCH  13  15
ATOM     15  C   UNL     1      17.880  16.909 -13.646  1.00  0.00     0.106 CG0
ATOM     16  G   UNL     1      17.507  15.510 -13.181  1.00  0.00     0.000 G0
ENDBRANCH  13  15
ENDBRANCH  12  13
BRANCH  12  17
ATOM     17  C   UNL     1      18.614  20.405 -12.494  1.00  0.00    -0.006 C 
ATOM     18  C   UNL     1      17.494  20.747 -13.486  1.00  0.00     0.008 C 
ATOM     19  C   UNL     1      19.690  21.503 -12.503  1.00  0.00     0.008 C 
ENDBRANCH  12  17
ENDBRANCH  11  12
ENDBRANCH   1  11
TORSDOF 1
ENDMDL
MODEL 6
REMARK VINA RESULT:    18.924      2.116      5.016
REMARK INTER + INTRA:          30.223
REMARK INTER:                  29.934
REMARK INTRA:                   0.288
REMARK UNBOUND:                 1.341
REMARK SMILES CC1=CCC[C@@H](C)C(=O)C[C@H](C(C)C)C(=O)C1
REMARK SMILES IDX 8 1 9 2 6 3 7 4 5 5 4 6 3 7 2 8 1 9 10 11 11 12 15 13 16 14
REMARK SMILES IDX 17 15 12 17 13 18 14 19
REMARK H PARENT
REMARK Flexibility Score: 70.00
ROOT
ATOM      1  C   UNL     1      18.250  16.174 -13.372  1.00  0.00     0.136 C 
ATOM      2  O   UNL     1      17.896  16.399 -14.518  1.00  0.00    -0.299 OA
ENDROOT
BRANCH   1   3
ATOM      3  C   UNL     1      17.995  14.787 -12.801  1.00  0.00     0.053 C 
ATOM      4  C   UNL     1      18.810  13.706 -13.527  1.00  0.00     0.016 C 
BRANCH   3   5
ATOM      5  C   UNL     1      16.492  14.450 -12.800  1.00  0.00     0.015 C 
BRANCH   5   6
ATOM      6  C   UNL     1      15.622  15.710 -12.606  1.00  0.00     0.028 C 
BRANCH   6   7
ATOM      7  C   UNL     1      15.028  15.784 -11.223  1.00  0.00    -0.028 C 
ATOM      8  C   UNL     1      15.682  16.239 -10.129  1.00  0.00    -0.070 CG0
ATOM      9  C   UNL     1      14.953  16.232  -8.810  1.00  0.00     0.039 C 
ATOM     10  G   UNL     1      17.099  16.788 -10.176  1.00  0.00     0.000 G0
ENDBRANCH   6   7
ENDBRANCH   5   6
ENDBRANCH   3   5
ENDBRANCH   1   3
BRANCH   1  11
ATOM     11  C   UNL     1      18.858  17.296 -12.549  1.00  0.00     0.087 C 
BRANCH  11  12
ATOM     12  C   UNL     1      17.905  18.428 -12.070  1.00  0.00     0.066 C 
BRANCH  12  13
ATOM     13  C   UNL     1      17.243  18.171 -10.719  1.00  0.00     0.140 C 
ATOM     14  O   UNL     1      16.853  19.138 -10.076  1.00  0.00    -0.299 OA
BRANCH  13  15
ATOM     15  C   UNL     1      17.110  16.795 -10.108  1.00  0.00     0.106 CG0
ATOM     16  G   UNL     1      15.678  16.286 -10.153  1.00  0.00     0.000 G0
ENDBRANCH  13  15
ENDBRANCH  12  13
BRANCH  12  17
ATOM     17  C   UNL     1      18.401  19.889 -12.329  1.00  0.00    -0.006 C 
ATOM     18  C   UNL     1      17.638  20.674 -13.403  1.00  0.00     0.008 C 
ATOM     19  C   UNL     1      19.914  19.936 -12.604  1.00  0.00     0.008 C 
ENDBRANCH  12  17
ENDBRANCH  11  12
ENDBRANCH   1  11
TORSDOF 1
ENDMDL
MODEL 7
REMARK VINA RESULT:    19.230      1.702      4.578
REMARK INTER + INTRA:          30.689
REMARK INTER:                  28.206
REMARK INTRA:                   2.483
REMARK UNBOUND:                 1.341
REMARK SMILES CC1=CCC[C@@H](C)C(=O)C[C@H](C(C)C)C(=O)C1
REMARK SMILES IDX 8 1 9 2 6 3 7 4 5 5 4 6 3 7 2 8 1 9 10 11 11 12 15 13 16 14
REMARK SMILES IDX 17 15 12 17 13 18 14 19
REMARK H PARENT
REMARK Flexibility Score: 70.00
ROOT
ATOM      1  C   UNL     1      18.830  15.423 -12.777  1.00  0.00     0.136 C 
ATOM      2  O   UNL     1      19.021  14.296 -13.204  1.00  0.00    -0.299 OA
ENDROOT
BRANCH   1   3
ATOM      3  C   UNL     1      17.509  16.102 -13.107  1.00  0.00     0.053 C 
ATOM      4  C   UNL     1      16.472  15.109 -13.652  1.00  0.00     0.016 C 
BRANCH   3   5
ATOM      5  C   UNL     1      17.714  17.285 -14.072  1.00  0.00     0.015 C 
BRANCH   5   6
ATOM      6  C   UNL     1      16.937  18.538 -13.616  1.00  0.00     0.028 C 
BRANCH   6   7
ATOM      7  C   UNL     1      17.812  19.765 -13.571  1.00  0.00    -0.028 C 
ATOM      8  C   UNL     1      18.362  20.275 -12.444  1.00  0.00    -0.070 CG0
ATOM      9  C   UNL     1      19.201  21.521 -12.564  1.00  0.00     0.039 C 
ATOM     10  G   UNL     1      18.203  19.631 -11.076  1.00  0.00     0.000 G0
ENDBRANCH   6   7
ENDBRANCH   5   6
ENDBRANCH   3   5
ENDBRANCH   1   3
BRANCH   1  11
ATOM     11  C   UNL     1      19.935  16.122 -12.004  1.00  0.00     0.087 C 
BRANCH  11  12
ATOM     12  C   UNL     1      19.862  17.673 -11.899  1.00  0.00     0.066 C 
BRANCH  12  13
ATOM     13  C   UNL     1      18.705  18.198 -11.054  1.00  0.00     0.140 C 
ATOM     14  O   UNL     1      18.086  17.396 -10.365  1.00  0.00    -0.299 OA
BRANCH  13  15
ATOM     15  C   UNL     1      18.243  19.637 -11.080  1.00  0.00     0.106 CG0
ATOM     16  G   UNL     1      18.368  20.251 -12.466  1.00  0.00     0.000 G0
ENDBRANCH  13  15
ENDBRANCH  12  13
BRANCH  12  17
ATOM     17  C   UNL     1      21.233  18.407 -11.726  1.00  0.00    -0.006 C 
ATOM     18  C   UNL     1      21.573  19.451 -12.798  1.00  0.00     0.008 C 
ATOM     19  C   UNL     1      22.394  17.413 -11.559  1.00  0.00     0.008 C 
ENDBRANCH  12  17
ENDBRANCH  11  12
ENDBRANCH   1  11
TORSDOF 1
ENDMDL
