MODEL 1
REMARK VINA RESULT:    -7.401      0.000      0.000
REMARK INTER + INTRA:          -9.750
REMARK INTER:                  -9.348
REMARK INTRA:                  -0.402
REMARK UNBOUND:                -0.402
REMARK SMILES Oc1cc(O)cc(CCc2ccccc2O)c1
REMARK SMILES IDX 9 1 10 2 12 3 13 4 11 5 14 6 15 7 16 8 8 10 7 11 6 12 17 13
REMARK SMILES IDX 4 14 2 15 3 16 5 17 1 19
REMARK H PARENT 16 9 5 18 1 20
REMARK Flexibility Score: inf
ROOT
ATOM      1  C   UNL     1     -10.415  -1.677  -9.942  1.00  0.00     0.044 C 
ENDROOT
BRANCH   1   2
ATOM      2  C   UNL     1     -11.684  -0.860 -10.015  1.00  0.00    -0.006 A 
ATOM      3  C   UNL     1     -13.970  -0.623 -10.815  1.00  0.00     0.001 A 
ATOM      4  C   UNL     1     -14.034   0.659 -10.265  1.00  0.00     0.004 A 
ATOM      5  C   UNL     1     -12.801  -1.378 -10.694  1.00  0.00     0.007 A 
ATOM      6  C   UNL     1     -12.928   1.190  -9.597  1.00  0.00     0.046 A 
ATOM      7  C   UNL     1     -11.750   0.440  -9.470  1.00  0.00     0.118 A 
BRANCH   7   8
ATOM      8  O   UNL     1     -10.647   0.984  -8.814  1.00  0.00    -0.508 OA
ATOM      9  H   UNL     1     -10.295   1.906  -9.041  1.00  0.00     0.293 HD
ENDBRANCH   7   8
ENDBRANCH   1   2
BRANCH   1  10
ATOM     10  C   UNL     1     -10.137  -2.175  -8.517  1.00  0.00     0.040 C 
BRANCH  10  11
ATOM     11  C   UNL     1     -10.238  -3.676  -8.419  1.00  0.00    -0.040 A 
ATOM     12  C   UNL     1     -10.864  -4.409  -9.439  1.00  0.00     0.050 A 
ATOM     13  C   UNL     1      -9.766  -4.346  -7.279  1.00  0.00     0.050 A 
ATOM     14  C   UNL     1     -11.007  -5.799  -9.327  1.00  0.00     0.119 A 
ATOM     15  C   UNL     1      -9.910  -5.735  -7.164  1.00  0.00     0.119 A 
ATOM     16  C   UNL     1     -10.528  -6.458  -8.190  1.00  0.00     0.092 A 
BRANCH  14  17
ATOM     17  O   UNL     1     -11.626  -6.533 -10.336  1.00  0.00    -0.508 OA
ATOM     18  H   UNL     1     -11.929  -6.096 -11.198  1.00  0.00     0.293 HD
ENDBRANCH  14  17
BRANCH  15  19
ATOM     19  O   UNL     1      -9.449  -6.405  -6.033  1.00  0.00    -0.508 OA
ATOM     20  H   UNL     1      -9.231  -7.395  -6.057  1.00  0.00     0.293 HD
ENDBRANCH  15  19
ENDBRANCH  10  11
ENDBRANCH   1  10
TORSDOF 6
ENDMDL
MODEL 2
REMARK VINA RESULT:    -7.398      0.048      2.031
REMARK INTER + INTRA:          -9.746
REMARK INTER:                  -9.354
REMARK INTRA:                  -0.392
REMARK UNBOUND:                -0.402
REMARK SMILES Oc1cc(O)cc(CCc2ccccc2O)c1
REMARK SMILES IDX 9 1 10 2 12 3 13 4 11 5 14 6 15 7 16 8 8 10 7 11 6 12 17 13
REMARK SMILES IDX 4 14 2 15 3 16 5 17 1 19
REMARK H PARENT 16 9 5 18 1 20
REMARK Flexibility Score: inf
ROOT
ATOM      1  C   UNL     1     -10.404  -1.678  -9.928  1.00  0.00     0.044 C 
ENDROOT
BRANCH   1   2
ATOM      2  C   UNL     1     -11.663  -0.846  -9.996  1.00  0.00    -0.006 A 
ATOM      3  C   UNL     1     -13.951  -0.582 -10.780  1.00  0.00     0.001 A 
ATOM      4  C   UNL     1     -13.996   0.702 -10.235  1.00  0.00     0.004 A 
ATOM      5  C   UNL     1     -12.791  -1.352 -10.665  1.00  0.00     0.007 A 
ATOM      6  C   UNL     1     -12.879   1.222  -9.576  1.00  0.00     0.046 A 
ATOM      7  C   UNL     1     -11.709   0.457  -9.455  1.00  0.00     0.118 A 
BRANCH   7   8
ATOM      8  O   UNL     1     -10.595   0.990  -8.808  1.00  0.00    -0.508 OA
ATOM      9  H   UNL     1      -9.747   1.219  -9.312  1.00  0.00     0.293 HD
ENDBRANCH   7   8
ENDBRANCH   1   2
BRANCH   1  10
ATOM     10  C   UNL     1     -10.113  -2.159  -8.500  1.00  0.00     0.040 C 
BRANCH  10  11
ATOM     11  C   UNL     1     -10.288  -3.650  -8.366  1.00  0.00    -0.040 A 
ATOM     12  C   UNL     1      -9.792  -4.320  -7.237  1.00  0.00     0.050 A 
ATOM     13  C   UNL     1     -10.890  -4.390  -9.397  1.00  0.00     0.050 A 
ATOM     14  C   UNL     1      -9.906  -5.714  -7.134  1.00  0.00     0.119 A 
ATOM     15  C   UNL     1     -11.003  -5.783  -9.297  1.00  0.00     0.119 A 
ATOM     16  C   UNL     1     -10.512  -6.440  -8.164  1.00  0.00     0.092 A 
BRANCH  14  17
ATOM     17  O   UNL     1      -9.416  -6.385  -6.016  1.00  0.00    -0.508 OA
ATOM     18  H   UNL     1      -9.045  -5.884  -5.218  1.00  0.00     0.293 HD
ENDBRANCH  14  17
BRANCH  15  19
ATOM     19  O   UNL     1     -11.594  -6.522 -10.318  1.00  0.00    -0.508 OA
ATOM     20  H   UNL     1     -11.437  -6.298 -11.294  1.00  0.00     0.293 HD
ENDBRANCH  15  19
ENDBRANCH  10  11
ENDBRANCH   1  10
TORSDOF 6
ENDMDL
MODEL 3
REMARK VINA RESULT:    -7.306      1.198      2.631
REMARK INTER + INTRA:          -9.630
REMARK INTER:                  -9.194
REMARK INTRA:                  -0.436
REMARK UNBOUND:                -0.402
REMARK SMILES Oc1cc(O)cc(CCc2ccccc2O)c1
REMARK SMILES IDX 9 1 10 2 12 3 13 4 11 5 14 6 15 7 16 8 8 10 7 11 6 12 17 13
REMARK SMILES IDX 4 14 2 15 3 16 5 17 1 19
REMARK H PARENT 16 9 5 18 1 20
REMARK Flexibility Score: inf
ROOT
ATOM      1  C   UNL     1     -10.430  -1.374 -10.080  1.00  0.00     0.044 C 
ENDROOT
BRANCH   1   2
ATOM      2  C   UNL     1     -11.696  -0.552 -10.131  1.00  0.00    -0.006 A 
ATOM      3  C   UNL     1     -12.863   1.517  -9.608  1.00  0.00     0.001 A 
ATOM      4  C   UNL     1     -14.050   0.981 -10.112  1.00  0.00     0.004 A 
ATOM      5  C   UNL     1     -11.693   0.755  -9.614  1.00  0.00     0.007 A 
ATOM      6  C   UNL     1     -14.070  -0.320 -10.619  1.00  0.00     0.046 A 
ATOM      7  C   UNL     1     -12.900  -1.094 -10.630  1.00  0.00     0.118 A 
BRANCH   7   8
ATOM      8  O   UNL     1     -12.934  -2.397 -11.125  1.00  0.00    -0.508 OA
ATOM      9  H   UNL     1     -13.746  -2.761 -11.608  1.00  0.00     0.293 HD
ENDBRANCH   7   8
ENDBRANCH   1   2
BRANCH   1  10
ATOM     10  C   UNL     1     -10.080  -1.797  -8.646  1.00  0.00     0.040 C 
BRANCH  10  11
ATOM     11  C   UNL     1     -10.247  -3.281  -8.444  1.00  0.00    -0.040 A 
ATOM     12  C   UNL     1      -9.808  -3.885  -7.256  1.00  0.00     0.050 A 
ATOM     13  C   UNL     1     -10.782  -4.081  -9.467  1.00  0.00     0.050 A 
ATOM     14  C   UNL     1      -9.913  -5.273  -7.086  1.00  0.00     0.119 A 
ATOM     15  C   UNL     1     -10.885  -5.468  -9.300  1.00  0.00     0.119 A 
ATOM     16  C   UNL     1     -10.453  -6.060  -8.109  1.00  0.00     0.092 A 
BRANCH  14  17
ATOM     17  O   UNL     1      -9.481  -5.879  -5.908  1.00  0.00    -0.508 OA
ATOM     18  H   UNL     1      -8.663  -6.476  -5.890  1.00  0.00     0.293 HD
ENDBRANCH  14  17
BRANCH  15  19
ATOM     19  O   UNL     1     -11.410  -6.268 -10.312  1.00  0.00    -0.508 OA
ATOM     20  H   UNL     1     -11.846  -5.864 -11.134  1.00  0.00     0.293 HD
ENDBRANCH  15  19
ENDBRANCH  10  11
ENDBRANCH   1  10
TORSDOF 6
ENDMDL
MODEL 4
REMARK VINA RESULT:    -7.171      1.202      1.674
REMARK INTER + INTRA:          -9.460
REMARK INTER:                  -8.979
REMARK INTRA:                  -0.480
REMARK UNBOUND:                -0.402
REMARK SMILES Oc1cc(O)cc(CCc2ccccc2O)c1
REMARK SMILES IDX 9 1 10 2 12 3 13 4 11 5 14 6 15 7 16 8 8 10 7 11 6 12 17 13
REMARK SMILES IDX 4 14 2 15 3 16 5 17 1 19
REMARK H PARENT 16 9 5 18 1 20
REMARK Flexibility Score: inf
ROOT
ATOM      1  C   UNL     1     -10.433  -1.881 -10.000  1.00  0.00     0.044 C 
ENDROOT
BRANCH   1   2
ATOM      2  C   UNL     1     -11.600  -0.923 -10.046  1.00  0.00    -0.006 A 
ATOM      3  C   UNL     1     -12.515   1.276  -9.551  1.00  0.00     0.001 A 
ATOM      4  C   UNL     1     -13.766   0.866 -10.017  1.00  0.00     0.004 A 
ATOM      5  C   UNL     1     -11.438   0.387  -9.562  1.00  0.00     0.007 A 
ATOM      6  C   UNL     1     -13.943  -0.436 -10.491  1.00  0.00     0.046 A 
ATOM      7  C   UNL     1     -12.868  -1.336 -10.507  1.00  0.00     0.118 A 
BRANCH   7   8
ATOM      8  O   UNL     1     -13.060  -2.638 -10.969  1.00  0.00    -0.508 OA
ATOM      9  H   UNL     1     -13.942  -2.937 -11.367  1.00  0.00     0.293 HD
ENDBRANCH   7   8
ENDBRANCH   1   2
BRANCH   1  10
ATOM     10  C   UNL     1     -10.132  -2.348  -8.569  1.00  0.00     0.040 C 
BRANCH  10  11
ATOM     11  C   UNL     1     -10.229  -3.847  -8.438  1.00  0.00    -0.040 A 
ATOM     12  C   UNL     1     -10.864  -4.603  -9.435  1.00  0.00     0.050 A 
ATOM     13  C   UNL     1      -9.744  -4.491  -7.288  1.00  0.00     0.050 A 
ATOM     14  C   UNL     1     -11.003  -5.990  -9.291  1.00  0.00     0.119 A 
ATOM     15  C   UNL     1      -9.884  -5.877  -7.141  1.00  0.00     0.119 A 
ATOM     16  C   UNL     1     -10.511  -6.623  -8.144  1.00  0.00     0.092 A 
BRANCH  14  17
ATOM     17  O   UNL     1     -11.631  -6.747 -10.277  1.00  0.00    -0.508 OA
ATOM     18  H   UNL     1     -12.323  -7.449 -10.045  1.00  0.00     0.293 HD
ENDBRANCH  14  17
BRANCH  15  19
ATOM     19  O   UNL     1      -9.410  -6.522  -6.001  1.00  0.00    -0.508 OA
ATOM     20  H   UNL     1      -9.287  -6.027  -5.125  1.00  0.00     0.293 HD
ENDBRANCH  15  19
ENDBRANCH  10  11
ENDBRANCH   1  10
TORSDOF 6
ENDMDL
MODEL 5
REMARK VINA RESULT:    -7.152      1.591      2.036
REMARK INTER + INTRA:          -9.435
REMARK INTER:                  -9.061
REMARK INTRA:                  -0.374
REMARK UNBOUND:                -0.402
REMARK SMILES Oc1cc(O)cc(CCc2ccccc2O)c1
REMARK SMILES IDX 9 1 10 2 12 3 13 4 11 5 14 6 15 7 16 8 8 10 7 11 6 12 17 13
REMARK SMILES IDX 4 14 2 15 3 16 5 17 1 19
REMARK H PARENT 16 9 5 18 1 20
REMARK Flexibility Score: inf
ROOT
ATOM      1  C   UNL     1     -12.091  -1.829 -10.721  1.00  0.00     0.044 C 
ENDROOT
BRANCH   1   2
ATOM      2  C   UNL     1     -12.588  -0.485 -10.245  1.00  0.00    -0.006 A 
ATOM      3  C   UNL     1     -14.417   1.103 -10.018  1.00  0.00     0.001 A 
ATOM      4  C   UNL     1     -13.542   2.041  -9.467  1.00  0.00     0.004 A 
ATOM      5  C   UNL     1     -13.944  -0.152 -10.408  1.00  0.00     0.007 A 
ATOM      6  C   UNL     1     -12.190   1.727  -9.308  1.00  0.00     0.046 A 
ATOM      7  C   UNL     1     -11.705   0.470  -9.697  1.00  0.00     0.118 A 
BRANCH   7   8
ATOM      8  O   UNL     1     -10.351   0.172  -9.548  1.00  0.00    -0.508 OA
ATOM      9  H   UNL     1      -9.734   0.085 -10.346  1.00  0.00     0.293 HD
ENDBRANCH   7   8
ENDBRANCH   1   2
BRANCH   1  10
ATOM     10  C   UNL     1     -12.397  -2.943  -9.709  1.00  0.00     0.040 C 
BRANCH  10  11
ATOM     11  C   UNL     1     -11.144  -3.650  -9.261  1.00  0.00    -0.040 A 
ATOM     12  C   UNL     1     -11.131  -5.047  -9.127  1.00  0.00     0.050 A 
ATOM     13  C   UNL     1     -10.000  -2.914  -8.911  1.00  0.00     0.050 A 
ATOM     14  C   UNL     1      -9.984  -5.704  -8.659  1.00  0.00     0.119 A 
ATOM     15  C   UNL     1      -8.853  -3.568  -8.441  1.00  0.00     0.119 A 
ATOM     16  C   UNL     1      -8.848  -4.962  -8.319  1.00  0.00     0.092 A 
BRANCH  14  17
ATOM     17  O   UNL     1      -9.965  -7.090  -8.525  1.00  0.00    -0.508 OA
ATOM     18  H   UNL     1     -10.178  -7.540  -7.643  1.00  0.00     0.293 HD
ENDBRANCH  14  17
BRANCH  15  19
ATOM     19  O   UNL     1      -7.718  -2.844  -8.087  1.00  0.00    -0.508 OA
ATOM     20  H   UNL     1      -7.496  -1.958  -8.527  1.00  0.00     0.293 HD
ENDBRANCH  15  19
ENDBRANCH  10  11
ENDBRANCH   1  10
TORSDOF 6
ENDMDL
MODEL 6
REMARK VINA RESULT:    -7.144      1.593      2.312
REMARK INTER + INTRA:          -9.425
REMARK INTER:                  -9.007
REMARK INTRA:                  -0.417
REMARK UNBOUND:                -0.402
REMARK SMILES Oc1cc(O)cc(CCc2ccccc2O)c1
REMARK SMILES IDX 9 1 10 2 12 3 13 4 11 5 14 6 15 7 16 8 8 10 7 11 6 12 17 13
REMARK SMILES IDX 4 14 2 15 3 16 5 17 1 19
REMARK H PARENT 16 9 5 18 1 20
REMARK Flexibility Score: inf
ROOT
ATOM      1  C   UNL     1     -12.023  -1.872 -10.694  1.00  0.00     0.044 C 
ENDROOT
BRANCH   1   2
ATOM      2  C   UNL     1     -12.565  -0.542 -10.225  1.00  0.00    -0.006 A 
ATOM      3  C   UNL     1     -14.448   0.983 -10.001  1.00  0.00     0.001 A 
ATOM      4  C   UNL     1     -13.603   1.954  -9.461  1.00  0.00     0.004 A 
ATOM      5  C   UNL     1     -13.933  -0.258 -10.384  1.00  0.00     0.007 A 
ATOM      6  C   UNL     1     -12.240   1.689  -9.307  1.00  0.00     0.046 A 
ATOM      7  C   UNL     1     -11.713   0.447  -9.688  1.00  0.00     0.118 A 
BRANCH   7   8
ATOM      8  O   UNL     1     -10.349   0.197  -9.544  1.00  0.00    -0.508 OA
ATOM      9  H   UNL     1      -9.704   0.922  -9.254  1.00  0.00     0.293 HD
ENDBRANCH   7   8
ENDBRANCH   1   2
BRANCH   1  10
ATOM     10  C   UNL     1     -12.382  -3.008  -9.726  1.00  0.00     0.040 C 
BRANCH  10  11
ATOM     11  C   UNL     1     -11.151  -3.693  -9.188  1.00  0.00    -0.040 A 
ATOM     12  C   UNL     1     -10.013  -2.942  -8.857  1.00  0.00     0.050 A 
ATOM     13  C   UNL     1     -11.109  -5.093  -9.076  1.00  0.00     0.050 A 
ATOM     14  C   UNL     1      -8.849  -3.580  -8.407  1.00  0.00     0.119 A 
ATOM     15  C   UNL     1      -9.946  -5.732  -8.629  1.00  0.00     0.119 A 
ATOM     16  C   UNL     1      -8.820  -4.974  -8.293  1.00  0.00     0.092 A 
BRANCH  14  17
ATOM     17  O   UNL     1      -7.716  -2.840  -8.075  1.00  0.00    -0.508 OA
ATOM     18  H   UNL     1      -7.780  -1.863  -7.817  1.00  0.00     0.293 HD
ENDBRANCH  14  17
BRANCH  15  19
ATOM     19  O   UNL     1      -9.896  -7.120  -8.520  1.00  0.00    -0.508 OA
ATOM     20  H   UNL     1     -10.450  -7.719  -9.122  1.00  0.00     0.293 HD
ENDBRANCH  15  19
ENDBRANCH  10  11
ENDBRANCH   1  10
TORSDOF 6
ENDMDL
MODEL 7
REMARK VINA RESULT:    -6.759      1.530      6.404
REMARK INTER + INTRA:          -8.939
REMARK INTER:                  -8.383
REMARK INTRA:                  -0.555
REMARK UNBOUND:                -0.402
REMARK SMILES Oc1cc(O)cc(CCc2ccccc2O)c1
REMARK SMILES IDX 9 1 10 2 12 3 13 4 11 5 14 6 15 7 16 8 8 10 7 11 6 12 17 13
REMARK SMILES IDX 4 14 2 15 3 16 5 17 1 19
REMARK H PARENT 16 9 5 18 1 20
REMARK Flexibility Score: inf
ROOT
ATOM      1  C   UNL     1     -10.421  -3.649  -9.944  1.00  0.00     0.044 C 
ENDROOT
BRANCH   1   2
ATOM      2  C   UNL     1     -10.591  -4.505  -8.711  1.00  0.00    -0.006 A 
ATOM      3  C   UNL     1     -10.262  -4.808  -6.319  1.00  0.00     0.001 A 
ATOM      4  C   UNL     1     -10.793  -6.097  -6.404  1.00  0.00     0.004 A 
ATOM      5  C   UNL     1     -10.158  -4.017  -7.466  1.00  0.00     0.007 A 
ATOM      6  C   UNL     1     -11.217  -6.599  -7.637  1.00  0.00     0.046 A 
ATOM      7  C   UNL     1     -11.118  -5.812  -8.794  1.00  0.00     0.118 A 
BRANCH   7   8
ATOM      8  O   UNL     1     -11.531  -6.328 -10.022  1.00  0.00    -0.508 OA
ATOM      9  H   UNL     1     -12.495  -6.588 -10.192  1.00  0.00     0.293 HD
ENDBRANCH   7   8
ENDBRANCH   1   2
BRANCH   1  10
ATOM     10  C   UNL     1     -10.041  -2.205  -9.589  1.00  0.00     0.040 C 
BRANCH  10  11
ATOM     11  C   UNL     1     -11.183  -1.251  -9.828  1.00  0.00    -0.040 A 
ATOM     12  C   UNL     1     -11.056   0.103  -9.485  1.00  0.00     0.050 A 
ATOM     13  C   UNL     1     -12.406  -1.722 -10.335  1.00  0.00     0.050 A 
ATOM     14  C   UNL     1     -12.134   0.982  -9.656  1.00  0.00     0.119 A 
ATOM     15  C   UNL     1     -13.486  -0.845 -10.504  1.00  0.00     0.119 A 
ATOM     16  C   UNL     1     -13.346   0.505 -10.167  1.00  0.00     0.092 A 
BRANCH  14  17
ATOM     17  O   UNL     1     -12.013   2.328  -9.318  1.00  0.00    -0.508 OA
ATOM     18  H   UNL     1     -12.391   3.058  -9.910  1.00  0.00     0.293 HD
ENDBRANCH  14  17
BRANCH  15  19
ATOM     19  O   UNL     1     -14.703  -1.305 -11.001  1.00  0.00    -0.508 OA
ATOM     20  H   UNL     1     -15.063  -2.221 -10.756  1.00  0.00     0.293 HD
ENDBRANCH  15  19
ENDBRANCH  10  11
ENDBRANCH   1  10
TORSDOF 6
ENDMDL
MODEL 8
REMARK VINA RESULT:    -6.715      1.543      6.152
REMARK INTER + INTRA:          -8.883
REMARK INTER:                  -8.340
REMARK INTRA:                  -0.544
REMARK UNBOUND:                -0.402
REMARK SMILES Oc1cc(O)cc(CCc2ccccc2O)c1
REMARK SMILES IDX 9 1 10 2 12 3 13 4 11 5 14 6 15 7 16 8 8 10 7 11 6 12 17 13
REMARK SMILES IDX 4 14 2 15 3 16 5 17 1 19
REMARK H PARENT 16 9 5 18 1 20
REMARK Flexibility Score: inf
ROOT
ATOM      1  C   UNL     1     -10.202  -3.606  -9.927  1.00  0.00     0.044 C 
ENDROOT
BRANCH   1   2
ATOM      2  C   UNL     1     -10.463  -4.422  -8.683  1.00  0.00    -0.006 A 
ATOM      3  C   UNL     1     -10.260  -4.674  -6.272  1.00  0.00     0.001 A 
ATOM      4  C   UNL     1     -10.835  -5.943  -6.351  1.00  0.00     0.004 A 
ATOM      5  C   UNL     1     -10.072  -3.917  -7.431  1.00  0.00     0.007 A 
ATOM      6  C   UNL     1     -11.218  -6.462  -7.590  1.00  0.00     0.046 A 
ATOM      7  C   UNL     1     -11.034  -5.711  -8.759  1.00  0.00     0.118 A 
BRANCH   7   8
ATOM      8  O   UNL     1     -11.407  -6.243  -9.993  1.00  0.00    -0.508 OA
ATOM      9  H   UNL     1     -12.133  -5.819 -10.557  1.00  0.00     0.293 HD
ENDBRANCH   7   8
ENDBRANCH   1   2
BRANCH   1  10
ATOM     10  C   UNL     1      -9.866  -2.146  -9.593  1.00  0.00     0.040 C 
BRANCH  10  11
ATOM     11  C   UNL     1     -11.060  -1.243  -9.771  1.00  0.00    -0.040 A 
ATOM     12  C   UNL     1     -12.246  -1.743 -10.329  1.00  0.00     0.050 A 
ATOM     13  C   UNL     1     -10.975   0.120  -9.440  1.00  0.00     0.050 A 
ATOM     14  C   UNL     1     -13.341  -0.894 -10.545  1.00  0.00     0.119 A 
ATOM     15  C   UNL     1     -12.067   0.970  -9.658  1.00  0.00     0.119 A 
ATOM     16  C   UNL     1     -13.248   0.460 -10.207  1.00  0.00     0.092 A 
BRANCH  14  17
ATOM     17  O   UNL     1     -14.522  -1.384 -11.098  1.00  0.00    -0.508 OA
ATOM     18  H   UNL     1     -14.795  -1.159 -12.046  1.00  0.00     0.293 HD
ENDBRANCH  14  17
BRANCH  15  19
ATOM     19  O   UNL     1     -11.988   2.323  -9.337  1.00  0.00    -0.508 OA
ATOM     20  H   UNL     1     -12.774   2.948  -9.476  1.00  0.00     0.293 HD
ENDBRANCH  15  19
ENDBRANCH  10  11
ENDBRANCH   1  10
TORSDOF 6
ENDMDL
MODEL 9
REMARK VINA RESULT:    -6.641      1.613      6.421
REMARK INTER + INTRA:          -8.790
REMARK INTER:                  -8.256
REMARK INTRA:                  -0.534
REMARK UNBOUND:                -0.402
REMARK SMILES Oc1cc(O)cc(CCc2ccccc2O)c1
REMARK SMILES IDX 9 1 10 2 12 3 13 4 11 5 14 6 15 7 16 8 8 10 7 11 6 12 17 13
REMARK SMILES IDX 4 14 2 15 3 16 5 17 1 19
REMARK H PARENT 16 9 5 18 1 20
REMARK Flexibility Score: inf
ROOT
ATOM      1  C   UNL     1     -10.322  -3.826  -8.291  1.00  0.00     0.044 C 
ENDROOT
BRANCH   1   2
ATOM      2  C   UNL     1     -10.584  -5.312  -8.368  1.00  0.00    -0.006 A 
ATOM      3  C   UNL     1     -11.661  -7.187  -9.483  1.00  0.00     0.001 A 
ATOM      4  C   UNL     1     -11.183  -8.054  -8.499  1.00  0.00     0.004 A 
ATOM      5  C   UNL     1     -11.366  -5.823  -9.418  1.00  0.00     0.007 A 
ATOM      6  C   UNL     1     -10.413  -7.558  -7.444  1.00  0.00     0.046 A 
ATOM      7  C   UNL     1     -10.112  -6.190  -7.369  1.00  0.00     0.118 A 
BRANCH   7   8
ATOM      8  O   UNL     1      -9.355  -5.703  -6.304  1.00  0.00    -0.508 OA
ATOM      9  H   UNL     1      -9.309  -6.191  -5.418  1.00  0.00     0.293 HD
ENDBRANCH   7   8
ENDBRANCH   1   2
BRANCH   1  10
ATOM     10  C   UNL     1     -10.209  -3.194  -9.686  1.00  0.00     0.040 C 
BRANCH  10  11
ATOM     11  C   UNL     1     -11.182  -2.056  -9.864  1.00  0.00    -0.040 A 
ATOM     12  C   UNL     1     -10.810  -0.748  -9.517  1.00  0.00     0.050 A 
ATOM     13  C   UNL     1     -12.489  -2.303 -10.315  1.00  0.00     0.050 A 
ATOM     14  C   UNL     1     -11.729   0.304  -9.631  1.00  0.00     0.119 A 
ATOM     15  C   UNL     1     -13.410  -1.253 -10.428  1.00  0.00     0.119 A 
ATOM     16  C   UNL     1     -13.026   0.048 -10.087  1.00  0.00     0.092 A 
BRANCH  14  17
ATOM     17  O   UNL     1     -11.365   1.605  -9.289  1.00  0.00    -0.508 OA
ATOM     18  H   UNL     1     -12.033   2.254  -8.893  1.00  0.00     0.293 HD
ENDBRANCH  14  17
BRANCH  15  19
ATOM     19  O   UNL     1     -14.708  -1.492 -10.870  1.00  0.00    -0.508 OA
ATOM     20  H   UNL     1     -14.952  -1.437 -11.853  1.00  0.00     0.293 HD
ENDBRANCH  15  19
ENDBRANCH  10  11
ENDBRANCH   1  10
TORSDOF 6
ENDMDL
