MODEL 1
REMARK VINA RESULT:    -4.865      0.000      0.000
REMARK INTER + INTRA:          -5.656
REMARK INTER:                  -5.861
REMARK INTRA:                   0.205
REMARK UNBOUND:                 0.205
REMARK SMILES O=c1c(O)c(-c2ccc(O)c(O)c2)oc2cc(O)cc(O)c12
REMARK SMILES IDX 5 1 3 2 2 3 1 4 22 5 20 6 19 7 17 8 16 9 15 10 14 11 6 12
REMARK SMILES IDX 7 13 8 14 9 15 13 16 11 17 10 18 12 20 4 22 21 24 18 26
REMARK H PARENT 10 19 12 21 4 23 21 25 18 27
REMARK Flexibility Score: inf
ROOT
ATOM      1  C   UNL     1     -53.993  37.479  27.917  1.00  0.00     0.180 A 
ATOM      2  C   UNL     1     -54.531  37.091  26.674  1.00  0.00     0.208 A 
ATOM      3  C   UNL     1     -54.511  35.731  26.321  1.00  0.00     0.238 A 
ATOM      4  O   UNL     1     -55.000  35.371  25.217  1.00  0.00    -0.285 OA
ATOM      5  C   UNL     1     -53.938  34.791  27.202  1.00  0.00     0.111 A 
ATOM      6  C   UNL     1     -53.875  33.405  26.920  1.00  0.00     0.134 A 
ATOM      7  C   UNL     1     -53.281  32.534  27.845  1.00  0.00     0.093 A 
ATOM      8  C   UNL     1     -52.748  33.022  29.043  1.00  0.00     0.123 A 
ATOM      9  C   UNL     1     -52.809  34.387  29.325  1.00  0.00     0.094 A 
ATOM     10  C   UNL     1     -53.399  35.272  28.418  1.00  0.00     0.146 A 
ATOM     11  O   UNL     1     -53.447  36.566  28.715  1.00  0.00    -0.452 OA
ENDROOT
BRANCH   1  12
ATOM     12  C   UNL     1     -53.994  38.889  28.368  1.00  0.00     0.025 A 
ATOM     13  C   UNL     1     -55.091  39.710  28.064  1.00  0.00     0.016 A 
ATOM     14  C   UNL     1     -55.104  41.049  28.463  1.00  0.00     0.051 A 
ATOM     15  C   UNL     1     -54.015  41.591  29.156  1.00  0.00     0.157 A 
ATOM     16  C   UNL     1     -52.893  39.441  29.046  1.00  0.00     0.062 A 
ATOM     17  C   UNL     1     -52.902  40.783  29.446  1.00  0.00     0.158 A 
BRANCH  15  18
ATOM     18  O   UNL     1     -54.033  42.927  29.554  1.00  0.00    -0.504 OA
ATOM     19  H   UNL     1     -54.513  43.637  29.013  1.00  0.00     0.293 HD
ENDBRANCH  15  18
BRANCH  17  20
ATOM     20  O   UNL     1     -51.796  41.297  30.121  1.00  0.00    -0.504 OA
ATOM     21  H   UNL     1     -51.634  41.116  31.105  1.00  0.00     0.293 HD
ENDBRANCH  17  20
ENDBRANCH   1  12
BRANCH   2  22
ATOM     22  O   UNL     1     -55.048  38.049  25.799  1.00  0.00    -0.502 OA
ATOM     23  H   UNL     1     -54.668  38.196  24.871  1.00  0.00     0.293 HD
ENDBRANCH   2  22
BRANCH   6  24
ATOM     24  O   UNL     1     -54.397  32.889  25.733  1.00  0.00    -0.507 OA
ATOM     25  H   UNL     1     -54.978  33.448  25.118  1.00  0.00     0.293 HD
ENDBRANCH   6  24
BRANCH   8  26
ATOM     26  O   UNL     1     -52.156  32.156  29.961  1.00  0.00    -0.508 OA
ATOM     27  H   UNL     1     -51.157  32.161  30.126  1.00  0.00     0.293 HD
ENDBRANCH   8  26
TORSDOF 6
ENDMDL
MODEL 2
REMARK VINA RESULT:    -4.161      3.743      9.471
REMARK INTER + INTRA:          -4.807
REMARK INTER:                  -5.253
REMARK INTRA:                   0.446
REMARK UNBOUND:                 0.205
REMARK SMILES O=c1c(O)c(-c2ccc(O)c(O)c2)oc2cc(O)cc(O)c12
REMARK SMILES IDX 5 1 3 2 2 3 1 4 22 5 20 6 19 7 17 8 16 9 15 10 14 11 6 12
REMARK SMILES IDX 7 13 8 14 9 15 13 16 11 17 10 18 12 20 4 22 21 24 18 26
REMARK H PARENT 10 19 12 21 4 23 21 25 18 27
REMARK Flexibility Score: inf
ROOT
ATOM      1  C   UNL     1     -53.218  42.951  28.369  1.00  0.00     0.180 A 
ATOM      2  C   UNL     1     -52.164  43.549  29.087  1.00  0.00     0.208 A 
ATOM      3  C   UNL     1     -51.907  44.917  28.902  1.00  0.00     0.238 A 
ATOM      4  O   UNL     1     -50.974  45.465  29.548  1.00  0.00    -0.285 OA
ATOM      5  C   UNL     1     -52.689  45.656  27.990  1.00  0.00     0.111 A 
ATOM      6  C   UNL     1     -52.493  47.036  27.743  1.00  0.00     0.134 A 
ATOM      7  C   UNL     1     -53.308  47.698  26.814  1.00  0.00     0.093 A 
ATOM      8  C   UNL     1     -54.314  47.008  26.128  1.00  0.00     0.123 A 
ATOM      9  C   UNL     1     -54.512  45.648  26.370  1.00  0.00     0.094 A 
ATOM     10  C   UNL     1     -53.711  44.969  27.294  1.00  0.00     0.146 A 
ATOM     11  O   UNL     1     -53.925  43.676  27.507  1.00  0.00    -0.452 OA
ENDROOT
BRANCH   1  12
ATOM     12  C   UNL     1     -53.563  41.519  28.525  1.00  0.00     0.025 A 
ATOM     13  C   UNL     1     -54.768  41.039  27.990  1.00  0.00     0.016 A 
ATOM     14  C   UNL     1     -55.124  39.696  28.143  1.00  0.00     0.051 A 
ATOM     15  C   UNL     1     -54.288  38.818  28.846  1.00  0.00     0.157 A 
ATOM     16  C   UNL     1     -52.737  40.641  29.248  1.00  0.00     0.062 A 
ATOM     17  C   UNL     1     -53.090  39.296  29.405  1.00  0.00     0.158 A 
BRANCH  15  18
ATOM     18  O   UNL     1     -54.645  37.479  28.994  1.00  0.00    -0.504 OA
ATOM     19  H   UNL     1     -54.530  36.812  28.240  1.00  0.00     0.293 HD
ENDBRANCH  15  18
BRANCH  17  20
ATOM     20  O   UNL     1     -52.245  38.452  30.123  1.00  0.00    -0.504 OA
ATOM     21  H   UNL     1     -51.407  38.791  30.581  1.00  0.00     0.293 HD
ENDBRANCH  17  20
ENDBRANCH   1  12
BRANCH   2  22
ATOM     22  O   UNL     1     -51.372  42.784  29.947  1.00  0.00    -0.502 OA
ATOM     23  H   UNL     1     -50.489  43.119  30.313  1.00  0.00     0.293 HD
ENDBRANCH   2  22
BRANCH   6  24
ATOM     24  O   UNL     1     -51.497  47.751  28.410  1.00  0.00    -0.507 OA
ATOM     25  H   UNL     1     -51.058  47.394  29.251  1.00  0.00     0.293 HD
ENDBRANCH   6  24
BRANCH   8  26
ATOM     26  O   UNL     1     -55.123  47.666  25.204  1.00  0.00    -0.508 OA
ATOM     27  H   UNL     1     -56.079  47.377  25.037  1.00  0.00     0.293 HD
ENDBRANCH   8  26
TORSDOF 6
ENDMDL
MODEL 3
REMARK VINA RESULT:    -3.961      3.345      8.750
REMARK INTER + INTRA:          -4.566
REMARK INTER:                  -4.959
REMARK INTRA:                   0.392
REMARK UNBOUND:                 0.205
REMARK SMILES O=c1c(O)c(-c2ccc(O)c(O)c2)oc2cc(O)cc(O)c12
REMARK SMILES IDX 5 1 3 2 2 3 1 4 22 5 20 6 19 7 17 8 16 9 15 10 14 11 6 12
REMARK SMILES IDX 7 13 8 14 9 15 13 16 11 17 10 18 12 20 4 22 21 24 18 26
REMARK H PARENT 10 19 12 21 4 23 21 25 18 27
REMARK Flexibility Score: inf
ROOT
ATOM      1  C   UNL     1     -53.137  42.219  28.547  1.00  0.00     0.180 A 
ATOM      2  C   UNL     1     -54.014  42.941  27.715  1.00  0.00     0.208 A 
ATOM      3  C   UNL     1     -53.768  44.306  27.491  1.00  0.00     0.238 A 
ATOM      4  O   UNL     1     -54.540  44.959  26.739  1.00  0.00    -0.285 OA
ATOM      5  C   UNL     1     -52.668  44.928  28.117  1.00  0.00     0.111 A 
ATOM      6  C   UNL     1     -52.354  46.297  27.947  1.00  0.00     0.134 A 
ATOM      7  C   UNL     1     -51.246  46.843  28.612  1.00  0.00     0.093 A 
ATOM      8  C   UNL     1     -50.448  46.048  29.442  1.00  0.00     0.123 A 
ATOM      9  C   UNL     1     -50.754  44.697  29.611  1.00  0.00     0.094 A 
ATOM     10  C   UNL     1     -51.854  44.132  28.957  1.00  0.00     0.146 A 
ATOM     11  O   UNL     1     -52.118  42.842  29.133  1.00  0.00    -0.452 OA
ENDROOT
BRANCH   1  12
ATOM     12  C   UNL     1     -53.318  40.774  28.816  1.00  0.00     0.025 A 
ATOM     13  C   UNL     1     -52.605  40.174  29.865  1.00  0.00     0.016 A 
ATOM     14  C   UNL     1     -52.745  38.808  30.124  1.00  0.00     0.051 A 
ATOM     15  C   UNL     1     -53.586  38.019  29.327  1.00  0.00     0.157 A 
ATOM     16  C   UNL     1     -54.144  39.977  28.005  1.00  0.00     0.062 A 
ATOM     17  C   UNL     1     -54.285  38.608  28.260  1.00  0.00     0.158 A 
BRANCH  15  18
ATOM     18  O   UNL     1     -53.724  36.657  29.589  1.00  0.00    -0.504 OA
ATOM     19  H   UNL     1     -54.306  36.062  29.011  1.00  0.00     0.293 HD
ENDBRANCH  15  18
BRANCH  17  20
ATOM     20  O   UNL     1     -55.118  37.848  27.440  1.00  0.00    -0.504 OA
ATOM     21  H   UNL     1     -55.080  36.836  27.422  1.00  0.00     0.293 HD
ENDBRANCH  17  20
ENDBRANCH   1  12
BRANCH   2  22
ATOM     22  O   UNL     1     -55.125  42.313  27.147  1.00  0.00    -0.502 OA
ATOM     23  H   UNL     1     -55.353  41.343  27.331  1.00  0.00     0.293 HD
ENDBRANCH   2  22
BRANCH   6  24
ATOM     24  O   UNL     1     -53.130  47.116  27.127  1.00  0.00    -0.507 OA
ATOM     25  H   UNL     1     -53.948  46.764  26.643  1.00  0.00     0.293 HD
ENDBRANCH   6  24
BRANCH   8  26
ATOM     26  O   UNL     1     -49.349  46.591  30.103  1.00  0.00    -0.508 OA
ATOM     27  H   UNL     1     -48.537  46.030  30.332  1.00  0.00     0.293 HD
ENDBRANCH   8  26
TORSDOF 6
ENDMDL
MODEL 4
REMARK VINA RESULT:    -3.945      4.378      9.669
REMARK INTER + INTRA:          -4.548
REMARK INTER:                  -5.088
REMARK INTRA:                   0.540
REMARK UNBOUND:                 0.205
REMARK SMILES O=c1c(O)c(-c2ccc(O)c(O)c2)oc2cc(O)cc(O)c12
REMARK SMILES IDX 5 1 3 2 2 3 1 4 22 5 20 6 19 7 17 8 16 9 15 10 14 11 6 12
REMARK SMILES IDX 7 13 8 14 9 15 13 16 11 17 10 18 12 20 4 22 21 24 18 26
REMARK H PARENT 10 19 12 21 4 23 21 25 18 27
REMARK Flexibility Score: inf
ROOT
ATOM      1  C   UNL     1     -53.088  43.834  28.132  1.00  0.00     0.180 A 
ATOM      2  C   UNL     1     -53.827  44.746  27.354  1.00  0.00     0.208 A 
ATOM      3  C   UNL     1     -53.368  46.069  27.240  1.00  0.00     0.238 A 
ATOM      4  O   UNL     1     -54.015  46.891  26.538  1.00  0.00    -0.285 OA
ATOM      5  C   UNL     1     -52.196  46.460  27.919  1.00  0.00     0.111 A 
ATOM      6  C   UNL     1     -51.668  47.772  27.859  1.00  0.00     0.134 A 
ATOM      7  C   UNL     1     -50.501  48.085  28.570  1.00  0.00     0.093 A 
ATOM      8  C   UNL     1     -49.852  47.113  29.340  1.00  0.00     0.123 A 
ATOM      9  C   UNL     1     -50.368  45.817  29.400  1.00  0.00     0.094 A 
ATOM     10  C   UNL     1     -51.530  45.484  28.697  1.00  0.00     0.146 A 
ATOM     11  O   UNL     1     -51.995  44.242  28.770  1.00  0.00    -0.452 OA
ENDROOT
BRANCH   1  12
ATOM     12  C   UNL     1     -53.497  42.419  28.285  1.00  0.00     0.025 A 
ATOM     13  C   UNL     1     -54.709  41.987  27.725  1.00  0.00     0.016 A 
ATOM     14  C   UNL     1     -55.124  40.661  27.875  1.00  0.00     0.051 A 
ATOM     15  C   UNL     1     -54.342  39.752  28.599  1.00  0.00     0.157 A 
ATOM     16  C   UNL     1     -52.724  41.510  29.029  1.00  0.00     0.062 A 
ATOM     17  C   UNL     1     -53.138  40.181  29.182  1.00  0.00     0.158 A 
BRANCH  15  18
ATOM     18  O   UNL     1     -54.758  38.430  28.744  1.00  0.00    -0.504 OA
ATOM     19  H   UNL     1     -54.205  37.657  28.392  1.00  0.00     0.293 HD
ENDBRANCH  15  18
BRANCH  17  20
ATOM     20  O   UNL     1     -52.344  39.306  29.922  1.00  0.00    -0.504 OA
ATOM     21  H   UNL     1     -52.722  38.471  30.355  1.00  0.00     0.293 HD
ENDBRANCH  17  20
ENDBRANCH   1  12
BRANCH   2  22
ATOM     22  O   UNL     1     -55.012  44.346  26.733  1.00  0.00    -0.502 OA
ATOM     23  H   UNL     1     -55.191  43.382  26.475  1.00  0.00     0.293 HD
ENDBRANCH   2  22
BRANCH   6  24
ATOM     24  O   UNL     1     -52.293  48.764  27.102  1.00  0.00    -0.507 OA
ATOM     25  H   UNL     1     -52.786  49.535  27.536  1.00  0.00     0.293 HD
ENDBRANCH   6  24
BRANCH   8  26
ATOM     26  O   UNL     1     -48.693  47.424  30.047  1.00  0.00    -0.508 OA
ATOM     27  H   UNL     1     -47.827  46.922  29.893  1.00  0.00     0.293 HD
ENDBRANCH   8  26
TORSDOF 6
ENDMDL
MODEL 5
REMARK VINA RESULT:    -3.926      2.053      3.330
REMARK INTER + INTRA:          -4.524
REMARK INTER:                  -5.064
REMARK INTRA:                   0.540
REMARK UNBOUND:                 0.205
REMARK SMILES O=c1c(O)c(-c2ccc(O)c(O)c2)oc2cc(O)cc(O)c12
REMARK SMILES IDX 5 1 3 2 2 3 1 4 22 5 20 6 19 7 17 8 16 9 15 10 14 11 6 12
REMARK SMILES IDX 7 13 8 14 9 15 13 16 11 17 10 18 12 20 4 22 21 24 18 26
REMARK H PARENT 10 19 12 21 4 23 21 25 18 27
REMARK Flexibility Score: inf
ROOT
ATOM      1  C   UNL     1     -53.992  34.254  27.220  1.00  0.00     0.180 A 
ATOM      2  C   UNL     1     -54.508  33.603  26.083  1.00  0.00     0.208 A 
ATOM      3  C   UNL     1     -54.368  32.209  25.977  1.00  0.00     0.238 A 
ATOM      4  O   UNL     1     -54.836  31.614  24.970  1.00  0.00    -0.285 OA
ATOM      5  C   UNL     1     -53.699  31.497  26.994  1.00  0.00     0.111 A 
ATOM      6  C   UNL     1     -53.512  30.095  26.962  1.00  0.00     0.134 A 
ATOM      7  C   UNL     1     -52.828  29.461  28.009  1.00  0.00     0.093 A 
ATOM      8  C   UNL     1     -52.327  30.201  29.085  1.00  0.00     0.123 A 
ATOM      9  C   UNL     1     -52.510  31.584  29.122  1.00  0.00     0.094 A 
ATOM     10  C   UNL     1     -53.191  32.236  28.088  1.00  0.00     0.146 A 
ATOM     11  O   UNL     1     -53.354  33.552  28.151  1.00  0.00    -0.452 OA
ENDROOT
BRANCH   1  12
ATOM     12  C   UNL     1     -54.118  35.717  27.413  1.00  0.00     0.025 A 
ATOM     13  C   UNL     1     -54.744  36.492  26.424  1.00  0.00     0.016 A 
ATOM     14  C   UNL     1     -54.856  37.877  26.576  1.00  0.00     0.051 A 
ATOM     15  C   UNL     1     -54.328  38.509  27.710  1.00  0.00     0.157 A 
ATOM     16  C   UNL     1     -53.571  36.357  28.539  1.00  0.00     0.062 A 
ATOM     17  C   UNL     1     -53.679  37.744  28.694  1.00  0.00     0.158 A 
BRANCH  15  18
ATOM     18  O   UNL     1     -54.443  39.890  27.859  1.00  0.00    -0.504 OA
ATOM     19  H   UNL     1     -53.659  40.510  27.689  1.00  0.00     0.293 HD
ENDBRANCH  15  18
BRANCH  17  20
ATOM     20  O   UNL     1     -53.130  38.344  29.826  1.00  0.00    -0.504 OA
ATOM     21  H   UNL     1     -53.702  38.648  30.606  1.00  0.00     0.293 HD
ENDBRANCH  17  20
ENDBRANCH   1  12
BRANCH   2  22
ATOM     22  O   UNL     1     -55.123  34.338  25.066  1.00  0.00    -0.502 OA
ATOM     23  H   UNL     1     -55.993  34.046  24.635  1.00  0.00     0.293 HD
ENDBRANCH   2  22
BRANCH   6  24
ATOM     24  O   UNL     1     -53.999  29.329  25.902  1.00  0.00    -0.507 OA
ATOM     25  H   UNL     1     -54.837  29.592  25.395  1.00  0.00     0.293 HD
ENDBRANCH   6  24
BRANCH   8  26
ATOM     26  O   UNL     1     -51.646  29.571  30.125  1.00  0.00    -0.508 OA
ATOM     27  H   UNL     1     -51.725  29.893  31.082  1.00  0.00     0.293 HD
ENDBRANCH   8  26
TORSDOF 6
ENDMDL
MODEL 6
REMARK VINA RESULT:    -3.716      1.623      3.505
REMARK INTER + INTRA:          -4.271
REMARK INTER:                  -4.726
REMARK INTRA:                   0.455
REMARK UNBOUND:                 0.205
REMARK SMILES O=c1c(O)c(-c2ccc(O)c(O)c2)oc2cc(O)cc(O)c12
REMARK SMILES IDX 5 1 3 2 2 3 1 4 22 5 20 6 19 7 17 8 16 9 15 10 14 11 6 12
REMARK SMILES IDX 7 13 8 14 9 15 13 16 11 17 10 18 12 20 4 22 21 24 18 26
REMARK H PARENT 10 19 12 21 4 23 21 25 18 27
REMARK Flexibility Score: inf
ROOT
ATOM      1  C   UNL     1     -53.677  35.340  28.078  1.00  0.00     0.180 A 
ATOM      2  C   UNL     1     -52.874  34.757  29.078  1.00  0.00     0.208 A 
ATOM      3  C   UNL     1     -52.618  33.377  29.022  1.00  0.00     0.238 A 
ATOM      4  O   UNL     1     -51.892  32.846  29.905  1.00  0.00    -0.285 OA
ATOM      5  C   UNL     1     -53.182  32.604  27.987  1.00  0.00     0.111 A 
ATOM      6  C   UNL     1     -52.976  31.210  27.861  1.00  0.00     0.134 A 
ATOM      7  C   UNL     1     -53.580  30.510  26.806  1.00  0.00     0.093 A 
ATOM      8  C   UNL     1     -54.385  31.177  25.876  1.00  0.00     0.123 A 
ATOM      9  C   UNL     1     -54.590  32.552  25.996  1.00  0.00     0.094 A 
ATOM     10  C   UNL     1     -53.996  33.269  27.039  1.00  0.00     0.146 A 
ATOM     11  O   UNL     1     -54.205  34.578  27.125  1.00  0.00    -0.452 OA
ENDROOT
BRANCH   1  12
ATOM     12  C   UNL     1     -53.977  36.791  28.057  1.00  0.00     0.025 A 
ATOM     13  C   UNL     1     -54.837  37.302  27.074  1.00  0.00     0.016 A 
ATOM     14  C   UNL     1     -55.118  38.670  27.023  1.00  0.00     0.051 A 
ATOM     15  C   UNL     1     -54.530  39.548  27.943  1.00  0.00     0.157 A 
ATOM     16  C   UNL     1     -53.372  37.676  28.966  1.00  0.00     0.062 A 
ATOM     17  C   UNL     1     -53.649  39.047  28.917  1.00  0.00     0.158 A 
BRANCH  15  18
ATOM     18  O   UNL     1     -54.814  40.912  27.890  1.00  0.00    -0.504 OA
ATOM     19  H   UNL     1     -54.080  41.609  27.934  1.00  0.00     0.293 HD
ENDBRANCH  15  18
BRANCH  17  20
ATOM     20  O   UNL     1     -53.037  39.896  29.837  1.00  0.00    -0.504 OA
ATOM     21  H   UNL     1     -53.205  39.823  30.834  1.00  0.00     0.293 HD
ENDBRANCH  17  20
ENDBRANCH   1  12
BRANCH   2  22
ATOM     22  O   UNL     1     -52.368  35.536  30.121  1.00  0.00    -0.502 OA
ATOM     23  H   UNL     1     -52.830  35.604  31.021  1.00  0.00     0.293 HD
ENDBRANCH   2  22
BRANCH   6  24
ATOM     24  O   UNL     1     -52.179  30.516  28.773  1.00  0.00    -0.507 OA
ATOM     25  H   UNL     1     -51.229  30.804  28.977  1.00  0.00     0.293 HD
ENDBRANCH   6  24
BRANCH   8  26
ATOM     26  O   UNL     1     -54.986  30.481  24.829  1.00  0.00    -0.508 OA
ATOM     27  H   UNL     1     -55.404  29.569  24.970  1.00  0.00     0.293 HD
ENDBRANCH   8  26
TORSDOF 6
ENDMDL
