MODEL 1
REMARK VINA RESULT:    -5.980      0.000      0.000
REMARK INTER + INTRA:          -9.873
REMARK INTER:                  -8.777
REMARK INTRA:                  -1.096
REMARK UNBOUND:                -1.096
REMARK SMILES O=c1c(O[C@@H]2O[C@H](CO)[C@@H](O)[C@H](O)[C@H]2O)c(-c2ccc(O)c(O)c2)oc2cc(O)cc(O)c12
REMARK SMILES IDX 4 1 3 2 16 3 25 4 2 5 26 6 1 7 33 8 27 9 31 10 28 11 30 12
REMARK SMILES IDX 17 13 18 14 19 15 20 16 24 17 22 18 21 19 23 21 32 23 29 25
REMARK SMILES IDX 5 27 14 28 6 29 12 30 7 31 10 32 15 33 13 35 8 37 9 38 11 40
REMARK H PARENT 21 20 23 22 32 24 29 26 15 34 13 36 9 39 11 41
REMARK Flexibility Score: inf
ROOT
ATOM      1  O   UNL     1       0.147 -19.461  -6.349  1.00  0.00    -0.454 OA
ENDROOT
BRANCH   1   2
ATOM      2  C   UNL     1      -0.174 -20.032  -7.588  1.00  0.00     0.214 A 
ATOM      3  C   UNL     1      -0.982 -19.364  -8.528  1.00  0.00     0.180 A 
ATOM      4  O   UNL     1      -1.352 -19.987  -9.638  1.00  0.00    -0.452 OA
ATOM      5  C   UNL     1       0.283 -21.320  -7.881  1.00  0.00     0.239 A 
ATOM      6  C   UNL     1      -0.972 -21.221  -9.946  1.00  0.00     0.146 A 
ATOM      7  O   UNL     1       1.022 -21.893  -7.038  1.00  0.00    -0.285 OA
ATOM      8  C   UNL     1      -0.115 -21.959  -9.086  1.00  0.00     0.111 A 
ATOM      9  C   UNL     1      -1.446 -21.782 -11.132  1.00  0.00     0.094 A 
ATOM     10  C   UNL     1       0.257 -23.284  -9.475  1.00  0.00     0.134 A 
ATOM     11  C   UNL     1      -1.094 -23.078 -11.490  1.00  0.00     0.123 A 
ATOM     12  C   UNL     1      -0.244 -23.817 -10.668  1.00  0.00     0.093 A 
BRANCH   3  13
ATOM     13  C   UNL     1      -1.441 -17.980  -8.322  1.00  0.00     0.025 A 
ATOM     14  C   UNL     1      -0.550 -16.917  -8.529  1.00  0.00     0.016 A 
ATOM     15  C   UNL     1      -0.976 -15.600  -8.347  1.00  0.00     0.051 A 
ATOM     16  C   UNL     1      -2.287 -15.332  -7.931  1.00  0.00     0.157 A 
ATOM     17  C   UNL     1      -2.754 -17.716  -7.903  1.00  0.00     0.062 A 
ATOM     18  C   UNL     1      -3.184 -16.394  -7.714  1.00  0.00     0.158 A 
BRANCH  16  19
ATOM     19  O   UNL     1      -2.672 -14.006  -7.731  1.00  0.00    -0.504 OA
ATOM     20  H   UNL     1      -2.915 -13.648  -6.815  1.00  0.00     0.293 HD
ENDBRANCH  16  19
BRANCH  18  21
ATOM     21  O   UNL     1      -4.493 -16.132  -7.312  1.00  0.00    -0.504 OA
ATOM     22  H   UNL     1      -4.909 -15.213  -7.428  1.00  0.00     0.293 HD
ENDBRANCH  18  21
ENDBRANCH   3  13
BRANCH  10  23
ATOM     23  O   UNL     1       1.098 -24.125  -8.737  1.00  0.00    -0.507 OA
ATOM     24  H   UNL     1       1.921 -23.849  -8.222  1.00  0.00     0.293 HD
ENDBRANCH  10  23
BRANCH  11  25
ATOM     25  O   UNL     1      -1.601 -23.624 -12.668  1.00  0.00    -0.508 OA
ATOM     26  H   UNL     1      -2.528 -23.390 -13.003  1.00  0.00     0.293 HD
ENDBRANCH  11  25
ENDBRANCH   1   2
BRANCH   1  27
ATOM     27  C   UNL     1       1.495 -19.247  -5.918  1.00  0.00     0.339 C 
ATOM     28  C   UNL     1       1.991 -17.849  -6.367  1.00  0.00     0.214 C 
ATOM     29  O   UNL     1       1.617 -19.503  -4.525  1.00  0.00    -0.332 OA
ATOM     30  C   UNL     1       2.939 -17.274  -5.318  1.00  0.00     0.180 C 
ATOM     31  C   UNL     1       1.312 -18.399  -3.688  1.00  0.00     0.179 C 
ATOM     32  C   UNL     1       2.200 -17.147  -3.974  1.00  0.00     0.177 C 
BRANCH  28  33
ATOM     33  O   UNL     1       2.659 -17.948  -7.600  1.00  0.00    -0.384 OA
ATOM     34  H   UNL     1       3.008 -17.042  -7.807  1.00  0.00     0.211 HD
ENDBRANCH  28  33
BRANCH  30  35
ATOM     35  O   UNL     1       3.397 -16.012  -5.736  1.00  0.00    -0.387 OA
ATOM     36  H   UNL     1       2.887 -15.337  -5.221  1.00  0.00     0.211 HD
ENDBRANCH  30  35
BRANCH  31  37
ATOM     37  C   UNL     1      -0.206 -18.105  -3.622  1.00  0.00     0.191 C 
BRANCH  37  38
ATOM     38  O   UNL     1      -0.955 -19.285  -3.502  1.00  0.00    -0.394 OA
ATOM     39  H   UNL     1      -0.375 -19.933  -3.023  1.00  0.00     0.210 HD
ENDBRANCH  37  38
ENDBRANCH  31  37
BRANCH  32  40
ATOM     40  O   UNL     1       3.155 -16.984  -2.953  1.00  0.00    -0.387 OA
ATOM     41  H   UNL     1       2.869 -16.202  -2.412  1.00  0.00     0.211 HD
ENDBRANCH  32  40
ENDBRANCH   1  27
TORSDOF 12
ENDMDL
MODEL 2
REMARK VINA RESULT:    -5.927      1.540      1.998
REMARK INTER + INTRA:          -9.795
REMARK INTER:                  -8.126
REMARK INTRA:                  -1.670
REMARK UNBOUND:                -1.096
REMARK SMILES O=c1c(O[C@@H]2O[C@H](CO)[C@@H](O)[C@H](O)[C@H]2O)c(-c2ccc(O)c(O)c2)oc2cc(O)cc(O)c12
REMARK SMILES IDX 4 1 3 2 16 3 25 4 2 5 26 6 1 7 33 8 27 9 31 10 28 11 30 12
REMARK SMILES IDX 17 13 18 14 19 15 20 16 24 17 22 18 21 19 23 21 32 23 29 25
REMARK SMILES IDX 5 27 14 28 6 29 12 30 7 31 10 32 15 33 13 35 8 37 9 38 11 40
REMARK H PARENT 21 20 23 22 32 24 29 26 15 34 13 36 9 39 11 41
REMARK Flexibility Score: inf
ROOT
ATOM      1  O   UNL     1       1.205 -18.969  -7.343  1.00  0.00    -0.454 OA
ENDROOT
BRANCH   1   2
ATOM      2  C   UNL     1       0.213 -19.635  -8.076  1.00  0.00     0.214 A 
ATOM      3  C   UNL     1      -1.082 -19.105  -8.226  1.00  0.00     0.180 A 
ATOM      4  O   UNL     1      -2.020 -19.821  -8.832  1.00  0.00    -0.452 OA
ATOM      5  C   UNL     1       0.505 -20.883  -8.636  1.00  0.00     0.239 A 
ATOM      6  C   UNL     1      -1.802 -21.024  -9.351  1.00  0.00     0.146 A 
ATOM      7  O   UNL     1       1.675 -21.330  -8.511  1.00  0.00    -0.285 OA
ATOM      8  C   UNL     1      -0.514 -21.622  -9.295  1.00  0.00     0.111 A 
ATOM      9  C   UNL     1      -2.874 -21.692  -9.942  1.00  0.00     0.094 A 
ATOM     10  C   UNL     1      -0.346 -22.919  -9.872  1.00  0.00     0.134 A 
ATOM     11  C   UNL     1      -2.703 -22.961 -10.482  1.00  0.00     0.123 A 
ATOM     12  C   UNL     1      -1.444 -23.563 -10.450  1.00  0.00     0.093 A 
BRANCH   3  13
ATOM     13  C   UNL     1      -1.443 -17.768  -7.727  1.00  0.00     0.025 A 
ATOM     14  C   UNL     1      -1.114 -16.634  -8.484  1.00  0.00     0.016 A 
ATOM     15  C   UNL     1      -1.460 -15.362  -8.027  1.00  0.00     0.051 A 
ATOM     16  C   UNL     1      -2.114 -15.205  -6.798  1.00  0.00     0.157 A 
ATOM     17  C   UNL     1      -2.096 -17.615  -6.494  1.00  0.00     0.062 A 
ATOM     18  C   UNL     1      -2.440 -16.338  -6.029  1.00  0.00     0.158 A 
BRANCH  16  19
ATOM     19  O   UNL     1      -2.420 -13.917  -6.357  1.00  0.00    -0.504 OA
ATOM     20  H   UNL     1      -3.360 -13.648  -6.090  1.00  0.00     0.293 HD
ENDBRANCH  16  19
BRANCH  18  21
ATOM     21  O   UNL     1      -3.102 -16.188  -4.811  1.00  0.00    -0.504 OA
ATOM     22  H   UNL     1      -2.626 -16.335  -3.927  1.00  0.00     0.293 HD
ENDBRANCH  18  21
ENDBRANCH   3  13
BRANCH  10  23
ATOM     23  O   UNL     1       0.862 -23.628  -9.900  1.00  0.00    -0.507 OA
ATOM     24  H   UNL     1       1.773 -23.271  -9.656  1.00  0.00     0.293 HD
ENDBRANCH  10  23
BRANCH  11  25
ATOM     25  O   UNL     1      -3.794 -23.618 -11.046  1.00  0.00    -0.508 OA
ATOM     26  H   UNL     1      -4.746 -23.361 -10.809  1.00  0.00     0.293 HD
ENDBRANCH  11  25
ENDBRANCH   1   2
BRANCH   1  27
ATOM     27  C   UNL     1       1.582 -19.357  -6.018  1.00  0.00     0.339 C 
ATOM     28  C   UNL     1       3.124 -19.469  -5.905  1.00  0.00     0.214 C 
ATOM     29  O   UNL     1       0.977 -18.500  -5.059  1.00  0.00    -0.332 OA
ATOM     30  C   UNL     1       3.574 -19.041  -4.510  1.00  0.00     0.180 C 
ATOM     31  C   UNL     1       1.701 -17.312  -4.779  1.00  0.00     0.179 C 
ATOM     32  C   UNL     1       3.148 -17.584  -4.258  1.00  0.00     0.177 C 
BRANCH  28  33
ATOM     33  O   UNL     1       3.529 -20.793  -6.144  1.00  0.00    -0.384 OA
ATOM     34  H   UNL     1       2.705 -21.312  -6.331  1.00  0.00     0.211 HD
ENDBRANCH  28  33
BRANCH  30  35
ATOM     35  O   UNL     1       4.971 -19.158  -4.408  1.00  0.00    -0.387 OA
ATOM     36  H   UNL     1       5.330 -18.238  -4.313  1.00  0.00     0.211 HD
ENDBRANCH  30  35
BRANCH  31  37
ATOM     37  C   UNL     1       1.619 -16.281  -5.929  1.00  0.00     0.191 C 
BRANCH  37  38
ATOM     38  O   UNL     1       2.807 -15.543  -6.046  1.00  0.00    -0.394 OA
ATOM     39  H   UNL     1       3.340 -15.746  -5.233  1.00  0.00     0.210 HD
ENDBRANCH  37  38
ENDBRANCH  31  37
BRANCH  32  40
ATOM     40  O   UNL     1       3.222 -17.330  -2.875  1.00  0.00    -0.387 OA
ATOM     41  H   UNL     1       3.993 -16.719  -2.735  1.00  0.00     0.211 HD
ENDBRANCH  32  40
ENDBRANCH   1  27
TORSDOF 12
ENDMDL
MODEL 3
REMARK VINA RESULT:    -5.778      3.023      6.404
REMARK INTER + INTRA:          -9.576
REMARK INTER:                  -8.440
REMARK INTRA:                  -1.137
REMARK UNBOUND:                -1.096
REMARK SMILES O=c1c(O[C@@H]2O[C@H](CO)[C@@H](O)[C@H](O)[C@H]2O)c(-c2ccc(O)c(O)c2)oc2cc(O)cc(O)c12
REMARK SMILES IDX 4 1 3 2 16 3 25 4 2 5 26 6 1 7 33 8 27 9 31 10 28 11 30 12
REMARK SMILES IDX 17 13 18 14 19 15 20 16 24 17 22 18 21 19 23 21 32 23 29 25
REMARK SMILES IDX 5 27 14 28 6 29 12 30 7 31 10 32 15 33 13 35 8 37 9 38 11 40
REMARK H PARENT 21 20 23 22 32 24 29 26 15 34 13 36 9 39 11 41
REMARK Flexibility Score: inf
ROOT
ATOM      1  O   UNL     1      -1.249 -17.846  -6.170  1.00  0.00    -0.454 OA
ENDROOT
BRANCH   1   2
ATOM      2  C   UNL     1       0.021 -17.876  -5.576  1.00  0.00     0.214 A 
ATOM      3  C   UNL     1       0.595 -16.732  -4.990  1.00  0.00     0.180 A 
ATOM      4  O   UNL     1       1.842 -16.779  -4.541  1.00  0.00    -0.452 OA
ATOM      5  C   UNL     1       0.757 -19.064  -5.607  1.00  0.00     0.239 A 
ATOM      6  C   UNL     1       2.593 -17.873  -4.578  1.00  0.00     0.146 A 
ATOM      7  O   UNL     1       0.218 -20.082  -6.115  1.00  0.00    -0.285 OA
ATOM      8  C   UNL     1       2.085 -19.091  -5.104  1.00  0.00     0.111 A 
ATOM      9  C   UNL     1       3.900 -17.793  -4.098  1.00  0.00     0.094 A 
ATOM     10  C   UNL     1       2.946 -20.233  -5.116  1.00  0.00     0.134 A 
ATOM     11  C   UNL     1       4.734 -18.904  -4.133  1.00  0.00     0.123 A 
ATOM     12  C   UNL     1       4.253 -20.115  -4.633  1.00  0.00     0.093 A 
BRANCH   3  13
ATOM     13  C   UNL     1      -0.145 -15.466  -4.856  1.00  0.00     0.025 A 
ATOM     14  C   UNL     1       0.229 -14.361  -5.634  1.00  0.00     0.016 A 
ATOM     15  C   UNL     1      -0.470 -13.158  -5.525  1.00  0.00     0.051 A 
ATOM     16  C   UNL     1      -1.532 -13.038  -4.619  1.00  0.00     0.157 A 
ATOM     17  C   UNL     1      -1.206 -15.349  -3.946  1.00  0.00     0.062 A 
ATOM     18  C   UNL     1      -1.907 -14.140  -3.829  1.00  0.00     0.158 A 
BRANCH  16  19
ATOM     19  O   UNL     1      -2.193 -11.813  -4.513  1.00  0.00    -0.504 OA
ATOM     20  H   UNL     1      -3.156 -11.745  -4.205  1.00  0.00     0.293 HD
ENDBRANCH  16  19
BRANCH  18  21
ATOM     21  O   UNL     1      -2.972 -14.029  -2.934  1.00  0.00    -0.504 OA
ATOM     22  H   UNL     1      -2.914 -14.402  -1.992  1.00  0.00     0.293 HD
ENDBRANCH  18  21
ENDBRANCH   3  13
BRANCH  10  23
ATOM     23  O   UNL     1       2.584 -21.499  -5.593  1.00  0.00    -0.507 OA
ATOM     24  H   UNL     1       1.719 -21.741  -6.054  1.00  0.00     0.293 HD
ENDBRANCH  10  23
BRANCH  11  25
ATOM     25  O   UNL     1       6.043 -18.793  -3.670  1.00  0.00    -0.508 OA
ATOM     26  H   UNL     1       6.797 -18.497  -4.281  1.00  0.00     0.293 HD
ENDBRANCH  11  25
ENDBRANCH   1   2
BRANCH   1  27
ATOM     27  C   UNL     1      -1.487 -18.276  -7.514  1.00  0.00     0.339 C 
ATOM     28  C   UNL     1      -2.837 -19.034  -7.607  1.00  0.00     0.214 C 
ATOM     29  O   UNL     1      -1.354 -17.186  -8.415  1.00  0.00    -0.332 OA
ATOM     30  C   UNL     1      -3.493 -18.757  -8.957  1.00  0.00     0.180 C 
ATOM     31  C   UNL     1      -2.530 -16.411  -8.591  1.00  0.00     0.179 C 
ATOM     32  C   UNL     1      -3.744 -17.246  -9.106  1.00  0.00     0.177 C 
BRANCH  28  33
ATOM     33  O   UNL     1      -2.624 -20.415  -7.462  1.00  0.00    -0.384 OA
ATOM     34  H   UNL     1      -1.697 -20.526  -7.126  1.00  0.00     0.211 HD
ENDBRANCH  28  33
BRANCH  30  35
ATOM     35  O   UNL     1      -4.709 -19.457  -9.044  1.00  0.00    -0.387 OA
ATOM     36  H   UNL     1      -5.433 -18.782  -8.996  1.00  0.00     0.211 HD
ENDBRANCH  30  35
BRANCH  31  37
ATOM     37  C   UNL     1      -2.841 -15.517  -7.368  1.00  0.00     0.191 C 
BRANCH  37  38
ATOM     38  O   UNL     1      -2.797 -14.154  -7.700  1.00  0.00    -0.394 OA
ATOM     39  H   UNL     1      -2.948 -14.103  -8.680  1.00  0.00     0.210 HD
ENDBRANCH  37  38
ENDBRANCH  31  37
BRANCH  32  40
ATOM     40  O   UNL     1      -3.987 -16.966 -10.464  1.00  0.00    -0.387 OA
ATOM     41  H   UNL     1      -3.442 -17.605 -10.993  1.00  0.00     0.211 HD
ENDBRANCH  32  40
ENDBRANCH   1  27
TORSDOF 12
ENDMDL
MODEL 4
REMARK VINA RESULT:    -5.745      2.394      7.735
REMARK INTER + INTRA:          -9.527
REMARK INTER:                  -7.870
REMARK INTRA:                  -1.658
REMARK UNBOUND:                -1.096
REMARK SMILES O=c1c(O[C@@H]2O[C@H](CO)[C@@H](O)[C@H](O)[C@H]2O)c(-c2ccc(O)c(O)c2)oc2cc(O)cc(O)c12
REMARK SMILES IDX 4 1 3 2 16 3 25 4 2 5 26 6 1 7 33 8 27 9 31 10 28 11 30 12
REMARK SMILES IDX 17 13 18 14 19 15 20 16 24 17 22 18 21 19 23 21 32 23 29 25
REMARK SMILES IDX 5 27 14 28 6 29 12 30 7 31 10 32 15 33 13 35 8 37 9 38 11 40
REMARK H PARENT 21 20 23 22 32 24 29 26 15 34 13 36 9 39 11 41
REMARK Flexibility Score: inf
ROOT
ATOM      1  O   UNL     1       0.041 -18.970  -6.652  1.00  0.00    -0.454 OA
ENDROOT
BRANCH   1   2
ATOM      2  C   UNL     1       0.103 -17.648  -6.190  1.00  0.00     0.214 A 
ATOM      3  C   UNL     1       0.979 -17.260  -5.159  1.00  0.00     0.180 A 
ATOM      4  O   UNL     1       0.924 -16.026  -4.678  1.00  0.00    -0.452 OA
ATOM      5  C   UNL     1      -0.764 -16.696  -6.737  1.00  0.00     0.239 A 
ATOM      6  C   UNL     1       0.097 -15.096  -5.140  1.00  0.00     0.146 A 
ATOM      7  O   UNL     1      -1.524 -17.056  -7.673  1.00  0.00    -0.285 OA
ATOM      8  C   UNL     1      -0.791 -15.376  -6.214  1.00  0.00     0.111 A 
ATOM      9  C   UNL     1       0.113 -13.839  -4.536  1.00  0.00     0.094 A 
ATOM     10  C   UNL     1      -1.657 -14.331  -6.664  1.00  0.00     0.134 A 
ATOM     11  C   UNL     1      -0.748 -12.837  -4.970  1.00  0.00     0.123 A 
ATOM     12  C   UNL     1      -1.620 -13.085  -6.031  1.00  0.00     0.093 A 
BRANCH   3  13
ATOM     13  C   UNL     1       1.969 -18.187  -4.584  1.00  0.00     0.025 A 
ATOM     14  C   UNL     1       1.531 -19.334  -3.907  1.00  0.00     0.016 A 
ATOM     15  C   UNL     1       2.458 -20.226  -3.366  1.00  0.00     0.051 A 
ATOM     16  C   UNL     1       3.831 -19.968  -3.471  1.00  0.00     0.157 A 
ATOM     17  C   UNL     1       3.343 -17.924  -4.689  1.00  0.00     0.062 A 
ATOM     18  C   UNL     1       4.278 -18.814  -4.141  1.00  0.00     0.158 A 
BRANCH  16  19
ATOM     19  O   UNL     1       4.732 -20.865  -2.894  1.00  0.00    -0.504 OA
ATOM     20  H   UNL     1       5.101 -21.660  -3.403  1.00  0.00     0.293 HD
ENDBRANCH  16  19
BRANCH  18  21
ATOM     21  O   UNL     1       5.644 -18.559  -4.259  1.00  0.00    -0.504 OA
ATOM     22  H   UNL     1       6.063 -17.721  -3.868  1.00  0.00     0.293 HD
ENDBRANCH  18  21
ENDBRANCH   3  13
BRANCH  10  23
ATOM     23  O   UNL     1      -2.576 -14.455  -7.714  1.00  0.00    -0.507 OA
ATOM     24  H   UNL     1      -2.838 -13.734  -8.370  1.00  0.00     0.293 HD
ENDBRANCH  10  23
BRANCH  11  25
ATOM     25  O   UNL     1      -0.730 -11.597  -4.335  1.00  0.00    -0.508 OA
ATOM     26  H   UNL     1      -0.193 -11.445  -3.489  1.00  0.00     0.293 HD
ENDBRANCH  11  25
ENDBRANCH   1   2
BRANCH   1  27
ATOM     27  C   UNL     1       0.755 -19.423  -7.807  1.00  0.00     0.339 C 
ATOM     28  C   UNL     1       1.586 -20.687  -7.467  1.00  0.00     0.214 C 
ATOM     29  O   UNL     1      -0.130 -19.571  -8.909  1.00  0.00    -0.332 OA
ATOM     30  C   UNL     1       1.633 -21.615  -8.678  1.00  0.00     0.180 C 
ATOM     31  C   UNL     1      -0.786 -20.827  -8.982  1.00  0.00     0.179 C 
ATOM     32  C   UNL     1       0.202 -22.033  -9.060  1.00  0.00     0.177 C 
BRANCH  28  33
ATOM     33  O   UNL     1       2.894 -20.320  -7.106  1.00  0.00    -0.384 OA
ATOM     34  H   UNL     1       3.170 -20.936  -6.378  1.00  0.00     0.211 HD
ENDBRANCH  28  33
BRANCH  30  35
ATOM     35  O   UNL     1       2.400 -22.754  -8.371  1.00  0.00    -0.387 OA
ATOM     36  H   UNL     1       3.273 -22.642  -8.825  1.00  0.00     0.211 HD
ENDBRANCH  30  35
BRANCH  31  37
ATOM     37  C   UNL     1      -1.898 -20.979  -7.917  1.00  0.00     0.191 C 
BRANCH  37  38
ATOM     38  O   UNL     1      -2.637 -19.795  -7.770  1.00  0.00    -0.394 OA
ATOM     39  H   UNL     1      -2.961 -19.785  -6.832  1.00  0.00     0.210 HD
ENDBRANCH  37  38
ENDBRANCH  31  37
BRANCH  32  40
ATOM     40  O   UNL     1       0.224 -22.561 -10.365  1.00  0.00    -0.387 OA
ATOM     41  H   UNL     1       0.994 -22.142 -10.833  1.00  0.00     0.211 HD
ENDBRANCH  32  40
ENDBRANCH   1  27
TORSDOF 12
ENDMDL
MODEL 5
REMARK VINA RESULT:    -5.736      2.760      5.254
REMARK INTER + INTRA:          -9.514
REMARK INTER:                  -7.888
REMARK INTRA:                  -1.626
REMARK UNBOUND:                -1.096
REMARK SMILES O=c1c(O[C@@H]2O[C@H](CO)[C@@H](O)[C@H](O)[C@H]2O)c(-c2ccc(O)c(O)c2)oc2cc(O)cc(O)c12
REMARK SMILES IDX 4 1 3 2 16 3 25 4 2 5 26 6 1 7 33 8 27 9 31 10 28 11 30 12
REMARK SMILES IDX 17 13 18 14 19 15 20 16 24 17 22 18 21 19 23 21 32 23 29 25
REMARK SMILES IDX 5 27 14 28 6 29 12 30 7 31 10 32 15 33 13 35 8 37 9 38 11 40
REMARK H PARENT 21 20 23 22 32 24 29 26 15 34 13 36 9 39 11 41
REMARK Flexibility Score: inf
ROOT
ATOM      1  O   UNL     1       0.441 -17.266  -6.372  1.00  0.00    -0.454 OA
ENDROOT
BRANCH   1   2
ATOM      2  C   UNL     1       0.979 -18.556  -6.254  1.00  0.00     0.214 A 
ATOM      3  C   UNL     1       0.265 -19.699  -6.656  1.00  0.00     0.180 A 
ATOM      4  O   UNL     1       0.766 -20.905  -6.423  1.00  0.00    -0.452 OA
ATOM      5  C   UNL     1       2.244 -18.714  -5.677  1.00  0.00     0.239 A 
ATOM      6  C   UNL     1       1.946 -21.108  -5.849  1.00  0.00     0.146 A 
ATOM      7  O   UNL     1       2.876 -17.678  -5.344  1.00  0.00    -0.285 OA
ATOM      8  C   UNL     1       2.765 -20.016  -5.453  1.00  0.00     0.111 A 
ATOM      9  C   UNL     1       2.357 -22.423  -5.632  1.00  0.00     0.094 A 
ATOM     10  C   UNL     1       4.024 -20.303  -4.839  1.00  0.00     0.134 A 
ATOM     11  C   UNL     1       3.574 -22.690  -5.016  1.00  0.00     0.123 A 
ATOM     12  C   UNL     1       4.401 -21.634  -4.631  1.00  0.00     0.093 A 
BRANCH   3  13
ATOM     13  C   UNL     1      -1.039 -19.609  -7.335  1.00  0.00     0.025 A 
ATOM     14  C   UNL     1      -2.158 -20.240  -6.771  1.00  0.00     0.016 A 
ATOM     15  C   UNL     1      -3.401 -20.153  -7.399  1.00  0.00     0.051 A 
ATOM     16  C   UNL     1      -3.536 -19.459  -8.608  1.00  0.00     0.157 A 
ATOM     17  C   UNL     1      -1.169 -18.915  -8.548  1.00  0.00     0.062 A 
ATOM     18  C   UNL     1      -2.416 -18.831  -9.184  1.00  0.00     0.158 A 
BRANCH  16  19
ATOM     19  O   UNL     1      -4.787 -19.416  -9.225  1.00  0.00    -0.504 OA
ATOM     20  H   UNL     1      -5.530 -18.811  -8.894  1.00  0.00     0.293 HD
ENDBRANCH  16  19
BRANCH  18  21
ATOM     21  O   UNL     1      -2.547 -18.129 -10.382  1.00  0.00    -0.504 OA
ATOM     22  H   UNL     1      -3.382 -18.209 -10.955  1.00  0.00     0.293 HD
ENDBRANCH  18  21
ENDBRANCH   3  13
BRANCH  10  23
ATOM     23  O   UNL     1       4.938 -19.335  -4.406  1.00  0.00    -0.507 OA
ATOM     24  H   UNL     1       4.725 -18.385  -4.139  1.00  0.00     0.293 HD
ENDBRANCH  10  23
BRANCH  11  25
ATOM     25  O   UNL     1       3.951 -24.012  -4.789  1.00  0.00    -0.508 OA
ATOM     26  H   UNL     1       3.996 -24.395  -3.852  1.00  0.00     0.293 HD
ENDBRANCH  11  25
ENDBRANCH   1   2
BRANCH   1  27
ATOM     27  C   UNL     1      -0.344 -16.656  -5.342  1.00  0.00     0.339 C 
ATOM     28  C   UNL     1       0.377 -15.403  -4.784  1.00  0.00     0.214 C 
ATOM     29  O   UNL     1      -1.669 -16.425  -5.801  1.00  0.00    -0.332 OA
ATOM     30  C   UNL     1      -0.651 -14.343  -4.398  1.00  0.00     0.180 C 
ATOM     31  C   UNL     1      -1.855 -15.199  -6.492  1.00  0.00     0.179 C 
ATOM     32  C   UNL     1      -1.473 -13.949  -5.638  1.00  0.00     0.177 C 
BRANCH  28  33
ATOM     33  O   UNL     1       1.141 -15.750  -3.656  1.00  0.00    -0.384 OA
ATOM     34  H   UNL     1       2.066 -15.439  -3.834  1.00  0.00     0.211 HD
ENDBRANCH  28  33
BRANCH  30  35
ATOM     35  O   UNL     1       0.006 -13.214  -3.878  1.00  0.00    -0.387 OA
ATOM     36  H   UNL     1       0.090 -12.563  -4.622  1.00  0.00     0.211 HD
ENDBRANCH  30  35
BRANCH  31  37
ATOM     37  C   UNL     1      -1.239 -15.217  -7.911  1.00  0.00     0.191 C 
BRANCH  37  38
ATOM     38  O   UNL     1      -2.200 -15.524  -8.886  1.00  0.00    -0.394 OA
ATOM     39  H   UNL     1      -1.898 -15.081  -9.722  1.00  0.00     0.210 HD
ENDBRANCH  37  38
ENDBRANCH  31  37
BRANCH  32  40
ATOM     40  O   UNL     1      -2.634 -13.278  -5.210  1.00  0.00    -0.387 OA
ATOM     41  H   UNL     1      -2.539 -12.329  -5.488  1.00  0.00     0.211 HD
ENDBRANCH  32  40
ENDBRANCH   1  27
TORSDOF 12
ENDMDL
MODEL 6
REMARK VINA RESULT:    -5.566      2.098      6.327
REMARK INTER + INTRA:          -9.265
REMARK INTER:                  -7.596
REMARK INTRA:                  -1.670
REMARK UNBOUND:                -1.096
REMARK SMILES O=c1c(O[C@@H]2O[C@H](CO)[C@@H](O)[C@H](O)[C@H]2O)c(-c2ccc(O)c(O)c2)oc2cc(O)cc(O)c12
REMARK SMILES IDX 4 1 3 2 16 3 25 4 2 5 26 6 1 7 33 8 27 9 31 10 28 11 30 12
REMARK SMILES IDX 17 13 18 14 19 15 20 16 24 17 22 18 21 19 23 21 32 23 29 25
REMARK SMILES IDX 5 27 14 28 6 29 12 30 7 31 10 32 15 33 13 35 8 37 9 38 11 40
REMARK H PARENT 21 20 23 22 32 24 29 26 15 34 13 36 9 39 11 41
REMARK Flexibility Score: inf
ROOT
ATOM      1  O   UNL     1      -0.235 -18.393  -7.772  1.00  0.00    -0.454 OA
ENDROOT
BRANCH   1   2
ATOM      2  C   UNL     1       0.654 -19.309  -7.193  1.00  0.00     0.214 A 
ATOM      3  C   UNL     1       0.468 -20.699  -7.304  1.00  0.00     0.180 A 
ATOM      4  O   UNL     1       1.269 -21.526  -6.647  1.00  0.00    -0.452 OA
ATOM      5  C   UNL     1       1.732 -18.827  -6.443  1.00  0.00     0.239 A 
ATOM      6  C   UNL     1       2.285 -21.117  -5.896  1.00  0.00     0.146 A 
ATOM      7  O   UNL     1       1.895 -17.581  -6.374  1.00  0.00    -0.285 OA
ATOM      8  C   UNL     1       2.586 -19.735  -5.762  1.00  0.00     0.111 A 
ATOM      9  C   UNL     1       3.044 -22.080  -5.231  1.00  0.00     0.094 A 
ATOM     10  C   UNL     1       3.693 -19.361  -4.938  1.00  0.00     0.134 A 
ATOM     11  C   UNL     1       4.106 -21.703  -4.417  1.00  0.00     0.123 A 
ATOM     12  C   UNL     1       4.428 -20.353  -4.280  1.00  0.00     0.093 A 
BRANCH   3  13
ATOM     13  C   UNL     1      -0.601 -21.281  -8.134  1.00  0.00     0.025 A 
ATOM     14  C   UNL     1      -1.807 -21.673  -7.534  1.00  0.00     0.016 A 
ATOM     15  C   UNL     1      -2.832 -22.216  -8.310  1.00  0.00     0.051 A 
ATOM     16  C   UNL     1      -2.654 -22.400  -9.688  1.00  0.00     0.157 A 
ATOM     17  C   UNL     1      -0.418 -21.466  -9.513  1.00  0.00     0.062 A 
ATOM     18  C   UNL     1      -1.443 -22.017 -10.295  1.00  0.00     0.158 A 
BRANCH  16  19
ATOM     19  O   UNL     1      -3.688 -22.972 -10.430  1.00  0.00    -0.504 OA
ATOM     20  H   UNL     1      -3.523 -23.431 -11.319  1.00  0.00     0.293 HD
ENDBRANCH  16  19
BRANCH  18  21
ATOM     21  O   UNL     1      -1.266 -22.186 -11.667  1.00  0.00    -0.504 OA
ATOM     22  H   UNL     1      -1.959 -22.663 -12.237  1.00  0.00     0.293 HD
ENDBRANCH  18  21
ENDBRANCH   3  13
BRANCH  10  23
ATOM     23  O   UNL     1       4.114 -18.043  -4.718  1.00  0.00    -0.507 OA
ATOM     24  H   UNL     1       3.881 -17.237  -5.280  1.00  0.00     0.293 HD
ENDBRANCH  10  23
BRANCH  11  25
ATOM     25  O   UNL     1       4.834 -22.683  -3.744  1.00  0.00    -0.508 OA
ATOM     26  H   UNL     1       4.617 -22.939  -2.788  1.00  0.00     0.293 HD
ENDBRANCH  11  25
ENDBRANCH   1   2
BRANCH   1  27
ATOM     27  C   UNL     1      -1.159 -17.616  -7.004  1.00  0.00     0.339 C 
ATOM     28  C   UNL     1      -1.183 -16.150  -7.508  1.00  0.00     0.214 C 
ATOM     29  O   UNL     1      -2.430 -18.252  -6.965  1.00  0.00    -0.332 OA
ATOM     30  C   UNL     1      -2.592 -15.578  -7.370  1.00  0.00     0.180 C 
ATOM     31  C   UNL     1      -3.282 -17.949  -8.058  1.00  0.00     0.179 C 
ATOM     32  C   UNL     1      -3.572 -16.421  -8.205  1.00  0.00     0.177 C 
BRANCH  28  33
ATOM     33  O   UNL     1      -0.284 -15.370  -6.761  1.00  0.00    -0.384 OA
ATOM     34  H   UNL     1      -0.813 -14.942  -6.038  1.00  0.00     0.211 HD
ENDBRANCH  28  33
BRANCH  30  35
ATOM     35  O   UNL     1      -2.606 -14.245  -7.815  1.00  0.00    -0.387 OA
ATOM     36  H   UNL     1      -3.426 -13.828  -7.446  1.00  0.00     0.211 HD
ENDBRANCH  30  35
BRANCH  31  37
ATOM     37  C   UNL     1      -2.841 -18.645  -9.368  1.00  0.00     0.191 C 
BRANCH  37  38
ATOM     38  O   UNL     1      -2.182 -17.754 -10.228  1.00  0.00    -0.394 OA
ATOM     39  H   UNL     1      -1.244 -18.073 -10.292  1.00  0.00     0.210 HD
ENDBRANCH  37  38
ENDBRANCH  31  37
BRANCH  32  40
ATOM     40  O   UNL     1      -4.883 -16.132  -7.782  1.00  0.00    -0.387 OA
ATOM     41  H   UNL     1      -5.130 -15.258  -8.184  1.00  0.00     0.211 HD
ENDBRANCH  32  40
ENDBRANCH   1  27
TORSDOF 12
ENDMDL
MODEL 7
REMARK VINA RESULT:    -5.503      1.888      4.927
REMARK INTER + INTRA:          -9.172
REMARK INTER:                  -7.893
REMARK INTRA:                  -1.279
REMARK UNBOUND:                -1.096
REMARK SMILES O=c1c(O[C@@H]2O[C@H](CO)[C@@H](O)[C@H](O)[C@H]2O)c(-c2ccc(O)c(O)c2)oc2cc(O)cc(O)c12
REMARK SMILES IDX 4 1 3 2 16 3 25 4 2 5 26 6 1 7 33 8 27 9 31 10 28 11 30 12
REMARK SMILES IDX 17 13 18 14 19 15 20 16 24 17 22 18 21 19 23 21 32 23 29 25
REMARK SMILES IDX 5 27 14 28 6 29 12 30 7 31 10 32 15 33 13 35 8 37 9 38 11 40
REMARK H PARENT 21 20 23 22 32 24 29 26 15 34 13 36 9 39 11 41
REMARK Flexibility Score: inf
ROOT
ATOM      1  O   UNL     1      -0.918 -17.930  -6.118  1.00  0.00    -0.454 OA
ENDROOT
BRANCH   1   2
ATOM      2  C   UNL     1      -0.643 -19.113  -6.819  1.00  0.00     0.214 A 
ATOM      3  C   UNL     1       0.584 -19.789  -6.683  1.00  0.00     0.180 A 
ATOM      4  O   UNL     1       0.844 -20.840  -7.448  1.00  0.00    -0.452 OA
ATOM      5  C   UNL     1      -1.596 -19.609  -7.714  1.00  0.00     0.239 A 
ATOM      6  C   UNL     1      -0.014 -21.330  -8.335  1.00  0.00     0.146 A 
ATOM      7  O   UNL     1      -2.695 -19.003  -7.805  1.00  0.00    -0.285 OA
ATOM      8  C   UNL     1      -1.298 -20.747  -8.510  1.00  0.00     0.111 A 
ATOM      9  C   UNL     1       0.383 -22.426  -9.102  1.00  0.00     0.094 A 
ATOM     10  C   UNL     1      -2.174 -21.322  -9.482  1.00  0.00     0.134 A 
ATOM     11  C   UNL     1      -0.471 -22.964 -10.058  1.00  0.00     0.123 A 
ATOM     12  C   UNL     1      -1.742 -22.416 -10.238  1.00  0.00     0.093 A 
BRANCH   3  13
ATOM     13  C   UNL     1       1.606 -19.368  -5.711  1.00  0.00     0.025 A 
ATOM     14  C   UNL     1       1.730 -20.056  -4.495  1.00  0.00     0.016 A 
ATOM     15  C   UNL     1       2.702 -19.673  -3.569  1.00  0.00     0.051 A 
ATOM     16  C   UNL     1       3.542 -18.584  -3.835  1.00  0.00     0.157 A 
ATOM     17  C   UNL     1       2.444 -18.275  -5.979  1.00  0.00     0.062 A 
ATOM     18  C   UNL     1       3.418 -17.884  -5.049  1.00  0.00     0.158 A 
BRANCH  16  19
ATOM     19  O   UNL     1       4.484 -18.210  -2.876  1.00  0.00    -0.504 OA
ATOM     20  H   UNL     1       5.420 -18.597  -2.860  1.00  0.00     0.293 HD
ENDBRANCH  16  19
BRANCH  18  21
ATOM     21  O   UNL     1       4.259 -16.807  -5.324  1.00  0.00    -0.504 OA
ATOM     22  H   UNL     1       5.257 -16.852  -5.138  1.00  0.00     0.293 HD
ENDBRANCH  18  21
ENDBRANCH   3  13
BRANCH  10  23
ATOM     23  O   UNL     1      -3.469 -20.863  -9.759  1.00  0.00    -0.507 OA
ATOM     24  H   UNL     1      -4.178 -21.350 -10.287  1.00  0.00     0.293 HD
ENDBRANCH  10  23
BRANCH  11  25
ATOM     25  O   UNL     1      -0.043 -24.043 -10.828  1.00  0.00    -0.508 OA
ATOM     26  H   UNL     1       0.606 -24.730 -10.460  1.00  0.00     0.293 HD
ENDBRANCH  11  25
ENDBRANCH   1   2
BRANCH   1  27
ATOM     27  C   UNL     1      -0.513 -16.639  -6.585  1.00  0.00     0.339 C 
ATOM     28  C   UNL     1      -1.640 -15.990  -7.428  1.00  0.00     0.214 C 
ATOM     29  O   UNL     1      -0.046 -15.844  -5.503  1.00  0.00    -0.332 OA
ATOM     30  C   UNL     1      -1.640 -14.478  -7.216  1.00  0.00     0.180 C 
ATOM     31  C   UNL     1      -1.058 -15.133  -4.807  1.00  0.00     0.179 C 
ATOM     32  C   UNL     1      -1.874 -14.169  -5.726  1.00  0.00     0.177 C 
BRANCH  28  33
ATOM     33  O   UNL     1      -1.446 -16.273  -8.791  1.00  0.00    -0.384 OA
ATOM     34  H   UNL     1      -1.535 -17.257  -8.891  1.00  0.00     0.211 HD
ENDBRANCH  28  33
BRANCH  30  35
ATOM     35  O   UNL     1      -2.655 -13.892  -7.992  1.00  0.00    -0.387 OA
ATOM     36  H   UNL     1      -2.963 -14.584  -8.632  1.00  0.00     0.211 HD
ENDBRANCH  30  35
BRANCH  31  37
ATOM     37  C   UNL     1      -1.925 -16.052  -3.915  1.00  0.00     0.191 C 
BRANCH  37  38
ATOM     38  O   UNL     1      -3.188 -16.279  -4.482  1.00  0.00    -0.394 OA
ATOM     39  H   UNL     1      -3.080 -16.150  -5.460  1.00  0.00     0.210 HD
ENDBRANCH  37  38
ENDBRANCH  31  37
BRANCH  32  40
ATOM     40  O   UNL     1      -1.501 -12.833  -5.483  1.00  0.00    -0.387 OA
ATOM     41  H   UNL     1      -2.339 -12.324  -5.325  1.00  0.00     0.211 HD
ENDBRANCH  32  40
ENDBRANCH   1  27
TORSDOF 12
ENDMDL
MODEL 8
REMARK VINA RESULT:    -5.456      3.162      7.441
REMARK INTER + INTRA:          -9.103
REMARK INTER:                  -7.757
REMARK INTRA:                  -1.346
REMARK UNBOUND:                -1.096
REMARK SMILES O=c1c(O[C@@H]2O[C@H](CO)[C@@H](O)[C@H](O)[C@H]2O)c(-c2ccc(O)c(O)c2)oc2cc(O)cc(O)c12
REMARK SMILES IDX 4 1 3 2 16 3 25 4 2 5 26 6 1 7 33 8 27 9 31 10 28 11 30 12
REMARK SMILES IDX 17 13 18 14 19 15 20 16 24 17 22 18 21 19 23 21 32 23 29 25
REMARK SMILES IDX 5 27 14 28 6 29 12 30 7 31 10 32 15 33 13 35 8 37 9 38 11 40
REMARK H PARENT 21 20 23 22 32 24 29 26 15 34 13 36 9 39 11 41
REMARK Flexibility Score: inf
ROOT
ATOM      1  O   UNL     1      -0.118 -16.257  -6.745  1.00  0.00    -0.454 OA
ENDROOT
BRANCH   1   2
ATOM      2  C   UNL     1      -0.911 -15.341  -6.040  1.00  0.00     0.214 A 
ATOM      3  C   UNL     1      -2.313 -15.325  -6.158  1.00  0.00     0.180 A 
ATOM      4  O   UNL     1      -3.013 -14.371  -5.560  1.00  0.00    -0.452 OA
ATOM      5  C   UNL     1      -0.288 -14.386  -5.230  1.00  0.00     0.239 A 
ATOM      6  C   UNL     1      -2.466 -13.422  -4.809  1.00  0.00     0.146 A 
ATOM      7  O   UNL     1       0.965 -14.429  -5.120  1.00  0.00    -0.285 OA
ATOM      8  C   UNL     1      -1.063 -13.384  -4.588  1.00  0.00     0.111 A 
ATOM      9  C   UNL     1      -3.303 -12.456  -4.252  1.00  0.00     0.094 A 
ATOM     10  C   UNL     1      -0.536 -12.336  -3.770  1.00  0.00     0.134 A 
ATOM     11  C   UNL     1      -2.778 -11.431  -3.475  1.00  0.00     0.123 A 
ATOM     12  C   UNL     1      -1.404 -11.379  -3.233  1.00  0.00     0.093 A 
BRANCH   3  13
ATOM     13  C   UNL     1      -3.044 -16.341  -6.933  1.00  0.00     0.025 A 
ATOM     14  C   UNL     1      -3.560 -17.471  -6.281  1.00  0.00     0.016 A 
ATOM     15  C   UNL     1      -4.264 -18.436  -7.002  1.00  0.00     0.051 A 
ATOM     16  C   UNL     1      -4.438 -18.298  -8.385  1.00  0.00     0.157 A 
ATOM     17  C   UNL     1      -3.214 -16.201  -8.319  1.00  0.00     0.062 A 
ATOM     18  C   UNL     1      -3.916 -17.172  -9.048  1.00  0.00     0.158 A 
BRANCH  16  19
ATOM     19  O   UNL     1      -5.123 -19.296  -9.081  1.00  0.00    -0.504 OA
ATOM     20  H   UNL     1      -5.262 -19.254 -10.084  1.00  0.00     0.293 HD
ENDBRANCH  16  19
BRANCH  18  21
ATOM     21  O   UNL     1      -4.098 -17.024 -10.422  1.00  0.00    -0.504 OA
ATOM     22  H   UNL     1      -5.014 -17.115 -10.849  1.00  0.00     0.293 HD
ENDBRANCH  18  21
ENDBRANCH   3  13
BRANCH  10  23
ATOM     23  O   UNL     1       0.819 -12.174  -3.457  1.00  0.00    -0.507 OA
ATOM     24  H   UNL     1       1.356 -12.730  -2.808  1.00  0.00     0.293 HD
ENDBRANCH  10  23
BRANCH  11  25
ATOM     25  O   UNL     1      -3.632 -10.464  -2.949  1.00  0.00    -0.508 OA
ATOM     26  H   UNL     1      -4.639 -10.548  -3.029  1.00  0.00     0.293 HD
ENDBRANCH  11  25
ENDBRANCH   1   2
BRANCH   1  27
ATOM     27  C   UNL     1      -0.056 -17.647  -6.412  1.00  0.00     0.339 C 
ATOM     28  C   UNL     1       0.229 -18.494  -7.679  1.00  0.00     0.214 C 
ATOM     29  O   UNL     1       0.851 -17.860  -5.338  1.00  0.00    -0.332 OA
ATOM     30  C   UNL     1       1.090 -19.700  -7.312  1.00  0.00     0.180 C 
ATOM     31  C   UNL     1       2.206 -18.024  -5.726  1.00  0.00     0.179 C 
ATOM     32  C   UNL     1       2.422 -19.216  -6.712  1.00  0.00     0.177 C 
BRANCH  28  33
ATOM     33  O   UNL     1      -0.980 -18.935  -8.244  1.00  0.00    -0.384 OA
ATOM     34  H   UNL     1      -1.239 -19.759  -7.754  1.00  0.00     0.211 HD
ENDBRANCH  28  33
BRANCH  30  35
ATOM     35  O   UNL     1       1.334 -20.473  -8.461  1.00  0.00    -0.387 OA
ATOM     36  H   UNL     1       2.196 -20.940  -8.315  1.00  0.00     0.211 HD
ENDBRANCH  30  35
BRANCH  31  37
ATOM     37  C   UNL     1       2.861 -16.696  -6.174  1.00  0.00     0.191 C 
BRANCH  37  38
ATOM     38  O   UNL     1       3.602 -16.111  -5.136  1.00  0.00    -0.394 OA
ATOM     39  H   UNL     1       3.330 -16.579  -4.304  1.00  0.00     0.210 HD
ENDBRANCH  37  38
ENDBRANCH  31  37
BRANCH  32  40
ATOM     40  O   UNL     1       3.030 -20.296  -6.045  1.00  0.00    -0.387 OA
ATOM     41  H   UNL     1       3.804 -19.927  -5.543  1.00  0.00     0.211 HD
ENDBRANCH  32  40
ENDBRANCH   1  27
TORSDOF 12
ENDMDL
MODEL 9
REMARK VINA RESULT:    -5.352      2.187      5.229
REMARK INTER + INTRA:          -8.951
REMARK INTER:                  -7.696
REMARK INTRA:                  -1.254
REMARK UNBOUND:                -1.096
REMARK SMILES O=c1c(O[C@@H]2O[C@H](CO)[C@@H](O)[C@H](O)[C@H]2O)c(-c2ccc(O)c(O)c2)oc2cc(O)cc(O)c12
REMARK SMILES IDX 4 1 3 2 16 3 25 4 2 5 26 6 1 7 33 8 27 9 31 10 28 11 30 12
REMARK SMILES IDX 17 13 18 14 19 15 20 16 24 17 22 18 21 19 23 21 32 23 29 25
REMARK SMILES IDX 5 27 14 28 6 29 12 30 7 31 10 32 15 33 13 35 8 37 9 38 11 40
REMARK H PARENT 21 20 23 22 32 24 29 26 15 34 13 36 9 39 11 41
REMARK Flexibility Score: inf
ROOT
ATOM      1  O   UNL     1       0.064 -16.830  -6.635  1.00  0.00    -0.454 OA
ENDROOT
BRANCH   1   2
ATOM      2  C   UNL     1       0.116 -18.124  -7.174  1.00  0.00     0.214 A 
ATOM      3  C   UNL     1       1.182 -19.001  -6.899  1.00  0.00     0.180 A 
ATOM      4  O   UNL     1       1.247 -20.172  -7.518  1.00  0.00    -0.452 OA
ATOM      5  C   UNL     1      -0.896 -18.538  -8.045  1.00  0.00     0.239 A 
ATOM      6  C   UNL     1       0.329 -20.596  -8.378  1.00  0.00     0.146 A 
ATOM      7  O   UNL     1      -1.852 -17.748  -8.261  1.00  0.00    -0.285 OA
ATOM      8  C   UNL     1      -0.811 -19.804  -8.683  1.00  0.00     0.111 A 
ATOM      9  C   UNL     1       0.518 -21.837  -8.987  1.00  0.00     0.094 A 
ATOM     10  C   UNL     1      -1.762 -20.319  -9.618  1.00  0.00     0.134 A 
ATOM     11  C   UNL     1      -0.403 -22.318  -9.910  1.00  0.00     0.123 A 
ATOM     12  C   UNL     1      -1.536 -21.564 -10.215  1.00  0.00     0.093 A 
BRANCH   3  13
ATOM     13  C   UNL     1       2.245 -18.664  -5.938  1.00  0.00     0.025 A 
ATOM     14  C   UNL     1       2.929 -17.445  -6.062  1.00  0.00     0.016 A 
ATOM     15  C   UNL     1       3.932 -17.109  -5.151  1.00  0.00     0.051 A 
ATOM     16  C   UNL     1       4.282 -17.996  -4.125  1.00  0.00     0.157 A 
ATOM     17  C   UNL     1       2.595 -19.556  -4.913  1.00  0.00     0.062 A 
ATOM     18  C   UNL     1       3.606 -19.224  -4.000  1.00  0.00     0.158 A 
BRANCH  16  19
ATOM     19  O   UNL     1       5.309 -17.642  -3.249  1.00  0.00    -0.504 OA
ATOM     20  H   UNL     1       5.264 -16.807  -2.676  1.00  0.00     0.293 HD
ENDBRANCH  16  19
BRANCH  18  21
ATOM     21  O   UNL     1       3.942 -20.105  -2.973  1.00  0.00    -0.504 OA
ATOM     22  H   UNL     1       4.530 -20.916  -3.140  1.00  0.00     0.293 HD
ENDBRANCH  18  21
ENDBRANCH   3  13
BRANCH  10  23
ATOM     23  O   UNL     1      -2.933 -19.658 -10.009  1.00  0.00    -0.507 OA
ATOM     24  H   UNL     1      -3.009 -18.936 -10.709  1.00  0.00     0.293 HD
ENDBRANCH  10  23
BRANCH  11  25
ATOM     25  O   UNL     1      -0.179 -23.550 -10.522  1.00  0.00    -0.508 OA
ATOM     26  H   UNL     1       0.442 -24.238 -10.112  1.00  0.00     0.293 HD
ENDBRANCH  11  25
ENDBRANCH   1   2
BRANCH   1  27
ATOM     27  C   UNL     1      -0.641 -16.519  -5.430  1.00  0.00     0.339 C 
ATOM     28  C   UNL     1       0.183 -15.537  -4.559  1.00  0.00     0.214 C 
ATOM     29  O   UNL     1      -1.962 -16.085  -5.726  1.00  0.00    -0.332 OA
ATOM     30  C   UNL     1      -0.755 -14.590  -3.816  1.00  0.00     0.180 C 
ATOM     31  C   UNL     1      -2.086 -14.699  -6.004  1.00  0.00     0.179 C 
ATOM     32  C   UNL     1      -1.589 -13.791  -4.835  1.00  0.00     0.177 C 
BRANCH  28  33
ATOM     33  O   UNL     1       0.959 -16.253  -3.630  1.00  0.00    -0.384 OA
ATOM     34  H   UNL     1       1.261 -17.079  -4.091  1.00  0.00     0.211 HD
ENDBRANCH  28  33
BRANCH  30  35
ATOM     35  O   UNL     1      -0.004 -13.711  -3.016  1.00  0.00    -0.387 OA
ATOM     36  H   UNL     1       0.706 -13.333  -3.595  1.00  0.00     0.211 HD
ENDBRANCH  30  35
BRANCH  31  37
ATOM     37  C   UNL     1      -1.521 -14.318  -7.393  1.00  0.00     0.191 C 
BRANCH  37  38
ATOM     38  O   UNL     1      -2.121 -15.067  -8.417  1.00  0.00    -0.394 OA
ATOM     39  H   UNL     1      -3.091 -14.857  -8.381  1.00  0.00     0.210 HD
ENDBRANCH  37  38
ENDBRANCH  31  37
BRANCH  32  40
ATOM     40  O   UNL     1      -2.686 -13.219  -4.163  1.00  0.00    -0.387 OA
ATOM     41  H   UNL     1      -2.535 -13.360  -3.191  1.00  0.00     0.211 HD
ENDBRANCH  32  40
ENDBRANCH   1  27
TORSDOF 12
ENDMDL
