MODEL 1
REMARK VINA RESULT:    -3.966      0.000      0.000
REMARK INTER + INTRA:          -5.118
REMARK INTER:                  -4.894
REMARK INTRA:                  -0.224
REMARK UNBOUND:                -0.224
REMARK SMILES CCCCCC=O
REMARK SMILES IDX 4 1 3 2 2 3 1 4 5 5 6 6 7 7
REMARK H PARENT
REMARK Flexibility Score: inf
ROOT
ATOM      1  C   UNL     1      13.424 -11.470 -26.750  1.00  0.00     0.008 C 
ENDROOT
BRANCH   1   2
ATOM      2  C   UNL     1      11.970 -11.254 -27.210  1.00  0.00     0.000 C 
BRANCH   2   3
ATOM      3  C   UNL     1      11.783 -11.469 -28.718  1.00  0.00    -0.003 C 
ATOM      4  C   UNL     1      10.623 -12.420 -28.998  1.00  0.00     0.004 C 
ENDBRANCH   2   3
ENDBRANCH   1   2
BRANCH   1   5
ATOM      5  C   UNL     1      14.009 -12.854 -27.082  1.00  0.00     0.072 C 
BRANCH   5   6
ATOM      6  C   UNL     1      13.282 -13.968 -26.385  1.00  0.00     0.224 C 
ATOM      7  O   UNL     1      12.520 -14.696 -27.003  1.00  0.00    -0.303 OA
ENDBRANCH   5   6
ENDBRANCH   1   5
TORSDOF 4
ENDMDL
MODEL 2
REMARK VINA RESULT:    -3.943      1.077      2.743
REMARK INTER + INTRA:          -5.089
REMARK INTER:                  -4.881
REMARK INTRA:                  -0.208
REMARK UNBOUND:                -0.224
REMARK SMILES CCCCCC=O
REMARK SMILES IDX 4 1 3 2 2 3 1 4 5 5 6 6 7 7
REMARK H PARENT
REMARK Flexibility Score: inf
ROOT
ATOM      1  C   UNL     1      12.144 -11.381 -28.245  1.00  0.00     0.008 C 
ENDROOT
BRANCH   1   2
ATOM      2  C   UNL     1      12.663 -11.178 -26.810  1.00  0.00     0.000 C 
BRANCH   2   3
ATOM      3  C   UNL     1      14.190 -11.298 -26.705  1.00  0.00    -0.003 C 
ATOM      4  C   UNL     1      14.657 -12.705 -27.069  1.00  0.00     0.004 C 
ENDBRANCH   2   3
ENDBRANCH   1   2
BRANCH   1   5
ATOM      5  C   UNL     1      11.031 -12.433 -28.388  1.00  0.00     0.072 C 
BRANCH   5   6
ATOM      6  C   UNL     1      11.040 -13.436 -27.271  1.00  0.00     0.224 C 
ATOM      7  O   UNL     1      11.466 -14.566 -27.453  1.00  0.00    -0.303 OA
ENDBRANCH   5   6
ENDBRANCH   1   5
TORSDOF 4
ENDMDL
MODEL 3
REMARK VINA RESULT:    -3.911      1.692      1.905
REMARK INTER + INTRA:          -5.050
REMARK INTER:                  -4.883
REMARK INTRA:                  -0.167
REMARK UNBOUND:                -0.224
REMARK SMILES CCCCCC=O
REMARK SMILES IDX 4 1 3 2 2 3 1 4 5 5 6 6 7 7
REMARK H PARENT
REMARK Flexibility Score: inf
ROOT
ATOM      1  C   UNL     1      12.379 -12.389 -25.972  1.00  0.00     0.008 C 
ENDROOT
BRANCH   1   2
ATOM      2  C   UNL     1      11.385 -11.626 -26.867  1.00  0.00     0.000 C 
BRANCH   2   3
ATOM      3  C   UNL     1      10.981 -12.417 -28.119  1.00  0.00    -0.003 C 
ATOM      4  C   UNL     1      11.395 -11.681 -29.391  1.00  0.00     0.004 C 
ENDBRANCH   2   3
ENDBRANCH   1   2
BRANCH   1   5
ATOM      5  C   UNL     1      13.255 -13.418 -26.708  1.00  0.00     0.072 C 
BRANCH   5   6
ATOM      6  C   UNL     1      14.596 -12.862 -27.089  1.00  0.00     0.224 C 
ATOM      7  O   UNL     1      14.968 -11.782 -26.656  1.00  0.00    -0.303 OA
ENDBRANCH   5   6
ENDBRANCH   1   5
TORSDOF 4
ENDMDL
MODEL 4
REMARK VINA RESULT:    -3.895      1.899      3.565
REMARK INTER + INTRA:          -5.030
REMARK INTER:                  -4.809
REMARK INTRA:                  -0.221
REMARK UNBOUND:                -0.224
REMARK SMILES CCCCCC=O
REMARK SMILES IDX 4 1 3 2 2 3 1 4 5 5 6 6 7 7
REMARK H PARENT
REMARK Flexibility Score: inf
ROOT
ATOM      1  C   UNL     1      12.028 -12.570 -26.673  1.00  0.00     0.008 C 
ENDROOT
BRANCH   1   2
ATOM      2  C   UNL     1      13.247 -13.508 -26.748  1.00  0.00     0.000 C 
BRANCH   2   3
ATOM      3  C   UNL     1      14.543 -12.774 -27.121  1.00  0.00    -0.003 C 
ATOM      4  C   UNL     1      14.617 -11.410 -26.440  1.00  0.00     0.004 C 
ENDBRANCH   2   3
ENDBRANCH   1   2
BRANCH   1   5
ATOM      5  C   UNL     1      11.084 -12.636 -27.886  1.00  0.00     0.072 C 
BRANCH   5   6
ATOM      6  C   UNL     1      11.529 -11.748 -29.012  1.00  0.00     0.224 C 
ATOM      7  O   UNL     1      12.107 -10.697 -28.783  1.00  0.00    -0.303 OA
ENDBRANCH   5   6
ENDBRANCH   1   5
TORSDOF 4
ENDMDL
MODEL 5
REMARK VINA RESULT:    -3.791      2.294      3.569
REMARK INTER + INTRA:          -4.902
REMARK INTER:                  -4.667
REMARK INTRA:                  -0.234
REMARK UNBOUND:                -0.224
REMARK SMILES CCCCCC=O
REMARK SMILES IDX 4 1 3 2 2 3 1 4 5 5 6 6 7 7
REMARK H PARENT
REMARK Flexibility Score: inf
ROOT
ATOM      1  C   UNL     1      10.981 -12.200 -27.799  1.00  0.00     0.008 C 
ENDROOT
BRANCH   1   2
ATOM      2  C   UNL     1      11.528 -13.504 -27.188  1.00  0.00     0.000 C 
BRANCH   2   3
ATOM      3  C   UNL     1      12.182 -13.291 -25.816  1.00  0.00    -0.003 C 
ATOM      4  C   UNL     1      11.475 -12.186 -25.036  1.00  0.00     0.004 C 
ENDBRANCH   2   3
ENDBRANCH   1   2
BRANCH   1   5
ATOM      5  C   UNL     1      11.983 -11.423 -28.670  1.00  0.00     0.072 C 
BRANCH   5   6
ATOM      6  C   UNL     1      12.446 -10.151 -28.020  1.00  0.00     0.224 C 
ATOM      7  O   UNL     1      13.368 -10.162 -27.219  1.00  0.00    -0.303 OA
ENDBRANCH   5   6
ENDBRANCH   1   5
TORSDOF 4
ENDMDL
MODEL 6
REMARK VINA RESULT:    -3.741      1.484      1.875
REMARK INTER + INTRA:          -4.840
REMARK INTER:                  -4.645
REMARK INTRA:                  -0.195
REMARK UNBOUND:                -0.224
REMARK SMILES CCCCCC=O
REMARK SMILES IDX 4 1 3 2 2 3 1 4 5 5 6 6 7 7
REMARK H PARENT
REMARK Flexibility Score: inf
ROOT
ATOM      1  C   UNL     1      13.800 -11.565 -26.394  1.00  0.00     0.008 C 
ENDROOT
BRANCH   1   2
ATOM      2  C   UNL     1      12.746 -10.655 -27.052  1.00  0.00     0.000 C 
BRANCH   2   3
ATOM      3  C   UNL     1      11.344 -10.836 -26.453  1.00  0.00    -0.003 C 
ATOM      4  C   UNL     1      11.420 -11.404 -25.038  1.00  0.00     0.004 C 
ENDBRANCH   2   3
ENDBRANCH   1   2
BRANCH   1   5
ATOM      5  C   UNL     1      14.096 -12.869 -27.154  1.00  0.00     0.072 C 
BRANCH   5   6
ATOM      6  C   UNL     1      13.299 -14.031 -26.637  1.00  0.00     0.224 C 
ATOM      7  O   UNL     1      12.272 -14.380 -27.198  1.00  0.00    -0.303 OA
ENDBRANCH   5   6
ENDBRANCH   1   5
TORSDOF 4
ENDMDL
MODEL 7
REMARK VINA RESULT:    -3.716      2.153      2.889
REMARK INTER + INTRA:          -4.809
REMARK INTER:                  -4.588
REMARK INTRA:                  -0.221
REMARK UNBOUND:                -0.224
REMARK SMILES CCCCCC=O
REMARK SMILES IDX 4 1 3 2 2 3 1 4 5 5 6 6 7 7
REMARK H PARENT
REMARK Flexibility Score: inf
ROOT
ATOM      1  C   UNL     1      13.615 -12.667 -27.256  1.00  0.00     0.008 C 
ENDROOT
BRANCH   1   2
ATOM      2  C   UNL     1      12.678 -13.591 -26.455  1.00  0.00     0.000 C 
BRANCH   2   3
ATOM      3  C   UNL     1      11.195 -13.357 -26.774  1.00  0.00    -0.003 C 
ATOM      4  C   UNL     1      10.994 -13.040 -28.253  1.00  0.00     0.004 C 
ENDBRANCH   2   3
ENDBRANCH   1   2
BRANCH   1   5
ATOM      5  C   UNL     1      13.858 -11.286 -26.623  1.00  0.00     0.072 C 
BRANCH   5   6
ATOM      6  C   UNL     1      13.144 -10.185 -27.352  1.00  0.00     0.224 C 
ATOM      7  O   UNL     1      11.999  -9.882 -27.054  1.00  0.00    -0.303 OA
ENDBRANCH   5   6
ENDBRANCH   1   5
TORSDOF 4
ENDMDL
MODEL 8
REMARK VINA RESULT:    -3.711      2.258      2.841
REMARK INTER + INTRA:          -4.804
REMARK INTER:                  -4.568
REMARK INTRA:                  -0.235
REMARK UNBOUND:                -0.224
REMARK SMILES CCCCCC=O
REMARK SMILES IDX 4 1 3 2 2 3 1 4 5 5 6 6 7 7
REMARK H PARENT
REMARK Flexibility Score: inf
ROOT
ATOM      1  C   UNL     1      12.103 -13.292 -26.737  1.00  0.00     0.008 C 
ENDROOT
BRANCH   1   2
ATOM      2  C   UNL     1      11.062 -13.670 -27.807  1.00  0.00     0.000 C 
BRANCH   2   3
ATOM      3  C   UNL     1      10.693 -12.494 -28.722  1.00  0.00    -0.003 C 
ATOM      4  C   UNL     1      11.872 -11.541 -28.894  1.00  0.00     0.004 C 
ENDBRANCH   2   3
ENDBRANCH   1   2
BRANCH   1   5
ATOM      5  C   UNL     1      11.526 -13.042 -25.332  1.00  0.00     0.072 C 
BRANCH   5   6
ATOM      6  C   UNL     1      11.575 -11.594 -24.940  1.00  0.00     0.224 C 
ATOM      7  O   UNL     1      10.973 -10.753 -25.590  1.00  0.00    -0.303 OA
ENDBRANCH   5   6
ENDBRANCH   1   5
TORSDOF 4
ENDMDL
MODEL 9
REMARK VINA RESULT:    -3.690      1.720      3.211
REMARK INTER + INTRA:          -4.777
REMARK INTER:                  -4.549
REMARK INTRA:                  -0.229
REMARK UNBOUND:                -0.224
REMARK SMILES CCCCCC=O
REMARK SMILES IDX 4 1 3 2 2 3 1 4 5 5 6 6 7 7
REMARK H PARENT
REMARK Flexibility Score: inf
ROOT
ATOM      1  C   UNL     1      11.394 -11.056 -26.378  1.00  0.00     0.008 C 
ENDROOT
BRANCH   1   2
ATOM      2  C   UNL     1      12.168 -11.934 -25.378  1.00  0.00     0.000 C 
BRANCH   2   3
ATOM      3  C   UNL     1      11.973 -13.436 -25.627  1.00  0.00    -0.003 C 
ATOM      4  C   UNL     1      13.160 -14.026 -26.384  1.00  0.00     0.004 C 
ENDBRANCH   2   3
ENDBRANCH   1   2
BRANCH   1   5
ATOM      5  C   UNL     1      12.183 -10.660 -27.638  1.00  0.00     0.072 C 
BRANCH   5   6
ATOM      6  C   UNL     1      11.852 -11.524 -28.820  1.00  0.00     0.224 C 
ATOM      7  O   UNL     1      10.851 -12.224 -28.817  1.00  0.00    -0.303 OA
ENDBRANCH   5   6
ENDBRANCH   1   5
TORSDOF 4
ENDMDL
