MODEL 1
REMARK VINA RESULT:    -4.690      0.000      0.000
REMARK INTER + INTRA:          -5.882
REMARK INTER:                  -5.650
REMARK INTRA:                  -0.232
REMARK UNBOUND:                -0.232
REMARK SMILES Oc1cc(O)c2cc(O)c(-c3ccc(O)c(O)c3)[o+]c2c1
REMARK SMILES IDX 10 1 19 2 20 3 21 4 2 5 3 6 4 7 6 8 7 9 8 10 11 11 12 12
REMARK SMILES IDX 13 13 14 14 18 15 16 16 15 17 17 19 9 21 1 23 5 25
REMARK H PARENT 15 18 17 20 9 22 1 24 5 26
REMARK Flexibility Score: inf
ROOT
ATOM      1  C   UNL     1     -26.089  51.447  42.082  1.00  0.00     0.402 A 
ATOM      2  O   UNL     1     -26.578  51.932  43.221  1.00  0.00    -0.202 OA
ATOM      3  C   UNL     1     -26.288  53.144  43.682  1.00  0.00     0.368 A 
ATOM      4  C   UNL     1     -26.853  53.566  44.889  1.00  0.00     0.162 A 
ATOM      5  C   UNL     1     -26.568  54.837  45.395  1.00  0.00     0.128 A 
ATOM      6  C   UNL     1     -25.715  55.691  44.691  1.00  0.00     0.093 A 
ATOM      7  C   UNL     1     -25.137  55.292  43.480  1.00  0.00     0.136 A 
ATOM      8  C   UNL     1     -25.420  54.002  42.963  1.00  0.00     0.125 A 
ATOM      9  C   UNL     1     -24.876  53.513  41.764  1.00  0.00     0.078 A 
ATOM     10  C   UNL     1     -25.199  52.227  41.320  1.00  0.00     0.223 A 
ENDROOT
BRANCH   1  11
ATOM     11  C   UNL     1     -26.495  50.084  41.670  1.00  0.00     0.087 A 
ATOM     12  C   UNL     1     -26.055  48.946  42.370  1.00  0.00     0.022 A 
ATOM     13  C   UNL     1     -26.433  47.669  41.947  1.00  0.00     0.051 A 
ATOM     14  C   UNL     1     -27.241  47.507  40.819  1.00  0.00     0.157 A 
ATOM     15  C   UNL     1     -27.290  49.917  40.525  1.00  0.00     0.068 A 
ATOM     16  C   UNL     1     -27.670  48.635  40.100  1.00  0.00     0.158 A 
BRANCH  14  17
ATOM     17  O   UNL     1     -27.603  46.219  40.423  1.00  0.00    -0.504 OA
ATOM     18  H   UNL     1     -27.787  45.482  41.093  1.00  0.00     0.293 HD
ENDBRANCH  14  17
BRANCH  16  19
ATOM     19  O   UNL     1     -28.470  48.480  38.968  1.00  0.00    -0.504 OA
ATOM     20  H   UNL     1     -28.299  47.744  38.294  1.00  0.00     0.293 HD
ENDBRANCH  16  19
ENDBRANCH   1  11
BRANCH  10  21
ATOM     21  O   UNL     1     -24.619  51.722  40.156  1.00  0.00    -0.500 OA
ATOM     22  H   UNL     1     -24.693  50.744  39.906  1.00  0.00     0.294 HD
ENDBRANCH  10  21
BRANCH   5  23
ATOM     23  O   UNL     1     -27.127  55.264  46.597  1.00  0.00    -0.507 OA
ATOM     24  H   UNL     1     -27.746  56.066  46.638  1.00  0.00     0.293 HD
ENDBRANCH   5  23
BRANCH   7  25
ATOM     25  O   UNL     1     -24.298  56.206  42.835  1.00  0.00    -0.507 OA
ATOM     26  H   UNL     1     -23.485  56.631  43.258  1.00  0.00     0.293 HD
ENDBRANCH   7  25
TORSDOF 6
ENDMDL
MODEL 2
REMARK VINA RESULT:    -4.641      0.756      1.542
REMARK INTER + INTRA:          -5.822
REMARK INTER:                  -5.634
REMARK INTRA:                  -0.188
REMARK UNBOUND:                -0.232
REMARK SMILES Oc1cc(O)c2cc(O)c(-c3ccc(O)c(O)c3)[o+]c2c1
REMARK SMILES IDX 10 1 19 2 20 3 21 4 2 5 3 6 4 7 6 8 7 9 8 10 11 11 12 12
REMARK SMILES IDX 13 13 14 14 18 15 16 16 15 17 17 19 9 21 1 23 5 25
REMARK H PARENT 15 18 17 20 9 22 1 24 5 26
REMARK Flexibility Score: inf
ROOT
ATOM      1  C   UNL     1     -26.264  51.186  41.925  1.00  0.00     0.402 A 
ATOM      2  O   UNL     1     -26.695  51.689  43.079  1.00  0.00    -0.202 OA
ATOM      3  C   UNL     1     -26.372  52.902  43.513  1.00  0.00     0.368 A 
ATOM      4  C   UNL     1     -26.877  53.343  44.739  1.00  0.00     0.162 A 
ATOM      5  C   UNL     1     -26.556  54.617  45.217  1.00  0.00     0.128 A 
ATOM      6  C   UNL     1     -25.728  55.453  44.466  1.00  0.00     0.093 A 
ATOM      7  C   UNL     1     -25.210  55.036  43.234  1.00  0.00     0.136 A 
ATOM      8  C   UNL     1     -25.530  53.743  42.746  1.00  0.00     0.125 A 
ATOM      9  C   UNL     1     -25.046  53.235  41.529  1.00  0.00     0.078 A 
ATOM     10  C   UNL     1     -25.402  51.948  41.114  1.00  0.00     0.223 A 
ENDROOT
BRANCH   1  11
ATOM     11  C   UNL     1     -26.702  49.824  41.547  1.00  0.00     0.087 A 
ATOM     12  C   UNL     1     -27.435  49.590  40.370  1.00  0.00     0.022 A 
ATOM     13  C   UNL     1     -27.858  48.297  40.047  1.00  0.00     0.051 A 
ATOM     14  C   UNL     1     -27.568  47.225  40.895  1.00  0.00     0.157 A 
ATOM     15  C   UNL     1     -26.431  48.747  42.408  1.00  0.00     0.068 A 
ATOM     16  C   UNL     1     -26.854  47.450  42.083  1.00  0.00     0.158 A 
BRANCH  14  17
ATOM     17  O   UNL     1     -28.002  45.947  40.544  1.00  0.00    -0.504 OA
ATOM     18  H   UNL     1     -27.619  45.448  39.750  1.00  0.00     0.293 HD
ENDBRANCH  14  17
BRANCH  16  19
ATOM     19  O   UNL     1     -26.568  46.386  42.939  1.00  0.00    -0.504 OA
ATOM     20  H   UNL     1     -27.263  46.016  43.576  1.00  0.00     0.293 HD
ENDBRANCH  16  19
ENDBRANCH   1  11
BRANCH  10  21
ATOM     21  O   UNL     1     -24.881  51.425  39.931  1.00  0.00    -0.500 OA
ATOM     22  H   UNL     1     -24.560  50.466  39.869  1.00  0.00     0.294 HD
ENDBRANCH  10  21
BRANCH   5  23
ATOM     23  O   UNL     1     -27.056  55.063  46.439  1.00  0.00    -0.507 OA
ATOM     24  H   UNL     1     -27.346  54.414  47.161  1.00  0.00     0.293 HD
ENDBRANCH   5  23
BRANCH   7  25
ATOM     25  O   UNL     1     -24.391  55.934  42.542  1.00  0.00    -0.507 OA
ATOM     26  H   UNL     1     -24.575  56.271  41.609  1.00  0.00     0.293 HD
ENDBRANCH   7  25
TORSDOF 6
ENDMDL
MODEL 3
REMARK VINA RESULT:    -4.365      1.517      7.267
REMARK INTER + INTRA:          -5.489
REMARK INTER:                  -5.278
REMARK INTRA:                  -0.212
REMARK UNBOUND:                -0.232
REMARK SMILES Oc1cc(O)c2cc(O)c(-c3ccc(O)c(O)c3)[o+]c2c1
REMARK SMILES IDX 10 1 19 2 20 3 21 4 2 5 3 6 4 7 6 8 7 9 8 10 11 11 12 12
REMARK SMILES IDX 13 13 14 14 18 15 16 16 15 17 17 19 9 21 1 23 5 25
REMARK H PARENT 15 18 17 20 9 22 1 24 5 26
REMARK Flexibility Score: inf
ROOT
ATOM      1  C   UNL     1     -25.873  51.921  43.842  1.00  0.00     0.402 A 
ATOM      2  O   UNL     1     -26.260  51.696  42.590  1.00  0.00    -0.202 OA
ATOM      3  C   UNL     1     -26.394  50.479  42.074  1.00  0.00     0.368 A 
ATOM      4  C   UNL     1     -26.810  50.344  40.747  1.00  0.00     0.162 A 
ATOM      5  C   UNL     1     -26.961  49.075  40.180  1.00  0.00     0.128 A 
ATOM      6  C   UNL     1     -26.698  47.936  40.944  1.00  0.00     0.093 A 
ATOM      7  C   UNL     1     -26.281  48.044  42.277  1.00  0.00     0.136 A 
ATOM      8  C   UNL     1     -26.122  49.330  42.856  1.00  0.00     0.125 A 
ATOM      9  C   UNL     1     -25.696  49.534  44.178  1.00  0.00     0.078 A 
ATOM     10  C   UNL     1     -25.558  50.833  44.678  1.00  0.00     0.223 A 
ENDROOT
BRANCH   1  11
ATOM     11  C   UNL     1     -25.771  53.324  44.303  1.00  0.00     0.087 A 
ATOM     12  C   UNL     1     -24.797  54.196  43.784  1.00  0.00     0.022 A 
ATOM     13  C   UNL     1     -24.706  55.510  44.252  1.00  0.00     0.051 A 
ATOM     14  C   UNL     1     -25.572  55.968  45.248  1.00  0.00     0.157 A 
ATOM     15  C   UNL     1     -26.626  53.781  45.318  1.00  0.00     0.068 A 
ATOM     16  C   UNL     1     -26.535  55.100  45.788  1.00  0.00     0.158 A 
BRANCH  14  17
ATOM     17  O   UNL     1     -25.458  57.285  45.694  1.00  0.00    -0.504 OA
ATOM     18  H   UNL     1     -26.267  57.880  45.827  1.00  0.00     0.293 HD
ENDBRANCH  14  17
BRANCH  16  19
ATOM     19  O   UNL     1     -27.398  55.549  46.788  1.00  0.00    -0.504 OA
ATOM     20  H   UNL     1     -27.925  56.408  46.688  1.00  0.00     0.293 HD
ENDBRANCH  16  19
ENDBRANCH   1  11
BRANCH  10  21
ATOM     21  O   UNL     1     -25.087  51.037  45.975  1.00  0.00    -0.500 OA
ATOM     22  H   UNL     1     -25.364  51.844  46.521  1.00  0.00     0.294 HD
ENDBRANCH  10  21
BRANCH   5  23
ATOM     23  O   UNL     1     -27.375  48.933  38.858  1.00  0.00    -0.507 OA
ATOM     24  H   UNL     1     -28.357  48.948  38.605  1.00  0.00     0.293 HD
ENDBRANCH   5  23
BRANCH   7  25
ATOM     25  O   UNL     1     -26.041  46.856  42.975  1.00  0.00    -0.507 OA
ATOM     26  H   UNL     1     -25.281  46.720  43.625  1.00  0.00     0.293 HD
ENDBRANCH   7  25
TORSDOF 6
ENDMDL
MODEL 4
REMARK VINA RESULT:    -4.335      1.760      6.957
REMARK INTER + INTRA:          -5.454
REMARK INTER:                  -5.305
REMARK INTRA:                  -0.149
REMARK UNBOUND:                -0.232
REMARK SMILES Oc1cc(O)c2cc(O)c(-c3ccc(O)c(O)c3)[o+]c2c1
REMARK SMILES IDX 10 1 19 2 20 3 21 4 2 5 3 6 4 7 6 8 7 9 8 10 11 11 12 12
REMARK SMILES IDX 13 13 14 14 18 15 16 16 15 17 17 19 9 21 1 23 5 25
REMARK H PARENT 15 18 17 20 9 22 1 24 5 26
REMARK Flexibility Score: inf
ROOT
ATOM      1  C   UNL     1     -25.832  52.321  43.323  1.00  0.00     0.402 A 
ATOM      2  O   UNL     1     -25.734  51.236  44.086  1.00  0.00    -0.202 OA
ATOM      3  C   UNL     1     -25.799  49.998  43.607  1.00  0.00     0.368 A 
ATOM      4  C   UNL     1     -25.683  48.920  44.489  1.00  0.00     0.162 A 
ATOM      5  C   UNL     1     -25.744  47.608  44.012  1.00  0.00     0.128 A 
ATOM      6  C   UNL     1     -25.920  47.373  42.646  1.00  0.00     0.093 A 
ATOM      7  C   UNL     1     -26.038  48.435  41.742  1.00  0.00     0.136 A 
ATOM      8  C   UNL     1     -25.980  49.769  42.222  1.00  0.00     0.125 A 
ATOM      9  C   UNL     1     -26.102  50.895  41.391  1.00  0.00     0.078 A 
ATOM     10  C   UNL     1     -26.039  52.180  41.938  1.00  0.00     0.223 A 
ENDROOT
BRANCH   1  11
ATOM     11  C   UNL     1     -25.735  53.647  43.975  1.00  0.00     0.087 A 
ATOM     12  C   UNL     1     -24.774  54.592  43.574  1.00  0.00     0.022 A 
ATOM     13  C   UNL     1     -24.687  55.828  44.221  1.00  0.00     0.051 A 
ATOM     14  C   UNL     1     -25.546  56.134  45.280  1.00  0.00     0.157 A 
ATOM     15  C   UNL     1     -26.583  53.950  45.053  1.00  0.00     0.068 A 
ATOM     16  C   UNL     1     -26.497  55.191  45.702  1.00  0.00     0.158 A 
BRANCH  14  17
ATOM     17  O   UNL     1     -25.435  57.377  45.904  1.00  0.00    -0.504 OA
ATOM     18  H   UNL     1     -24.605  57.650  46.416  1.00  0.00     0.293 HD
ENDBRANCH  14  17
BRANCH  16  19
ATOM     19  O   UNL     1     -27.352  55.487  46.763  1.00  0.00    -0.504 OA
ATOM     20  H   UNL     1     -27.790  56.396  46.854  1.00  0.00     0.293 HD
ENDBRANCH  16  19
ENDBRANCH   1  11
BRANCH  10  21
ATOM     21  O   UNL     1     -26.211  53.298  41.120  1.00  0.00    -0.500 OA
ATOM     22  H   UNL     1     -26.136  53.236  40.112  1.00  0.00     0.294 HD
ENDBRANCH  10  21
BRANCH   5  23
ATOM     23  O   UNL     1     -25.630  46.529  44.885  1.00  0.00    -0.507 OA
ATOM     24  H   UNL     1     -24.880  45.852  44.795  1.00  0.00     0.293 HD
ENDBRANCH   5  23
BRANCH   7  25
ATOM     25  O   UNL     1     -26.208  48.115  40.391  1.00  0.00    -0.507 OA
ATOM     26  H   UNL     1     -25.817  48.644  39.626  1.00  0.00     0.293 HD
ENDBRANCH   7  25
TORSDOF 6
ENDMDL
MODEL 5
REMARK VINA RESULT:    -4.178      1.329      7.216
REMARK INTER + INTRA:          -5.264
REMARK INTER:                  -4.937
REMARK INTRA:                  -0.327
REMARK UNBOUND:                -0.232
REMARK SMILES Oc1cc(O)c2cc(O)c(-c3ccc(O)c(O)c3)[o+]c2c1
REMARK SMILES IDX 10 1 19 2 20 3 21 4 2 5 3 6 4 7 6 8 7 9 8 10 11 11 12 12
REMARK SMILES IDX 13 13 14 14 18 15 16 16 15 17 17 19 9 21 1 23 5 25
REMARK H PARENT 15 18 17 20 9 22 1 24 5 26
REMARK Flexibility Score: inf
ROOT
ATOM      1  C   UNL     1     -25.974  51.214  43.299  1.00  0.00     0.402 A 
ATOM      2  O   UNL     1     -26.452  50.995  42.077  1.00  0.00    -0.202 OA
ATOM      3  C   UNL     1     -26.720  49.782  41.604  1.00  0.00     0.368 A 
ATOM      4  C   UNL     1     -27.222  49.654  40.306  1.00  0.00     0.162 A 
ATOM      5  C   UNL     1     -27.516  48.391  39.785  1.00  0.00     0.128 A 
ATOM      6  C   UNL     1     -27.308  47.251  40.566  1.00  0.00     0.093 A 
ATOM      7  C   UNL     1     -26.807  47.353  41.869  1.00  0.00     0.136 A 
ATOM      8  C   UNL     1     -26.503  48.633  42.401  1.00  0.00     0.125 A 
ATOM      9  C   UNL     1     -25.985  48.830  43.692  1.00  0.00     0.078 A 
ATOM     10  C   UNL     1     -25.706  50.122  44.146  1.00  0.00     0.223 A 
ENDROOT
BRANCH   1  11
ATOM     11  C   UNL     1     -25.724  52.613  43.713  1.00  0.00     0.087 A 
ATOM     12  C   UNL     1     -24.542  53.284  43.352  1.00  0.00     0.022 A 
ATOM     13  C   UNL     1     -24.318  54.597  43.775  1.00  0.00     0.051 A 
ATOM     14  C   UNL     1     -25.261  55.254  44.571  1.00  0.00     0.157 A 
ATOM     15  C   UNL     1     -26.659  53.269  44.530  1.00  0.00     0.068 A 
ATOM     16  C   UNL     1     -26.436  54.587  44.955  1.00  0.00     0.158 A 
BRANCH  14  17
ATOM     17  O   UNL     1     -25.010  56.565  44.976  1.00  0.00    -0.504 OA
ATOM     18  H   UNL     1     -25.501  56.992  45.753  1.00  0.00     0.293 HD
ENDBRANCH  14  17
BRANCH  16  19
ATOM     19  O   UNL     1     -27.377  55.234  45.756  1.00  0.00    -0.504 OA
ATOM     20  H   UNL     1     -28.282  55.510  45.393  1.00  0.00     0.293 HD
ENDBRANCH  16  19
ENDBRANCH   1  11
BRANCH  10  21
ATOM     21  O   UNL     1     -25.145  50.314  45.408  1.00  0.00    -0.500 OA
ATOM     22  H   UNL     1     -25.508  49.846  46.229  1.00  0.00     0.294 HD
ENDBRANCH  10  21
BRANCH   5  23
ATOM     23  O   UNL     1     -28.017  48.255  38.492  1.00  0.00    -0.507 OA
ATOM     24  H   UNL     1     -27.513  47.738  37.781  1.00  0.00     0.293 HD
ENDBRANCH   5  23
BRANCH   7  25
ATOM     25  O   UNL     1     -26.630  46.165  42.585  1.00  0.00    -0.507 OA
ATOM     26  H   UNL     1     -27.328  45.441  42.669  1.00  0.00     0.293 HD
ENDBRANCH   7  25
TORSDOF 6
ENDMDL
MODEL 6
REMARK VINA RESULT:    -4.150      1.594      6.933
REMARK INTER + INTRA:          -5.231
REMARK INTER:                  -4.886
REMARK INTRA:                  -0.345
REMARK UNBOUND:                -0.232
REMARK SMILES Oc1cc(O)c2cc(O)c(-c3ccc(O)c(O)c3)[o+]c2c1
REMARK SMILES IDX 10 1 19 2 20 3 21 4 2 5 3 6 4 7 6 8 7 9 8 10 11 11 12 12
REMARK SMILES IDX 13 13 14 14 18 15 16 16 15 17 17 19 9 21 1 23 5 25
REMARK H PARENT 15 18 17 20 9 22 1 24 5 26
REMARK Flexibility Score: inf
ROOT
ATOM      1  C   UNL     1     -25.863  51.413  43.084  1.00  0.00     0.402 A 
ATOM      2  O   UNL     1     -25.995  50.230  43.679  1.00  0.00    -0.202 OA
ATOM      3  C   UNL     1     -26.274  49.110  43.022  1.00  0.00     0.368 A 
ATOM      4  C   UNL     1     -26.391  47.914  43.736  1.00  0.00     0.162 A 
ATOM      5  C   UNL     1     -26.681  46.720  43.069  1.00  0.00     0.128 A 
ATOM      6  C   UNL     1     -26.853  46.721  41.683  1.00  0.00     0.093 A 
ATOM      7  C   UNL     1     -26.741  47.906  40.945  1.00  0.00     0.136 A 
ATOM      8  C   UNL     1     -26.450  49.121  41.617  1.00  0.00     0.125 A 
ATOM      9  C   UNL     1     -26.332  50.358  40.961  1.00  0.00     0.078 A 
ATOM     10  C   UNL     1     -26.048  51.515  41.692  1.00  0.00     0.223 A 
ENDROOT
BRANCH   1  11
ATOM     11  C   UNL     1     -25.541  52.588  43.924  1.00  0.00     0.087 A 
ATOM     12  C   UNL     1     -24.213  52.909  44.256  1.00  0.00     0.022 A 
ATOM     13  C   UNL     1     -23.935  54.011  45.071  1.00  0.00     0.051 A 
ATOM     14  C   UNL     1     -24.975  54.797  45.575  1.00  0.00     0.157 A 
ATOM     15  C   UNL     1     -26.584  53.369  44.449  1.00  0.00     0.068 A 
ATOM     16  C   UNL     1     -26.306  54.475  45.267  1.00  0.00     0.158 A 
BRANCH  14  17
ATOM     17  O   UNL     1     -24.666  55.891  46.385  1.00  0.00    -0.504 OA
ATOM     18  H   UNL     1     -24.831  55.884  47.384  1.00  0.00     0.293 HD
ENDBRANCH  14  17
BRANCH  16  19
ATOM     19  O   UNL     1     -27.349  55.251  45.772  1.00  0.00    -0.504 OA
ATOM     20  H   UNL     1     -28.278  54.869  45.906  1.00  0.00     0.293 HD
ENDBRANCH  16  19
ENDBRANCH   1  11
BRANCH  10  21
ATOM     21  O   UNL     1     -25.980  52.751  41.048  1.00  0.00    -0.500 OA
ATOM     22  H   UNL     1     -26.544  52.957  40.232  1.00  0.00     0.294 HD
ENDBRANCH  10  21
BRANCH   5  23
ATOM     23  O   UNL     1     -26.799  45.524  43.774  1.00  0.00    -0.507 OA
ATOM     24  H   UNL     1     -27.576  45.353  44.401  1.00  0.00     0.293 HD
ENDBRANCH   5  23
BRANCH   7  25
ATOM     25  O   UNL     1     -26.924  47.822  39.561  1.00  0.00    -0.507 OA
ATOM     26  H   UNL     1     -26.195  47.971  38.879  1.00  0.00     0.293 HD
ENDBRANCH   7  25
TORSDOF 6
ENDMDL
MODEL 7
REMARK VINA RESULT:    -4.001      1.783      7.064
REMARK INTER + INTRA:          -5.051
REMARK INTER:                  -4.700
REMARK INTRA:                  -0.350
REMARK UNBOUND:                -0.232
REMARK SMILES Oc1cc(O)c2cc(O)c(-c3ccc(O)c(O)c3)[o+]c2c1
REMARK SMILES IDX 10 1 19 2 20 3 21 4 2 5 3 6 4 7 6 8 7 9 8 10 11 11 12 12
REMARK SMILES IDX 13 13 14 14 18 15 16 16 15 17 17 19 9 21 1 23 5 25
REMARK H PARENT 15 18 17 20 9 22 1 24 5 26
REMARK Flexibility Score: inf
ROOT
ATOM      1  C   UNL     1     -26.164  50.340  42.539  1.00  0.00     0.402 A 
ATOM      2  O   UNL     1     -26.405  49.211  43.201  1.00  0.00    -0.202 OA
ATOM      3  C   UNL     1     -26.788  48.085  42.608  1.00  0.00     0.368 A 
ATOM      4  C   UNL     1     -27.014  46.948  43.389  1.00  0.00     0.162 A 
ATOM      5  C   UNL     1     -27.414  45.750  42.792  1.00  0.00     0.128 A 
ATOM      6  C   UNL     1     -27.587  45.687  41.407  1.00  0.00     0.093 A 
ATOM      7  C   UNL     1     -27.366  46.811  40.603  1.00  0.00     0.136 A 
ATOM      8  C   UNL     1     -26.963  48.031  41.204  1.00  0.00     0.125 A 
ATOM      9  C   UNL     1     -26.731  49.211  40.479  1.00  0.00     0.078 A 
ATOM     10  C   UNL     1     -26.340  50.378  41.143  1.00  0.00     0.223 A 
ENDROOT
BRANCH   1  11
ATOM     11  C   UNL     1     -25.734  51.527  43.312  1.00  0.00     0.087 A 
ATOM     12  C   UNL     1     -24.373  51.840  43.475  1.00  0.00     0.022 A 
ATOM     13  C   UNL     1     -23.990  52.953  44.229  1.00  0.00     0.051 A 
ATOM     14  C   UNL     1     -24.955  53.760  44.839  1.00  0.00     0.157 A 
ATOM     15  C   UNL     1     -26.700  52.327  43.943  1.00  0.00     0.068 A 
ATOM     16  C   UNL     1     -26.316  53.445  44.700  1.00  0.00     0.158 A 
BRANCH  14  17
ATOM     17  O   UNL     1     -24.542  54.865  45.584  1.00  0.00    -0.504 OA
ATOM     18  H   UNL     1     -24.641  54.901  46.592  1.00  0.00     0.293 HD
ENDBRANCH  14  17
BRANCH  16  19
ATOM     19  O   UNL     1     -27.284  54.241  45.312  1.00  0.00    -0.504 OA
ATOM     20  H   UNL     1     -28.077  53.835  45.795  1.00  0.00     0.293 HD
ENDBRANCH  16  19
ENDBRANCH   1  11
BRANCH  10  21
ATOM     21  O   UNL     1     -26.159  51.562  40.429  1.00  0.00    -0.500 OA
ATOM     22  H   UNL     1     -26.749  51.805  39.642  1.00  0.00     0.294 HD
ENDBRANCH  10  21
BRANCH   5  23
ATOM     23  O   UNL     1     -27.641  44.613  43.564  1.00  0.00    -0.507 OA
ATOM     24  H   UNL     1     -27.701  44.662  44.575  1.00  0.00     0.293 HD
ENDBRANCH   5  23
BRANCH   7  25
ATOM     25  O   UNL     1     -27.557  46.665  39.225  1.00  0.00    -0.507 OA
ATOM     26  H   UNL     1     -27.018  47.145  38.520  1.00  0.00     0.293 HD
ENDBRANCH   7  25
TORSDOF 6
ENDMDL
MODEL 8
REMARK VINA RESULT:    -3.932      7.826      8.746
REMARK INTER + INTRA:          -4.968
REMARK INTER:                  -4.683
REMARK INTRA:                  -0.285
REMARK UNBOUND:                -0.232
REMARK SMILES Oc1cc(O)c2cc(O)c(-c3ccc(O)c(O)c3)[o+]c2c1
REMARK SMILES IDX 10 1 19 2 20 3 21 4 2 5 3 6 4 7 6 8 7 9 8 10 11 11 12 12
REMARK SMILES IDX 13 13 14 14 18 15 16 16 15 17 17 19 9 21 1 23 5 25
REMARK H PARENT 15 18 17 20 9 22 1 24 5 26
REMARK Flexibility Score: inf
ROOT
ATOM      1  C   UNL     1     -27.172  55.024  34.319  1.00  0.00     0.402 A 
ATOM      2  O   UNL     1     -27.210  55.635  35.500  1.00  0.00    -0.202 OA
ATOM      3  C   UNL     1     -27.518  56.919  35.650  1.00  0.00     0.368 A 
ATOM      4  C   UNL     1     -27.533  57.470  36.934  1.00  0.00     0.162 A 
ATOM      5  C   UNL     1     -27.857  58.816  37.120  1.00  0.00     0.128 A 
ATOM      6  C   UNL     1     -28.169  59.615  36.017  1.00  0.00     0.093 A 
ATOM      7  C   UNL     1     -28.163  59.087  34.721  1.00  0.00     0.136 A 
ATOM      8  C   UNL     1     -27.831  57.721  34.526  1.00  0.00     0.125 A 
ATOM      9  C   UNL     1     -27.786  57.109  33.262  1.00  0.00     0.078 A 
ATOM     10  C   UNL     1     -27.446  55.758  33.149  1.00  0.00     0.223 A 
ENDROOT
BRANCH   1  11
ATOM     11  C   UNL     1     -26.824  53.586  34.284  1.00  0.00     0.087 A 
ATOM     12  C   UNL     1     -25.499  53.149  34.461  1.00  0.00     0.022 A 
ATOM     13  C   UNL     1     -25.191  51.787  34.401  1.00  0.00     0.051 A 
ATOM     14  C   UNL     1     -26.193  50.846  34.152  1.00  0.00     0.157 A 
ATOM     15  C   UNL     1     -27.825  52.639  34.014  1.00  0.00     0.068 A 
ATOM     16  C   UNL     1     -27.516  51.272  33.953  1.00  0.00     0.158 A 
BRANCH  14  17
ATOM     17  O   UNL     1     -25.855  49.493  34.099  1.00  0.00    -0.504 OA
ATOM     18  H   UNL     1     -25.868  48.903  34.922  1.00  0.00     0.293 HD
ENDBRANCH  14  17
BRANCH  16  19
ATOM     19  O   UNL     1     -28.520  50.338  33.697  1.00  0.00    -0.504 OA
ATOM     20  H   UNL     1     -28.563  49.833  32.820  1.00  0.00     0.293 HD
ENDBRANCH  16  19
ENDBRANCH   1  11
BRANCH  10  21
ATOM     21  O   UNL     1     -27.351  55.163  31.891  1.00  0.00    -0.500 OA
ATOM     22  H   UNL     1     -26.586  54.546  31.650  1.00  0.00     0.294 HD
ENDBRANCH  10  21
BRANCH   5  23
ATOM     23  O   UNL     1     -27.873  59.373  38.396  1.00  0.00    -0.507 OA
ATOM     24  H   UNL     1     -27.877  60.377  38.537  1.00  0.00     0.293 HD
ENDBRANCH   5  23
BRANCH   7  25
ATOM     25  O   UNL     1     -28.490  59.951  33.671  1.00  0.00    -0.507 OA
ATOM     26  H   UNL     1     -29.425  60.090  33.317  1.00  0.00     0.293 HD
ENDBRANCH   7  25
TORSDOF 6
ENDMDL
