MODEL 1
REMARK VINA RESULT:    -5.167      0.000      0.000
REMARK INTER + INTRA:         -18.622
REMARK INTER:                 -13.624
REMARK INTRA:                  -4.998
REMARK UNBOUND:                -4.998
REMARK SMILES CCCCCCCCCCCCCCCCCCCCCCCCCCCCCC(=O)[O-]
REMARK SMILES IDX 16 1 17 2 18 3 19 4 20 5 21 6 22 7 23 8 24 9 25 10 26 11
REMARK SMILES IDX 27 12 28 13 29 14 30 15 31 16 32 17 15 18 14 19 13 20 12 21
REMARK SMILES IDX 11 22 10 23 9 24 8 25 7 26 6 27 5 28 4 29 3 30 2 31 1 32
REMARK H PARENT
REMARK Flexibility Score: inf
ROOT
ATOM      1  C   UNL     1      18.459 -25.957 -27.134  1.00  0.00     0.000 C 
ENDROOT
BRANCH   1   2
ATOM      2  C   UNL     1      18.199 -25.503 -25.690  1.00  0.00     0.000 C 
BRANCH   2   3
ATOM      3  C   UNL     1      17.928 -23.995 -25.633  1.00  0.00     0.000 C 
BRANCH   3   4
ATOM      4  C   UNL     1      16.463 -23.682 -25.969  1.00  0.00     0.000 C 
BRANCH   4   5
ATOM      5  C   UNL     1      16.311 -22.601 -27.057  1.00  0.00     0.000 C 
BRANCH   5   6
ATOM      6  C   UNL     1      16.465 -23.103 -28.506  1.00  0.00     0.000 C 
BRANCH   6   7
ATOM      7  C   UNL     1      15.348 -24.074 -28.925  1.00  0.00     0.000 C 
BRANCH   7   8
ATOM      8  C   UNL     1      14.066 -23.346 -29.359  1.00  0.00     0.000 C 
BRANCH   8   9
ATOM      9  C   UNL     1      12.833 -23.763 -28.538  1.00  0.00     0.000 C 
BRANCH   9  10
ATOM     10  C   UNL     1      12.586 -22.843 -27.329  1.00  0.00     0.000 C 
BRANCH  10  11
ATOM     11  C   UNL     1      12.593 -21.334 -27.650  1.00  0.00     0.000 C 
BRANCH  11  12
ATOM     12  C   UNL     1      12.411 -20.406 -26.433  1.00  0.00     0.000 C 
BRANCH  12  13
ATOM     13  C   UNL     1      12.476 -18.898 -26.748  1.00  0.00     0.006 C 
BRANCH  13  14
ATOM     14  C   UNL     1      11.110 -18.250 -27.031  1.00  0.00     0.053 C 
BRANCH  14  15
ATOM     15  C   UNL     1      10.787 -18.239 -28.493  1.00  0.00     0.041 C 
ATOM     16  O   UNL     1       9.594 -18.350 -28.881  1.00  0.00    -0.550 OA
ATOM     17  O   UNL     1      11.801 -18.070 -29.427  1.00  0.00    -0.550 OA
ENDBRANCH  14  15
ENDBRANCH  13  14
ENDBRANCH  12  13
ENDBRANCH  11  12
ENDBRANCH  10  11
ENDBRANCH   9  10
ENDBRANCH   8   9
ENDBRANCH   7   8
ENDBRANCH   6   7
ENDBRANCH   5   6
ENDBRANCH   4   5
ENDBRANCH   3   4
ENDBRANCH   2   3
ENDBRANCH   1   2
BRANCH   1  18
ATOM     18  C   UNL     1      17.593 -27.158 -27.549  1.00  0.00     0.000 C 
BRANCH  18  19
ATOM     19  C   UNL     1      17.749 -27.600 -29.020  1.00  0.00     0.000 C 
BRANCH  19  20
ATOM     20  C   UNL     1      16.519 -27.359 -29.915  1.00  0.00     0.000 C 
BRANCH  20  21
ATOM     21  C   UNL     1      16.826 -26.830 -31.331  1.00  0.00     0.000 C 
BRANCH  21  22
ATOM     22  C   UNL     1      18.174 -26.084 -31.444  1.00  0.00     0.000 C 
BRANCH  22  23
ATOM     23  C   UNL     1      17.993 -24.565 -31.602  1.00  0.00     0.000 C 
BRANCH  23  24
ATOM     24  C   UNL     1      19.181 -23.757 -31.048  1.00  0.00    -0.000 C 
BRANCH  24  25
ATOM     25  C   UNL     1      20.060 -24.497 -30.016  1.00  0.00    -0.000 C 
BRANCH  25  26
ATOM     26  C   UNL     1      21.505 -23.982 -29.887  1.00  0.00    -0.000 C 
BRANCH  26  27
ATOM     27  C   UNL     1      21.666 -22.887 -28.822  1.00  0.00    -0.000 C 
BRANCH  27  28
ATOM     28  C   UNL     1      20.472 -22.892 -27.856  1.00  0.00    -0.000 C 
BRANCH  28  29
ATOM     29  C   UNL     1      19.885 -21.490 -27.615  1.00  0.00    -0.000 C 
BRANCH  29  30
ATOM     30  C   UNL     1      19.177 -20.857 -28.829  1.00  0.00    -0.000 C 
BRANCH  30  31
ATOM     31  C   UNL     1      19.795 -19.519 -29.260  1.00  0.00    -0.003 C 
ATOM     32  C   UNL     1      20.712 -19.697 -30.466  1.00  0.00     0.004 C 
ENDBRANCH  30  31
ENDBRANCH  29  30
ENDBRANCH  28  29
ENDBRANCH  27  28
ENDBRANCH  26  27
ENDBRANCH  25  26
ENDBRANCH  24  25
ENDBRANCH  23  24
ENDBRANCH  22  23
ENDBRANCH  21  22
ENDBRANCH  20  21
ENDBRANCH  19  20
ENDBRANCH  18  19
ENDBRANCH   1  18
TORSDOF 28
ENDMDL
MODEL 2
REMARK VINA RESULT:    -5.127      1.256      2.031
REMARK INTER + INTRA:         -18.518
REMARK INTER:                 -13.690
REMARK INTRA:                  -4.828
REMARK UNBOUND:                -4.998
REMARK SMILES CCCCCCCCCCCCCCCCCCCCCCCCCCCCCC(=O)[O-]
REMARK SMILES IDX 16 1 17 2 18 3 19 4 20 5 21 6 22 7 23 8 24 9 25 10 26 11
REMARK SMILES IDX 27 12 28 13 29 14 30 15 31 16 32 17 15 18 14 19 13 20 12 21
REMARK SMILES IDX 11 22 10 23 9 24 8 25 7 26 6 27 5 28 4 29 3 30 2 31 1 32
REMARK H PARENT
REMARK Flexibility Score: inf
ROOT
ATOM      1  C   UNL     1      18.111 -25.620 -26.295  1.00  0.00     0.000 C 
ENDROOT
BRANCH   1   2
ATOM      2  C   UNL     1      18.674 -24.325 -25.690  1.00  0.00     0.000 C 
BRANCH   2   3
ATOM      3  C   UNL     1      17.696 -23.161 -25.890  1.00  0.00     0.000 C 
BRANCH   3   4
ATOM      4  C   UNL     1      16.289 -23.673 -26.233  1.00  0.00     0.000 C 
BRANCH   4   5
ATOM      5  C   UNL     1      15.623 -22.882 -27.377  1.00  0.00     0.000 C 
BRANCH   5   6
ATOM      6  C   UNL     1      15.195 -23.725 -28.594  1.00  0.00     0.000 C 
BRANCH   6   7
ATOM      7  C   UNL     1      13.841 -23.286 -29.179  1.00  0.00     0.000 C 
BRANCH   7   8
ATOM      8  C   UNL     1      12.658 -24.060 -28.575  1.00  0.00     0.000 C 
BRANCH   8   9
ATOM      9  C   UNL     1      11.583 -23.138 -27.975  1.00  0.00     0.000 C 
BRANCH   9  10
ATOM     10  C   UNL     1      11.873 -22.761 -26.511  1.00  0.00     0.000 C 
BRANCH  10  11
ATOM     11  C   UNL     1      11.838 -21.248 -26.212  1.00  0.00     0.000 C 
BRANCH  11  12
ATOM     12  C   UNL     1      12.870 -20.405 -26.986  1.00  0.00     0.000 C 
BRANCH  12  13
ATOM     13  C   UNL     1      12.628 -18.882 -26.947  1.00  0.00     0.006 C 
BRANCH  13  14
ATOM     14  C   UNL     1      11.934 -18.319 -28.198  1.00  0.00     0.053 C 
BRANCH  14  15
ATOM     15  C   UNL     1      10.463 -18.130 -27.986  1.00  0.00     0.041 C 
ATOM     16  O   UNL     1      10.025 -17.767 -26.863  1.00  0.00    -0.550 OA
ATOM     17  O   UNL     1       9.579 -18.320 -29.041  1.00  0.00    -0.550 OA
ENDBRANCH  14  15
ENDBRANCH  13  14
ENDBRANCH  12  13
ENDBRANCH  11  12
ENDBRANCH  10  11
ENDBRANCH   9  10
ENDBRANCH   8   9
ENDBRANCH   7   8
ENDBRANCH   6   7
ENDBRANCH   5   6
ENDBRANCH   4   5
ENDBRANCH   3   4
ENDBRANCH   2   3
ENDBRANCH   1   2
BRANCH   1  18
ATOM     18  C   UNL     1      18.914 -26.109 -27.513  1.00  0.00     0.000 C 
BRANCH  18  19
ATOM     19  C   UNL     1      18.232 -27.217 -28.343  1.00  0.00     0.000 C 
BRANCH  19  20
ATOM     20  C   UNL     1      16.785 -26.918 -28.780  1.00  0.00     0.000 C 
BRANCH  20  21
ATOM     21  C   UNL     1      16.444 -27.295 -30.237  1.00  0.00     0.000 C 
BRANCH  21  22
ATOM     22  C   UNL     1      17.603 -27.068 -31.232  1.00  0.00     0.000 C 
BRANCH  22  23
ATOM     23  C   UNL     1      17.240 -26.062 -32.337  1.00  0.00     0.000 C 
BRANCH  23  24
ATOM     24  C   UNL     1      16.437 -24.857 -31.815  1.00  0.00    -0.000 C 
BRANCH  24  25
ATOM     25  C   UNL     1      17.068 -23.474 -32.088  1.00  0.00    -0.000 C 
BRANCH  25  26
ATOM     26  C   UNL     1      17.555 -22.710 -30.843  1.00  0.00    -0.000 C 
BRANCH  26  27
ATOM     27  C   UNL     1      18.547 -23.512 -29.989  1.00  0.00    -0.000 C 
BRANCH  27  28
ATOM     28  C   UNL     1      19.366 -22.576 -29.089  1.00  0.00    -0.000 C 
BRANCH  28  29
ATOM     29  C   UNL     1      18.863 -21.121 -29.113  1.00  0.00    -0.000 C 
BRANCH  29  30
ATOM     30  C   UNL     1      19.677 -20.131 -28.258  1.00  0.00    -0.000 C 
BRANCH  30  31
ATOM     31  C   UNL     1      19.914 -20.623 -26.822  1.00  0.00    -0.003 C 
ATOM     32  C   UNL     1      20.100 -19.452 -25.861  1.00  0.00     0.004 C 
ENDBRANCH  30  31
ENDBRANCH  29  30
ENDBRANCH  28  29
ENDBRANCH  27  28
ENDBRANCH  26  27
ENDBRANCH  25  26
ENDBRANCH  24  25
ENDBRANCH  23  24
ENDBRANCH  22  23
ENDBRANCH  21  22
ENDBRANCH  20  21
ENDBRANCH  19  20
ENDBRANCH  18  19
ENDBRANCH   1  18
TORSDOF 28
ENDMDL
MODEL 3
REMARK VINA RESULT:    -5.120      3.200      7.450
REMARK INTER + INTRA:         -18.500
REMARK INTER:                 -13.755
REMARK INTRA:                  -4.745
REMARK UNBOUND:                -4.998
REMARK SMILES CCCCCCCCCCCCCCCCCCCCCCCCCCCCCC(=O)[O-]
REMARK SMILES IDX 16 1 17 2 18 3 19 4 20 5 21 6 22 7 23 8 24 9 25 10 26 11
REMARK SMILES IDX 27 12 28 13 29 14 30 15 31 16 32 17 15 18 14 19 13 20 12 21
REMARK SMILES IDX 11 22 10 23 9 24 8 25 7 26 6 27 5 28 4 29 3 30 2 31 1 32
REMARK H PARENT
REMARK Flexibility Score: inf
ROOT
ATOM      1  C   UNL     1      19.035 -24.320 -24.002  1.00  0.00     0.000 C 
ENDROOT
BRANCH   1   2
ATOM      2  C   UNL     1      18.691 -22.855 -23.697  1.00  0.00     0.000 C 
BRANCH   2   3
ATOM      3  C   UNL     1      19.204 -21.932 -24.809  1.00  0.00     0.000 C 
BRANCH   3   4
ATOM      4  C   UNL     1      20.446 -22.523 -25.491  1.00  0.00     0.000 C 
BRANCH   4   5
ATOM      5  C   UNL     1      20.329 -22.563 -27.027  1.00  0.00     0.000 C 
BRANCH   5   6
ATOM      6  C   UNL     1      19.320 -21.569 -27.633  1.00  0.00     0.000 C 
BRANCH   6   7
ATOM      7  C   UNL     1      19.649 -21.194 -29.089  1.00  0.00     0.000 C 
BRANCH   7   8
ATOM      8  C   UNL     1      18.455 -21.396 -30.035  1.00  0.00     0.000 C 
BRANCH   8   9
ATOM      9  C   UNL     1      18.071 -22.876 -30.207  1.00  0.00     0.000 C 
BRANCH   9  10
ATOM     10  C   UNL     1      19.295 -23.787 -30.412  1.00  0.00     0.000 C 
BRANCH  10  11
ATOM     11  C   UNL     1      18.992 -25.299 -30.371  1.00  0.00     0.000 C 
BRANCH  11  12
ATOM     12  C   UNL     1      18.233 -25.846 -31.595  1.00  0.00     0.000 C 
BRANCH  12  13
ATOM     13  C   UNL     1      17.034 -26.758 -31.264  1.00  0.00     0.006 C 
BRANCH  13  14
ATOM     14  C   UNL     1      16.787 -26.959 -29.760  1.00  0.00     0.053 C 
BRANCH  14  15
ATOM     15  C   UNL     1      15.954 -28.173 -29.486  1.00  0.00     0.041 C 
ATOM     16  O   UNL     1      15.352 -28.756 -30.426  1.00  0.00    -0.550 OA
ATOM     17  O   UNL     1      15.872 -28.683 -28.196  1.00  0.00    -0.550 OA
ENDBRANCH  14  15
ENDBRANCH  13  14
ENDBRANCH  12  13
ENDBRANCH  11  12
ENDBRANCH  10  11
ENDBRANCH   9  10
ENDBRANCH   8   9
ENDBRANCH   7   8
ENDBRANCH   6   7
ENDBRANCH   5   6
ENDBRANCH   4   5
ENDBRANCH   3   4
ENDBRANCH   2   3
ENDBRANCH   1   2
BRANCH   1  18
ATOM     18  C   UNL     1      17.865 -25.089 -24.639  1.00  0.00     0.000 C 
BRANCH  18  19
ATOM     19  C   UNL     1      18.027 -25.399 -26.142  1.00  0.00     0.000 C 
BRANCH  19  20
ATOM     20  C   UNL     1      17.151 -24.558 -27.088  1.00  0.00     0.000 C 
BRANCH  20  21
ATOM     21  C   UNL     1      16.288 -23.478 -26.404  1.00  0.00     0.000 C 
BRANCH  21  22
ATOM     22  C   UNL     1      15.358 -22.712 -27.370  1.00  0.00     0.000 C 
BRANCH  22  23
ATOM     23  C   UNL     1      15.135 -23.464 -28.693  1.00  0.00     0.000 C 
BRANCH  23  24
ATOM     24  C   UNL     1      13.726 -24.074 -28.808  1.00  0.00    -0.000 C 
BRANCH  24  25
ATOM     25  C   UNL     1      12.643 -23.132 -29.378  1.00  0.00    -0.000 C 
BRANCH  25  26
ATOM     26  C   UNL     1      11.396 -22.946 -28.495  1.00  0.00    -0.000 C 
BRANCH  26  27
ATOM     27  C   UNL     1      11.625 -23.344 -27.030  1.00  0.00    -0.000 C 
BRANCH  27  28
ATOM     28  C   UNL     1      11.990 -22.114 -26.186  1.00  0.00    -0.000 C 
BRANCH  28  29
ATOM     29  C   UNL     1      11.963 -20.801 -26.988  1.00  0.00    -0.000 C 
BRANCH  29  30
ATOM     30  C   UNL     1      12.998 -19.745 -26.553  1.00  0.00    -0.000 C 
BRANCH  30  31
ATOM     31  C   UNL     1      12.360 -18.480 -25.959  1.00  0.00    -0.003 C 
ATOM     32  C   UNL     1      12.461 -18.474 -24.437  1.00  0.00     0.004 C 
ENDBRANCH  30  31
ENDBRANCH  29  30
ENDBRANCH  28  29
ENDBRANCH  27  28
ENDBRANCH  26  27
ENDBRANCH  25  26
ENDBRANCH  24  25
ENDBRANCH  23  24
ENDBRANCH  22  23
ENDBRANCH  21  22
ENDBRANCH  20  21
ENDBRANCH  19  20
ENDBRANCH  18  19
ENDBRANCH   1  18
TORSDOF 28
ENDMDL
MODEL 4
REMARK VINA RESULT:    -5.112      3.095      7.588
REMARK INTER + INTRA:         -18.479
REMARK INTER:                 -13.315
REMARK INTRA:                  -5.164
REMARK UNBOUND:                -4.998
REMARK SMILES CCCCCCCCCCCCCCCCCCCCCCCCCCCCCC(=O)[O-]
REMARK SMILES IDX 16 1 17 2 18 3 19 4 20 5 21 6 22 7 23 8 24 9 25 10 26 11
REMARK SMILES IDX 27 12 28 13 29 14 30 15 31 16 32 17 15 18 14 19 13 20 12 21
REMARK SMILES IDX 11 22 10 23 9 24 8 25 7 26 6 27 5 28 4 29 3 30 2 31 1 32
REMARK H PARENT
REMARK Flexibility Score: inf
ROOT
ATOM      1  C   UNL     1      19.444 -20.460 -26.726  1.00  0.00     0.000 C 
ENDROOT
BRANCH   1   2
ATOM      2  C   UNL     1      19.030 -21.209 -28.000  1.00  0.00     0.000 C 
BRANCH   2   3
ATOM      3  C   UNL     1      20.137 -21.135 -29.060  1.00  0.00     0.000 C 
BRANCH   3   4
ATOM      4  C   UNL     1      19.544 -21.045 -30.473  1.00  0.00     0.000 C 
BRANCH   4   5
ATOM      5  C   UNL     1      18.125 -21.640 -30.571  1.00  0.00     0.000 C 
BRANCH   5   6
ATOM      6  C   UNL     1      17.609 -21.873 -32.004  1.00  0.00     0.000 C 
BRANCH   6   7
ATOM      7  C   UNL     1      17.580 -23.361 -32.395  1.00  0.00     0.000 C 
BRANCH   7   8
ATOM      8  C   UNL     1      17.886 -24.289 -31.208  1.00  0.00     0.000 C 
BRANCH   8   9
ATOM      9  C   UNL     1      19.270 -24.953 -31.308  1.00  0.00     0.000 C 
BRANCH   9  10
ATOM     10  C   UNL     1      20.098 -24.796 -30.020  1.00  0.00     0.000 C 
BRANCH  10  11
ATOM     11  C   UNL     1      19.272 -24.764 -28.718  1.00  0.00     0.000 C 
BRANCH  11  12
ATOM     12  C   UNL     1      19.433 -25.999 -27.811  1.00  0.00     0.000 C 
BRANCH  12  13
ATOM     13  C   UNL     1      18.486 -27.173 -28.135  1.00  0.00     0.006 C 
BRANCH  13  14
ATOM     14  C   UNL     1      17.094 -26.746 -28.628  1.00  0.00     0.053 C 
BRANCH  14  15
ATOM     15  C   UNL     1      16.388 -27.858 -29.343  1.00  0.00     0.041 C 
ATOM     16  O   UNL     1      16.509 -29.047 -28.946  1.00  0.00    -0.550 OA
ATOM     17  O   UNL     1      15.566 -27.575 -30.426  1.00  0.00    -0.550 OA
ENDBRANCH  14  15
ENDBRANCH  13  14
ENDBRANCH  12  13
ENDBRANCH  11  12
ENDBRANCH  10  11
ENDBRANCH   9  10
ENDBRANCH   8   9
ENDBRANCH   7   8
ENDBRANCH   6   7
ENDBRANCH   5   6
ENDBRANCH   4   5
ENDBRANCH   3   4
ENDBRANCH   2   3
ENDBRANCH   1   2
BRANCH   1  18
ATOM     18  C   UNL     1      18.909 -21.120 -25.443  1.00  0.00     0.000 C 
BRANCH  18  19
ATOM     19  C   UNL     1      19.814 -22.217 -24.845  1.00  0.00     0.000 C 
BRANCH  19  20
ATOM     20  C   UNL     1      19.170 -23.612 -24.727  1.00  0.00     0.000 C 
BRANCH  20  21
ATOM     21  C   UNL     1      17.843 -23.663 -23.942  1.00  0.00     0.000 C 
BRANCH  21  22
ATOM     22  C   UNL     1      16.632 -24.118 -24.785  1.00  0.00     0.000 C 
BRANCH  22  23
ATOM     23  C   UNL     1      16.876 -23.965 -26.295  1.00  0.00     0.000 C 
BRANCH  23  24
ATOM     24  C   UNL     1      15.877 -23.008 -26.973  1.00  0.00    -0.000 C 
BRANCH  24  25
ATOM     25  C   UNL     1      15.683 -23.221 -28.490  1.00  0.00    -0.000 C 
BRANCH  25  26
ATOM     26  C   UNL     1      14.347 -23.865 -28.902  1.00  0.00    -0.000 C 
BRANCH  26  27
ATOM     27  C   UNL     1      13.122 -23.162 -28.300  1.00  0.00    -0.000 C 
BRANCH  27  28
ATOM     28  C   UNL     1      12.638 -22.033 -29.222  1.00  0.00    -0.000 C 
BRANCH  28  29
ATOM     29  C   UNL     1      11.997 -20.861 -28.458  1.00  0.00    -0.000 C 
BRANCH  29  30
ATOM     30  C   UNL     1      12.117 -20.934 -26.923  1.00  0.00    -0.000 C 
BRANCH  30  31
ATOM     31  C   UNL     1      12.271 -19.556 -26.262  1.00  0.00    -0.003 C 
ATOM     32  C   UNL     1      12.477 -18.463 -27.306  1.00  0.00     0.004 C 
ENDBRANCH  30  31
ENDBRANCH  29  30
ENDBRANCH  28  29
ENDBRANCH  27  28
ENDBRANCH  26  27
ENDBRANCH  25  26
ENDBRANCH  24  25
ENDBRANCH  23  24
ENDBRANCH  22  23
ENDBRANCH  21  22
ENDBRANCH  20  21
ENDBRANCH  19  20
ENDBRANCH  18  19
ENDBRANCH   1  18
TORSDOF 28
ENDMDL
MODEL 5
REMARK VINA RESULT:    -5.085      1.658      4.174
REMARK INTER + INTRA:         -18.408
REMARK INTER:                 -14.713
REMARK INTRA:                  -3.694
REMARK UNBOUND:                -4.998
REMARK SMILES CCCCCCCCCCCCCCCCCCCCCCCCCCCCCC(=O)[O-]
REMARK SMILES IDX 16 1 17 2 18 3 19 4 20 5 21 6 22 7 23 8 24 9 25 10 26 11
REMARK SMILES IDX 27 12 28 13 29 14 30 15 31 16 32 17 15 18 14 19 13 20 12 21
REMARK SMILES IDX 11 22 10 23 9 24 8 25 7 26 6 27 5 28 4 29 3 30 2 31 1 32
REMARK H PARENT
REMARK Flexibility Score: inf
ROOT
ATOM      1  C   UNL     1      16.834 -24.379 -30.076  1.00  0.00     0.000 C 
ENDROOT
BRANCH   1   2
ATOM      2  C   UNL     1      15.741 -23.321 -29.871  1.00  0.00     0.000 C 
BRANCH   2   3
ATOM      3  C   UNL     1      15.130 -23.432 -28.469  1.00  0.00     0.000 C 
BRANCH   3   4
ATOM      4  C   UNL     1      13.620 -23.696 -28.542  1.00  0.00     0.000 C 
BRANCH   4   5
ATOM      5  C   UNL     1      12.902 -22.806 -29.575  1.00  0.00     0.000 C 
BRANCH   5   6
ATOM      6  C   UNL     1      11.673 -22.043 -29.042  1.00  0.00     0.000 C 
BRANCH   6   7
ATOM      7  C   UNL     1      12.027 -20.653 -28.487  1.00  0.00     0.000 C 
BRANCH   7   8
ATOM      8  C   UNL     1      12.463 -20.699 -27.014  1.00  0.00     0.000 C 
BRANCH   8   9
ATOM      9  C   UNL     1      12.791 -19.308 -26.442  1.00  0.00     0.000 C 
BRANCH   9  10
ATOM     10  C   UNL     1      11.896 -18.200 -27.025  1.00  0.00     0.000 C 
BRANCH  10  11
ATOM     11  C   UNL     1      10.644 -17.871 -26.187  1.00  0.00     0.000 C 
BRANCH  11  12
ATOM     12  C   UNL     1       9.388 -17.505 -27.003  1.00  0.00     0.000 C 
BRANCH  12  13
ATOM     13  C   UNL     1       9.505 -17.750 -28.522  1.00  0.00     0.006 C 
BRANCH  13  14
ATOM     14  C   UNL     1       8.402 -17.080 -29.358  1.00  0.00     0.053 C 
BRANCH  14  15
ATOM     15  C   UNL     1       8.847 -16.816 -30.764  1.00  0.00     0.041 C 
ATOM     16  O   UNL     1       7.999 -16.582 -31.665  1.00  0.00    -0.550 OA
ATOM     17  O   UNL     1      10.201 -16.792 -31.071  1.00  0.00    -0.550 OA
ENDBRANCH  14  15
ENDBRANCH  13  14
ENDBRANCH  12  13
ENDBRANCH  11  12
ENDBRANCH  10  11
ENDBRANCH   9  10
ENDBRANCH   8   9
ENDBRANCH   7   8
ENDBRANCH   6   7
ENDBRANCH   5   6
ENDBRANCH   4   5
ENDBRANCH   3   4
ENDBRANCH   2   3
ENDBRANCH   1   2
BRANCH   1  18
ATOM     18  C   UNL     1      16.268 -25.756 -30.465  1.00  0.00     0.000 C 
BRANCH  18  19
ATOM     19  C   UNL     1      16.253 -26.801 -29.330  1.00  0.00     0.000 C 
BRANCH  19  20
ATOM     20  C   UNL     1      17.594 -27.514 -29.071  1.00  0.00     0.000 C 
BRANCH  20  21
ATOM     21  C   UNL     1      18.488 -26.870 -27.993  1.00  0.00     0.000 C 
BRANCH  21  22
ATOM     22  C   UNL     1      17.711 -26.042 -26.946  1.00  0.00     0.000 C 
BRANCH  22  23
ATOM     23  C   UNL     1      18.644 -25.297 -25.976  1.00  0.00     0.000 C 
BRANCH  23  24
ATOM     24  C   UNL     1      17.973 -24.965 -24.630  1.00  0.00    -0.000 C 
BRANCH  24  25
ATOM     25  C   UNL     1      18.046 -23.483 -24.204  1.00  0.00    -0.000 C 
BRANCH  25  26
ATOM     26  C   UNL     1      19.167 -22.658 -24.863  1.00  0.00    -0.000 C 
BRANCH  26  27
ATOM     27  C   UNL     1      18.658 -21.380 -25.546  1.00  0.00    -0.000 C 
BRANCH  27  28
ATOM     28  C   UNL     1      18.092 -21.699 -26.937  1.00  0.00    -0.000 C 
BRANCH  28  29
ATOM     29  C   UNL     1      19.073 -22.487 -27.823  1.00  0.00    -0.000 C 
BRANCH  29  30
ATOM     30  C   UNL     1      19.431 -21.818 -29.164  1.00  0.00    -0.000 C 
BRANCH  30  31
ATOM     31  C   UNL     1      19.965 -22.807 -30.211  1.00  0.00    -0.003 C 
ATOM     32  C   UNL     1      20.636 -24.005 -29.547  1.00  0.00     0.004 C 
ENDBRANCH  30  31
ENDBRANCH  29  30
ENDBRANCH  28  29
ENDBRANCH  27  28
ENDBRANCH  26  27
ENDBRANCH  25  26
ENDBRANCH  24  25
ENDBRANCH  23  24
ENDBRANCH  22  23
ENDBRANCH  21  22
ENDBRANCH  20  21
ENDBRANCH  19  20
ENDBRANCH  18  19
ENDBRANCH   1  18
TORSDOF 28
ENDMDL
MODEL 6
REMARK VINA RESULT:    -5.024      3.381      7.420
REMARK INTER + INTRA:         -18.247
REMARK INTER:                 -13.106
REMARK INTRA:                  -5.141
REMARK UNBOUND:                -4.998
REMARK SMILES CCCCCCCCCCCCCCCCCCCCCCCCCCCCCC(=O)[O-]
REMARK SMILES IDX 16 1 17 2 18 3 19 4 20 5 21 6 22 7 23 8 24 9 25 10 26 11
REMARK SMILES IDX 27 12 28 13 29 14 30 15 31 16 32 17 15 18 14 19 13 20 12 21
REMARK SMILES IDX 11 22 10 23 9 24 8 25 7 26 6 27 5 28 4 29 3 30 2 31 1 32
REMARK H PARENT
REMARK Flexibility Score: inf
ROOT
ATOM      1  C   UNL     1      18.220 -25.263 -25.687  1.00  0.00     0.000 C 
ENDROOT
BRANCH   1   2
ATOM      2  C   UNL     1      17.556 -26.326 -26.574  1.00  0.00     0.000 C 
BRANCH   2   3
ATOM      3  C   UNL     1      18.432 -26.642 -27.793  1.00  0.00     0.000 C 
BRANCH   3   4
ATOM      4  C   UNL     1      19.594 -25.646 -27.913  1.00  0.00     0.000 C 
BRANCH   4   5
ATOM      5  C   UNL     1      19.731 -25.048 -29.327  1.00  0.00     0.000 C 
BRANCH   5   6
ATOM      6  C   UNL     1      20.367 -23.646 -29.387  1.00  0.00     0.000 C 
BRANCH   6   7
ATOM      7  C   UNL     1      20.408 -23.067 -30.812  1.00  0.00     0.000 C 
BRANCH   7   8
ATOM      8  C   UNL     1      19.316 -22.013 -31.053  1.00  0.00     0.000 C 
BRANCH   8   9
ATOM      9  C   UNL     1      18.047 -22.601 -31.694  1.00  0.00     0.000 C 
BRANCH   9  10
ATOM     10  C   UNL     1      18.350 -23.776 -32.642  1.00  0.00     0.000 C 
BRANCH  10  11
ATOM     11  C   UNL     1      17.577 -25.075 -32.333  1.00  0.00     0.000 C 
BRANCH  11  12
ATOM     12  C   UNL     1      16.422 -24.923 -31.324  1.00  0.00     0.000 C 
BRANCH  12  13
ATOM     13  C   UNL     1      16.150 -26.166 -30.453  1.00  0.00     0.006 C 
BRANCH  13  14
ATOM     14  C   UNL     1      16.849 -27.446 -30.939  1.00  0.00     0.053 C 
BRANCH  14  15
ATOM     15  C   UNL     1      16.158 -28.682 -30.451  1.00  0.00     0.041 C 
ATOM     16  O   UNL     1      15.211 -29.184 -31.112  1.00  0.00    -0.550 OA
ATOM     17  O   UNL     1      16.585 -29.301 -29.283  1.00  0.00    -0.550 OA
ENDBRANCH  14  15
ENDBRANCH  13  14
ENDBRANCH  12  13
ENDBRANCH  11  12
ENDBRANCH  10  11
ENDBRANCH   9  10
ENDBRANCH   8   9
ENDBRANCH   7   8
ENDBRANCH   6   7
ENDBRANCH   5   6
ENDBRANCH   4   5
ENDBRANCH   3   4
ENDBRANCH   2   3
ENDBRANCH   1   2
BRANCH   1  18
ATOM     18  C   UNL     1      17.336 -24.838 -24.501  1.00  0.00     0.000 C 
BRANCH  18  19
ATOM     19  C   UNL     1      17.915 -23.704 -23.628  1.00  0.00     0.000 C 
BRANCH  19  20
ATOM     20  C   UNL     1      19.279 -23.152 -24.082  1.00  0.00     0.000 C 
BRANCH  20  21
ATOM     21  C   UNL     1      19.446 -21.623 -23.962  1.00  0.00     0.000 C 
BRANCH  21  22
ATOM     22  C   UNL     1      19.193 -20.857 -25.278  1.00  0.00     0.000 C 
BRANCH  22  23
ATOM     23  C   UNL     1      18.947 -21.800 -26.468  1.00  0.00     0.000 C 
BRANCH  23  24
ATOM     24  C   UNL     1      17.458 -21.923 -26.841  1.00  0.00    -0.000 C 
BRANCH  24  25
ATOM     25  C   UNL     1      17.159 -22.767 -28.099  1.00  0.00    -0.000 C 
BRANCH  25  26
ATOM     26  C   UNL     1      15.776 -23.442 -28.131  1.00  0.00    -0.000 C 
BRANCH  26  27
ATOM     27  C   UNL     1      14.745 -22.757 -27.222  1.00  0.00    -0.000 C 
BRANCH  27  28
ATOM     28  C   UNL     1      13.341 -22.839 -27.838  1.00  0.00    -0.000 C 
BRANCH  28  29
ATOM     29  C   UNL     1      12.216 -22.772 -26.790  1.00  0.00    -0.000 C 
BRANCH  29  30
ATOM     30  C   UNL     1      11.953 -21.373 -26.199  1.00  0.00    -0.000 C 
BRANCH  30  31
ATOM     31  C   UNL     1      12.113 -20.242 -27.225  1.00  0.00    -0.003 C 
ATOM     32  C   UNL     1      12.782 -19.021 -26.601  1.00  0.00     0.004 C 
ENDBRANCH  30  31
ENDBRANCH  29  30
ENDBRANCH  28  29
ENDBRANCH  27  28
ENDBRANCH  26  27
ENDBRANCH  25  26
ENDBRANCH  24  25
ENDBRANCH  23  24
ENDBRANCH  22  23
ENDBRANCH  21  22
ENDBRANCH  20  21
ENDBRANCH  19  20
ENDBRANCH  18  19
ENDBRANCH   1  18
TORSDOF 28
ENDMDL
MODEL 7
REMARK VINA RESULT:    -5.022      1.779      4.869
REMARK INTER + INTRA:         -18.240
REMARK INTER:                 -13.678
REMARK INTRA:                  -4.562
REMARK UNBOUND:                -4.998
REMARK SMILES CCCCCCCCCCCCCCCCCCCCCCCCCCCCCC(=O)[O-]
REMARK SMILES IDX 16 1 17 2 18 3 19 4 20 5 21 6 22 7 23 8 24 9 25 10 26 11
REMARK SMILES IDX 27 12 28 13 29 14 30 15 31 16 32 17 15 18 14 19 13 20 12 21
REMARK SMILES IDX 11 22 10 23 9 24 8 25 7 26 6 27 5 28 4 29 3 30 2 31 1 32
REMARK H PARENT
REMARK Flexibility Score: inf
ROOT
ATOM      1  C   UNL     1      19.508 -20.361 -25.427  1.00  0.00     0.000 C 
ENDROOT
BRANCH   1   2
ATOM      2  C   UNL     1      20.303 -19.452 -26.376  1.00  0.00     0.000 C 
BRANCH   2   3
ATOM      3  C   UNL     1      20.145 -19.911 -27.830  1.00  0.00     0.000 C 
BRANCH   3   4
ATOM      4  C   UNL     1      19.602 -21.345 -27.902  1.00  0.00     0.000 C 
BRANCH   4   5
ATOM      5  C   UNL     1      18.433 -21.498 -28.895  1.00  0.00     0.000 C 
BRANCH   5   6
ATOM      6  C   UNL     1      17.366 -22.535 -28.497  1.00  0.00     0.000 C 
BRANCH   6   7
ATOM      7  C   UNL     1      16.726 -22.241 -27.129  1.00  0.00     0.000 C 
BRANCH   7   8
ATOM      8  C   UNL     1      15.378 -22.956 -26.941  1.00  0.00     0.000 C 
BRANCH   8   9
ATOM      9  C   UNL     1      14.675 -23.268 -28.274  1.00  0.00     0.000 C 
BRANCH   9  10
ATOM     10  C   UNL     1      13.344 -22.513 -28.434  1.00  0.00     0.000 C 
BRANCH  10  11
ATOM     11  C   UNL     1      12.315 -22.767 -27.312  1.00  0.00     0.000 C 
BRANCH  11  12
ATOM     12  C   UNL     1      12.123 -21.598 -26.326  1.00  0.00     0.000 C 
BRANCH  12  13
ATOM     13  C   UNL     1      12.162 -20.195 -26.962  1.00  0.00     0.006 C 
BRANCH  13  14
ATOM     14  C   UNL     1      12.921 -19.144 -26.135  1.00  0.00     0.053 C 
BRANCH  14  15
ATOM     15  C   UNL     1      11.990 -18.253 -25.371  1.00  0.00     0.041 C 
ATOM     16  O   UNL     1      12.290 -17.865 -24.211  1.00  0.00    -0.550 OA
ATOM     17  O   UNL     1      10.806 -17.821 -25.956  1.00  0.00    -0.550 OA
ENDBRANCH  14  15
ENDBRANCH  13  14
ENDBRANCH  12  13
ENDBRANCH  11  12
ENDBRANCH  10  11
ENDBRANCH   9  10
ENDBRANCH   8   9
ENDBRANCH   7   8
ENDBRANCH   6   7
ENDBRANCH   5   6
ENDBRANCH   4   5
ENDBRANCH   3   4
ENDBRANCH   2   3
ENDBRANCH   1   2
BRANCH   1  18
ATOM     18  C   UNL     1      20.361 -20.911 -24.271  1.00  0.00     0.000 C 
BRANCH  18  19
ATOM     19  C   UNL     1      19.829 -22.208 -23.627  1.00  0.00     0.000 C 
BRANCH  19  20
ATOM     20  C   UNL     1      19.067 -23.152 -24.575  1.00  0.00     0.000 C 
BRANCH  20  21
ATOM     21  C   UNL     1      17.877 -23.904 -23.944  1.00  0.00     0.000 C 
BRANCH  21  22
ATOM     22  C   UNL     1      17.499 -25.210 -24.676  1.00  0.00     0.000 C 
BRANCH  22  23
ATOM     23  C   UNL     1      18.301 -25.410 -25.972  1.00  0.00     0.000 C 
BRANCH  23  24
ATOM     24  C   UNL     1      17.451 -25.978 -27.124  1.00  0.00    -0.000 C 
BRANCH  24  25
ATOM     25  C   UNL     1      18.141 -27.062 -27.981  1.00  0.00    -0.000 C 
BRANCH  25  26
ATOM     26  C   UNL     1      17.456 -27.380 -29.323  1.00  0.00    -0.000 C 
BRANCH  26  27
ATOM     27  C   UNL     1      17.334 -26.160 -30.247  1.00  0.00    -0.000 C 
BRANCH  27  28
ATOM     28  C   UNL     1      18.404 -26.205 -31.347  1.00  0.00    -0.000 C 
BRANCH  28  29
ATOM     29  C   UNL     1      18.701 -24.824 -31.959  1.00  0.00    -0.000 C 
BRANCH  29  30
ATOM     30  C   UNL     1      19.491 -23.861 -31.052  1.00  0.00    -0.000 C 
BRANCH  30  31
ATOM     31  C   UNL     1      20.730 -24.508 -30.415  1.00  0.00    -0.003 C 
ATOM     32  C   UNL     1      20.597 -24.578 -28.897  1.00  0.00     0.004 C 
ENDBRANCH  30  31
ENDBRANCH  29  30
ENDBRANCH  28  29
ENDBRANCH  27  28
ENDBRANCH  26  27
ENDBRANCH  25  26
ENDBRANCH  24  25
ENDBRANCH  23  24
ENDBRANCH  22  23
ENDBRANCH  21  22
ENDBRANCH  20  21
ENDBRANCH  19  20
ENDBRANCH  18  19
ENDBRANCH   1  18
TORSDOF 28
ENDMDL
MODEL 8
REMARK VINA RESULT:    -4.967      3.166      7.925
REMARK INTER + INTRA:         -18.095
REMARK INTER:                 -14.003
REMARK INTRA:                  -4.092
REMARK UNBOUND:                -4.998
REMARK SMILES CCCCCCCCCCCCCCCCCCCCCCCCCCCCCC(=O)[O-]
REMARK SMILES IDX 16 1 17 2 18 3 19 4 20 5 21 6 22 7 23 8 24 9 25 10 26 11
REMARK SMILES IDX 27 12 28 13 29 14 30 15 31 16 32 17 15 18 14 19 13 20 12 21
REMARK SMILES IDX 11 22 10 23 9 24 8 25 7 26 6 27 5 28 4 29 3 30 2 31 1 32
REMARK H PARENT
REMARK Flexibility Score: inf
ROOT
ATOM      1  C   UNL     1      20.756 -19.815 -25.986  1.00  0.00     0.000 C 
ENDROOT
BRANCH   1   2
ATOM      2  C   UNL     1      20.456 -19.944 -27.486  1.00  0.00     0.000 C 
BRANCH   2   3
ATOM      3  C   UNL     1      20.064 -18.587 -28.083  1.00  0.00     0.000 C 
BRANCH   3   4
ATOM      4  C   UNL     1      20.062 -18.637 -29.617  1.00  0.00     0.000 C 
BRANCH   4   5
ATOM      5  C   UNL     1      20.330 -20.049 -30.175  1.00  0.00     0.000 C 
BRANCH   5   6
ATOM      6  C   UNL     1      19.167 -20.671 -30.971  1.00  0.00     0.000 C 
BRANCH   6   7
ATOM      7  C   UNL     1      18.657 -21.986 -30.356  1.00  0.00     0.000 C 
BRANCH   7   8
ATOM      8  C   UNL     1      19.793 -22.853 -29.792  1.00  0.00     0.000 C 
BRANCH   8   9
ATOM      9  C   UNL     1      19.340 -24.281 -29.442  1.00  0.00     0.000 C 
BRANCH   9  10
ATOM     10  C   UNL     1      19.973 -24.802 -28.138  1.00  0.00     0.000 C 
BRANCH  10  11
ATOM     11  C   UNL     1      19.226 -25.980 -27.479  1.00  0.00     0.000 C 
BRANCH  11  12
ATOM     12  C   UNL     1      17.900 -26.374 -28.159  1.00  0.00     0.000 C 
BRANCH  12  13
ATOM     13  C   UNL     1      17.735 -27.881 -28.441  1.00  0.00     0.006 C 
BRANCH  13  14
ATOM     14  C   UNL     1      16.295 -28.312 -28.761  1.00  0.00     0.053 C 
BRANCH  14  15
ATOM     15  C   UNL     1      16.047 -28.390 -30.237  1.00  0.00     0.041 C 
ATOM     16  O   UNL     1      16.148 -27.359 -30.953  1.00  0.00    -0.550 OA
ATOM     17  O   UNL     1      15.742 -29.610 -30.826  1.00  0.00    -0.550 OA
ENDBRANCH  14  15
ENDBRANCH  13  14
ENDBRANCH  12  13
ENDBRANCH  11  12
ENDBRANCH  10  11
ENDBRANCH   9  10
ENDBRANCH   8   9
ENDBRANCH   7   8
ENDBRANCH   6   7
ENDBRANCH   5   6
ENDBRANCH   4   5
ENDBRANCH   3   4
ENDBRANCH   2   3
ENDBRANCH   1   2
BRANCH   1  18
ATOM     18  C   UNL     1      19.922 -20.778 -25.124  1.00  0.00     0.000 C 
BRANCH  18  19
ATOM     19  C   UNL     1      19.569 -22.120 -25.798  1.00  0.00     0.000 C 
BRANCH  19  20
ATOM     20  C   UNL     1      18.075 -22.496 -25.780  1.00  0.00     0.000 C 
BRANCH  20  21
ATOM     21  C   UNL     1      17.277 -22.095 -27.037  1.00  0.00     0.000 C 
BRANCH  21  22
ATOM     22  C   UNL     1      16.006 -22.939 -27.271  1.00  0.00     0.000 C 
BRANCH  22  23
ATOM     23  C   UNL     1      15.903 -23.460 -28.714  1.00  0.00     0.000 C 
BRANCH  23  24
ATOM     24  C   UNL     1      14.495 -23.970 -29.072  1.00  0.00    -0.000 C 
BRANCH  24  25
ATOM     25  C   UNL     1      13.582 -22.947 -29.782  1.00  0.00    -0.000 C 
BRANCH  25  26
ATOM     26  C   UNL     1      12.243 -22.655 -29.082  1.00  0.00    -0.000 C 
BRANCH  26  27
ATOM     27  C   UNL     1      12.112 -23.339 -27.714  1.00  0.00    -0.000 C 
BRANCH  27  28
ATOM     28  C   UNL     1      12.088 -22.296 -26.587  1.00  0.00    -0.000 C 
BRANCH  28  29
ATOM     29  C   UNL     1      12.109 -20.847 -27.104  1.00  0.00    -0.000 C 
BRANCH  29  30
ATOM     30  C   UNL     1      12.864 -19.842 -26.212  1.00  0.00    -0.000 C 
BRANCH  30  31
ATOM     31  C   UNL     1      11.933 -18.867 -25.477  1.00  0.00    -0.003 C 
ATOM     32  C   UNL     1      12.630 -18.240 -24.273  1.00  0.00     0.004 C 
ENDBRANCH  30  31
ENDBRANCH  29  30
ENDBRANCH  28  29
ENDBRANCH  27  28
ENDBRANCH  26  27
ENDBRANCH  25  26
ENDBRANCH  24  25
ENDBRANCH  23  24
ENDBRANCH  22  23
ENDBRANCH  21  22
ENDBRANCH  20  21
ENDBRANCH  19  20
ENDBRANCH  18  19
ENDBRANCH   1  18
TORSDOF 28
ENDMDL
MODEL 9
REMARK VINA RESULT:    -4.931      1.400      2.752
REMARK INTER + INTRA:         -18.000
REMARK INTER:                 -12.722
REMARK INTRA:                  -5.278
REMARK UNBOUND:                -4.998
REMARK SMILES CCCCCCCCCCCCCCCCCCCCCCCCCCCCCC(=O)[O-]
REMARK SMILES IDX 16 1 17 2 18 3 19 4 20 5 21 6 22 7 23 8 24 9 25 10 26 11
REMARK SMILES IDX 27 12 28 13 29 14 30 15 31 16 32 17 15 18 14 19 13 20 12 21
REMARK SMILES IDX 11 22 10 23 9 24 8 25 7 26 6 27 5 28 4 29 3 30 2 31 1 32
REMARK H PARENT
REMARK Flexibility Score: inf
ROOT
ATOM      1  C   UNL     1      18.698 -25.410 -25.366  1.00  0.00     0.000 C 
ENDROOT
BRANCH   1   2
ATOM      2  C   UNL     1      17.357 -25.024 -24.726  1.00  0.00     0.000 C 
BRANCH   2   3
ATOM      3  C   UNL     1      17.549 -23.915 -23.685  1.00  0.00     0.000 C 
BRANCH   3   4
ATOM      4  C   UNL     1      19.021 -23.487 -23.597  1.00  0.00     0.000 C 
BRANCH   4   5
ATOM      5  C   UNL     1      19.242 -22.008 -23.972  1.00  0.00     0.000 C 
BRANCH   5   6
ATOM      6  C   UNL     1      19.510 -21.744 -25.466  1.00  0.00     0.000 C 
BRANCH   6   7
ATOM      7  C   UNL     1      18.267 -21.237 -26.217  1.00  0.00     0.000 C 
BRANCH   7   8
ATOM      8  C   UNL     1      17.731 -22.261 -27.230  1.00  0.00     0.000 C 
BRANCH   8   9
ATOM      9  C   UNL     1      16.249 -22.609 -27.004  1.00  0.00     0.000 C 
BRANCH   9  10
ATOM     10  C   UNL     1      15.609 -23.299 -28.222  1.00  0.00     0.000 C 
BRANCH  10  11
ATOM     11  C   UNL     1      14.079 -23.132 -28.332  1.00  0.00     0.000 C 
BRANCH  11  12
ATOM     12  C   UNL     1      13.344 -22.943 -26.991  1.00  0.00     0.000 C 
BRANCH  12  13
ATOM     13  C   UNL     1      12.194 -21.917 -27.017  1.00  0.00     0.006 C 
BRANCH  13  14
ATOM     14  C   UNL     1      12.651 -20.457 -27.177  1.00  0.00     0.053 C 
BRANCH  14  15
ATOM     15  C   UNL     1      11.491 -19.517 -27.299  1.00  0.00     0.041 C 
ATOM     16  O   UNL     1      10.964 -19.020 -26.269  1.00  0.00    -0.550 OA
ATOM     17  O   UNL     1      11.015 -19.161 -28.555  1.00  0.00    -0.550 OA
ENDBRANCH  14  15
ENDBRANCH  13  14
ENDBRANCH  12  13
ENDBRANCH  11  12
ENDBRANCH  10  11
ENDBRANCH   9  10
ENDBRANCH   8   9
ENDBRANCH   7   8
ENDBRANCH   6   7
ENDBRANCH   5   6
ENDBRANCH   4   5
ENDBRANCH   3   4
ENDBRANCH   2   3
ENDBRANCH   1   2
BRANCH   1  18
ATOM     18  C   UNL     1      18.596 -25.624 -26.886  1.00  0.00     0.000 C 
BRANCH  18  19
ATOM     19  C   UNL     1      17.407 -26.495 -27.345  1.00  0.00     0.000 C 
BRANCH  19  20
ATOM     20  C   UNL     1      17.785 -27.782 -28.102  1.00  0.00     0.000 C 
BRANCH  20  21
ATOM     21  C   UNL     1      17.404 -27.806 -29.597  1.00  0.00     0.000 C 
BRANCH  21  22
ATOM     22  C   UNL     1      16.073 -27.092 -29.917  1.00  0.00     0.000 C 
BRANCH  22  23
ATOM     23  C   UNL     1      16.277 -25.806 -30.736  1.00  0.00     0.000 C 
BRANCH  23  24
ATOM     24  C   UNL     1      17.758 -25.522 -31.052  1.00  0.00    -0.000 C 
BRANCH  24  25
ATOM     25  C   UNL     1      18.348 -24.266 -30.375  1.00  0.00    -0.000 C 
BRANCH  25  26
ATOM     26  C   UNL     1      19.730 -23.825 -30.888  1.00  0.00    -0.000 C 
BRANCH  26  27
ATOM     27  C   UNL     1      20.895 -24.409 -30.076  1.00  0.00    -0.000 C 
BRANCH  27  28
ATOM     28  C   UNL     1      21.898 -23.309 -29.700  1.00  0.00    -0.000 C 
BRANCH  28  29
ATOM     29  C   UNL     1      21.572 -22.627 -28.359  1.00  0.00    -0.000 C 
BRANCH  29  30
ATOM     30  C   UNL     1      21.474 -21.090 -28.411  1.00  0.00    -0.000 C 
BRANCH  30  31
ATOM     31  C   UNL     1      20.969 -20.561 -29.762  1.00  0.00    -0.003 C 
ATOM     32  C   UNL     1      19.472 -20.268 -29.716  1.00  0.00     0.004 C 
ENDBRANCH  30  31
ENDBRANCH  29  30
ENDBRANCH  28  29
ENDBRANCH  27  28
ENDBRANCH  26  27
ENDBRANCH  25  26
ENDBRANCH  24  25
ENDBRANCH  23  24
ENDBRANCH  22  23
ENDBRANCH  21  22
ENDBRANCH  20  21
ENDBRANCH  19  20
ENDBRANCH  18  19
ENDBRANCH   1  18
TORSDOF 28
ENDMDL
