MODEL 1
REMARK VINA RESULT:    -0.559      0.000      0.000
REMARK INTER + INTRA:          -0.765
REMARK INTER:                  -0.690
REMARK INTRA:                  -0.075
REMARK UNBOUND:                -0.075
REMARK SMILES Oc1cc(O)c2cc(O)c(-c3cc(O)c(O)c(O)c3)[o+]c2c1.[Cl-]
REMARK SMILES IDX 10 1 20 2 21 3 22 4 2 5 3 6 4 7 6 8 7 9 8 10 11 11 12 12
REMARK SMILES IDX 13 13 19 14 15 15 17 16 14 17 16 19 18 21 9 23 1 25 5 27
REMARK H PARENT 14 18 16 20 18 22 9 24 1 26 5 28
REMARK Flexibility Score: inf
ROOT
ATOM      1  C   UNL     1     -18.149  44.287  -6.905  1.00  0.00     0.402 A 
ATOM      2  O   UNL     1     -17.040  43.957  -7.561  1.00  0.00    -0.202 OA
ATOM      3  C   UNL     1     -16.662  44.538  -8.695  1.00  0.00     0.368 A 
ATOM      4  C   UNL     1     -15.477  44.124  -9.310  1.00  0.00     0.162 A 
ATOM      5  C   UNL     1     -15.055  44.721 -10.501  1.00  0.00     0.128 A 
ATOM      6  C   UNL     1     -15.820  45.736 -11.080  1.00  0.00     0.093 A 
ATOM      7  C   UNL     1     -17.011  46.169 -10.484  1.00  0.00     0.136 A 
ATOM      8  C   UNL     1     -17.446  45.565  -9.275  1.00  0.00     0.125 A 
ATOM      9  C   UNL     1     -18.631  45.926  -8.615  1.00  0.00     0.078 A 
ATOM     10  C   UNL     1     -18.997  45.282  -7.429  1.00  0.00     0.223 A 
ENDROOT
BRANCH   1  11
ATOM     11  C   UNL     1     -18.457  43.573  -5.645  1.00  0.00     0.091 A 
ATOM     12  C   UNL     1     -18.816  44.269  -4.478  1.00  0.00     0.068 A 
ATOM     13  C   UNL     1     -19.082  43.575  -3.290  1.00  0.00     0.162 A 
ATOM     14  C   UNL     1     -18.333  42.176  -5.597  1.00  0.00     0.068 A 
ATOM     15  C   UNL     1     -18.978  42.178  -3.256  1.00  0.00     0.200 A 
ATOM     16  C   UNL     1     -18.599  41.476  -4.411  1.00  0.00     0.162 A 
BRANCH  13  17
ATOM     17  O   UNL     1     -19.444  44.268  -2.136  1.00  0.00    -0.504 OA
ATOM     18  H   UNL     1     -19.344  43.854  -1.216  1.00  0.00     0.293 HD
ENDBRANCH  13  17
BRANCH  15  19
ATOM     19  O   UNL     1     -19.250  41.504  -2.064  1.00  0.00    -0.502 OA
ATOM     20  H   UNL     1     -19.312  40.494  -2.018  1.00  0.00     0.293 HD
ENDBRANCH  15  19
BRANCH  16  21
ATOM     21  O   UNL     1     -18.486  40.086  -4.378  1.00  0.00    -0.504 OA
ATOM     22  H   UNL     1     -18.939  39.501  -5.071  1.00  0.00     0.293 HD
ENDBRANCH  16  21
ENDBRANCH   1  11
BRANCH  10  23
ATOM     23  O   UNL     1     -20.199  45.604  -6.799  1.00  0.00    -0.500 OA
ATOM     24  H   UNL     1     -20.526  46.561  -6.733  1.00  0.00     0.294 HD
ENDBRANCH  10  23
BRANCH   5  25
ATOM     25  O   UNL     1     -13.875  44.312 -11.120  1.00  0.00    -0.507 OA
ATOM     26  H   UNL     1     -13.431  43.432 -10.887  1.00  0.00     0.293 HD
ENDBRANCH   5  25
BRANCH   7  27
ATOM     27  O   UNL     1     -17.717  47.192 -11.124  1.00  0.00    -0.507 OA
ATOM     28  H   UNL     1     -18.659  47.103 -11.474  1.00  0.00     0.293 HD
ENDBRANCH   7  27
TORSDOF 7
ENDMDL
MODEL 2
REMARK VINA RESULT:    -0.249      3.014      3.681
REMARK INTER + INTRA:          -0.382
REMARK INTER:                  -0.225
REMARK INTRA:                  -0.157
REMARK UNBOUND:                -0.075
REMARK SMILES Oc1cc(O)c2cc(O)c(-c3cc(O)c(O)c(O)c3)[o+]c2c1.[Cl-]
REMARK SMILES IDX 10 1 20 2 21 3 22 4 2 5 3 6 4 7 6 8 7 9 8 10 11 11 12 12
REMARK SMILES IDX 13 13 19 14 15 15 17 16 14 17 16 19 18 21 9 23 1 25 5 27
REMARK H PARENT 14 18 16 20 18 22 9 24 1 26 5 28
REMARK Flexibility Score: inf
ROOT
ATOM      1  C   UNL     1     -16.171  45.344  -7.497  1.00  0.00     0.402 A 
ATOM      2  O   UNL     1     -15.886  46.549  -7.009  1.00  0.00    -0.202 OA
ATOM      3  C   UNL     1     -15.286  47.500  -7.717  1.00  0.00     0.368 A 
ATOM      4  C   UNL     1     -15.031  48.736  -7.117  1.00  0.00     0.162 A 
ATOM      5  C   UNL     1     -14.404  49.755  -7.840  1.00  0.00     0.128 A 
ATOM      6  C   UNL     1     -14.031  49.537  -9.168  1.00  0.00     0.093 A 
ATOM      7  C   UNL     1     -14.276  48.308  -9.792  1.00  0.00     0.136 A 
ATOM      8  C   UNL     1     -14.910  47.269  -9.062  1.00  0.00     0.125 A 
ATOM      9  C   UNL     1     -15.183  46.002  -9.602  1.00  0.00     0.078 A 
ATOM     10  C   UNL     1     -15.806  45.026  -8.819  1.00  0.00     0.223 A 
ENDROOT
BRANCH   1  11
ATOM     11  C   UNL     1     -16.852  44.373  -6.611  1.00  0.00     0.091 A 
ATOM     12  C   UNL     1     -18.104  44.656  -6.039  1.00  0.00     0.068 A 
ATOM     13  C   UNL     1     -18.721  43.732  -5.185  1.00  0.00     0.162 A 
ATOM     14  C   UNL     1     -16.211  43.167  -6.289  1.00  0.00     0.068 A 
ATOM     15  C   UNL     1     -18.084  42.520  -4.886  1.00  0.00     0.200 A 
ATOM     16  C   UNL     1     -16.825  42.237  -5.437  1.00  0.00     0.162 A 
BRANCH  13  17
ATOM     17  O   UNL     1     -19.965  44.014  -4.623  1.00  0.00    -0.504 OA
ATOM     18  H   UNL     1     -20.811  44.017  -5.182  1.00  0.00     0.293 HD
ENDBRANCH  13  17
BRANCH  15  19
ATOM     19  O   UNL     1     -18.716  41.611  -4.036  1.00  0.00    -0.502 OA
ATOM     20  H   UNL     1     -19.725  41.547  -3.970  1.00  0.00     0.293 HD
ENDBRANCH  15  19
BRANCH  16  21
ATOM     21  O   UNL     1     -16.184  41.036  -5.135  1.00  0.00    -0.504 OA
ATOM     22  H   UNL     1     -15.208  41.008  -4.861  1.00  0.00     0.293 HD
ENDBRANCH  16  21
ENDBRANCH   1  11
BRANCH  10  23
ATOM     23  O   UNL     1     -16.032  43.750  -9.337  1.00  0.00    -0.500 OA
ATOM     24  H   UNL     1     -15.777  43.510 -10.288  1.00  0.00     0.294 HD
ENDBRANCH  10  23
BRANCH   5  25
ATOM     25  O   UNL     1     -14.147  50.990  -7.247  1.00  0.00    -0.507 OA
ATOM     26  H   UNL     1     -14.504  51.222  -6.328  1.00  0.00     0.293 HD
ENDBRANCH   5  25
BRANCH   7  27
ATOM     27  O   UNL     1     -13.875  48.171 -11.125  1.00  0.00    -0.507 OA
ATOM     28  H   UNL     1     -14.203  47.448 -11.748  1.00  0.00     0.293 HD
ENDBRANCH   7  27
TORSDOF 7
ENDMDL
MODEL 3
REMARK VINA RESULT:    -0.219      1.128      3.152
REMARK INTER + INTRA:          -0.345
REMARK INTER:                  -0.066
REMARK INTRA:                  -0.279
REMARK UNBOUND:                -0.075
REMARK SMILES Oc1cc(O)c2cc(O)c(-c3cc(O)c(O)c(O)c3)[o+]c2c1.[Cl-]
REMARK SMILES IDX 10 1 20 2 21 3 22 4 2 5 3 6 4 7 6 8 7 9 8 10 11 11 12 12
REMARK SMILES IDX 13 13 19 14 15 15 17 16 14 17 16 19 18 21 9 23 1 25 5 27
REMARK H PARENT 14 18 16 20 18 22 9 24 1 26 5 28
REMARK Flexibility Score: inf
ROOT
ATOM      1  C   UNL     1     -17.112  44.018  -6.961  1.00  0.00     0.402 A 
ATOM      2  O   UNL     1     -17.805  44.929  -7.640  1.00  0.00    -0.202 OA
ATOM      3  C   UNL     1     -17.326  45.569  -8.702  1.00  0.00     0.368 A 
ATOM      4  C   UNL     1     -18.133  46.507  -9.351  1.00  0.00     0.162 A 
ATOM      5  C   UNL     1     -17.655  47.193 -10.472  1.00  0.00     0.128 A 
ATOM      6  C   UNL     1     -16.366  46.937 -10.946  1.00  0.00     0.093 A 
ATOM      7  C   UNL     1     -15.539  46.002 -10.314  1.00  0.00     0.136 A 
ATOM      8  C   UNL     1     -16.018  45.305  -9.174  1.00  0.00     0.125 A 
ATOM      9  C   UNL     1     -15.254  44.360  -8.469  1.00  0.00     0.078 A 
ATOM     10  C   UNL     1     -15.792  43.717  -7.351  1.00  0.00     0.223 A 
ENDROOT
BRANCH   1  11
ATOM     11  C   UNL     1     -17.759  43.366  -5.801  1.00  0.00     0.091 A 
ATOM     12  C   UNL     1     -18.075  41.997  -5.812  1.00  0.00     0.068 A 
ATOM     13  C   UNL     1     -18.708  41.404  -4.712  1.00  0.00     0.162 A 
ATOM     14  C   UNL     1     -18.117  44.140  -4.687  1.00  0.00     0.068 A 
ATOM     15  C   UNL     1     -19.043  42.179  -3.594  1.00  0.00     0.200 A 
ATOM     16  C   UNL     1     -18.750  43.552  -3.582  1.00  0.00     0.162 A 
BRANCH  13  17
ATOM     17  O   UNL     1     -19.015  40.044  -4.725  1.00  0.00    -0.504 OA
ATOM     18  H   UNL     1     -19.599  39.625  -4.010  1.00  0.00     0.293 HD
ENDBRANCH  13  17
BRANCH  15  19
ATOM     19  O   UNL     1     -19.670  41.570  -2.506  1.00  0.00    -0.502 OA
ATOM     20  H   UNL     1     -19.422  40.639  -2.193  1.00  0.00     0.293 HD
ENDBRANCH  15  19
BRANCH  16  21
ATOM     21  O   UNL     1     -19.089  44.329  -2.474  1.00  0.00    -0.504 OA
ATOM     22  H   UNL     1     -19.820  45.029  -2.521  1.00  0.00     0.293 HD
ENDBRANCH  16  21
ENDBRANCH   1  11
BRANCH  10  23
ATOM     23  O   UNL     1     -15.017  42.816  -6.620  1.00  0.00    -0.500 OA
ATOM     24  H   UNL     1     -14.070  42.585  -6.894  1.00  0.00     0.294 HD
ENDBRANCH  10  23
BRANCH   5  25
ATOM     25  O   UNL     1     -18.454  48.130 -11.123  1.00  0.00    -0.507 OA
ATOM     26  H   UNL     1     -19.377  47.894 -11.466  1.00  0.00     0.293 HD
ENDBRANCH   5  25
BRANCH   7  27
ATOM     27  O   UNL     1     -14.264  45.802 -10.852  1.00  0.00    -0.507 OA
ATOM     28  H   UNL     1     -13.826  44.899 -10.963  1.00  0.00     0.293 HD
ENDBRANCH   7  27
TORSDOF 7
ENDMDL
MODEL 4
REMARK VINA RESULT:     0.403      2.301      3.221
REMARK INTER + INTRA:           0.423
REMARK INTER:                   0.216
REMARK INTRA:                   0.206
REMARK UNBOUND:                -0.075
REMARK SMILES Oc1cc(O)c2cc(O)c(-c3cc(O)c(O)c(O)c3)[o+]c2c1.[Cl-]
REMARK SMILES IDX 10 1 20 2 21 3 22 4 2 5 3 6 4 7 6 8 7 9 8 10 11 11 12 12
REMARK SMILES IDX 13 13 19 14 15 15 17 16 14 17 16 19 18 21 9 23 1 25 5 27
REMARK H PARENT 14 18 16 20 18 22 9 24 1 26 5 28
REMARK Flexibility Score: inf
ROOT
ATOM      1  C   UNL     1     -16.958  44.449  -7.050  1.00  0.00     0.402 A 
ATOM      2  O   UNL     1     -16.342  45.558  -6.648  1.00  0.00    -0.202 OA
ATOM      3  C   UNL     1     -15.745  46.404  -7.480  1.00  0.00     0.368 A 
ATOM      4  C   UNL     1     -15.127  47.545  -6.962  1.00  0.00     0.162 A 
ATOM      5  C   UNL     1     -14.494  48.453  -7.816  1.00  0.00     0.128 A 
ATOM      6  C   UNL     1     -14.480  48.220  -9.193  1.00  0.00     0.093 A 
ATOM      7  C   UNL     1     -15.092  47.085  -9.737  1.00  0.00     0.136 A 
ATOM      8  C   UNL     1     -15.734  46.158  -8.874  1.00  0.00     0.125 A 
ATOM      9  C   UNL     1     -16.362  44.987  -9.329  1.00  0.00     0.078 A 
ATOM     10  C   UNL     1     -16.970  44.118  -8.419  1.00  0.00     0.223 A 
ENDROOT
BRANCH   1  11
ATOM     11  C   UNL     1     -17.596  43.591  -6.026  1.00  0.00     0.091 A 
ATOM     12  C   UNL     1     -17.696  42.199  -6.196  1.00  0.00     0.068 A 
ATOM     13  C   UNL     1     -18.324  41.408  -5.225  1.00  0.00     0.162 A 
ATOM     14  C   UNL     1     -18.164  44.183  -4.887  1.00  0.00     0.068 A 
ATOM     15  C   UNL     1     -18.869  42.004  -4.079  1.00  0.00     0.200 A 
ATOM     16  C   UNL     1     -18.792  43.395  -3.911  1.00  0.00     0.162 A 
BRANCH  13  17
ATOM     17  O   UNL     1     -18.416  40.027  -5.394  1.00  0.00    -0.504 OA
ATOM     18  H   UNL     1     -19.192  39.497  -5.014  1.00  0.00     0.293 HD
ENDBRANCH  13  17
BRANCH  15  19
ATOM     19  O   UNL     1     -19.486  41.199  -3.122  1.00  0.00    -0.502 OA
ATOM     20  H   UNL     1     -19.710  40.226  -3.298  1.00  0.00     0.293 HD
ENDBRANCH  15  19
BRANCH  16  21
ATOM     21  O   UNL     1     -19.340  43.993  -2.777  1.00  0.00    -0.504 OA
ATOM     22  H   UNL     1     -19.070  43.708  -1.842  1.00  0.00     0.293 HD
ENDBRANCH  16  21
ENDBRANCH   1  11
BRANCH  10  23
ATOM     23  O   UNL     1     -17.550  42.929  -8.864  1.00  0.00    -0.500 OA
ATOM     24  H   UNL     1     -17.142  42.027  -8.651  1.00  0.00     0.294 HD
ENDBRANCH  10  23
BRANCH   5  25
ATOM     25  O   UNL     1     -13.875  49.593  -7.306  1.00  0.00    -0.507 OA
ATOM     26  H   UNL     1     -14.373  50.248  -6.715  1.00  0.00     0.293 HD
ENDBRANCH   5  25
BRANCH   7  27
ATOM     27  O   UNL     1     -15.037  46.925 -11.125  1.00  0.00    -0.507 OA
ATOM     28  H   UNL     1     -14.369  47.385 -11.726  1.00  0.00     0.293 HD
ENDBRANCH   7  27
TORSDOF 7
ENDMDL
MODEL 5
REMARK VINA RESULT:     0.435      2.684      7.462
REMARK INTER + INTRA:           0.462
REMARK INTER:                   0.788
REMARK INTRA:                  -0.326
REMARK UNBOUND:                -0.075
REMARK SMILES Oc1cc(O)c2cc(O)c(-c3cc(O)c(O)c(O)c3)[o+]c2c1.[Cl-]
REMARK SMILES IDX 10 1 20 2 21 3 22 4 2 5 3 6 4 7 6 8 7 9 8 10 11 11 12 12
REMARK SMILES IDX 13 13 19 14 15 15 17 16 14 17 16 19 18 21 9 23 1 25 5 27
REMARK H PARENT 14 18 16 20 18 22 9 24 1 26 5 28
REMARK Flexibility Score: inf
ROOT
ATOM      1  C   UNL     1     -16.058  45.095  -7.133  1.00  0.00     0.402 A 
ATOM      2  O   UNL     1     -17.100  45.103  -6.306  1.00  0.00    -0.202 OA
ATOM      3  C   UNL     1     -17.514  44.028  -5.643  1.00  0.00     0.368 A 
ATOM      4  C   UNL     1     -18.618  44.137  -4.793  1.00  0.00     0.162 A 
ATOM      5  C   UNL     1     -19.072  43.023  -4.081  1.00  0.00     0.128 A 
ATOM      6  C   UNL     1     -18.419  41.796  -4.219  1.00  0.00     0.093 A 
ATOM      7  C   UNL     1     -17.311  41.661  -5.063  1.00  0.00     0.136 A 
ATOM      8  C   UNL     1     -16.846  42.788  -5.790  1.00  0.00     0.125 A 
ATOM      9  C   UNL     1     -15.752  42.743  -6.669  1.00  0.00     0.078 A 
ATOM     10  C   UNL     1     -15.356  43.895  -7.355  1.00  0.00     0.223 A 
ENDROOT
BRANCH   1  11
ATOM     11  C   UNL     1     -15.688  46.361  -7.806  1.00  0.00     0.091 A 
ATOM     12  C   UNL     1     -15.998  46.588  -9.158  1.00  0.00     0.068 A 
ATOM     13  C   UNL     1     -15.620  47.783  -9.783  1.00  0.00     0.162 A 
ATOM     14  C   UNL     1     -14.964  47.332  -7.099  1.00  0.00     0.068 A 
ATOM     15  C   UNL     1     -14.916  48.759  -9.064  1.00  0.00     0.200 A 
ATOM     16  C   UNL     1     -14.584  48.532  -7.719  1.00  0.00     0.162 A 
BRANCH  13  17
ATOM     17  O   UNL     1     -15.934  48.008 -11.123  1.00  0.00    -0.504 OA
ATOM     18  H   UNL     1     -15.398  47.584 -11.871  1.00  0.00     0.293 HD
ENDBRANCH  13  17
BRANCH  15  19
ATOM     19  O   UNL     1     -14.551  49.945  -9.702  1.00  0.00    -0.502 OA
ATOM     20  H   UNL     1     -14.711  50.854  -9.284  1.00  0.00     0.293 HD
ENDBRANCH  15  19
BRANCH  16  21
ATOM     21  O   UNL     1     -13.877  49.496  -7.001  1.00  0.00    -0.504 OA
ATOM     22  H   UNL     1     -13.193  50.096  -7.450  1.00  0.00     0.293 HD
ENDBRANCH  16  21
ENDBRANCH   1  11
BRANCH  10  23
ATOM     23  O   UNL     1     -14.300  43.840  -8.266  1.00  0.00    -0.500 OA
ATOM     24  H   UNL     1     -13.901  42.958  -8.565  1.00  0.00     0.294 HD
ENDBRANCH  10  23
BRANCH   5  25
ATOM     25  O   UNL     1     -20.173  43.124  -3.233  1.00  0.00    -0.507 OA
ATOM     26  H   UNL     1     -20.071  43.390  -2.261  1.00  0.00     0.293 HD
ENDBRANCH   5  25
BRANCH   7  27
ATOM     27  O   UNL     1     -16.711  40.400  -5.143  1.00  0.00    -0.507 OA
ATOM     28  H   UNL     1     -16.561  39.893  -6.002  1.00  0.00     0.293 HD
ENDBRANCH   7  27
TORSDOF 7
ENDMDL
MODEL 6
REMARK VINA RESULT:     0.869      1.529      7.259
REMARK INTER + INTRA:           0.997
REMARK INTER:                   1.372
REMARK INTRA:                  -0.375
REMARK UNBOUND:                -0.075
REMARK SMILES Oc1cc(O)c2cc(O)c(-c3cc(O)c(O)c(O)c3)[o+]c2c1.[Cl-]
REMARK SMILES IDX 10 1 20 2 21 3 22 4 2 5 3 6 4 7 6 8 7 9 8 10 11 11 12 12
REMARK SMILES IDX 13 13 19 14 15 15 17 16 14 17 16 19 18 21 9 23 1 25 5 27
REMARK H PARENT 14 18 16 20 18 22 9 24 1 26 5 28
REMARK Flexibility Score: inf
ROOT
ATOM      1  C   UNL     1     -17.548  44.344  -7.701  1.00  0.00     0.402 A 
ATOM      2  O   UNL     1     -17.936  44.653  -6.467  1.00  0.00    -0.202 OA
ATOM      3  C   UNL     1     -18.320  43.747  -5.574  1.00  0.00     0.368 A 
ATOM      4  C   UNL     1     -18.707  44.170  -4.299  1.00  0.00     0.162 A 
ATOM      5  C   UNL     1     -19.113  43.238  -3.340  1.00  0.00     0.128 A 
ATOM      6  C   UNL     1     -19.130  41.877  -3.656  1.00  0.00     0.093 A 
ATOM      7  C   UNL     1     -18.747  41.428  -4.925  1.00  0.00     0.136 A 
ATOM      8  C   UNL     1     -18.336  42.371  -5.904  1.00  0.00     0.125 A 
ATOM      9  C   UNL     1     -17.948  42.013  -7.205  1.00  0.00     0.078 A 
ATOM     10  C   UNL     1     -17.561  42.999  -8.117  1.00  0.00     0.223 A 
ENDROOT
BRANCH   1  11
ATOM     11  C   UNL     1     -17.133  45.444  -8.601  1.00  0.00     0.091 A 
ATOM     12  C   UNL     1     -15.817  45.937  -8.595  1.00  0.00     0.068 A 
ATOM     13  C   UNL     1     -15.450  46.994  -9.439  1.00  0.00     0.162 A 
ATOM     14  C   UNL     1     -18.084  46.046  -9.439  1.00  0.00     0.068 A 
ATOM     15  C   UNL     1     -16.400  47.575 -10.289  1.00  0.00     0.200 A 
ATOM     16  C   UNL     1     -17.722  47.103 -10.287  1.00  0.00     0.162 A 
BRANCH  13  17
ATOM     17  O   UNL     1     -14.142  47.477  -9.435  1.00  0.00    -0.504 OA
ATOM     18  H   UNL     1     -13.798  48.085 -10.170  1.00  0.00     0.293 HD
ENDBRANCH  13  17
BRANCH  15  19
ATOM     19  O   UNL     1     -16.015  48.624 -11.125  1.00  0.00    -0.502 OA
ATOM     20  H   UNL     1     -16.494  49.517 -11.126  1.00  0.00     0.293 HD
ENDBRANCH  15  19
BRANCH  16  21
ATOM     21  O   UNL     1     -18.673  47.684 -11.125  1.00  0.00    -0.504 OA
ATOM     22  H   UNL     1     -18.590  48.646 -11.436  1.00  0.00     0.293 HD
ENDBRANCH  16  21
ENDBRANCH   1  11
BRANCH  10  23
ATOM     23  O   UNL     1     -17.223  42.650  -9.426  1.00  0.00    -0.500 OA
ATOM     24  H   UNL     1     -17.924  42.571 -10.153  1.00  0.00     0.294 HD
ENDBRANCH  10  23
BRANCH   5  25
ATOM     25  O   UNL     1     -19.500  43.652  -2.068  1.00  0.00    -0.507 OA
ATOM     26  H   UNL     1     -20.135  43.102  -1.501  1.00  0.00     0.293 HD
ENDBRANCH   5  25
BRANCH   7  27
ATOM     27  O   UNL     1     -18.789  40.050  -5.161  1.00  0.00    -0.507 OA
ATOM     28  H   UNL     1     -19.512  39.435  -4.820  1.00  0.00     0.293 HD
ENDBRANCH   7  27
TORSDOF 7
ENDMDL
