MODEL 1
REMARK VINA RESULT:    -6.288      0.000      0.000
REMARK INTER + INTRA:          -7.824
REMARK INTER:                  -7.574
REMARK INTRA:                  -0.249
REMARK UNBOUND:                -0.249
REMARK SMILES O=c1c(O)c(-c2ccc(O)c(O)c2)oc2cc(O)cc(O)c12
REMARK SMILES IDX 5 1 3 2 2 3 1 4 22 5 20 6 19 7 17 8 16 9 15 10 14 11 6 12
REMARK SMILES IDX 7 13 8 14 9 15 13 16 11 17 10 18 12 20 4 22 21 24 18 26
REMARK H PARENT 10 19 12 21 4 23 21 25 18 27
REMARK Flexibility Score: inf
ROOT
ATOM      1  C   UNL     1      10.963  21.746  11.314  1.00  0.00     0.180 A 
ATOM      2  C   UNL     1      10.400  22.036  10.055  1.00  0.00     0.208 A 
ATOM      3  C   UNL     1       9.095  22.547   9.998  1.00  0.00     0.238 A 
ATOM      4  O   UNL     1       8.576  22.800   8.875  1.00  0.00    -0.285 OA
ATOM      5  C   UNL     1       8.382  22.778  11.192  1.00  0.00     0.111 A 
ATOM      6  C   UNL     1       7.065  23.294  11.222  1.00  0.00     0.134 A 
ATOM      7  C   UNL     1       6.427  23.504  12.454  1.00  0.00     0.093 A 
ATOM      8  C   UNL     1       7.082  23.209  13.655  1.00  0.00     0.123 A 
ATOM      9  C   UNL     1       8.381  22.699  13.631  1.00  0.00     0.094 A 
ATOM     10  C   UNL     1       9.034  22.482  12.414  1.00  0.00     0.146 A 
ATOM     11  O   UNL     1      10.267  21.991  12.420  1.00  0.00    -0.452 OA
ENDROOT
BRANCH   1  12
ATOM     12  C   UNL     1      12.327  21.188  11.456  1.00  0.00     0.025 A 
ATOM     13  C   UNL     1      12.486  19.828  11.765  1.00  0.00     0.016 A 
ATOM     14  C   UNL     1      13.763  19.275  11.884  1.00  0.00     0.051 A 
ATOM     15  C   UNL     1      14.898  20.065  11.682  1.00  0.00     0.157 A 
ATOM     16  C   UNL     1      13.469  21.978  11.232  1.00  0.00     0.062 A 
ATOM     17  C   UNL     1      14.753  21.423  11.350  1.00  0.00     0.158 A 
BRANCH  15  18
ATOM     18  O   UNL     1      16.161  19.486  11.810  1.00  0.00    -0.504 OA
ATOM     19  H   UNL     1      16.986  19.893  11.386  1.00  0.00     0.293 HD
ENDBRANCH  15  18
BRANCH  17  20
ATOM     20  O   UNL     1      15.880  22.213  11.132  1.00  0.00    -0.504 OA
ATOM     21  H   UNL     1      16.593  21.948  10.462  1.00  0.00     0.293 HD
ENDBRANCH  17  20
ENDBRANCH   1  12
BRANCH   2  22
ATOM     22  O   UNL     1      11.145  21.845   8.888  1.00  0.00    -0.502 OA
ATOM     23  H   UNL     1      11.585  22.613   8.394  1.00  0.00     0.293 HD
ENDBRANCH   2  22
BRANCH   6  24
ATOM     24  O   UNL     1       6.386  23.598  10.041  1.00  0.00    -0.507 OA
ATOM     25  H   UNL     1       6.655  23.193   9.152  1.00  0.00     0.293 HD
ENDBRANCH   6  24
BRANCH   8  26
ATOM     26  O   UNL     1       6.450  23.418  14.879  1.00  0.00    -0.508 OA
ATOM     27  H   UNL     1       6.820  23.031  15.739  1.00  0.00     0.293 HD
ENDBRANCH   8  26
TORSDOF 6
ENDMDL
MODEL 2
REMARK VINA RESULT:    -6.075      3.876      6.809
REMARK INTER + INTRA:          -7.567
REMARK INTER:                  -7.372
REMARK INTRA:                  -0.195
REMARK UNBOUND:                -0.249
REMARK SMILES O=c1c(O)c(-c2ccc(O)c(O)c2)oc2cc(O)cc(O)c12
REMARK SMILES IDX 5 1 3 2 2 3 1 4 22 5 20 6 19 7 17 8 16 9 15 10 14 11 6 12
REMARK SMILES IDX 7 13 8 14 9 15 13 16 11 17 10 18 12 20 4 22 21 24 18 26
REMARK H PARENT 10 19 12 21 4 23 21 25 18 27
REMARK Flexibility Score: inf
ROOT
ATOM      1  C   UNL     1      14.417  17.378  10.513  1.00  0.00     0.180 A 
ATOM      2  C   UNL     1      15.231  18.265  11.245  1.00  0.00     0.208 A 
ATOM      3  C   UNL     1      14.840  19.607  11.359  1.00  0.00     0.238 A 
ATOM      4  O   UNL     1      15.567  20.413  12.003  1.00  0.00    -0.285 OA
ATOM      5  C   UNL     1      13.637  20.037  10.760  1.00  0.00     0.111 A 
ATOM      6  C   UNL     1      13.169  21.371  10.831  1.00  0.00     0.134 A 
ATOM      7  C   UNL     1      11.957  21.717  10.215  1.00  0.00     0.093 A 
ATOM      8  C   UNL     1      11.205  20.755   9.532  1.00  0.00     0.123 A 
ATOM      9  C   UNL     1      11.662  19.438   9.459  1.00  0.00     0.094 A 
ATOM     10  C   UNL     1      12.868  19.073  10.065  1.00  0.00     0.146 A 
ATOM     11  O   UNL     1      13.282  17.815   9.975  1.00  0.00    -0.452 OA
ENDROOT
BRANCH   1  12
ATOM     12  C   UNL     1      14.771  15.951  10.332  1.00  0.00     0.025 A 
ATOM     13  C   UNL     1      15.164  15.494   9.065  1.00  0.00     0.016 A 
ATOM     14  C   UNL     1      15.522  14.158   8.875  1.00  0.00     0.051 A 
ATOM     15  C   UNL     1      15.509  13.262   9.948  1.00  0.00     0.157 A 
ATOM     16  C   UNL     1      14.777  15.055  11.416  1.00  0.00     0.062 A 
ATOM     17  C   UNL     1      15.139  13.712  11.227  1.00  0.00     0.158 A 
BRANCH  15  18
ATOM     18  O   UNL     1      15.869  11.933   9.728  1.00  0.00    -0.504 OA
ATOM     19  H   UNL     1      16.707  11.679   9.218  1.00  0.00     0.293 HD
ENDBRANCH  15  18
BRANCH  17  20
ATOM     20  O   UNL     1      15.138  12.829  12.305  1.00  0.00    -0.504 OA
ATOM     21  H   UNL     1      15.881  12.152  12.438  1.00  0.00     0.293 HD
ENDBRANCH  17  20
ENDBRANCH   1  12
BRANCH   2  22
ATOM     22  O   UNL     1      16.392  17.803  11.871  1.00  0.00    -0.502 OA
ATOM     23  H   UNL     1      17.222  18.376  11.964  1.00  0.00     0.293 HD
ENDBRANCH   2  22
BRANCH   6  24
ATOM     24  O   UNL     1      13.898  22.352  11.505  1.00  0.00    -0.507 OA
ATOM     25  H   UNL     1      14.088  23.256  11.088  1.00  0.00     0.293 HD
ENDBRANCH   6  24
BRANCH   8  26
ATOM     26  O   UNL     1      10.000  21.097   8.922  1.00  0.00    -0.508 OA
ATOM     27  H   UNL     1       9.507  21.949   9.165  1.00  0.00     0.293 HD
ENDBRANCH   8  26
TORSDOF 6
ENDMDL
MODEL 3
REMARK VINA RESULT:    -6.055      4.836      7.835
REMARK INTER + INTRA:          -7.544
REMARK INTER:                  -7.376
REMARK INTRA:                  -0.167
REMARK UNBOUND:                -0.249
REMARK SMILES O=c1c(O)c(-c2ccc(O)c(O)c2)oc2cc(O)cc(O)c12
REMARK SMILES IDX 5 1 3 2 2 3 1 4 22 5 20 6 19 7 17 8 16 9 15 10 14 11 6 12
REMARK SMILES IDX 7 13 8 14 9 15 13 16 11 17 10 18 12 20 4 22 21 24 18 26
REMARK H PARENT 10 19 12 21 4 23 21 25 18 27
REMARK Flexibility Score: inf
ROOT
ATOM      1  C   UNL     1      14.662  16.182  10.349  1.00  0.00     0.180 A 
ATOM      2  C   UNL     1      13.521  16.690   9.698  1.00  0.00     0.208 A 
ATOM      3  C   UNL     1      13.190  18.042   9.866  1.00  0.00     0.238 A 
ATOM      4  O   UNL     1      12.163  18.505   9.296  1.00  0.00    -0.285 OA
ATOM      5  C   UNL     1      14.011  18.869  10.661  1.00  0.00     0.111 A 
ATOM      6  C   UNL     1      13.750  20.243  10.878  1.00  0.00     0.134 A 
ATOM      7  C   UNL     1      14.621  21.000  11.675  1.00  0.00     0.093 A 
ATOM      8  C   UNL     1      15.747  20.408  12.259  1.00  0.00     0.123 A 
ATOM      9  C   UNL     1      16.008  19.053  12.049  1.00  0.00     0.094 A 
ATOM     10  C   UNL     1      15.152  18.281  11.258  1.00  0.00     0.146 A 
ATOM     11  O   UNL     1      15.421  16.994  11.079  1.00  0.00    -0.452 OA
ENDROOT
BRANCH   1  12
ATOM     12  C   UNL     1      15.066  14.762  10.237  1.00  0.00     0.025 A 
ATOM     13  C   UNL     1      15.504  14.265   8.999  1.00  0.00     0.016 A 
ATOM     14  C   UNL     1      15.909  12.934   8.875  1.00  0.00     0.051 A 
ATOM     15  C   UNL     1      15.898  12.085   9.985  1.00  0.00     0.157 A 
ATOM     16  C   UNL     1      15.074  13.912  11.358  1.00  0.00     0.062 A 
ATOM     17  C   UNL     1      15.483  12.575  11.235  1.00  0.00     0.158 A 
BRANCH  15  18
ATOM     18  O   UNL     1      16.305  10.760   9.830  1.00  0.00    -0.504 OA
ATOM     19  H   UNL     1      15.795  10.103   9.252  1.00  0.00     0.293 HD
ENDBRANCH  15  18
BRANCH  17  20
ATOM     20  O   UNL     1      15.483  11.738  12.349  1.00  0.00    -0.504 OA
ATOM     21  H   UNL     1      14.712  11.728  13.006  1.00  0.00     0.293 HD
ENDBRANCH  17  20
ENDBRANCH   1  12
BRANCH   2  22
ATOM     22  O   UNL     1      12.752  15.862   8.875  1.00  0.00    -0.502 OA
ATOM     23  H   UNL     1      13.168  15.175   8.257  1.00  0.00     0.293 HD
ENDBRANCH   2  22
BRANCH   6  24
ATOM     24  O   UNL     1      12.634  20.861  10.309  1.00  0.00    -0.507 OA
ATOM     25  H   UNL     1      12.557  21.004   9.309  1.00  0.00     0.293 HD
ENDBRANCH   6  24
BRANCH   8  26
ATOM     26  O   UNL     1      16.614  21.159  13.051  1.00  0.00    -0.508 OA
ATOM     27  H   UNL     1      17.582  21.304  12.786  1.00  0.00     0.293 HD
ENDBRANCH   8  26
TORSDOF 6
ENDMDL
MODEL 4
REMARK VINA RESULT:    -6.029      6.228     10.790
REMARK INTER + INTRA:          -7.512
REMARK INTER:                  -7.783
REMARK INTRA:                   0.271
REMARK UNBOUND:                -0.249
REMARK SMILES O=c1c(O)c(-c2ccc(O)c(O)c2)oc2cc(O)cc(O)c12
REMARK SMILES IDX 5 1 3 2 2 3 1 4 22 5 20 6 19 7 17 8 16 9 15 10 14 11 6 12
REMARK SMILES IDX 7 13 8 14 9 15 13 16 11 17 10 18 12 20 4 22 21 24 18 26
REMARK H PARENT 10 19 12 21 4 23 21 25 18 27
REMARK Flexibility Score: inf
ROOT
ATOM      1  C   UNL     1       3.409  23.353  16.896  1.00  0.00     0.180 A 
ATOM      2  C   UNL     1       4.801  23.539  17.012  1.00  0.00     0.208 A 
ATOM      3  C   UNL     1       5.588  23.507  15.852  1.00  0.00     0.238 A 
ATOM      4  O   UNL     1       6.837  23.662  15.946  1.00  0.00    -0.285 OA
ATOM      5  C   UNL     1       4.976  23.311  14.598  1.00  0.00     0.111 A 
ATOM      6  C   UNL     1       5.697  23.269  13.380  1.00  0.00     0.134 A 
ATOM      7  C   UNL     1       5.011  23.079  12.171  1.00  0.00     0.093 A 
ATOM      8  C   UNL     1       3.620  22.930  12.157  1.00  0.00     0.123 A 
ATOM      9  C   UNL     1       2.904  22.969  13.355  1.00  0.00     0.094 A 
ATOM     10  C   UNL     1       3.569  23.157  14.571  1.00  0.00     0.146 A 
ATOM     11  O   UNL     1       2.864  23.185  15.695  1.00  0.00    -0.452 OA
ENDROOT
BRANCH   1  12
ATOM     12  C   UNL     1       2.514  23.353  18.076  1.00  0.00     0.025 A 
ATOM     13  C   UNL     1       1.161  23.694  17.914  1.00  0.00     0.016 A 
ATOM     14  C   UNL     1       0.294  23.681  19.009  1.00  0.00     0.051 A 
ATOM     15  C   UNL     1       0.759  23.316  20.276  1.00  0.00     0.157 A 
ATOM     16  C   UNL     1       2.976  22.966  19.347  1.00  0.00     0.062 A 
ATOM     17  C   UNL     1       2.105  22.952  20.447  1.00  0.00     0.158 A 
BRANCH  15  18
ATOM     18  O   UNL     1      -0.130  23.316  21.351  1.00  0.00    -0.504 OA
ATOM     19  H   UNL     1      -0.821  22.586  21.478  1.00  0.00     0.293 HD
ENDBRANCH  15  18
BRANCH  17  20
ATOM     20  O   UNL     1       2.571  22.572  21.704  1.00  0.00    -0.504 OA
ATOM     21  H   UNL     1       1.936  22.374  22.469  1.00  0.00     0.293 HD
ENDBRANCH  17  20
ENDBRANCH   1  12
BRANCH   2  22
ATOM     22  O   UNL     1       5.378  23.781  18.262  1.00  0.00    -0.502 OA
ATOM     23  H   UNL     1       6.372  23.675  18.430  1.00  0.00     0.293 HD
ENDBRANCH   2  22
BRANCH   6  24
ATOM     24  O   UNL     1       7.085  23.415  13.363  1.00  0.00    -0.507 OA
ATOM     25  H   UNL     1       7.525  24.327  13.346  1.00  0.00     0.293 HD
ENDBRANCH   6  24
BRANCH   8  26
ATOM     26  O   UNL     1       2.938  22.742  10.957  1.00  0.00    -0.508 OA
ATOM     27  H   UNL     1       2.151  23.326  10.697  1.00  0.00     0.293 HD
ENDBRANCH   8  26
TORSDOF 6
ENDMDL
MODEL 5
REMARK VINA RESULT:    -5.992      3.171      7.970
REMARK INTER + INTRA:          -7.467
REMARK INTER:                  -7.417
REMARK INTRA:                  -0.050
REMARK UNBOUND:                -0.249
REMARK SMILES O=c1c(O)c(-c2ccc(O)c(O)c2)oc2cc(O)cc(O)c12
REMARK SMILES IDX 5 1 3 2 2 3 1 4 22 5 20 6 19 7 17 8 16 9 15 10 14 11 6 12
REMARK SMILES IDX 7 13 8 14 9 15 13 16 11 17 10 18 12 20 4 22 21 24 18 26
REMARK H PARENT 10 19 12 21 4 23 21 25 18 27
REMARK Flexibility Score: inf
ROOT
ATOM      1  C   UNL     1       5.867  23.376  13.968  1.00  0.00     0.180 A 
ATOM      2  C   UNL     1       5.026  23.758  12.904  1.00  0.00     0.208 A 
ATOM      3  C   UNL     1       5.545  23.774  11.602  1.00  0.00     0.238 A 
ATOM      4  O   UNL     1       4.804  24.125  10.642  1.00  0.00    -0.285 OA
ATOM      5  C   UNL     1       6.884  23.393  11.379  1.00  0.00     0.111 A 
ATOM      6  C   UNL     1       7.484  23.378  10.097  1.00  0.00     0.134 A 
ATOM      7  C   UNL     1       8.821  22.977   9.958  1.00  0.00     0.093 A 
ATOM      8  C   UNL     1       9.568  22.589  11.076  1.00  0.00     0.123 A 
ATOM      9  C   UNL     1       8.981  22.602  12.342  1.00  0.00     0.094 A 
ATOM     10  C   UNL     1       7.651  23.000  12.502  1.00  0.00     0.146 A 
ATOM     11  O   UNL     1       7.120  23.008  13.719  1.00  0.00    -0.452 OA
ENDROOT
BRANCH   1  12
ATOM     12  C   UNL     1       5.398  23.351  15.373  1.00  0.00     0.025 A 
ATOM     13  C   UNL     1       6.070  24.117  16.337  1.00  0.00     0.016 A 
ATOM     14  C   UNL     1       5.633  24.125  17.664  1.00  0.00     0.051 A 
ATOM     15  C   UNL     1       4.512  23.382  18.044  1.00  0.00     0.157 A 
ATOM     16  C   UNL     1       4.258  22.620  15.751  1.00  0.00     0.062 A 
ATOM     17  C   UNL     1       3.816  22.628  17.083  1.00  0.00     0.158 A 
BRANCH  15  18
ATOM     18  O   UNL     1       4.100  23.407  19.377  1.00  0.00    -0.504 OA
ATOM     19  H   UNL     1       4.232  22.616  19.996  1.00  0.00     0.293 HD
ENDBRANCH  15  18
BRANCH  17  20
ATOM     20  O   UNL     1       2.689  21.897  17.452  1.00  0.00    -0.504 OA
ATOM     21  H   UNL     1       1.998  21.605  16.769  1.00  0.00     0.293 HD
ENDBRANCH  17  20
ENDBRANCH   1  12
BRANCH   2  22
ATOM     22  O   UNL     1       3.688  24.083  13.145  1.00  0.00    -0.502 OA
ATOM     23  H   UNL     1       2.924  23.482  12.859  1.00  0.00     0.293 HD
ENDBRANCH   2  22
BRANCH   6  24
ATOM     24  O   UNL     1       6.764  23.760   8.963  1.00  0.00    -0.507 OA
ATOM     25  H   UNL     1       6.954  23.361   8.052  1.00  0.00     0.293 HD
ENDBRANCH   6  24
BRANCH   8  26
ATOM     26  O   UNL     1      10.895  22.189  10.939  1.00  0.00    -0.508 OA
ATOM     27  H   UNL     1      11.644  22.864  10.838  1.00  0.00     0.293 HD
ENDBRANCH   8  26
TORSDOF 6
ENDMDL
MODEL 6
REMARK VINA RESULT:    -5.692      2.751      5.194
REMARK INTER + INTRA:          -7.107
REMARK INTER:                  -7.517
REMARK INTRA:                   0.411
REMARK UNBOUND:                -0.249
REMARK SMILES O=c1c(O)c(-c2ccc(O)c(O)c2)oc2cc(O)cc(O)c12
REMARK SMILES IDX 5 1 3 2 2 3 1 4 22 5 20 6 19 7 17 8 16 9 15 10 14 11 6 12
REMARK SMILES IDX 7 13 8 14 9 15 13 16 11 17 10 18 12 20 4 22 21 24 18 26
REMARK H PARENT 10 19 12 21 4 23 21 25 18 27
REMARK Flexibility Score: inf
ROOT
ATOM      1  C   UNL     1       6.797  23.083  12.827  1.00  0.00     0.180 A 
ATOM      2  C   UNL     1       5.502  23.015  12.275  1.00  0.00     0.208 A 
ATOM      3  C   UNL     1       4.395  23.101  13.131  1.00  0.00     0.238 A 
ATOM      4  O   UNL     1       3.231  23.030  12.648  1.00  0.00    -0.285 OA
ATOM      5  C   UNL     1       4.595  23.273  14.516  1.00  0.00     0.111 A 
ATOM      6  C   UNL     1       3.533  23.373  15.446  1.00  0.00     0.134 A 
ATOM      7  C   UNL     1       3.815  23.552  16.809  1.00  0.00     0.093 A 
ATOM      8  C   UNL     1       5.138  23.635  17.257  1.00  0.00     0.123 A 
ATOM      9  C   UNL     1       6.189  23.537  16.344  1.00  0.00     0.094 A 
ATOM     10  C   UNL     1       5.929  23.356  14.982  1.00  0.00     0.146 A 
ATOM     11  O   UNL     1       6.947  23.261  14.136  1.00  0.00    -0.452 OA
ENDROOT
BRANCH   1  12
ATOM     12  C   UNL     1       8.016  22.981  11.992  1.00  0.00     0.025 A 
ATOM     13  C   UNL     1       7.946  23.303  10.627  1.00  0.00     0.016 A 
ATOM     14  C   UNL     1       9.087  23.233   9.825  1.00  0.00     0.051 A 
ATOM     15  C   UNL     1      10.316  22.856  10.375  1.00  0.00     0.157 A 
ATOM     16  C   UNL     1       9.257  22.621  12.548  1.00  0.00     0.062 A 
ATOM     17  C   UNL     1      10.404  22.553  11.744  1.00  0.00     0.158 A 
BRANCH  15  18
ATOM     18  O   UNL     1      11.438  22.792   9.548  1.00  0.00    -0.504 OA
ATOM     19  H   UNL     1      11.627  23.494   8.843  1.00  0.00     0.293 HD
ENDBRANCH  15  18
BRANCH  17  20
ATOM     20  O   UNL     1      11.629  22.191  12.301  1.00  0.00    -0.504 OA
ATOM     21  H   UNL     1      12.506  22.524  11.918  1.00  0.00     0.293 HD
ENDBRANCH  17  20
ENDBRANCH   1  12
BRANCH   2  22
ATOM     22  O   UNL     1       5.331  22.894  10.893  1.00  0.00    -0.502 OA
ATOM     23  H   UNL     1       4.417  22.790  10.467  1.00  0.00     0.293 HD
ENDBRANCH   2  22
BRANCH   6  24
ATOM     24  O   UNL     1       2.203  23.294  15.029  1.00  0.00    -0.507 OA
ATOM     25  H   UNL     1       1.926  22.730  14.234  1.00  0.00     0.293 HD
ENDBRANCH   6  24
BRANCH   8  26
ATOM     26  O   UNL     1       5.419  23.815  18.610  1.00  0.00    -0.508 OA
ATOM     27  H   UNL     1       4.794  24.334  19.216  1.00  0.00     0.293 HD
ENDBRANCH   8  26
TORSDOF 6
ENDMDL
MODEL 7
REMARK VINA RESULT:    -5.622      2.119      7.348
REMARK INTER + INTRA:          -7.021
REMARK INTER:                  -6.782
REMARK INTRA:                  -0.239
REMARK UNBOUND:                -0.249
REMARK SMILES O=c1c(O)c(-c2ccc(O)c(O)c2)oc2cc(O)cc(O)c12
REMARK SMILES IDX 5 1 3 2 2 3 1 4 22 5 20 6 19 7 17 8 16 9 15 10 14 11 6 12
REMARK SMILES IDX 7 13 8 14 9 15 13 16 11 17 10 18 12 20 4 22 21 24 18 26
REMARK H PARENT 10 19 12 21 4 23 21 25 18 27
REMARK Flexibility Score: inf
ROOT
ATOM      1  C   UNL     1      11.759  21.153  10.467  1.00  0.00     0.180 A 
ATOM      2  C   UNL     1      12.934  21.674  11.044  1.00  0.00     0.208 A 
ATOM      3  C   UNL     1      14.077  20.864  11.103  1.00  0.00     0.238 A 
ATOM      4  O   UNL     1      15.132  21.318  11.627  1.00  0.00    -0.285 OA
ATOM      5  C   UNL     1      14.037  19.560  10.570  1.00  0.00     0.111 A 
ATOM      6  C   UNL     1      15.147  18.681  10.585  1.00  0.00     0.134 A 
ATOM      7  C   UNL     1      15.028  17.400  10.026  1.00  0.00     0.093 A 
ATOM      8  C   UNL     1      13.823  16.982   9.450  1.00  0.00     0.123 A 
ATOM      9  C   UNL     1      12.726  17.845   9.433  1.00  0.00     0.094 A 
ATOM     10  C   UNL     1      12.823  19.125   9.986  1.00  0.00     0.146 A 
ATOM     11  O   UNL     1      11.762  19.923   9.961  1.00  0.00    -0.452 OA
ENDROOT
BRANCH   1  12
ATOM     12  C   UNL     1      10.506  21.938  10.385  1.00  0.00     0.025 A 
ATOM     13  C   UNL     1      10.022  22.336   9.129  1.00  0.00     0.016 A 
ATOM     14  C   UNL     1       8.832  23.059   9.027  1.00  0.00     0.051 A 
ATOM     15  C   UNL     1       8.101  23.384  10.173  1.00  0.00     0.157 A 
ATOM     16  C   UNL     1       9.759  22.247  11.536  1.00  0.00     0.062 A 
ATOM     17  C   UNL     1       8.562  22.973  11.435  1.00  0.00     0.158 A 
BRANCH  15  18
ATOM     18  O   UNL     1       6.917  24.110  10.040  1.00  0.00    -0.504 OA
ATOM     19  H   UNL     1       6.734  24.945  10.583  1.00  0.00     0.293 HD
ENDBRANCH  15  18
BRANCH  17  20
ATOM     20  O   UNL     1       7.831  23.279  12.581  1.00  0.00    -0.504 OA
ATOM     21  H   UNL     1       7.156  24.036  12.594  1.00  0.00     0.293 HD
ENDBRANCH  17  20
ENDBRANCH   1  12
BRANCH   2  22
ATOM     22  O   UNL     1      12.962  22.988  11.520  1.00  0.00    -0.502 OA
ATOM     23  H   UNL     1      12.594  23.243  12.429  1.00  0.00     0.293 HD
ENDBRANCH   2  22
BRANCH   6  24
ATOM     24  O   UNL     1      16.362  19.069  11.152  1.00  0.00    -0.507 OA
ATOM     25  H   UNL     1      17.132  18.419  11.259  1.00  0.00     0.293 HD
ENDBRANCH   6  24
BRANCH   8  26
ATOM     26  O   UNL     1      13.705  15.711   8.893  1.00  0.00    -0.508 OA
ATOM     27  H   UNL     1      13.661  15.575   7.890  1.00  0.00     0.293 HD
ENDBRANCH   8  26
TORSDOF 6
ENDMDL
MODEL 8
REMARK VINA RESULT:    -5.538      4.349      7.823
REMARK INTER + INTRA:          -6.921
REMARK INTER:                  -6.982
REMARK INTRA:                   0.061
REMARK UNBOUND:                -0.249
REMARK SMILES O=c1c(O)c(-c2ccc(O)c(O)c2)oc2cc(O)cc(O)c12
REMARK SMILES IDX 5 1 3 2 2 3 1 4 22 5 20 6 19 7 17 8 16 9 15 10 14 11 6 12
REMARK SMILES IDX 7 13 8 14 9 15 13 16 11 17 10 18 12 20 4 22 21 24 18 26
REMARK H PARENT 10 19 12 21 4 23 21 25 18 27
REMARK Flexibility Score: inf
ROOT
ATOM      1  C   UNL     1       5.186  23.308  14.506  1.00  0.00     0.180 A 
ATOM      2  C   UNL     1       5.849  23.689  15.689  1.00  0.00     0.208 A 
ATOM      3  C   UNL     1       5.166  23.595  16.910  1.00  0.00     0.238 A 
ATOM      4  O   UNL     1       5.746  23.944  17.975  1.00  0.00    -0.285 OA
ATOM      5  C   UNL     1       3.843  23.105  16.934  1.00  0.00     0.111 A 
ATOM      6  C   UNL     1       3.086  22.975  18.123  1.00  0.00     0.134 A 
ATOM      7  C   UNL     1       1.778  22.470  18.063  1.00  0.00     0.093 A 
ATOM      8  C   UNL     1       1.215  22.092  16.839  1.00  0.00     0.123 A 
ATOM      9  C   UNL     1       1.958  22.219  15.664  1.00  0.00     0.094 A 
ATOM     10  C   UNL     1       3.262  22.721  15.701  1.00  0.00     0.146 A 
ATOM     11  O   UNL     1       3.944  22.836  14.568  1.00  0.00    -0.452 OA
ENDROOT
BRANCH   1  12
ATOM     12  C   UNL     1       5.833  23.396  13.177  1.00  0.00     0.025 A 
ATOM     13  C   UNL     1       5.150  24.012  12.117  1.00  0.00     0.016 A 
ATOM     14  C   UNL     1       5.749  24.125  10.860  1.00  0.00     0.051 A 
ATOM     15  C   UNL     1       7.042  23.639  10.647  1.00  0.00     0.157 A 
ATOM     16  C   UNL     1       7.142  22.926  12.967  1.00  0.00     0.062 A 
ATOM     17  C   UNL     1       7.746  23.040  11.705  1.00  0.00     0.158 A 
BRANCH  15  18
ATOM     18  O   UNL     1       7.614  23.763   9.380  1.00  0.00    -0.504 OA
ATOM     19  H   UNL     1       8.342  23.139   9.055  1.00  0.00     0.293 HD
ENDBRANCH  15  18
BRANCH  17  20
ATOM     20  O   UNL     1       9.041  22.567  11.504  1.00  0.00    -0.504 OA
ATOM     21  H   UNL     1       9.835  23.196  11.454  1.00  0.00     0.293 HD
ENDBRANCH  17  20
ENDBRANCH   1  12
BRANCH   2  22
ATOM     22  O   UNL     1       7.176  24.124  15.644  1.00  0.00    -0.502 OA
ATOM     23  H   UNL     1       7.848  23.750  14.983  1.00  0.00     0.293 HD
ENDBRANCH   2  22
BRANCH   6  24
ATOM     24  O   UNL     1       3.620  23.343  19.359  1.00  0.00    -0.507 OA
ATOM     25  H   UNL     1       4.125  22.684  19.939  1.00  0.00     0.293 HD
ENDBRANCH   6  24
BRANCH   8  26
ATOM     26  O   UNL     1      -0.083  21.590  16.779  1.00  0.00    -0.508 OA
ATOM     27  H   UNL     1      -0.485  21.266  15.907  1.00  0.00     0.293 HD
ENDBRANCH   8  26
TORSDOF 6
ENDMDL
MODEL 9
REMARK VINA RESULT:    -4.311      6.091      8.798
REMARK INTER + INTRA:          -5.442
REMARK INTER:                  -5.394
REMARK INTRA:                  -0.048
REMARK UNBOUND:                -0.249
REMARK SMILES O=c1c(O)c(-c2ccc(O)c(O)c2)oc2cc(O)cc(O)c12
REMARK SMILES IDX 5 1 3 2 2 3 1 4 22 5 20 6 19 7 17 8 16 9 15 10 14 11 6 12
REMARK SMILES IDX 7 13 8 14 9 15 13 16 11 17 10 18 12 20 4 22 21 24 18 26
REMARK H PARENT 10 19 12 21 4 23 21 25 18 27
REMARK Flexibility Score: inf
ROOT
ATOM      1  C   UNL     1      14.396  16.892  10.029  1.00  0.00     0.180 A 
ATOM      2  C   UNL     1      13.098  16.631   9.550  1.00  0.00     0.208 A 
ATOM      3  C   UNL     1      12.716  15.302   9.314  1.00  0.00     0.238 A 
ATOM      4  O   UNL     1      11.559  15.058   8.875  1.00  0.00    -0.285 OA
ATOM      5  C   UNL     1      13.626  14.258   9.579  1.00  0.00     0.111 A 
ATOM      6  C   UNL     1      13.319  12.891   9.372  1.00  0.00     0.134 A 
ATOM      7  C   UNL     1      14.277  11.910   9.668  1.00  0.00     0.093 A 
ATOM      8  C   UNL     1      15.534  12.269  10.167  1.00  0.00     0.123 A 
ATOM      9  C   UNL     1      15.841  13.616  10.372  1.00  0.00     0.094 A 
ATOM     10  C   UNL     1      14.901  14.609  10.082  1.00  0.00     0.146 A 
ATOM     11  O   UNL     1      15.223  15.881  10.281  1.00  0.00    -0.452 OA
ENDROOT
BRANCH   1  12
ATOM     12  C   UNL     1      14.880  18.269  10.284  1.00  0.00     0.025 A 
ATOM     13  C   UNL     1      14.817  19.223   9.256  1.00  0.00     0.016 A 
ATOM     14  C   UNL     1      15.248  20.532   9.480  1.00  0.00     0.051 A 
ATOM     15  C   UNL     1      15.734  20.912  10.734  1.00  0.00     0.157 A 
ATOM     16  C   UNL     1      15.350  18.657  11.551  1.00  0.00     0.062 A 
ATOM     17  C   UNL     1      15.782  19.973  11.778  1.00  0.00     0.158 A 
BRANCH  15  18
ATOM     18  O   UNL     1      16.161  22.227  10.927  1.00  0.00    -0.504 OA
ATOM     19  H   UNL     1      17.102  22.449  11.228  1.00  0.00     0.293 HD
ENDBRANCH  15  18
BRANCH  17  20
ATOM     20  O   UNL     1      16.251  20.349  13.035  1.00  0.00    -0.504 OA
ATOM     21  H   UNL     1      16.466  19.662  13.749  1.00  0.00     0.293 HD
ENDBRANCH  17  20
ENDBRANCH   1  12
BRANCH   2  22
ATOM     22  O   UNL     1      12.198  17.681   9.344  1.00  0.00    -0.502 OA
ATOM     23  H   UNL     1      11.660  18.090  10.099  1.00  0.00     0.293 HD
ENDBRANCH   2  22
BRANCH   6  24
ATOM     24  O   UNL     1      12.073  12.502   8.876  1.00  0.00    -0.507 OA
ATOM     25  H   UNL     1      11.530  13.104   8.269  1.00  0.00     0.293 HD
ENDBRANCH   6  24
BRANCH   8  26
ATOM     26  O   UNL     1      16.485  11.296  10.462  1.00  0.00    -0.508 OA
ATOM     27  H   UNL     1      16.338  10.619  11.203  1.00  0.00     0.293 HD
ENDBRANCH   8  26
TORSDOF 6
ENDMDL
