MODEL 1
REMARK VINA RESULT:    -6.074      0.000      0.000
REMARK INTER + INTRA:          -9.717
REMARK INTER:                  -9.270
REMARK INTRA:                  -0.447
REMARK UNBOUND:                -0.447
REMARK SMILES CCCCCCCCCCC(=O)[O-]
REMARK SMILES IDX 7 1 8 2 9 3 10 4 11 5 12 6 13 7 6 8 5 9 4 10 3 11 2 12 1 13
REMARK H PARENT
REMARK Flexibility Score: inf
ROOT
ATOM      1  C   UNL     1      18.750  72.065  72.595  1.00  0.00     0.000 C 
ENDROOT
BRANCH   1   2
ATOM      2  C   UNL     1      18.883  71.413  73.983  1.00  0.00     0.000 C 
BRANCH   2   3
ATOM      3  C   UNL     1      20.063  70.431  74.063  1.00  0.00     0.006 C 
BRANCH   3   4
ATOM      4  C   UNL     1      20.606  70.278  75.489  1.00  0.00     0.053 C 
BRANCH   4   5
ATOM      5  C   UNL     1      22.076  70.000  75.461  1.00  0.00     0.041 C 
ATOM      6  O   UNL     1      22.640  69.472  76.456  1.00  0.00    -0.550 OA
ATOM      7  O   UNL     1      22.833  70.371  74.358  1.00  0.00    -0.550 OA
ENDBRANCH   4   5
ENDBRANCH   3   4
ENDBRANCH   2   3
ENDBRANCH   1   2
BRANCH   1   8
ATOM      8  C   UNL     1      17.397  71.764  71.931  1.00  0.00     0.000 C 
BRANCH   8   9
ATOM      9  C   UNL     1      16.285  71.489  72.959  1.00  0.00    -0.000 C 
BRANCH   9  10
ATOM     10  C   UNL     1      15.161  70.605  72.393  1.00  0.00    -0.000 C 
BRANCH  10  11
ATOM     11  C   UNL     1      14.189  70.118  73.482  1.00  0.00    -0.000 C 
BRANCH  11  12
ATOM     12  C   UNL     1      14.642  70.514  74.896  1.00  0.00    -0.003 C 
ATOM     13  C   UNL     1      13.871  69.780  75.993  1.00  0.00     0.004 C 
ENDBRANCH  11  12
ENDBRANCH  10  11
ENDBRANCH   9  10
ENDBRANCH   8   9
ENDBRANCH   1   8
TORSDOF 9
ENDMDL
MODEL 2
REMARK VINA RESULT:    -5.981      1.998      2.356
REMARK INTER + INTRA:          -9.575
REMARK INTER:                  -9.162
REMARK INTRA:                  -0.413
REMARK UNBOUND:                -0.447
REMARK SMILES CCCCCCCCCCC(=O)[O-]
REMARK SMILES IDX 7 1 8 2 9 3 10 4 11 5 12 6 13 7 6 8 5 9 4 10 3 11 2 12 1 13
REMARK H PARENT
REMARK Flexibility Score: inf
ROOT
ATOM      1  C   UNL     1      17.461  72.993  71.813  1.00  0.00     0.000 C 
ENDROOT
BRANCH   1   2
ATOM      2  C   UNL     1      18.987  72.965  72.016  1.00  0.00     0.000 C 
BRANCH   2   3
ATOM      3  C   UNL     1      19.528  71.541  72.221  1.00  0.00     0.006 C 
BRANCH   3   4
ATOM      4  C   UNL     1      20.926  71.349  71.618  1.00  0.00     0.053 C 
BRANCH   4   5
ATOM      5  C   UNL     1      21.477  70.010  71.993  1.00  0.00     0.041 C 
ATOM      6  O   UNL     1      22.292  69.905  72.948  1.00  0.00    -0.550 OA
ATOM      7  O   UNL     1      21.131  68.885  71.257  1.00  0.00    -0.550 OA
ENDBRANCH   4   5
ENDBRANCH   3   4
ENDBRANCH   2   3
ENDBRANCH   1   2
BRANCH   1   8
ATOM      8  C   UNL     1      16.819  71.608  71.984  1.00  0.00     0.000 C 
BRANCH   8   9
ATOM      9  C   UNL     1      15.415  71.683  72.609  1.00  0.00    -0.000 C 
BRANCH   9  10
ATOM     10  C   UNL     1      14.578  70.422  72.339  1.00  0.00    -0.000 C 
BRANCH  10  11
ATOM     11  C   UNL     1      13.944  69.848  73.619  1.00  0.00    -0.000 C 
BRANCH  11  12
ATOM     12  C   UNL     1      14.562  70.437  74.896  1.00  0.00    -0.003 C 
ATOM     13  C   UNL     1      14.027  69.783  76.170  1.00  0.00     0.004 C 
ENDBRANCH  11  12
ENDBRANCH  10  11
ENDBRANCH   9  10
ENDBRANCH   8   9
ENDBRANCH   1   8
TORSDOF 9
ENDMDL
MODEL 3
REMARK VINA RESULT:    -5.968      3.145      3.412
REMARK INTER + INTRA:          -9.555
REMARK INTER:                  -9.139
REMARK INTRA:                  -0.416
REMARK UNBOUND:                -0.447
REMARK SMILES CCCCCCCCCCC(=O)[O-]
REMARK SMILES IDX 7 1 8 2 9 3 10 4 11 5 12 6 13 7 6 8 5 9 4 10 3 11 2 12 1 13
REMARK H PARENT
REMARK Flexibility Score: inf
ROOT
ATOM      1  C   UNL     1      18.231  72.573  72.574  1.00  0.00     0.000 C 
ENDROOT
BRANCH   1   2
ATOM      2  C   UNL     1      18.762  71.490  71.618  1.00  0.00     0.000 C 
BRANCH   2   3
ATOM      3  C   UNL     1      20.288  71.323  71.703  1.00  0.00     0.006 C 
BRANCH   3   4
ATOM      4  C   UNL     1      20.730  69.860  71.575  1.00  0.00     0.053 C 
BRANCH   4   5
ATOM      5  C   UNL     1      20.524  69.373  70.176  1.00  0.00     0.041 C 
ATOM      6  O   UNL     1      20.825  70.108  69.198  1.00  0.00    -0.550 OA
ATOM      7  O   UNL     1      19.952  68.128  69.950  1.00  0.00    -0.550 OA
ENDBRANCH   4   5
ENDBRANCH   3   4
ENDBRANCH   2   3
ENDBRANCH   1   2
BRANCH   1   8
ATOM      8  C   UNL     1      16.730  72.841  72.385  1.00  0.00     0.000 C 
BRANCH   8   9
ATOM      9  C   UNL     1      15.853  71.899  73.229  1.00  0.00    -0.000 C 
BRANCH   9  10
ATOM     10  C   UNL     1      15.218  70.775  72.394  1.00  0.00    -0.000 C 
BRANCH  10  11
ATOM     11  C   UNL     1      14.116  70.021  73.160  1.00  0.00    -0.000 C 
BRANCH  11  12
ATOM     12  C   UNL     1      13.776  70.682  74.505  1.00  0.00    -0.003 C 
ATOM     13  C   UNL     1      14.034  69.764  75.699  1.00  0.00     0.004 C 
ENDBRANCH  11  12
ENDBRANCH  10  11
ENDBRANCH   9  10
ENDBRANCH   8   9
ENDBRANCH   1   8
TORSDOF 9
ENDMDL
MODEL 4
REMARK VINA RESULT:    -5.883      7.341      9.697
REMARK INTER + INTRA:          -9.424
REMARK INTER:                  -8.697
REMARK INTRA:                  -0.727
REMARK UNBOUND:                -0.447
REMARK SMILES CCCCCCCCCCC(=O)[O-]
REMARK SMILES IDX 7 1 8 2 9 3 10 4 11 5 12 6 13 7 6 8 5 9 4 10 3 11 2 12 1 13
REMARK H PARENT
REMARK Flexibility Score: inf
ROOT
ATOM      1  C   UNL     1      10.739  72.206  74.089  1.00  0.00     0.000 C 
ENDROOT
BRANCH   1   2
ATOM      2  C   UNL     1      10.915  72.119  75.616  1.00  0.00     0.000 C 
BRANCH   2   3
ATOM      3  C   UNL     1       9.577  71.964  76.357  1.00  0.00     0.006 C 
BRANCH   3   4
ATOM      4  C   UNL     1       8.404  71.694  75.406  1.00  0.00     0.053 C 
BRANCH   4   5
ATOM      5  C   UNL     1       7.102  71.949  76.096  1.00  0.00     0.041 C 
ATOM      6  O   UNL     1       6.034  71.469  75.631  1.00  0.00    -0.550 OA
ATOM      7  O   UNL     1       7.059  72.758  77.223  1.00  0.00    -0.550 OA
ENDBRANCH   4   5
ENDBRANCH   3   4
ENDBRANCH   2   3
ENDBRANCH   1   2
BRANCH   1   8
ATOM      8  C   UNL     1      12.067  72.451  73.357  1.00  0.00     0.000 C 
BRANCH   8   9
ATOM      9  C   UNL     1      12.486  71.258  72.480  1.00  0.00    -0.000 C 
BRANCH   9  10
ATOM     10  C   UNL     1      14.011  71.086  72.403  1.00  0.00    -0.000 C 
BRANCH  10  11
ATOM     11  C   UNL     1      14.656  70.900  73.787  1.00  0.00    -0.000 C 
BRANCH  11  12
ATOM     12  C   UNL     1      14.087  69.690  74.544  1.00  0.00    -0.003 C 
ATOM     13  C   UNL     1      14.001  69.921  76.053  1.00  0.00     0.004 C 
ENDBRANCH  11  12
ENDBRANCH  10  11
ENDBRANCH   9  10
ENDBRANCH   8   9
ENDBRANCH   1   8
TORSDOF 9
ENDMDL
MODEL 5
REMARK VINA RESULT:    -5.830      1.441      1.738
REMARK INTER + INTRA:          -9.344
REMARK INTER:                  -8.880
REMARK INTRA:                  -0.464
REMARK UNBOUND:                -0.447
REMARK SMILES CCCCCCCCCCC(=O)[O-]
REMARK SMILES IDX 7 1 8 2 9 3 10 4 11 5 12 6 13 7 6 8 5 9 4 10 3 11 2 12 1 13
REMARK H PARENT
REMARK Flexibility Score: inf
ROOT
ATOM      1  C   UNL     1      17.663  71.626  72.048  1.00  0.00     0.000 C 
ENDROOT
BRANCH   1   2
ATOM      2  C   UNL     1      19.096  72.090  72.365  1.00  0.00     0.000 C 
BRANCH   2   3
ATOM      3  C   UNL     1      19.811  71.161  73.360  1.00  0.00     0.006 C 
BRANCH   3   4
ATOM      4  C   UNL     1      20.752  70.167  72.667  1.00  0.00     0.053 C 
BRANCH   4   5
ATOM      5  C   UNL     1      22.178  70.558  72.885  1.00  0.00     0.041 C 
ATOM      6  O   UNL     1      22.910  69.882  73.657  1.00  0.00    -0.550 OA
ATOM      7  O   UNL     1      22.688  71.698  72.279  1.00  0.00    -0.550 OA
ENDBRANCH   4   5
ENDBRANCH   3   4
ENDBRANCH   2   3
ENDBRANCH   1   2
BRANCH   1   8
ATOM      8  C   UNL     1      16.611  72.693  72.389  1.00  0.00     0.000 C 
BRANCH   8   9
ATOM      9  C   UNL     1      15.269  72.077  72.824  1.00  0.00    -0.000 C 
BRANCH   9  10
ATOM     10  C   UNL     1      15.139  70.598  72.426  1.00  0.00    -0.000 C 
BRANCH  10  11
ATOM     11  C   UNL     1      14.055  69.862  73.232  1.00  0.00    -0.000 C 
BRANCH  11  12
ATOM     12  C   UNL     1      13.728  70.566  74.558  1.00  0.00    -0.003 C 
ATOM     13  C   UNL     1      14.084  69.722  75.781  1.00  0.00     0.004 C 
ENDBRANCH  11  12
ENDBRANCH  10  11
ENDBRANCH   9  10
ENDBRANCH   8   9
ENDBRANCH   1   8
TORSDOF 9
ENDMDL
MODEL 6
REMARK VINA RESULT:    -5.777      4.060      6.478
REMARK INTER + INTRA:          -9.263
REMARK INTER:                  -8.704
REMARK INTRA:                  -0.559
REMARK UNBOUND:                -0.447
REMARK SMILES CCCCCCCCCCC(=O)[O-]
REMARK SMILES IDX 7 1 8 2 9 3 10 4 11 5 12 6 13 7 6 8 5 9 4 10 3 11 2 12 1 13
REMARK H PARENT
REMARK Flexibility Score: inf
ROOT
ATOM      1  C   UNL     1      17.663  71.858  71.883  1.00  0.00     0.000 C 
ENDROOT
BRANCH   1   2
ATOM      2  C   UNL     1      16.489  72.796  72.219  1.00  0.00     0.000 C 
BRANCH   2   3
ATOM      3  C   UNL     1      15.195  72.031  72.541  1.00  0.00     0.006 C 
BRANCH   3   4
ATOM      4  C   UNL     1      15.298  71.219  73.839  1.00  0.00     0.053 C 
BRANCH   4   5
ATOM      5  C   UNL     1      14.409  70.018  73.775  1.00  0.00     0.041 C 
ATOM      6  O   UNL     1      14.004  69.588  72.662  1.00  0.00    -0.550 OA
ATOM      7  O   UNL     1      13.985  69.404  74.945  1.00  0.00    -0.550 OA
ENDBRANCH   4   5
ENDBRANCH   3   4
ENDBRANCH   2   3
ENDBRANCH   1   2
BRANCH   1   8
ATOM      8  C   UNL     1      18.864  72.061  72.819  1.00  0.00     0.000 C 
BRANCH   8   9
ATOM      9  C   UNL     1      20.209  71.808  72.114  1.00  0.00    -0.000 C 
BRANCH   9  10
ATOM     10  C   UNL     1      20.941  70.572  72.662  1.00  0.00    -0.000 C 
BRANCH  10  11
ATOM     11  C   UNL     1      21.115  69.470  71.602  1.00  0.00    -0.000 C 
BRANCH  11  12
ATOM     12  C   UNL     1      20.433  69.822  70.270  1.00  0.00    -0.003 C 
ATOM     13  C   UNL     1      20.060  68.587  69.451  1.00  0.00     0.004 C 
ENDBRANCH  11  12
ENDBRANCH  10  11
ENDBRANCH   9  10
ENDBRANCH   8   9
ENDBRANCH   1   8
TORSDOF 9
ENDMDL
MODEL 7
REMARK VINA RESULT:    -5.689      6.745      8.652
REMARK INTER + INTRA:          -9.129
REMARK INTER:                  -8.292
REMARK INTRA:                  -0.838
REMARK UNBOUND:                -0.447
REMARK SMILES CCCCCCCCCCC(=O)[O-]
REMARK SMILES IDX 7 1 8 2 9 3 10 4 11 5 12 6 13 7 6 8 5 9 4 10 3 11 2 12 1 13
REMARK H PARENT
REMARK Flexibility Score: inf
ROOT
ATOM      1  C   UNL     1      12.190  72.961  72.267  1.00  0.00     0.000 C 
ENDROOT
BRANCH   1   2
ATOM      2  C   UNL     1      11.467  72.224  71.125  1.00  0.00     0.000 C 
BRANCH   2   3
ATOM      3  C   UNL     1      11.510  70.696  71.288  1.00  0.00     0.006 C 
BRANCH   3   4
ATOM      4  C   UNL     1      10.360  69.992  70.557  1.00  0.00     0.053 C 
BRANCH   4   5
ATOM      5  C   UNL     1       9.041  70.446  71.097  1.00  0.00     0.041 C 
ATOM      6  O   UNL     1       8.788  70.335  72.326  1.00  0.00    -0.550 OA
ATOM      7  O   UNL     1       8.072  70.944  70.237  1.00  0.00    -0.550 OA
ENDBRANCH   4   5
ENDBRANCH   3   4
ENDBRANCH   2   3
ENDBRANCH   1   2
BRANCH   1   8
ATOM      8  C   UNL     1      13.671  73.221  71.953  1.00  0.00     0.000 C 
BRANCH   8   9
ATOM      9  C   UNL     1      14.616  72.417  72.863  1.00  0.00    -0.000 C 
BRANCH   9  10
ATOM     10  C   UNL     1      14.820  70.973  72.377  1.00  0.00    -0.000 C 
BRANCH  10  11
ATOM     11  C   UNL     1      14.527  69.933  73.473  1.00  0.00    -0.000 C 
BRANCH  11  12
ATOM     12  C   UNL     1      13.654  70.500  74.603  1.00  0.00    -0.003 C 
ATOM     13  C   UNL     1      13.983  69.893  75.967  1.00  0.00     0.004 C 
ENDBRANCH  11  12
ENDBRANCH  10  11
ENDBRANCH   9  10
ENDBRANCH   8   9
ENDBRANCH   1   8
TORSDOF 9
ENDMDL
MODEL 8
REMARK VINA RESULT:    -5.597      7.923     10.531
REMARK INTER + INTRA:          -8.989
REMARK INTER:                  -8.548
REMARK INTRA:                  -0.440
REMARK UNBOUND:                -0.447
REMARK SMILES CCCCCCCCCCC(=O)[O-]
REMARK SMILES IDX 7 1 8 2 9 3 10 4 11 5 12 6 13 7 6 8 5 9 4 10 3 11 2 12 1 13
REMARK H PARENT
REMARK Flexibility Score: inf
ROOT
ATOM      1  C   UNL     1       9.901  70.190  71.345  1.00  0.00     0.000 C 
ENDROOT
BRANCH   1   2
ATOM      2  C   UNL     1       8.488  70.769  71.541  1.00  0.00     0.000 C 
BRANCH   2   3
ATOM      3  C   UNL     1       8.055  70.783  73.016  1.00  0.00     0.006 C 
BRANCH   3   4
ATOM      4  C   UNL     1       6.565  71.101  73.190  1.00  0.00     0.053 C 
BRANCH   4   5
ATOM      5  C   UNL     1       6.322  71.755  74.513  1.00  0.00     0.041 C 
ATOM      6  O   UNL     1       5.218  72.316  74.749  1.00  0.00    -0.550 OA
ATOM      7  O   UNL     1       7.329  71.791  75.467  1.00  0.00    -0.550 OA
ENDBRANCH   4   5
ENDBRANCH   3   4
ENDBRANCH   2   3
ENDBRANCH   1   2
BRANCH   1   8
ATOM      8  C   UNL     1      10.940  71.274  71.015  1.00  0.00     0.000 C 
BRANCH   8   9
ATOM      9  C   UNL     1      11.281  72.151  72.233  1.00  0.00    -0.000 C 
BRANCH   9  10
ATOM     10  C   UNL     1      12.348  71.516  73.140  1.00  0.00    -0.000 C 
BRANCH  10  11
ATOM     11  C   UNL     1      13.344  70.642  72.358  1.00  0.00    -0.000 C 
BRANCH  11  12
ATOM     12  C   UNL     1      14.515  70.162  73.229  1.00  0.00    -0.003 C 
ATOM     13  C   UNL     1      14.085  69.783  74.646  1.00  0.00     0.004 C 
ENDBRANCH  11  12
ENDBRANCH  10  11
ENDBRANCH   9  10
ENDBRANCH   8   9
ENDBRANCH   1   8
TORSDOF 9
ENDMDL
MODEL 9
REMARK VINA RESULT:    -5.473      3.324      6.130
REMARK INTER + INTRA:          -8.799
REMARK INTER:                  -8.065
REMARK INTRA:                  -0.734
REMARK UNBOUND:                -0.447
REMARK SMILES CCCCCCCCCCC(=O)[O-]
REMARK SMILES IDX 7 1 8 2 9 3 10 4 11 5 12 6 13 7 6 8 5 9 4 10 3 11 2 12 1 13
REMARK H PARENT
REMARK Flexibility Score: inf
ROOT
ATOM      1  C   UNL     1      19.168  71.395  71.603  1.00  0.00     0.000 C 
ENDROOT
BRANCH   1   2
ATOM      2  C   UNL     1      19.130  71.475  73.140  1.00  0.00     0.000 C 
BRANCH   2   3
ATOM      3  C   UNL     1      20.216  70.612  73.802  1.00  0.00     0.006 C 
BRANCH   3   4
ATOM      4  C   UNL     1      21.281  71.452  74.518  1.00  0.00     0.053 C 
BRANCH   4   5
ATOM      5  C   UNL     1      22.598  70.742  74.513  1.00  0.00     0.041 C 
ATOM      6  O   UNL     1      22.946  70.062  73.511  1.00  0.00    -0.550 OA
ATOM      7  O   UNL     1      23.417  70.788  75.632  1.00  0.00    -0.550 OA
ENDBRANCH   4   5
ENDBRANCH   3   4
ENDBRANCH   2   3
ENDBRANCH   1   2
BRANCH   1   8
ATOM      8  C   UNL     1      20.378  70.602  71.085  1.00  0.00     0.000 C 
BRANCH   8   9
ATOM      9  C   UNL     1      21.462  71.510  70.480  1.00  0.00    -0.000 C 
BRANCH   9  10
ATOM     10  C   UNL     1      21.091  73.001  70.547  1.00  0.00    -0.000 C 
BRANCH  10  11
ATOM     11  C   UNL     1      22.220  73.914  70.038  1.00  0.00    -0.000 C 
BRANCH  11  12
ATOM     12  C   UNL     1      23.385  73.123  69.423  1.00  0.00    -0.003 C 
ATOM     13  C   UNL     1      23.891  73.732  68.116  1.00  0.00     0.004 C 
ENDBRANCH  11  12
ENDBRANCH  10  11
ENDBRANCH   9  10
ENDBRANCH   8   9
ENDBRANCH   1   8
TORSDOF 9
ENDMDL
