MODEL 1
REMARK VINA RESULT:    -3.765      0.000      0.000
REMARK INTER + INTRA:          -7.405
REMARK INTER:                  -6.407
REMARK INTRA:                  -0.998
REMARK UNBOUND:                -0.998
REMARK SMILES CCCCCCCCCCCCCC(=O)[O-]
REMARK SMILES IDX 8 1 9 2 10 3 11 4 12 5 13 6 14 7 15 8 16 9 7 10 6 11 5 12
REMARK SMILES IDX 4 13 3 14 2 15 1 16
REMARK H PARENT
REMARK Flexibility Score: inf
ROOT
ATOM      1  C   UNL     1     -45.097 -26.319   1.389  1.00  0.00     0.000 C 
ENDROOT
BRANCH   1   2
ATOM      2  C   UNL     1     -46.529 -25.886   1.756  1.00  0.00     0.000 C 
BRANCH   2   3
ATOM      3  C   UNL     1     -47.103 -26.548   3.024  1.00  0.00     0.000 C 
BRANCH   3   4
ATOM      4  C   UNL     1     -46.085 -26.771   4.161  1.00  0.00     0.000 C 
BRANCH   4   5
ATOM      5  C   UNL     1     -46.255 -28.090   4.941  1.00  0.00     0.006 C 
BRANCH   5   6
ATOM      6  C   UNL     1     -45.528 -28.127   6.294  1.00  0.00     0.053 C 
BRANCH   6   7
ATOM      7  C   UNL     1     -46.211 -27.279   7.321  1.00  0.00     0.041 C 
ATOM      8  O   UNL     1     -47.117 -27.768   8.046  1.00  0.00    -0.550 OA
ATOM      9  O   UNL     1     -45.872 -25.939   7.455  1.00  0.00    -0.550 OA
ENDBRANCH   6   7
ENDBRANCH   5   6
ENDBRANCH   4   5
ENDBRANCH   3   4
ENDBRANCH   2   3
ENDBRANCH   1   2
BRANCH   1  10
ATOM     10  C   UNL     1     -45.007 -27.462   0.359  1.00  0.00     0.000 C 
BRANCH  10  11
ATOM     11  C   UNL     1     -45.260 -28.874   0.926  1.00  0.00    -0.000 C 
BRANCH  11  12
ATOM     12  C   UNL     1     -44.693 -30.029   0.081  1.00  0.00    -0.000 C 
BRANCH  12  13
ATOM     13  C   UNL     1     -43.372 -29.664  -0.618  1.00  0.00    -0.000 C 
BRANCH  13  14
ATOM     14  C   UNL     1     -42.139 -30.125   0.174  1.00  0.00    -0.000 C 
BRANCH  14  15
ATOM     15  C   UNL     1     -40.989 -29.108   0.129  1.00  0.00    -0.003 C 
ATOM     16  C   UNL     1     -41.419 -27.823  -0.571  1.00  0.00     0.004 C 
ENDBRANCH  14  15
ENDBRANCH  13  14
ENDBRANCH  12  13
ENDBRANCH  11  12
ENDBRANCH  10  11
ENDBRANCH   1  10
TORSDOF 12
ENDMDL
MODEL 2
REMARK VINA RESULT:    -3.681      4.090      6.853
REMARK INTER + INTRA:          -7.261
REMARK INTER:                  -6.049
REMARK INTRA:                  -1.213
REMARK UNBOUND:                -0.998
REMARK SMILES CCCCCCCCCCCCCC(=O)[O-]
REMARK SMILES IDX 8 1 9 2 10 3 11 4 12 5 13 6 14 7 15 8 16 9 7 10 6 11 5 12
REMARK SMILES IDX 4 13 3 14 2 15 1 16
REMARK H PARENT
REMARK Flexibility Score: inf
ROOT
ATOM      1  C   UNL     1     -45.609 -26.041   2.034  1.00  0.00     0.000 C 
ENDROOT
BRANCH   1   2
ATOM      2  C   UNL     1     -45.599 -26.905   0.759  1.00  0.00     0.000 C 
BRANCH   2   3
ATOM      3  C   UNL     1     -44.200 -27.332   0.274  1.00  0.00     0.000 C 
BRANCH   3   4
ATOM      4  C   UNL     1     -44.052 -28.831  -0.055  1.00  0.00     0.000 C 
BRANCH   4   5
ATOM      5  C   UNL     1     -45.279 -29.475  -0.732  1.00  0.00     0.006 C 
BRANCH   5   6
ATOM      6  C   UNL     1     -45.270 -29.403  -2.266  1.00  0.00     0.053 C 
BRANCH   6   7
ATOM      7  C   UNL     1     -45.852 -28.118  -2.770  1.00  0.00     0.041 C 
ATOM      8  O   UNL     1     -47.099 -27.986  -2.875  1.00  0.00    -0.550 OA
ATOM      9  O   UNL     1     -45.015 -27.079  -3.157  1.00  0.00    -0.550 OA
ENDBRANCH   6   7
ENDBRANCH   5   6
ENDBRANCH   4   5
ENDBRANCH   3   4
ENDBRANCH   2   3
ENDBRANCH   1   2
BRANCH   1  10
ATOM     10  C   UNL     1     -46.481 -26.588   3.182  1.00  0.00     0.000 C 
BRANCH  10  11
ATOM     11  C   UNL     1     -46.966 -28.041   3.000  1.00  0.00    -0.000 C 
BRANCH  11  12
ATOM     12  C   UNL     1     -45.963 -29.125   3.434  1.00  0.00    -0.000 C 
BRANCH  12  13
ATOM     13  C   UNL     1     -46.213 -29.631   4.865  1.00  0.00    -0.000 C 
BRANCH  13  14
ATOM     14  C   UNL     1     -45.300 -28.951   5.898  1.00  0.00    -0.000 C 
BRANCH  14  15
ATOM     15  C   UNL     1     -46.062 -27.994   6.826  1.00  0.00    -0.003 C 
ATOM     16  C   UNL     1     -45.469 -26.589   6.773  1.00  0.00     0.004 C 
ENDBRANCH  14  15
ENDBRANCH  13  14
ENDBRANCH  12  13
ENDBRANCH  11  12
ENDBRANCH  10  11
ENDBRANCH   1  10
TORSDOF 12
ENDMDL
MODEL 3
REMARK VINA RESULT:    -3.585      4.670      7.678
REMARK INTER + INTRA:          -7.098
REMARK INTER:                  -6.258
REMARK INTRA:                  -0.840
REMARK UNBOUND:                -0.998
REMARK SMILES CCCCCCCCCCCCCC(=O)[O-]
REMARK SMILES IDX 8 1 9 2 10 3 11 4 12 5 13 6 14 7 15 8 16 9 7 10 6 11 5 12
REMARK SMILES IDX 4 13 3 14 2 15 1 16
REMARK H PARENT
REMARK Flexibility Score: inf
ROOT
ATOM      1  C   UNL     1     -44.513 -26.808   0.735  1.00  0.00     0.000 C 
ENDROOT
BRANCH   1   2
ATOM      2  C   UNL     1     -43.847 -27.631  -0.384  1.00  0.00     0.000 C 
BRANCH   2   3
ATOM      3  C   UNL     1     -43.975 -29.159  -0.232  1.00  0.00     0.000 C 
BRANCH   3   4
ATOM      4  C   UNL     1     -44.717 -29.869  -1.382  1.00  0.00     0.000 C 
BRANCH   4   5
ATOM      5  C   UNL     1     -45.780 -29.014  -2.100  1.00  0.00     0.006 C 
BRANCH   5   6
ATOM      6  C   UNL     1     -45.716 -29.077  -3.634  1.00  0.00     0.053 C 
BRANCH   6   7
ATOM      7  C   UNL     1     -45.630 -27.714  -4.248  1.00  0.00     0.041 C 
ATOM      8  O   UNL     1     -46.201 -27.476  -5.344  1.00  0.00    -0.550 OA
ATOM      9  O   UNL     1     -44.889 -26.716  -3.627  1.00  0.00    -0.550 OA
ENDBRANCH   6   7
ENDBRANCH   5   6
ENDBRANCH   4   5
ENDBRANCH   3   4
ENDBRANCH   2   3
ENDBRANCH   1   2
BRANCH   1  10
ATOM     10  C   UNL     1     -45.977 -27.185   1.034  1.00  0.00     0.000 C 
BRANCH  10  11
ATOM     11  C   UNL     1     -46.244 -27.687   2.467  1.00  0.00    -0.000 C 
BRANCH  11  12
ATOM     12  C   UNL     1     -46.307 -26.589   3.544  1.00  0.00    -0.000 C 
BRANCH  12  13
ATOM     13  C   UNL     1     -46.811 -27.111   4.900  1.00  0.00    -0.000 C 
BRANCH  13  14
ATOM     14  C   UNL     1     -45.965 -26.602   6.078  1.00  0.00    -0.000 C 
BRANCH  14  15
ATOM     15  C   UNL     1     -45.235 -27.733   6.818  1.00  0.00    -0.003 C 
ATOM     16  C   UNL     1     -45.353 -29.051   6.060  1.00  0.00     0.004 C 
ENDBRANCH  14  15
ENDBRANCH  13  14
ENDBRANCH  12  13
ENDBRANCH  11  12
ENDBRANCH  10  11
ENDBRANCH   1  10
TORSDOF 12
ENDMDL
MODEL 4
REMARK VINA RESULT:    -3.455      7.407      9.771
REMARK INTER + INTRA:          -6.876
REMARK INTER:                  -6.044
REMARK INTRA:                  -0.832
REMARK UNBOUND:                -0.998
REMARK SMILES CCCCCCCCCCCCCC(=O)[O-]
REMARK SMILES IDX 8 1 9 2 10 3 11 4 12 5 13 6 14 7 15 8 16 9 7 10 6 11 5 12
REMARK SMILES IDX 4 13 3 14 2 15 1 16
REMARK H PARENT
REMARK Flexibility Score: inf
ROOT
ATOM      1  C   UNL     1     -45.876 -28.819  -4.024  1.00  0.00     0.000 C 
ENDROOT
BRANCH   1   2
ATOM      2  C   UNL     1     -45.578 -27.490  -4.744  1.00  0.00     0.000 C 
BRANCH   2   3
ATOM      3  C   UNL     1     -46.385 -27.257  -6.037  1.00  0.00     0.000 C 
BRANCH   3   4
ATOM      4  C   UNL     1     -45.589 -27.440  -7.345  1.00  0.00     0.000 C 
BRANCH   4   5
ATOM      5  C   UNL     1     -45.359 -28.904  -7.770  1.00  0.00     0.006 C 
BRANCH   5   6
ATOM      6  C   UNL     1     -44.001 -29.484  -7.346  1.00  0.00     0.053 C 
BRANCH   6   7
ATOM      7  C   UNL     1     -42.874 -28.923  -8.157  1.00  0.00     0.041 C 
ATOM      8  O   UNL     1     -41.860 -28.445  -7.584  1.00  0.00    -0.550 OA
ATOM      9  O   UNL     1     -42.958 -28.896  -9.543  1.00  0.00    -0.550 OA
ENDBRANCH   6   7
ENDBRANCH   5   6
ENDBRANCH   4   5
ENDBRANCH   3   4
ENDBRANCH   2   3
ENDBRANCH   1   2
BRANCH   1  10
ATOM     10  C   UNL     1     -46.432 -28.671  -2.594  1.00  0.00     0.000 C 
BRANCH  10  11
ATOM     11  C   UNL     1     -45.391 -28.822  -1.467  1.00  0.00    -0.000 C 
BRANCH  11  12
ATOM     12  C   UNL     1     -45.387 -27.691  -0.424  1.00  0.00    -0.000 C 
BRANCH  12  13
ATOM     13  C   UNL     1     -43.996 -27.448   0.188  1.00  0.00    -0.000 C 
BRANCH  13  14
ATOM     14  C   UNL     1     -42.894 -27.347  -0.878  1.00  0.00    -0.000 C 
BRANCH  14  15
ATOM     15  C   UNL     1     -41.531 -27.845  -0.374  1.00  0.00    -0.003 C 
ATOM     16  C   UNL     1     -41.539 -29.356  -0.170  1.00  0.00     0.004 C 
ENDBRANCH  14  15
ENDBRANCH  13  14
ENDBRANCH  12  13
ENDBRANCH  11  12
ENDBRANCH  10  11
ENDBRANCH   1  10
TORSDOF 12
ENDMDL
MODEL 5
REMARK VINA RESULT:    -3.376      5.785      8.558
REMARK INTER + INTRA:          -6.743
REMARK INTER:                  -6.218
REMARK INTRA:                  -0.524
REMARK UNBOUND:                -0.998
REMARK SMILES CCCCCCCCCCCCCC(=O)[O-]
REMARK SMILES IDX 8 1 9 2 10 3 11 4 12 5 13 6 14 7 15 8 16 9 7 10 6 11 5 12
REMARK SMILES IDX 4 13 3 14 2 15 1 16
REMARK H PARENT
REMARK Flexibility Score: inf
ROOT
ATOM      1  C   UNL     1     -44.141 -27.124   0.367  1.00  0.00     0.000 C 
ENDROOT
BRANCH   1   2
ATOM      2  C   UNL     1     -44.558 -28.291  -0.549  1.00  0.00     0.000 C 
BRANCH   2   3
ATOM      3  C   UNL     1     -45.543 -27.915  -1.673  1.00  0.00     0.000 C 
BRANCH   3   4
ATOM      4  C   UNL     1     -45.735 -28.992  -2.760  1.00  0.00     0.000 C 
BRANCH   4   5
ATOM      5  C   UNL     1     -46.340 -28.484  -4.084  1.00  0.00     0.006 C 
BRANCH   5   6
ATOM      6  C   UNL     1     -45.447 -27.502  -4.857  1.00  0.00     0.053 C 
BRANCH   6   7
ATOM      7  C   UNL     1     -45.866 -27.370  -6.288  1.00  0.00     0.041 C 
ATOM      8  O   UNL     1     -47.088 -27.347  -6.590  1.00  0.00    -0.550 OA
ATOM      9  O   UNL     1     -44.908 -27.309  -7.292  1.00  0.00    -0.550 OA
ENDBRANCH   6   7
ENDBRANCH   5   6
ENDBRANCH   4   5
ENDBRANCH   3   4
ENDBRANCH   2   3
ENDBRANCH   1   2
BRANCH   1  10
ATOM     10  C   UNL     1     -45.303 -26.437   1.111  1.00  0.00     0.000 C 
BRANCH  10  11
ATOM     11  C   UNL     1     -46.012 -27.310   2.167  1.00  0.00    -0.000 C 
BRANCH  11  12
ATOM     12  C   UNL     1     -46.908 -26.543   3.155  1.00  0.00    -0.000 C 
BRANCH  12  13
ATOM     13  C   UNL     1     -46.530 -26.799   4.624  1.00  0.00    -0.000 C 
BRANCH  13  14
ATOM     14  C   UNL     1     -45.986 -28.218   4.854  1.00  0.00    -0.000 C 
BRANCH  14  15
ATOM     15  C   UNL     1     -45.345 -28.392   6.239  1.00  0.00    -0.003 C 
ATOM     16  C   UNL     1     -45.311 -27.070   6.999  1.00  0.00     0.004 C 
ENDBRANCH  14  15
ENDBRANCH  13  14
ENDBRANCH  12  13
ENDBRANCH  11  12
ENDBRANCH  10  11
ENDBRANCH   1  10
TORSDOF 12
ENDMDL
MODEL 6
REMARK VINA RESULT:    -3.356      1.961      2.814
REMARK INTER + INTRA:          -6.708
REMARK INTER:                  -5.732
REMARK INTRA:                  -0.976
REMARK UNBOUND:                -0.998
REMARK SMILES CCCCCCCCCCCCCC(=O)[O-]
REMARK SMILES IDX 8 1 9 2 10 3 11 4 12 5 13 6 14 7 15 8 16 9 7 10 6 11 5 12
REMARK SMILES IDX 4 13 3 14 2 15 1 16
REMARK H PARENT
REMARK Flexibility Score: inf
ROOT
ATOM      1  C   UNL     1     -45.050 -27.123   0.313  1.00  0.00     0.000 C 
ENDROOT
BRANCH   1   2
ATOM      2  C   UNL     1     -45.214 -26.071   1.426  1.00  0.00     0.000 C 
BRANCH   2   3
ATOM      3  C   UNL     1     -46.290 -26.401   2.479  1.00  0.00     0.000 C 
BRANCH   3   4
ATOM      4  C   UNL     1     -46.243 -27.841   3.030  1.00  0.00     0.000 C 
BRANCH   4   5
ATOM      5  C   UNL     1     -46.343 -27.957   4.564  1.00  0.00     0.006 C 
BRANCH   5   6
ATOM      6  C   UNL     1     -46.118 -26.638   5.318  1.00  0.00     0.053 C 
BRANCH   6   7
ATOM      7  C   UNL     1     -45.640 -26.867   6.719  1.00  0.00     0.041 C 
ATOM      8  O   UNL     1     -44.971 -27.896   6.999  1.00  0.00    -0.550 OA
ATOM      9  O   UNL     1     -45.963 -25.963   7.722  1.00  0.00    -0.550 OA
ENDBRANCH   6   7
ENDBRANCH   5   6
ENDBRANCH   4   5
ENDBRANCH   3   4
ENDBRANCH   2   3
ENDBRANCH   1   2
BRANCH   1  10
ATOM     10  C   UNL     1     -43.591 -27.494  -0.020  1.00  0.00     0.000 C 
BRANCH  10  11
ATOM     11  C   UNL     1     -43.313 -29.005  -0.150  1.00  0.00    -0.000 C 
BRANCH  11  12
ATOM     12  C   UNL     1     -44.548 -29.874  -0.447  1.00  0.00    -0.000 C 
BRANCH  12  13
ATOM     13  C   UNL     1     -44.753 -30.125  -1.951  1.00  0.00    -0.000 C 
BRANCH  13  14
ATOM     14  C   UNL     1     -46.226 -30.010  -2.372  1.00  0.00    -0.000 C 
BRANCH  14  15
ATOM     15  C   UNL     1     -46.615 -28.585  -2.793  1.00  0.00    -0.003 C 
ATOM     16  C   UNL     1     -46.028 -28.235  -4.156  1.00  0.00     0.004 C 
ENDBRANCH  14  15
ENDBRANCH  13  14
ENDBRANCH  12  13
ENDBRANCH  11  12
ENDBRANCH  10  11
ENDBRANCH   1  10
TORSDOF 12
ENDMDL
MODEL 7
REMARK VINA RESULT:    -3.332      3.644      6.872
REMARK INTER + INTRA:          -6.667
REMARK INTER:                  -5.583
REMARK INTRA:                  -1.084
REMARK UNBOUND:                -0.998
REMARK SMILES CCCCCCCCCCCCCC(=O)[O-]
REMARK SMILES IDX 8 1 9 2 10 3 11 4 12 5 13 6 14 7 15 8 16 9 7 10 6 11 5 12
REMARK SMILES IDX 4 13 3 14 2 15 1 16
REMARK H PARENT
REMARK Flexibility Score: inf
ROOT
ATOM      1  C   UNL     1     -46.200 -26.890   3.150  1.00  0.00     0.000 C 
ENDROOT
BRANCH   1   2
ATOM      2  C   UNL     1     -46.798 -26.369   1.830  1.00  0.00     0.000 C 
BRANCH   2   3
ATOM      3  C   UNL     1     -46.576 -27.283   0.609  1.00  0.00     0.000 C 
BRANCH   3   4
ATOM      4  C   UNL     1     -45.424 -28.298   0.755  1.00  0.00     0.000 C 
BRANCH   4   5
ATOM      5  C   UNL     1     -44.487 -28.403  -0.464  1.00  0.00     0.006 C 
BRANCH   5   6
ATOM      6  C   UNL     1     -43.180 -27.606  -0.333  1.00  0.00     0.053 C 
BRANCH   6   7
ATOM      7  C   UNL     1     -41.976 -28.497  -0.342  1.00  0.00     0.041 C 
ATOM      8  O   UNL     1     -40.820 -27.999  -0.342  1.00  0.00    -0.550 OA
ATOM      9  O   UNL     1     -42.131 -29.877  -0.384  1.00  0.00    -0.550 OA
ENDBRANCH   6   7
ENDBRANCH   5   6
ENDBRANCH   4   5
ENDBRANCH   3   4
ENDBRANCH   2   3
ENDBRANCH   1   2
BRANCH   1  10
ATOM     10  C   UNL     1     -47.040 -27.968   3.863  1.00  0.00     0.000 C 
BRANCH  10  11
ATOM     11  C   UNL     1     -46.262 -29.228   4.291  1.00  0.00    -0.000 C 
BRANCH  11  12
ATOM     12  C   UNL     1     -45.365 -29.053   5.530  1.00  0.00    -0.000 C 
BRANCH  12  13
ATOM     13  C   UNL     1     -46.086 -29.404   6.843  1.00  0.00    -0.000 C 
BRANCH  13  14
ATOM     14  C   UNL     1     -46.487 -28.157   7.646  1.00  0.00    -0.000 C 
BRANCH  14  15
ATOM     15  C   UNL     1     -45.774 -26.884   7.163  1.00  0.00    -0.003 C 
ATOM     16  C   UNL     1     -46.770 -25.754   6.924  1.00  0.00     0.004 C 
ENDBRANCH  14  15
ENDBRANCH  13  14
ENDBRANCH  12  13
ENDBRANCH  11  12
ENDBRANCH  10  11
ENDBRANCH   1  10
TORSDOF 12
ENDMDL
MODEL 8
REMARK VINA RESULT:    -3.301      6.341      7.836
REMARK INTER + INTRA:          -6.615
REMARK INTER:                  -5.424
REMARK INTRA:                  -1.191
REMARK UNBOUND:                -0.998
REMARK SMILES CCCCCCCCCCCCCC(=O)[O-]
REMARK SMILES IDX 8 1 9 2 10 3 11 4 12 5 13 6 14 7 15 8 16 9 7 10 6 11 5 12
REMARK SMILES IDX 4 13 3 14 2 15 1 16
REMARK H PARENT
REMARK Flexibility Score: inf
ROOT
ATOM      1  C   UNL     1     -45.330 -29.171  -5.492  1.00  0.00     0.000 C 
ENDROOT
BRANCH   1   2
ATOM      2  C   UNL     1     -45.695 -29.797  -4.132  1.00  0.00     0.000 C 
BRANCH   2   3
ATOM      3  C   UNL     1     -46.275 -28.813  -3.098  1.00  0.00     0.000 C 
BRANCH   3   4
ATOM      4  C   UNL     1     -46.053 -29.209  -1.624  1.00  0.00     0.000 C 
BRANCH   4   5
ATOM      5  C   UNL     1     -44.586 -29.477  -1.234  1.00  0.00     0.006 C 
BRANCH   5   6
ATOM      6  C   UNL     1     -44.114 -28.728   0.022  1.00  0.00     0.053 C 
BRANCH   6   7
ATOM      7  C   UNL     1     -44.013 -27.252  -0.211  1.00  0.00     0.041 C 
ATOM      8  O   UNL     1     -44.433 -26.444   0.658  1.00  0.00    -0.550 OA
ATOM      9  O   UNL     1     -43.488 -26.769  -1.403  1.00  0.00    -0.550 OA
ENDBRANCH   6   7
ENDBRANCH   5   6
ENDBRANCH   4   5
ENDBRANCH   3   4
ENDBRANCH   2   3
ENDBRANCH   1   2
BRANCH   1  10
ATOM     10  C   UNL     1     -45.534 -27.646  -5.580  1.00  0.00     0.000 C 
BRANCH  10  11
ATOM     11  C   UNL     1     -45.847 -27.108  -6.991  1.00  0.00    -0.000 C 
BRANCH  11  12
ATOM     12  C   UNL     1     -46.667 -28.055  -7.885  1.00  0.00    -0.000 C 
BRANCH  12  13
ATOM     13  C   UNL     1     -45.914 -28.472  -9.160  1.00  0.00    -0.000 C 
BRANCH  13  14
ATOM     14  C   UNL     1     -44.506 -27.860  -9.239  1.00  0.00    -0.000 C 
BRANCH  14  15
ATOM     15  C   UNL     1     -43.393 -28.906  -9.080  1.00  0.00    -0.003 C 
ATOM     16  C   UNL     1     -42.491 -28.574  -7.896  1.00  0.00     0.004 C 
ENDBRANCH  14  15
ENDBRANCH  13  14
ENDBRANCH  12  13
ENDBRANCH  11  12
ENDBRANCH  10  11
ENDBRANCH   1  10
TORSDOF 12
ENDMDL
MODEL 9
REMARK VINA RESULT:    -3.253      2.958      3.579
REMARK INTER + INTRA:          -6.532
REMARK INTER:                  -5.873
REMARK INTRA:                  -0.659
REMARK UNBOUND:                -0.998
REMARK SMILES CCCCCCCCCCCCCC(=O)[O-]
REMARK SMILES IDX 8 1 9 2 10 3 11 4 12 5 13 6 14 7 15 8 16 9 7 10 6 11 5 12
REMARK SMILES IDX 4 13 3 14 2 15 1 16
REMARK H PARENT
REMARK Flexibility Score: inf
ROOT
ATOM      1  C   UNL     1     -44.120 -27.097   0.065  1.00  0.00     0.000 C 
ENDROOT
BRANCH   1   2
ATOM      2  C   UNL     1     -44.956 -26.455   1.188  1.00  0.00     0.000 C 
BRANCH   2   3
ATOM      3  C   UNL     1     -45.902 -27.422   1.927  1.00  0.00     0.000 C 
BRANCH   3   4
ATOM      4  C   UNL     1     -46.799 -26.766   2.997  1.00  0.00     0.000 C 
BRANCH   4   5
ATOM      5  C   UNL     1     -46.246 -26.819   4.435  1.00  0.00     0.006 C 
BRANCH   5   6
ATOM      6  C   UNL     1     -46.059 -28.239   4.993  1.00  0.00     0.053 C 
BRANCH   6   7
ATOM      7  C   UNL     1     -45.310 -28.237   6.289  1.00  0.00     0.041 C 
ATOM      8  O   UNL     1     -44.803 -29.303   6.728  1.00  0.00    -0.550 OA
ATOM      9  O   UNL     1     -45.202 -27.068   7.030  1.00  0.00    -0.550 OA
ENDBRANCH   6   7
ENDBRANCH   5   6
ENDBRANCH   4   5
ENDBRANCH   3   4
ENDBRANCH   2   3
ENDBRANCH   1   2
BRANCH   1  10
ATOM     10  C   UNL     1     -44.194 -28.635  -0.002  1.00  0.00     0.000 C 
BRANCH  10  11
ATOM     11  C   UNL     1     -44.944 -29.201  -1.224  1.00  0.00    -0.000 C 
BRANCH  11  12
ATOM     12  C   UNL     1     -45.322 -28.166  -2.298  1.00  0.00    -0.000 C 
BRANCH  12  13
ATOM     13  C   UNL     1     -46.610 -28.533  -3.054  1.00  0.00    -0.000 C 
BRANCH  13  14
ATOM     14  C   UNL     1     -46.477 -28.342  -4.573  1.00  0.00    -0.000 C 
BRANCH  14  15
ATOM     15  C   UNL     1     -45.332 -27.391  -4.954  1.00  0.00    -0.003 C 
ATOM     16  C   UNL     1     -45.135 -27.347  -6.466  1.00  0.00     0.004 C 
ENDBRANCH  14  15
ENDBRANCH  13  14
ENDBRANCH  12  13
ENDBRANCH  11  12
ENDBRANCH  10  11
ENDBRANCH   1  10
TORSDOF 12
ENDMDL
