MODEL 1
REMARK VINA RESULT:    -4.242      0.000      0.000
REMARK INTER + INTRA:          -4.749
REMARK INTER:                  -4.862
REMARK INTRA:                   0.113
REMARK UNBOUND:                 0.113
REMARK SMILES C=C(C)[C@@H]1CC[C@]2(C(=O)[O-])CC[C@@]3(C)[C@H](CC[C@H]4[C@@]5(C)CC[C@H](O)C(C)(C)[C@H]5CC[C@]43C)[C@H]12
REMARK SMILES IDX 7 1 6 2 33 3 11 4 5 5 15 6 4 7 12 8 16 9 13 10 17 11 31 12
REMARK SMILES IDX 14 13 18 14 30 15 32 16 19 17 29 18 21 19 20 20 28 21 22 22
REMARK SMILES IDX 25 23 23 24 26 25 27 26 8 27 9 28 10 29 2 30 3 31 1 32 24 33
REMARK H PARENT 24 34
REMARK Flexibility Score: inf
ROOT
ATOM      1  C   UNL     1      15.962  26.352  28.818  1.00  0.00     0.014 C 
ATOM      2  C   UNL     1      17.091  25.469  29.394  1.00  0.00     0.014 C 
ATOM      3  C   UNL     1      15.084  26.669  30.060  1.00  0.00     0.012 C 
ATOM      4  C   UNL     1      16.487  27.599  28.056  1.00  0.00     0.014 C 
ATOM      5  C   UNL     1      16.508  24.747  30.619  1.00  0.00     0.009 C 
ATOM      6  C   UNL     1      15.519  27.950  30.878  1.00  0.00     0.000 C 
ATOM      7  C   UNL     1      15.094  25.322  30.830  1.00  0.00     0.018 C 
ATOM      8  C   UNL     1      16.729  28.884  28.861  1.00  0.00     0.008 C 
ATOM      9  C   UNL     1      16.739  27.744  31.801  1.00  0.00     0.005 C 
ATOM     10  C   UNL     1      15.697  29.226  29.970  1.00  0.00    -0.024 C 
ATOM     11  C   UNL     1      16.942  28.929  32.734  1.00  0.00     0.005 C 
ATOM     12  C   UNL     1      16.134  30.526  30.870  1.00  0.00    -0.024 C 
ATOM     13  C   UNL     1      14.339  29.505  29.238  1.00  0.00     0.012 C 
ATOM     14  C   UNL     1      17.248  30.235  31.969  1.00  0.00     0.002 C 
ATOM     15  C   UNL     1      16.581  31.783  30.068  1.00  0.00     0.008 C 
ATOM     16  C   UNL     1      14.847  31.025  31.639  1.00  0.00     0.012 C 
ATOM     17  C   UNL     1      18.826  30.553  31.743  1.00  0.00    -0.026 C 
ATOM     18  C   UNL     1      18.007  31.773  29.535  1.00  0.00     0.005 C 
ATOM     19  C   UNL     1      19.699  29.280  31.504  1.00  0.00     0.010 C 
ATOM     20  C   UNL     1      19.308  31.143  33.125  1.00  0.00     0.012 C 
ATOM     21  C   UNL     1      19.127  31.617  30.593  1.00  0.00     0.003 C 
ATOM     22  C   UNL     1      21.223  29.534  31.400  1.00  0.00     0.033 C 
ATOM     23  C   UNL     1      20.554  31.496  29.858  1.00  0.00    -0.006 C 
ATOM     24  C   UNL     1      21.639  30.892  30.788  1.00  0.00     0.120 C 
ATOM     25  C   UNL     1      21.028  32.907  29.416  1.00  0.00     0.014 C 
ATOM     26  C   UNL     1      20.528  30.624  28.557  1.00  0.00     0.014 C 
ENDROOT
BRANCH   1  27
ATOM     27  C   UNL     1      15.197  25.515  27.789  1.00  0.00     0.048 C 
ATOM     28  O   UNL     1      15.685  24.467  27.293  1.00  0.00    -0.550 OA
ATOM     29  O   UNL     1      13.899  25.868  27.441  1.00  0.00    -0.550 OA
ENDBRANCH   1  27
BRANCH   7  30
ATOM     30  C   UNL     1      14.559  25.324  32.263  1.00  0.00    -0.077 C 
ATOM     31  C   UNL     1      14.649  24.083  33.125  1.00  0.00     0.039 C 
ATOM     32  C   UNL     1      13.877  26.389  32.723  1.00  0.00     0.008 C 
ENDBRANCH   7  30
BRANCH  24  33
ATOM     33  O   UNL     1      22.010  31.814  31.784  1.00  0.00    -0.393 OA
ATOM     34  H   UNL     1      21.181  32.131  32.225  1.00  0.00     0.210 HD
ENDBRANCH  24  33
TORSDOF 3
ENDMDL
MODEL 2
REMARK VINA RESULT:    -3.891      1.968      3.336
REMARK INTER + INTRA:          -4.347
REMARK INTER:                  -4.638
REMARK INTRA:                   0.291
REMARK UNBOUND:                 0.113
REMARK SMILES C=C(C)[C@@H]1CC[C@]2(C(=O)[O-])CC[C@@]3(C)[C@H](CC[C@H]4[C@@]5(C)CC[C@H](O)C(C)(C)[C@H]5CC[C@]43C)[C@H]12
REMARK SMILES IDX 7 1 6 2 33 3 11 4 5 5 15 6 4 7 12 8 16 9 13 10 17 11 31 12
REMARK SMILES IDX 14 13 18 14 30 15 32 16 19 17 29 18 21 19 20 20 28 21 22 22
REMARK SMILES IDX 25 23 23 24 26 25 27 26 8 27 9 28 10 29 2 30 3 31 1 32 24 33
REMARK H PARENT 24 34
REMARK Flexibility Score: inf
ROOT
ATOM      1  C   UNL     1      17.111  28.486  29.404  1.00  0.00     0.014 C 
ATOM      2  C   UNL     1      17.407  27.681  30.688  1.00  0.00     0.014 C 
ATOM      3  C   UNL     1      16.204  29.643  29.907  1.00  0.00     0.012 C 
ATOM      4  C   UNL     1      18.393  28.942  28.657  1.00  0.00     0.014 C 
ATOM      5  C   UNL     1      16.213  27.894  31.631  1.00  0.00     0.009 C 
ATOM      6  C   UNL     1      16.975  30.930  30.405  1.00  0.00     0.000 C 
ATOM      7  C   UNL     1      15.301  28.933  30.950  1.00  0.00     0.018 C 
ATOM      8  C   UNL     1      19.014  30.290  29.050  1.00  0.00     0.008 C 
ATOM      9  C   UNL     1      17.591  30.810  31.816  1.00  0.00     0.005 C 
ATOM     10  C   UNL     1      18.033  31.453  29.361  1.00  0.00    -0.024 C 
ATOM     11  C   UNL     1      18.092  32.152  32.326  1.00  0.00     0.005 C 
ATOM     12  C   UNL     1      18.792  32.795  29.923  1.00  0.00    -0.024 C 
ATOM     13  C   UNL     1      17.287  31.774  28.020  1.00  0.00     0.012 C 
ATOM     14  C   UNL     1      19.228  32.727  31.452  1.00  0.00     0.002 C 
ATOM     15  C   UNL     1      20.028  33.266  29.101  1.00  0.00     0.008 C 
ATOM     16  C   UNL     1      17.784  34.004  29.784  1.00  0.00     0.012 C 
ATOM     17  C   UNL     1      20.734  32.346  31.933  1.00  0.00    -0.026 C 
ATOM     18  C   UNL     1      21.331  32.520  29.354  1.00  0.00     0.005 C 
ATOM     19  C   UNL     1      20.859  30.912  32.539  1.00  0.00     0.010 C 
ATOM     20  C   UNL     1      21.026  33.337  33.125  1.00  0.00     0.012 C 
ATOM     21  C   UNL     1      21.853  32.539  30.812  1.00  0.00     0.003 C 
ATOM     22  C   UNL     1      22.253  30.557  33.113  1.00  0.00     0.033 C 
ATOM     23  C   UNL     1      23.158  31.604  30.932  1.00  0.00    -0.006 C 
ATOM     24  C   UNL     1      23.460  31.212  32.403  1.00  0.00     0.120 C 
ATOM     25  C   UNL     1      24.391  32.366  30.374  1.00  0.00     0.014 C 
ATOM     26  C   UNL     1      23.066  30.274  30.112  1.00  0.00     0.014 C 
ENDROOT
BRANCH   1  27
ATOM     27  C   UNL     1      16.361  27.564  28.440  1.00  0.00     0.048 C 
ATOM     28  O   UNL     1      16.946  26.980  27.492  1.00  0.00    -0.550 OA
ATOM     29  O   UNL     1      15.013  27.294  28.650  1.00  0.00    -0.550 OA
ENDBRANCH   1  27
BRANCH   7  30
ATOM     30  C   UNL     1      14.456  29.815  31.870  1.00  0.00    -0.077 C 
ATOM     31  C   UNL     1      14.075  31.221  31.460  1.00  0.00     0.039 C 
ATOM     32  C   UNL     1      14.161  29.396  33.114  1.00  0.00     0.008 C 
ENDBRANCH   7  30
BRANCH  24  33
ATOM     33  O   UNL     1      23.944  32.317  33.125  1.00  0.00    -0.393 OA
ATOM     34  H   UNL     1      24.919  32.384  32.955  1.00  0.00     0.210 HD
ENDBRANCH  24  33
TORSDOF 3
ENDMDL
MODEL 3
REMARK VINA RESULT:    -3.136      2.488      7.569
REMARK INTER + INTRA:          -3.481
REMARK INTER:                  -4.260
REMARK INTRA:                   0.779
REMARK UNBOUND:                 0.113
REMARK SMILES C=C(C)[C@@H]1CC[C@]2(C(=O)[O-])CC[C@@]3(C)[C@H](CC[C@H]4[C@@]5(C)CC[C@H](O)C(C)(C)[C@H]5CC[C@]43C)[C@H]12
REMARK SMILES IDX 7 1 6 2 33 3 11 4 5 5 15 6 4 7 12 8 16 9 13 10 17 11 31 12
REMARK SMILES IDX 14 13 18 14 30 15 32 16 19 17 29 18 21 19 20 20 28 21 22 22
REMARK SMILES IDX 25 23 23 24 26 25 27 26 8 27 9 28 10 29 2 30 3 31 1 32 24 33
REMARK H PARENT 24 34
REMARK Flexibility Score: inf
ROOT
ATOM      1  C   UNL     1      22.145  31.804  32.194  1.00  0.00     0.014 C 
ATOM      2  C   UNL     1      22.180  30.480  32.990  1.00  0.00     0.014 C 
ATOM      3  C   UNL     1      22.446  31.356  30.738  1.00  0.00     0.012 C 
ATOM      4  C   UNL     1      20.818  32.591  32.372  1.00  0.00     0.014 C 
ATOM      5  C   UNL     1      23.133  29.537  32.238  1.00  0.00     0.009 C 
ATOM      6  C   UNL     1      21.180  30.940  29.889  1.00  0.00     0.000 C 
ATOM      7  C   UNL     1      23.531  30.265  30.940  1.00  0.00     0.018 C 
ATOM      8  C   UNL     1      19.664  32.281  31.408  1.00  0.00     0.008 C 
ATOM      9  C   UNL     1      20.627  29.532  30.200  1.00  0.00     0.005 C 
ATOM     10  C   UNL     1      20.036  32.024  29.922  1.00  0.00    -0.024 C 
ATOM     11  C   UNL     1      19.580  29.103  29.183  1.00  0.00     0.005 C 
ATOM     12  C   UNL     1      18.754  31.547  29.016  1.00  0.00    -0.024 C 
ATOM     13  C   UNL     1      20.617  33.372  29.373  1.00  0.00     0.012 C 
ATOM     14  C   UNL     1      18.338  30.021  29.196  1.00  0.00     0.002 C 
ATOM     15  C   UNL     1      17.465  32.407  29.164  1.00  0.00     0.008 C 
ATOM     16  C   UNL     1      19.148  31.741  27.498  1.00  0.00     0.012 C 
ATOM     17  C   UNL     1      17.128  29.537  30.168  1.00  0.00    -0.026 C 
ATOM     18  C   UNL     1      16.603  32.129  30.386  1.00  0.00     0.005 C 
ATOM     19  C   UNL     1      17.612  28.853  31.486  1.00  0.00     0.010 C 
ATOM     20  C   UNL     1      16.396  28.406  29.348  1.00  0.00     0.012 C 
ATOM     21  C   UNL     1      16.074  30.680  30.529  1.00  0.00     0.003 C 
ATOM     22  C   UNL     1      16.488  28.276  32.382  1.00  0.00     0.033 C 
ATOM     23  C   UNL     1      15.295  30.523  31.929  1.00  0.00    -0.006 C 
ATOM     24  C   UNL     1      15.142  29.036  32.346  1.00  0.00     0.120 C 
ATOM     25  C   UNL     1      13.875  31.137  31.801  1.00  0.00     0.014 C 
ATOM     26  C   UNL     1      15.980  31.266  33.125  1.00  0.00     0.014 C 
ENDROOT
BRANCH   1  27
ATOM     27  C   UNL     1      23.252  32.707  32.745  1.00  0.00     0.048 C 
ATOM     28  O   UNL     1      23.068  33.935  32.942  1.00  0.00    -0.550 OA
ATOM     29  O   UNL     1      24.473  32.154  33.114  1.00  0.00    -0.550 OA
ENDBRANCH   1  27
BRANCH   7  30
ATOM     30  C   UNL     1      23.882  29.386  29.739  1.00  0.00    -0.077 C 
ATOM     31  C   UNL     1      23.036  28.180  29.388  1.00  0.00     0.039 C 
ATOM     32  C   UNL     1      25.027  29.596  29.066  1.00  0.00     0.008 C 
ENDBRANCH   7  30
BRANCH  24  33
ATOM     33  O   UNL     1      14.204  28.383  31.527  1.00  0.00    -0.393 OA
ATOM     34  H   UNL     1      14.641  28.199  30.655  1.00  0.00     0.210 HD
ENDBRANCH  24  33
TORSDOF 3
ENDMDL
MODEL 4
REMARK VINA RESULT:    -2.176      1.724      3.028
REMARK INTER + INTRA:          -2.380
REMARK INTER:                  -2.603
REMARK INTRA:                   0.223
REMARK UNBOUND:                 0.113
REMARK SMILES C=C(C)[C@@H]1CC[C@]2(C(=O)[O-])CC[C@@]3(C)[C@H](CC[C@H]4[C@@]5(C)CC[C@H](O)C(C)(C)[C@H]5CC[C@]43C)[C@H]12
REMARK SMILES IDX 7 1 6 2 33 3 11 4 5 5 15 6 4 7 12 8 16 9 13 10 17 11 31 12
REMARK SMILES IDX 14 13 18 14 30 15 32 16 19 17 29 18 21 19 20 20 28 21 22 22
REMARK SMILES IDX 25 23 23 24 26 25 27 26 8 27 9 28 10 29 2 30 3 31 1 32 24 33
REMARK H PARENT 24 34
REMARK Flexibility Score: inf
ROOT
ATOM      1  C   UNL     1      17.594  27.821  28.751  1.00  0.00     0.014 C 
ATOM      2  C   UNL     1      17.949  26.820  29.872  1.00  0.00     0.014 C 
ATOM      3  C   UNL     1      16.681  28.854  29.465  1.00  0.00     0.012 C 
ATOM      4  C   UNL     1      18.842  28.428  28.053  1.00  0.00     0.014 C 
ATOM      5  C   UNL     1      16.781  26.843  30.872  1.00  0.00     0.009 C 
ATOM      6  C   UNL     1      17.440  30.059  30.150  1.00  0.00     0.000 C 
ATOM      7  C   UNL     1      15.827  27.957  30.400  1.00  0.00     0.018 C 
ATOM      8  C   UNL     1      19.447  29.707  28.649  1.00  0.00     0.008 C 
ATOM      9  C   UNL     1      18.104  29.721  31.502  1.00  0.00     0.005 C 
ATOM     10  C   UNL     1      18.453  30.777  29.178  1.00  0.00    -0.024 C 
ATOM     11  C   UNL     1      18.593  30.973  32.215  1.00  0.00     0.005 C 
ATOM     12  C   UNL     1      19.202  32.025  29.935  1.00  0.00    -0.024 C 
ATOM     13  C   UNL     1      17.658  31.297  27.931  1.00  0.00     0.012 C 
ATOM     14  C   UNL     1      19.689  31.714  31.418  1.00  0.00     0.002 C 
ATOM     15  C   UNL     1      20.401  32.658  29.169  1.00  0.00     0.008 C 
ATOM     16  C   UNL     1      18.165  33.213  30.029  1.00  0.00     0.012 C 
ATOM     17  C   UNL     1      21.217  31.297  31.785  1.00  0.00    -0.026 C 
ATOM     18  C   UNL     1      21.726  31.914  29.256  1.00  0.00     0.005 C 
ATOM     19  C   UNL     1      21.391  29.786  32.139  1.00  0.00     0.010 C 
ATOM     20  C   UNL     1      21.527  32.083  33.117  1.00  0.00     0.012 C 
ATOM     21  C   UNL     1      22.295  31.703  30.681  1.00  0.00     0.003 C 
ATOM     22  C   UNL     1      22.810  29.376  32.605  1.00  0.00     0.033 C 
ATOM     23  C   UNL     1      23.622  30.796  30.606  1.00  0.00    -0.006 C 
ATOM     24  C   UNL     1      23.979  30.171  31.981  1.00  0.00     0.120 C 
ATOM     25  C   UNL     1      24.820  31.671  30.148  1.00  0.00     0.014 C 
ATOM     26  C   UNL     1      23.531  29.619  29.577  1.00  0.00     0.014 C 
ENDROOT
BRANCH   1  27
ATOM     27  C   UNL     1      16.833  27.053  27.667  1.00  0.00     0.048 C 
ATOM     28  O   UNL     1      17.162  27.116  26.455  1.00  0.00    -0.550 OA
ATOM     29  O   UNL     1      15.795  26.200  28.025  1.00  0.00    -0.550 OA
ENDBRANCH   1  27
BRANCH   7  30
ATOM     30  C   UNL     1      14.994  28.651  31.478  1.00  0.00    -0.077 C 
ATOM     31  C   UNL     1      14.647  27.938  32.768  1.00  0.00     0.039 C 
ATOM     32  C   UNL     1      14.444  29.853  31.231  1.00  0.00     0.008 C 
ENDBRANCH   7  30
BRANCH  24  33
ATOM     33  O   UNL     1      24.464  31.153  32.863  1.00  0.00    -0.393 OA
ATOM     34  H   UNL     1      23.745  31.825  32.991  1.00  0.00     0.210 HD
ENDBRANCH  24  33
TORSDOF 3
ENDMDL
MODEL 5
REMARK VINA RESULT:    -2.153      3.510      6.524
REMARK INTER + INTRA:          -2.355
REMARK INTER:                  -2.118
REMARK INTRA:                  -0.236
REMARK UNBOUND:                 0.113
REMARK SMILES C=C(C)[C@@H]1CC[C@]2(C(=O)[O-])CC[C@@]3(C)[C@H](CC[C@H]4[C@@]5(C)CC[C@H](O)C(C)(C)[C@H]5CC[C@]43C)[C@H]12
REMARK SMILES IDX 7 1 6 2 33 3 11 4 5 5 15 6 4 7 12 8 16 9 13 10 17 11 31 12
REMARK SMILES IDX 14 13 18 14 30 15 32 16 19 17 29 18 21 19 20 20 28 21 22 22
REMARK SMILES IDX 25 23 23 24 26 25 27 26 8 27 9 28 10 29 2 30 3 31 1 32 24 33
REMARK H PARENT 24 34
REMARK Flexibility Score: inf
ROOT
ATOM      1  C   UNL     1      18.247  31.871  31.425  1.00  0.00     0.014 C 
ATOM      2  C   UNL     1      18.357  32.819  30.211  1.00  0.00     0.014 C 
ATOM      3  C   UNL     1      18.421  30.461  30.798  1.00  0.00     0.012 C 
ATOM      4  C   UNL     1      19.252  32.208  32.559  1.00  0.00     0.014 C 
ATOM      5  C   UNL     1      17.878  32.026  28.984  1.00  0.00     0.009 C 
ATOM      6  C   UNL     1      19.916  29.960  30.681  1.00  0.00     0.000 C 
ATOM      7  C   UNL     1      17.629  30.585  29.468  1.00  0.00     0.018 C 
ATOM      8  C   UNL     1      20.641  31.556  32.505  1.00  0.00     0.008 C 
ATOM      9  C   UNL     1      20.714  30.572  29.510  1.00  0.00     0.005 C 
ATOM     10  C   UNL     1      20.709  30.077  32.038  1.00  0.00    -0.024 C 
ATOM     11  C   UNL     1      22.046  29.865  29.308  1.00  0.00     0.005 C 
ATOM     12  C   UNL     1      22.247  29.532  31.863  1.00  0.00    -0.024 C 
ATOM     13  C   UNL     1      19.955  29.236  33.125  1.00  0.00     0.012 C 
ATOM     14  C   UNL     1      22.978  30.007  30.532  1.00  0.00     0.002 C 
ATOM     15  C   UNL     1      23.205  29.822  33.055  1.00  0.00     0.008 C 
ATOM     16  C   UNL     1      22.188  27.954  31.820  1.00  0.00     0.012 C 
ATOM     17  C   UNL     1      24.004  31.266  30.480  1.00  0.00    -0.026 C 
ATOM     18  C   UNL     1      23.794  31.223  33.124  1.00  0.00     0.005 C 
ATOM     19  C   UNL     1      23.409  32.538  29.795  1.00  0.00     0.010 C 
ATOM     20  C   UNL     1      25.170  30.782  29.533  1.00  0.00     0.012 C 
ATOM     21  C   UNL     1      24.621  31.674  31.894  1.00  0.00     0.003 C 
ATOM     22  C   UNL     1      24.396  33.719  29.625  1.00  0.00     0.033 C 
ATOM     23  C   UNL     1      25.059  33.212  32.070  1.00  0.00    -0.006 C 
ATOM     24  C   UNL     1      25.478  33.857  30.721  1.00  0.00     0.120 C 
ATOM     25  C   UNL     1      26.268  33.297  33.040  1.00  0.00     0.014 C 
ATOM     26  C   UNL     1      23.946  34.125  32.688  1.00  0.00     0.014 C 
ENDROOT
BRANCH   1  27
ATOM     27  C   UNL     1      16.850  32.048  32.028  1.00  0.00     0.048 C 
ATOM     28  O   UNL     1      16.106  33.009  31.704  1.00  0.00    -0.550 OA
ATOM     29  O   UNL     1      16.348  31.089  32.899  1.00  0.00    -0.550 OA
ENDBRANCH   1  27
BRANCH   7  30
ATOM     30  C   UNL     1      17.806  29.472  28.434  1.00  0.00    -0.077 C 
ATOM     31  C   UNL     1      17.165  28.116  28.638  1.00  0.00     0.039 C 
ATOM     32  C   UNL     1      18.649  29.645  27.401  1.00  0.00     0.008 C 
ENDBRANCH   7  30
BRANCH  24  33
ATOM     33  O   UNL     1      26.716  33.349  30.290  1.00  0.00    -0.393 OA
ATOM     34  H   UNL     1      26.647  32.360  30.274  1.00  0.00     0.210 HD
ENDBRANCH  24  33
TORSDOF 3
ENDMDL
MODEL 6
REMARK VINA RESULT:    -1.844      1.369      7.148
REMARK INTER + INTRA:          -2.000
REMARK INTER:                  -1.599
REMARK INTRA:                  -0.400
REMARK UNBOUND:                 0.113
REMARK SMILES C=C(C)[C@@H]1CC[C@]2(C(=O)[O-])CC[C@@]3(C)[C@H](CC[C@H]4[C@@]5(C)CC[C@H](O)C(C)(C)[C@H]5CC[C@]43C)[C@H]12
REMARK SMILES IDX 7 1 6 2 33 3 11 4 5 5 15 6 4 7 12 8 16 9 13 10 17 11 31 12
REMARK SMILES IDX 14 13 18 14 30 15 32 16 19 17 29 18 21 19 20 20 28 21 22 22
REMARK SMILES IDX 25 23 23 24 26 25 27 26 8 27 9 28 10 29 2 30 3 31 1 32 24 33
REMARK H PARENT 24 34
REMARK Flexibility Score: inf
ROOT
ATOM      1  C   UNL     1      19.434  30.138  31.727  1.00  0.00     0.014 C 
ATOM      2  C   UNL     1      20.146  29.567  30.481  1.00  0.00     0.014 C 
ATOM      3  C   UNL     1      18.453  31.185  31.133  1.00  0.00     0.012 C 
ATOM      4  C   UNL     1      18.767  29.045  32.606  1.00  0.00     0.014 C 
ATOM      5  C   UNL     1      20.136  30.677  29.418  1.00  0.00     0.009 C 
ATOM      6  C   UNL     1      17.038  30.618  30.719  1.00  0.00     0.000 C 
ATOM      7  C   UNL     1      19.296  31.830  30.001  1.00  0.00     0.018 C 
ATOM      8  C   UNL     1      17.320  28.647  32.281  1.00  0.00     0.008 C 
ATOM      9  C   UNL     1      17.015  29.848  29.381  1.00  0.00     0.005 C 
ATOM     10  C   UNL     1      16.350  29.787  31.869  1.00  0.00    -0.024 C 
ATOM     11  C   UNL     1      15.593  29.554  28.927  1.00  0.00     0.005 C 
ATOM     12  C   UNL     1      14.881  29.235  31.391  1.00  0.00    -0.024 C 
ATOM     13  C   UNL     1      16.199  30.714  33.125  1.00  0.00     0.012 C 
ATOM     14  C   UNL     1      14.837  28.639  29.916  1.00  0.00     0.002 C 
ATOM     15  C   UNL     1      14.208  28.198  32.338  1.00  0.00     0.008 C 
ATOM     16  C   UNL     1      13.881  30.458  31.424  1.00  0.00     0.012 C 
ATOM     17  C   UNL     1      14.927  27.048  29.596  1.00  0.00    -0.026 C 
ATOM     18  C   UNL     1      14.698  26.762  32.223  1.00  0.00     0.005 C 
ATOM     19  C   UNL     1      16.301  26.599  29.004  1.00  0.00     0.010 C 
ATOM     20  C   UNL     1      13.875  26.821  28.441  1.00  0.00     0.012 C 
ATOM     21  C   UNL     1      14.554  26.104  30.828  1.00  0.00     0.003 C 
ATOM     22  C   UNL     1      16.383  25.112  28.580  1.00  0.00     0.033 C 
ATOM     23  C   UNL     1      15.231  24.644  30.844  1.00  0.00    -0.006 C 
ATOM     24  C   UNL     1      15.532  24.126  29.413  1.00  0.00     0.120 C 
ATOM     25  C   UNL     1      14.268  23.637  31.529  1.00  0.00     0.014 C 
ATOM     26  C   UNL     1      16.572  24.573  31.650  1.00  0.00     0.014 C 
ENDROOT
BRANCH   1  27
ATOM     27  C   UNL     1      20.498  30.800  32.607  1.00  0.00     0.048 C 
ATOM     28  O   UNL     1      21.610  30.255  32.826  1.00  0.00    -0.550 OA
ATOM     29  O   UNL     1      20.273  32.071  33.123  1.00  0.00    -0.550 OA
ENDBRANCH   1  27
BRANCH   7  30
ATOM     30  C   UNL     1      18.566  32.724  28.997  1.00  0.00    -0.077 C 
ATOM     31  C   UNL     1      17.919  34.018  29.441  1.00  0.00     0.039 C 
ATOM     32  C   UNL     1      18.372  32.298  27.737  1.00  0.00     0.008 C 
ENDBRANCH   7  30
BRANCH  24  33
ATOM     33  O   UNL     1      14.343  23.782  28.747  1.00  0.00    -0.393 OA
ATOM     34  H   UNL     1      13.641  24.423  29.031  1.00  0.00     0.210 HD
ENDBRANCH  24  33
TORSDOF 3
ENDMDL
