MODEL 1
REMARK VINA RESULT:    -2.522      0.000      0.000
REMARK INTER + INTRA:          -2.992
REMARK INTER:                  -2.964
REMARK INTRA:                  -0.027
REMARK UNBOUND:                -0.027
REMARK SMILES CCCCC(=O)[O-]
REMARK SMILES IDX 4 1 5 2 6 3 7 4 3 5 2 6 1 7
REMARK H PARENT
REMARK Flexibility Score: inf
ROOT
ATOM      1  C   UNL     1     -95.466 -46.725 -11.743  1.00  0.00     0.053 C 
ENDROOT
BRANCH   1   2
ATOM      2  C   UNL     1     -94.100 -46.561 -12.329  1.00  0.00     0.041 C 
ATOM      3  O   UNL     1     -93.858 -45.609 -13.115  1.00  0.00    -0.550 OA
ATOM      4  O   UNL     1     -93.106 -47.489 -12.045  1.00  0.00    -0.550 OA
ENDBRANCH   1   2
BRANCH   1   5
ATOM      5  C   UNL     1     -96.320 -45.483 -12.014  1.00  0.00     0.006 C 
BRANCH   5   6
ATOM      6  C   UNL     1     -97.809 -45.839 -12.062  1.00  0.00    -0.003 C 
ATOM      7  C   UNL     1     -98.674 -44.583 -12.125  1.00  0.00     0.004 C 
ENDBRANCH   5   6
ENDBRANCH   1   5
TORSDOF 3
ENDMDL
MODEL 2
REMARK VINA RESULT:    -2.495      0.993      1.376
REMARK INTER + INTRA:          -2.960
REMARK INTER:                  -2.926
REMARK INTRA:                  -0.034
REMARK UNBOUND:                -0.027
REMARK SMILES CCCCC(=O)[O-]
REMARK SMILES IDX 4 1 5 2 6 3 7 4 3 5 2 6 1 7
REMARK H PARENT
REMARK Flexibility Score: inf
ROOT
ATOM      1  C   UNL     1     -96.325 -45.412 -12.011  1.00  0.00     0.053 C 
ENDROOT
BRANCH   1   2
ATOM      2  C   UNL     1     -95.152 -46.340 -12.067  1.00  0.00     0.041 C 
ATOM      3  O   UNL     1     -94.127 -46.025 -12.726  1.00  0.00    -0.550 OA
ATOM      4  O   UNL     1     -95.211 -47.574 -11.432  1.00  0.00    -0.550 OA
ENDBRANCH   1   2
BRANCH   1   5
ATOM      5  C   UNL     1     -97.636 -46.203 -12.029  1.00  0.00     0.006 C 
BRANCH   5   6
ATOM      6  C   UNL     1     -98.829 -45.281 -12.306  1.00  0.00    -0.003 C 
ATOM      7  C   UNL     1     -98.479 -43.825 -12.013  1.00  0.00     0.004 C 
ENDBRANCH   5   6
ENDBRANCH   1   5
TORSDOF 3
ENDMDL
MODEL 3
REMARK VINA RESULT:    -2.451      1.207      1.650
REMARK INTER + INTRA:          -2.908
REMARK INTER:                  -2.874
REMARK INTRA:                  -0.034
REMARK UNBOUND:                -0.027
REMARK SMILES CCCCC(=O)[O-]
REMARK SMILES IDX 4 1 5 2 6 3 7 4 3 5 2 6 1 7
REMARK H PARENT
REMARK Flexibility Score: inf
ROOT
ATOM      1  C   UNL     1     -96.498 -46.118 -11.905  1.00  0.00     0.053 C 
ENDROOT
BRANCH   1   2
ATOM      2  C   UNL     1     -95.030 -46.268 -11.656  1.00  0.00     0.041 C 
ATOM      3  O   UNL     1     -94.596 -46.387 -10.481  1.00  0.00    -0.550 OA
ATOM      4  O   UNL     1     -94.137 -46.227 -12.719  1.00  0.00    -0.550 OA
ENDBRANCH   1   2
BRANCH   1   5
ATOM      5  C   UNL     1     -96.890 -44.638 -11.929  1.00  0.00     0.006 C 
BRANCH   5   6
ATOM      6  C   UNL     1     -98.410 -44.474 -12.038  1.00  0.00    -0.003 C 
ATOM      7  C   UNL     1     -99.085 -45.804 -12.363  1.00  0.00     0.004 C 
ENDBRANCH   5   6
ENDBRANCH   1   5
TORSDOF 3
ENDMDL
MODEL 4
REMARK VINA RESULT:    -2.326      3.600      4.423
REMARK INTER + INTRA:          -2.761
REMARK INTER:                  -2.738
REMARK INTRA:                  -0.023
REMARK UNBOUND:                -0.027
REMARK SMILES CCCCC(=O)[O-]
REMARK SMILES IDX 4 1 5 2 6 3 7 4 3 5 2 6 1 7
REMARK H PARENT
REMARK Flexibility Score: inf
ROOT
ATOM      1  C   UNL     1     -99.579 -46.699 -12.438  1.00  0.00     0.053 C 
ENDROOT
BRANCH   1   2
ATOM      2  C   UNL     1     -99.236 -47.987 -13.118  1.00  0.00     0.041 C 
ATOM      3  O   UNL     1     -98.073 -48.460 -13.027  1.00  0.00    -0.550 OA
ATOM      4  O   UNL     1    -100.187 -48.639 -13.891  1.00  0.00    -0.550 OA
ENDBRANCH   1   2
BRANCH   1   5
ATOM      5  C   UNL     1     -98.308 -45.913 -12.104  1.00  0.00     0.006 C 
BRANCH   5   6
ATOM      6  C   UNL     1     -98.578 -44.404 -12.112  1.00  0.00    -0.003 C 
ATOM      7  C   UNL     1     -97.296 -43.615 -11.857  1.00  0.00     0.004 C 
ENDBRANCH   5   6
ENDBRANCH   1   5
TORSDOF 3
ENDMDL
MODEL 5
REMARK VINA RESULT:    -2.310     10.432     10.918
REMARK INTER + INTRA:          -2.742
REMARK INTER:                  -2.680
REMARK INTRA:                  -0.063
REMARK UNBOUND:                -0.027
REMARK SMILES CCCCC(=O)[O-]
REMARK SMILES IDX 4 1 5 2 6 3 7 4 3 5 2 6 1 7
REMARK H PARENT
REMARK Flexibility Score: inf
ROOT
ATOM      1  C   UNL     1     -94.685 -54.011 -20.044  1.00  0.00     0.053 C 
ENDROOT
BRANCH   1   2
ATOM      2  C   UNL     1     -94.752 -52.941 -21.087  1.00  0.00     0.041 C 
ATOM      3  O   UNL     1     -93.928 -51.990 -21.073  1.00  0.00    -0.550 OA
ATOM      4  O   UNL     1     -95.756 -52.967 -22.047  1.00  0.00    -0.550 OA
ENDBRANCH   1   2
BRANCH   1   5
ATOM      5  C   UNL     1     -96.083 -54.319 -19.500  1.00  0.00     0.006 C 
BRANCH   5   6
ATOM      6  C   UNL     1     -96.434 -53.391 -18.332  1.00  0.00    -0.003 C 
ATOM      7  C   UNL     1     -96.685 -54.186 -17.053  1.00  0.00     0.004 C 
ENDBRANCH   5   6
ENDBRANCH   1   5
TORSDOF 3
ENDMDL
MODEL 6
REMARK VINA RESULT:    -2.291      3.157      3.758
REMARK INTER + INTRA:          -2.720
REMARK INTER:                  -2.662
REMARK INTRA:                  -0.058
REMARK UNBOUND:                -0.027
REMARK SMILES CCCCC(=O)[O-]
REMARK SMILES IDX 4 1 5 2 6 3 7 4 3 5 2 6 1 7
REMARK H PARENT
REMARK Flexibility Score: inf
ROOT
ATOM      1  C   UNL     1     -97.272 -43.721 -11.380  1.00  0.00     0.053 C 
ENDROOT
BRANCH   1   2
ATOM      2  C   UNL     1     -96.975 -43.750  -9.914  1.00  0.00     0.041 C 
ATOM      3  O   UNL     1     -97.464 -42.876  -9.152  1.00  0.00    -0.550 OA
ATOM      4  O   UNL     1     -96.120 -44.714  -9.397  1.00  0.00    -0.550 OA
ENDBRANCH   1   2
BRANCH   1   5
ATOM      5  C   UNL     1     -97.484 -45.141 -11.913  1.00  0.00     0.006 C 
BRANCH   5   6
ATOM      6  C   UNL     1     -98.944 -45.360 -12.325  1.00  0.00    -0.003 C 
ATOM      7  C   UNL     1     -99.715 -44.042 -12.342  1.00  0.00     0.004 C 
ENDBRANCH   5   6
ENDBRANCH   1   5
TORSDOF 3
ENDMDL
MODEL 7
REMARK VINA RESULT:    -2.278      2.443      3.320
REMARK INTER + INTRA:          -2.705
REMARK INTER:                  -2.595
REMARK INTRA:                  -0.111
REMARK UNBOUND:                -0.027
REMARK SMILES CCCCC(=O)[O-]
REMARK SMILES IDX 4 1 5 2 6 3 7 4 3 5 2 6 1 7
REMARK H PARENT
REMARK Flexibility Score: inf
ROOT
ATOM      1  C   UNL     1     -98.287 -45.003 -12.073  1.00  0.00     0.053 C 
ENDROOT
BRANCH   1   2
ATOM      2  C   UNL     1     -97.146 -45.969 -12.018  1.00  0.00     0.041 C 
ATOM      3  O   UNL     1     -97.361 -47.191 -11.809  1.00  0.00    -0.550 OA
ATOM      4  O   UNL     1     -95.841 -45.513 -12.150  1.00  0.00    -0.550 OA
ENDBRANCH   1   2
BRANCH   1   5
ATOM      5  C   UNL     1     -97.787 -43.570 -11.870  1.00  0.00     0.006 C 
BRANCH   5   6
ATOM      6  C   UNL     1     -98.089 -43.079 -10.449  1.00  0.00    -0.003 C 
ATOM      7  C   UNL     1     -96.809 -42.950  -9.628  1.00  0.00     0.004 C 
ENDBRANCH   5   6
ENDBRANCH   1   5
TORSDOF 3
ENDMDL
MODEL 8
REMARK VINA RESULT:    -2.234      2.580      3.541
REMARK INTER + INTRA:          -2.654
REMARK INTER:                  -2.635
REMARK INTRA:                  -0.019
REMARK UNBOUND:                -0.027
REMARK SMILES CCCCC(=O)[O-]
REMARK SMILES IDX 4 1 5 2 6 3 7 4 3 5 2 6 1 7
REMARK H PARENT
REMARK Flexibility Score: inf
ROOT
ATOM      1  C   UNL     1     -98.513 -45.136 -12.138  1.00  0.00     0.053 C 
ENDROOT
BRANCH   1   2
ATOM      2  C   UNL     1     -97.153 -44.657 -11.741  1.00  0.00     0.041 C 
ATOM      3  O   UNL     1     -97.025 -43.601 -11.069  1.00  0.00    -0.550 OA
ATOM      4  O   UNL     1     -96.023 -45.351 -12.155  1.00  0.00    -0.550 OA
ENDBRANCH   1   2
BRANCH   1   5
ATOM      5  C   UNL     1     -98.500 -46.648 -12.381  1.00  0.00     0.006 C 
BRANCH   5   6
ATOM      6  C   UNL     1     -99.900 -47.159 -12.737  1.00  0.00    -0.003 C 
ATOM      7  C   UNL     1     -99.827 -48.469 -13.517  1.00  0.00     0.004 C 
ENDBRANCH   5   6
ENDBRANCH   1   5
TORSDOF 3
ENDMDL
MODEL 9
REMARK VINA RESULT:    -2.212     10.747     11.229
REMARK INTER + INTRA:          -2.627
REMARK INTER:                  -2.532
REMARK INTRA:                  -0.094
REMARK UNBOUND:                -0.027
REMARK SMILES CCCCC(=O)[O-]
REMARK SMILES IDX 4 1 5 2 6 3 7 4 3 5 2 6 1 7
REMARK H PARENT
REMARK Flexibility Score: inf
ROOT
ATOM      1  C   UNL     1     -95.581 -53.818 -19.401  1.00  0.00     0.053 C 
ENDROOT
BRANCH   1   2
ATOM      2  C   UNL     1     -96.238 -53.707 -20.740  1.00  0.00     0.041 C 
ATOM      3  O   UNL     1     -95.667 -53.089 -21.676  1.00  0.00    -0.550 OA
ATOM      4  O   UNL     1     -97.502 -54.245 -20.942  1.00  0.00    -0.550 OA
ENDBRANCH   1   2
BRANCH   1   5
ATOM      5  C   UNL     1     -96.566 -53.446 -18.288  1.00  0.00     0.006 C 
BRANCH   5   6
ATOM      6  C   UNL     1     -96.574 -54.509 -17.184  1.00  0.00    -0.003 C 
ATOM      7  C   UNL     1     -96.537 -55.916 -17.775  1.00  0.00     0.004 C 
ENDBRANCH   5   6
ENDBRANCH   1   5
TORSDOF 3
ENDMDL
