MODEL 1
REMARK VINA RESULT:    -5.264      0.000      0.000
REMARK INTER + INTRA:          -9.378
REMARK INTER:                  -8.033
REMARK INTRA:                  -1.345
REMARK UNBOUND:                -1.345
REMARK SMILES CC(=O)CCC=C(C)CCC=C(C)CCC=C(C)C
REMARK SMILES IDX 10 1 11 2 12 3 13 4 14 5 15 6 16 7 18 8 17 9 19 10 9 11 7 12
REMARK SMILES IDX 6 13 8 14 5 15 4 16 2 17 3 18 1 19
REMARK H PARENT
REMARK Flexibility Score: inf
ROOT
ATOM      1  C   UNL     1      20.159  25.546  27.879  1.00  0.00     0.032 C 
ENDROOT
BRANCH   1   2
ATOM      2  C   UNL     1      18.669  25.511  28.106  1.00  0.00    -0.028 C 
ATOM      3  C   UNL     1      17.856  26.587  28.003  1.00  0.00    -0.077 C 
ATOM      4  C   UNL     1      18.393  27.968  27.707  1.00  0.00     0.039 C 
BRANCH   3   5
ATOM      5  C   UNL     1      16.367  26.404  28.203  1.00  0.00     0.034 C 
BRANCH   5   6
ATOM      6  C   UNL     1      15.992  24.919  28.171  1.00  0.00     0.032 C 
BRANCH   6   7
ATOM      7  C   UNL     1      15.420  24.540  26.828  1.00  0.00    -0.028 C 
ATOM      8  C   UNL     1      14.997  23.073  24.880  1.00  0.00     0.039 C 
ATOM      9  C   UNL     1      15.592  23.335  26.240  1.00  0.00    -0.080 C 
ATOM     10  C   UNL     1      16.329  22.208  26.921  1.00  0.00     0.039 C 
ENDBRANCH   6   7
ENDBRANCH   5   6
ENDBRANCH   3   5
ENDBRANCH   1   2
BRANCH   1  11
ATOM     11  C   UNL     1      20.690  24.148  27.545  1.00  0.00     0.034 C 
BRANCH  11  12
ATOM     12  C   UNL     1      20.574  23.867  26.063  1.00  0.00    -0.077 C 
ATOM     13  C   UNL     1      21.413  24.496  25.209  1.00  0.00    -0.028 C 
ATOM     14  C   UNL     1      19.512  22.908  25.579  1.00  0.00     0.039 C 
BRANCH  13  15
ATOM     15  C   UNL     1      21.430  24.283  23.715  1.00  0.00     0.035 C 
BRANCH  15  16
ATOM     16  C   UNL     1      22.268  23.049  23.351  1.00  0.00     0.079 C 
BRANCH  16  17
ATOM     17  C   UNL     1      21.586  22.142  22.354  1.00  0.00     0.130 C 
ATOM     18  O   UNL     1      20.375  22.186  22.189  1.00  0.00    -0.300 OA
ATOM     19  C   UNL     1      22.395  21.175  21.546  1.00  0.00     0.087 C 
ENDBRANCH  16  17
ENDBRANCH  15  16
ENDBRANCH  13  15
ENDBRANCH  11  12
ENDBRANCH   1  11
TORSDOF 9
ENDMDL
MODEL 2
REMARK VINA RESULT:    -5.203      3.921      5.577
REMARK INTER + INTRA:          -9.286
REMARK INTER:                  -7.931
REMARK INTRA:                  -1.355
REMARK UNBOUND:                -1.345
REMARK SMILES CC(=O)CCC=C(C)CCC=C(C)CCC=C(C)C
REMARK SMILES IDX 10 1 11 2 12 3 13 4 14 5 15 6 16 7 18 8 17 9 19 10 9 11 7 12
REMARK SMILES IDX 6 13 8 14 5 15 4 16 2 17 3 18 1 19
REMARK H PARENT
REMARK Flexibility Score: inf
ROOT
ATOM      1  C   UNL     1      19.923  25.334  27.432  1.00  0.00     0.032 C 
ENDROOT
BRANCH   1   2
ATOM      2  C   UNL     1      18.503  25.222  27.927  1.00  0.00    -0.028 C 
ATOM      3  C   UNL     1      17.625  26.251  27.967  1.00  0.00    -0.077 C 
ATOM      4  C   UNL     1      18.022  27.654  27.570  1.00  0.00     0.039 C 
BRANCH   3   5
ATOM      5  C   UNL     1      16.210  25.992  28.436  1.00  0.00     0.034 C 
BRANCH   5   6
ATOM      6  C   UNL     1      15.387  25.316  27.334  1.00  0.00     0.032 C 
BRANCH   6   7
ATOM      7  C   UNL     1      14.942  23.941  27.765  1.00  0.00    -0.028 C 
ATOM      8  C   UNL     1      14.810  21.471  27.671  1.00  0.00     0.039 C 
ATOM      9  C   UNL     1      15.339  22.792  27.174  1.00  0.00    -0.080 C 
ATOM     10  C   UNL     1      16.345  22.775  26.049  1.00  0.00     0.039 C 
ENDBRANCH   6   7
ENDBRANCH   5   6
ENDBRANCH   3   5
ENDBRANCH   1   2
BRANCH   1  11
ATOM     11  C   UNL     1      20.910  25.287  28.603  1.00  0.00     0.034 C 
BRANCH  11  12
ATOM     12  C   UNL     1      21.449  26.667  28.910  1.00  0.00    -0.077 C 
ATOM     13  C   UNL     1      22.498  27.135  28.196  1.00  0.00    -0.028 C 
ATOM     14  C   UNL     1      20.812  27.473  30.018  1.00  0.00     0.039 C 
BRANCH  13  15
ATOM     15  C   UNL     1      23.110  28.503  28.374  1.00  0.00     0.035 C 
BRANCH  15  16
ATOM     16  C   UNL     1      24.353  28.429  29.273  1.00  0.00     0.079 C 
BRANCH  16  17
ATOM     17  C   UNL     1      25.471  29.335  28.814  1.00  0.00     0.130 C 
ATOM     18  O   UNL     1      26.160  29.044  27.847  1.00  0.00    -0.300 OA
ATOM     19  C   UNL     1      25.744  30.615  29.542  1.00  0.00     0.087 C 
ENDBRANCH  16  17
ENDBRANCH  15  16
ENDBRANCH  13  15
ENDBRANCH  11  12
ENDBRANCH   1  11
TORSDOF 9
ENDMDL
MODEL 3
REMARK VINA RESULT:    -5.134      4.384      8.488
REMARK INTER + INTRA:          -9.181
REMARK INTER:                  -7.029
REMARK INTRA:                  -2.152
REMARK UNBOUND:                -1.345
REMARK SMILES CC(=O)CCC=C(C)CCC=C(C)CCC=C(C)C
REMARK SMILES IDX 10 1 11 2 12 3 13 4 14 5 15 6 16 7 18 8 17 9 19 10 9 11 7 12
REMARK SMILES IDX 6 13 8 14 5 15 4 16 2 17 3 18 1 19
REMARK H PARENT
REMARK Flexibility Score: inf
ROOT
ATOM      1  C   UNL     1      19.330  31.015  29.393  1.00  0.00     0.032 C 
ENDROOT
BRANCH   1   2
ATOM      2  C   UNL     1      18.867  29.912  28.476  1.00  0.00    -0.028 C 
ATOM      3  C   UNL     1      18.377  28.723  28.899  1.00  0.00    -0.077 C 
ATOM      4  C   UNL     1      18.312  28.363  30.365  1.00  0.00     0.039 C 
BRANCH   3   5
ATOM      5  C   UNL     1      17.896  27.720  27.874  1.00  0.00     0.034 C 
BRANCH   5   6
ATOM      6  C   UNL     1      17.905  26.302  28.454  1.00  0.00     0.032 C 
BRANCH   6   7
ATOM      7  C   UNL     1      18.848  25.414  27.682  1.00  0.00    -0.028 C 
ATOM      8  C   UNL     1      20.982  24.254  27.201  1.00  0.00     0.039 C 
ATOM      9  C   UNL     1      20.115  25.135  28.064  1.00  0.00    -0.080 C 
ATOM     10  C   UNL     1      20.691  25.641  29.364  1.00  0.00     0.039 C 
ENDBRANCH   6   7
ENDBRANCH   5   6
ENDBRANCH   3   5
ENDBRANCH   1   2
BRANCH   1  11
ATOM     11  C   UNL     1      18.333  32.179  29.387  1.00  0.00     0.034 C 
BRANCH  11  12
ATOM     12  C   UNL     1      17.112  31.848  30.215  1.00  0.00    -0.077 C 
ATOM     13  C   UNL     1      15.912  31.734  29.601  1.00  0.00    -0.028 C 
ATOM     14  C   UNL     1      17.264  31.673  31.708  1.00  0.00     0.039 C 
BRANCH  13  15
ATOM     15  C   UNL     1      14.625  31.375  30.300  1.00  0.00     0.035 C 
BRANCH  15  16
ATOM     16  C   UNL     1      14.049  30.065  29.741  1.00  0.00     0.079 C 
BRANCH  16  17
ATOM     17  C   UNL     1      14.589  28.837  30.436  1.00  0.00     0.130 C 
ATOM     18  O   UNL     1      15.002  28.895  31.585  1.00  0.00    -0.300 OA
ATOM     19  C   UNL     1      14.618  27.523  29.718  1.00  0.00     0.087 C 
ENDBRANCH  16  17
ENDBRANCH  15  16
ENDBRANCH  13  15
ENDBRANCH  11  12
ENDBRANCH   1  11
TORSDOF 9
ENDMDL
MODEL 4
REMARK VINA RESULT:    -5.120      4.896      8.391
REMARK INTER + INTRA:          -9.160
REMARK INTER:                  -6.913
REMARK INTRA:                  -2.247
REMARK UNBOUND:                -1.345
REMARK SMILES CC(=O)CCC=C(C)CCC=C(C)CCC=C(C)C
REMARK SMILES IDX 10 1 11 2 12 3 13 4 14 5 15 6 16 7 18 8 17 9 19 10 9 11 7 12
REMARK SMILES IDX 6 13 8 14 5 15 4 16 2 17 3 18 1 19
REMARK H PARENT
REMARK Flexibility Score: inf
ROOT
ATOM      1  C   UNL     1      21.288  28.802  30.486  1.00  0.00     0.032 C 
ENDROOT
BRANCH   1   2
ATOM      2  C   UNL     1      20.898  27.419  30.030  1.00  0.00    -0.028 C 
ATOM      3  C   UNL     1      21.506  26.747  29.025  1.00  0.00    -0.077 C 
ATOM      4  C   UNL     1      22.615  27.366  28.207  1.00  0.00     0.039 C 
BRANCH   3   5
ATOM      5  C   UNL     1      21.052  25.340  28.701  1.00  0.00     0.034 C 
BRANCH   5   6
ATOM      6  C   UNL     1      20.072  25.342  27.523  1.00  0.00     0.032 C 
BRANCH   6   7
ATOM      7  C   UNL     1      18.646  25.376  28.013  1.00  0.00    -0.028 C 
ATOM      8  C   UNL     1      16.445  26.395  28.509  1.00  0.00     0.039 C 
ATOM      9  C   UNL     1      17.850  26.467  27.966  1.00  0.00    -0.080 C 
ATOM     10  C   UNL     1      18.302  27.763  27.338  1.00  0.00     0.039 C 
ENDBRANCH   6   7
ENDBRANCH   5   6
ENDBRANCH   3   5
ENDBRANCH   1   2
BRANCH   1  11
ATOM     11  C   UNL     1      20.139  29.461  31.257  1.00  0.00     0.034 C 
BRANCH  11  12
ATOM     12  C   UNL     1      19.065  29.949  30.311  1.00  0.00    -0.077 C 
ATOM     13  C   UNL     1      17.781  29.583  30.531  1.00  0.00    -0.028 C 
ATOM     14  C   UNL     1      19.459  30.814  29.136  1.00  0.00     0.039 C 
BRANCH  13  15
ATOM     15  C   UNL     1      16.610  30.025  29.688  1.00  0.00     0.035 C 
BRANCH  15  16
ATOM     16  C   UNL     1      15.710  30.991  30.472  1.00  0.00     0.079 C 
BRANCH  16  17
ATOM     17  C   UNL     1      16.118  32.437  30.319  1.00  0.00     0.130 C 
ATOM     18  O   UNL     1      16.274  33.154  31.298  1.00  0.00    -0.300 OA
ATOM     19  C   UNL     1      16.342  33.011  28.954  1.00  0.00     0.087 C 
ENDBRANCH  16  17
ENDBRANCH  15  16
ENDBRANCH  13  15
ENDBRANCH  11  12
ENDBRANCH   1  11
TORSDOF 9
ENDMDL
MODEL 5
REMARK VINA RESULT:    -5.067      5.124      8.916
REMARK INTER + INTRA:          -9.078
REMARK INTER:                  -7.006
REMARK INTRA:                  -2.072
REMARK UNBOUND:                -1.345
REMARK SMILES CC(=O)CCC=C(C)CCC=C(C)CCC=C(C)C
REMARK SMILES IDX 10 1 11 2 12 3 13 4 14 5 15 6 16 7 18 8 17 9 19 10 9 11 7 12
REMARK SMILES IDX 6 13 8 14 5 15 4 16 2 17 3 18 1 19
REMARK H PARENT
REMARK Flexibility Score: inf
ROOT
ATOM      1  C   UNL     1      15.248  29.050  30.278  1.00  0.00     0.032 C 
ENDROOT
BRANCH   1   2
ATOM      2  C   UNL     1      16.640  28.650  29.861  1.00  0.00    -0.028 C 
ATOM      3  C   UNL     1      17.731  28.736  30.657  1.00  0.00    -0.077 C 
ATOM      4  C   UNL     1      17.658  29.320  32.049  1.00  0.00     0.039 C 
BRANCH   3   5
ATOM      5  C   UNL     1      19.064  28.249  30.132  1.00  0.00     0.034 C 
BRANCH   5   6
ATOM      6  C   UNL     1      19.024  28.091  28.609  1.00  0.00     0.032 C 
BRANCH   6   7
ATOM      7  C   UNL     1      19.730  26.828  28.183  1.00  0.00    -0.028 C 
ATOM      8  C   UNL     1      19.910  24.454  27.505  1.00  0.00     0.039 C 
ATOM      9  C   UNL     1      19.102  25.665  27.896  1.00  0.00    -0.080 C 
ATOM     10  C   UNL     1      17.598  25.541  27.905  1.00  0.00     0.039 C 
ENDBRANCH   6   7
ENDBRANCH   5   6
ENDBRANCH   3   5
ENDBRANCH   1   2
BRANCH   1  11
ATOM     11  C   UNL     1      14.759  30.247  29.456  1.00  0.00     0.034 C 
BRANCH  11  12
ATOM     12  C   UNL     1      15.326  31.541  29.998  1.00  0.00    -0.077 C 
ATOM     13  C   UNL     1      16.110  32.300  29.198  1.00  0.00    -0.028 C 
ATOM     14  C   UNL     1      15.018  31.937  31.423  1.00  0.00     0.039 C 
BRANCH  13  15
ATOM     15  C   UNL     1      16.710  33.625  29.599  1.00  0.00     0.035 C 
BRANCH  15  16
ATOM     16  C   UNL     1      18.228  33.628  29.363  1.00  0.00     0.079 C 
BRANCH  16  17
ATOM     17  C   UNL     1      18.971  32.687  30.281  1.00  0.00     0.130 C 
ATOM     18  O   UNL     1      18.744  32.670  31.483  1.00  0.00    -0.300 OA
ATOM     19  C   UNL     1      20.001  31.754  29.723  1.00  0.00     0.087 C 
ENDBRANCH  16  17
ENDBRANCH  15  16
ENDBRANCH  13  15
ENDBRANCH  11  12
ENDBRANCH   1  11
TORSDOF 9
ENDMDL
MODEL 6
REMARK VINA RESULT:    -5.041      4.162      7.593
REMARK INTER + INTRA:          -9.039
REMARK INTER:                  -7.048
REMARK INTRA:                  -1.990
REMARK UNBOUND:                -1.345
REMARK SMILES CC(=O)CCC=C(C)CCC=C(C)CCC=C(C)C
REMARK SMILES IDX 10 1 11 2 12 3 13 4 14 5 15 6 16 7 18 8 17 9 19 10 9 11 7 12
REMARK SMILES IDX 6 13 8 14 5 15 4 16 2 17 3 18 1 19
REMARK H PARENT
REMARK Flexibility Score: inf
ROOT
ATOM      1  C   UNL     1      14.668  29.591  29.997  1.00  0.00     0.032 C 
ENDROOT
BRANCH   1   2
ATOM      2  C   UNL     1      15.239  30.883  29.472  1.00  0.00    -0.028 C 
ATOM      3  C   UNL     1      15.380  32.010  30.208  1.00  0.00    -0.077 C 
ATOM      4  C   UNL     1      14.904  32.093  31.639  1.00  0.00     0.039 C 
BRANCH   3   5
ATOM      5  C   UNL     1      16.020  33.226  29.574  1.00  0.00     0.034 C 
BRANCH   5   6
ATOM      6  C   UNL     1      17.406  33.486  30.173  1.00  0.00     0.032 C 
BRANCH   6   7
ATOM      7  C   UNL     1      18.453  32.647  29.482  1.00  0.00    -0.028 C 
ATOM      8  C   UNL     1      20.118  30.828  29.269  1.00  0.00     0.039 C 
ATOM      9  C   UNL     1      19.064  31.579  30.042  1.00  0.00    -0.080 C 
ATOM     10  C   UNL     1      18.695  31.072  31.415  1.00  0.00     0.039 C 
ENDBRANCH   6   7
ENDBRANCH   5   6
ENDBRANCH   3   5
ENDBRANCH   1   2
BRANCH   1  11
ATOM     11  C   UNL     1      15.781  28.683  30.531  1.00  0.00     0.034 C 
BRANCH  11  12
ATOM     12  C   UNL     1      16.429  27.907  29.406  1.00  0.00    -0.077 C 
ATOM     13  C   UNL     1      17.556  28.392  28.837  1.00  0.00    -0.028 C 
ATOM     14  C   UNL     1      15.787  26.621  28.938  1.00  0.00     0.039 C 
BRANCH  13  15
ATOM     15  C   UNL     1      18.320  27.704  27.733  1.00  0.00     0.035 C 
BRANCH  15  16
ATOM     16  C   UNL     1      19.503  26.908  28.306  1.00  0.00     0.079 C 
BRANCH  16  17
ATOM     17  C   UNL     1      19.547  25.479  27.817  1.00  0.00     0.130 C 
ATOM     18  O   UNL     1      18.529  24.905  27.456  1.00  0.00    -0.300 OA
ATOM     19  C   UNL     1      20.852  24.747  27.763  1.00  0.00     0.087 C 
ENDBRANCH  16  17
ENDBRANCH  15  16
ENDBRANCH  13  15
ENDBRANCH  11  12
ENDBRANCH   1  11
TORSDOF 9
ENDMDL
MODEL 7
REMARK VINA RESULT:    -5.032      3.010      5.304
REMARK INTER + INTRA:          -9.024
REMARK INTER:                  -7.977
REMARK INTRA:                  -1.048
REMARK UNBOUND:                -1.345
REMARK SMILES CC(=O)CCC=C(C)CCC=C(C)CCC=C(C)C
REMARK SMILES IDX 10 1 11 2 12 3 13 4 14 5 15 6 16 7 18 8 17 9 19 10 9 11 7 12
REMARK SMILES IDX 6 13 8 14 5 15 4 16 2 17 3 18 1 19
REMARK H PARENT
REMARK Flexibility Score: inf
ROOT
ATOM      1  C   UNL     1      18.397  26.867  27.606  1.00  0.00     0.032 C 
ENDROOT
BRANCH   1   2
ATOM      2  C   UNL     1      18.024  27.820  28.713  1.00  0.00    -0.028 C 
ATOM      3  C   UNL     1      18.896  28.649  29.333  1.00  0.00    -0.077 C 
ATOM      4  C   UNL     1      20.371  28.643  29.007  1.00  0.00     0.039 C 
BRANCH   3   5
ATOM      5  C   UNL     1      18.381  29.597  30.394  1.00  0.00     0.034 C 
BRANCH   5   6
ATOM      6  C   UNL     1      16.897  29.906  30.173  1.00  0.00     0.032 C 
BRANCH   6   7
ATOM      7  C   UNL     1      16.725  31.216  29.446  1.00  0.00    -0.028 C 
ATOM      8  C   UNL     1      16.121  33.603  29.192  1.00  0.00     0.039 C 
ATOM      9  C   UNL     1      16.280  32.355  30.022  1.00  0.00    -0.080 C 
ATOM     10  C   UNL     1      15.976  32.441  31.498  1.00  0.00     0.039 C 
ENDBRANCH   6   7
ENDBRANCH   5   6
ENDBRANCH   3   5
ENDBRANCH   1   2
BRANCH   1  11
ATOM     11  C   UNL     1      18.651  25.463  28.164  1.00  0.00     0.034 C 
BRANCH  11  12
ATOM     12  C   UNL     1      19.930  24.883  27.601  1.00  0.00    -0.077 C 
ATOM     13  C   UNL     1      19.870  24.116  26.489  1.00  0.00    -0.028 C 
ATOM     14  C   UNL     1      21.235  25.161  28.310  1.00  0.00     0.039 C 
BRANCH  13  15
ATOM     15  C   UNL     1      21.069  23.507  25.805  1.00  0.00     0.035 C 
BRANCH  15  16
ATOM     16  C   UNL     1      21.383  24.246  24.496  1.00  0.00     0.079 C 
BRANCH  16  17
ATOM     17  C   UNL     1      21.925  23.337  23.418  1.00  0.00     0.130 C 
ATOM     18  O   UNL     1      23.127  23.250  23.215  1.00  0.00    -0.300 OA
ATOM     19  C   UNL     1      20.985  22.523  22.583  1.00  0.00     0.087 C 
ENDBRANCH  16  17
ENDBRANCH  15  16
ENDBRANCH  13  15
ENDBRANCH  11  12
ENDBRANCH   1  11
TORSDOF 9
ENDMDL
MODEL 8
REMARK VINA RESULT:    -5.014      5.239      9.190
REMARK INTER + INTRA:          -8.998
REMARK INTER:                  -6.753
REMARK INTRA:                  -2.245
REMARK UNBOUND:                -1.345
REMARK SMILES CC(=O)CCC=C(C)CCC=C(C)CCC=C(C)C
REMARK SMILES IDX 10 1 11 2 12 3 13 4 14 5 15 6 16 7 18 8 17 9 19 10 9 11 7 12
REMARK SMILES IDX 6 13 8 14 5 15 4 16 2 17 3 18 1 19
REMARK H PARENT
REMARK Flexibility Score: inf
ROOT
ATOM      1  C   UNL     1      17.642  33.922  29.835  1.00  0.00     0.032 C 
ENDROOT
BRANCH   1   2
ATOM      2  C   UNL     1      18.572  32.841  29.347  1.00  0.00    -0.028 C 
ATOM      3  C   UNL     1      19.227  31.976  30.155  1.00  0.00    -0.077 C 
ATOM      4  C   UNL     1      19.132  32.062  31.661  1.00  0.00     0.039 C 
BRANCH   3   5
ATOM      5  C   UNL     1      20.092  30.900  29.534  1.00  0.00     0.034 C 
BRANCH   5   6
ATOM      6  C   UNL     1      19.243  29.935  28.700  1.00  0.00     0.032 C 
BRANCH   6   7
ATOM      7  C   UNL     1      19.732  28.517  28.859  1.00  0.00    -0.028 C 
ATOM      8  C   UNL     1      19.677  26.058  28.580  1.00  0.00     0.039 C 
ATOM      9  C   UNL     1      19.114  27.435  28.336  1.00  0.00    -0.080 C 
ATOM     10  C   UNL     1      17.889  27.555  27.462  1.00  0.00     0.039 C 
ENDBRANCH   6   7
ENDBRANCH   5   6
ENDBRANCH   3   5
ENDBRANCH   1   2
BRANCH   1  11
ATOM     11  C   UNL     1      16.202  33.637  29.394  1.00  0.00     0.034 C 
BRANCH  11  12
ATOM     12  C   UNL     1      15.623  32.471  30.163  1.00  0.00    -0.077 C 
ATOM     13  C   UNL     1      15.264  31.353  29.491  1.00  0.00    -0.028 C 
ATOM     14  C   UNL     1      15.444  32.596  31.658  1.00  0.00     0.039 C 
BRANCH  13  15
ATOM     15  C   UNL     1      14.708  30.109  30.137  1.00  0.00     0.035 C 
BRANCH  15  16
ATOM     16  C   UNL     1      15.570  28.885  29.791  1.00  0.00     0.079 C 
BRANCH  16  17
ATOM     17  C   UNL     1      16.141  28.200  31.010  1.00  0.00     0.130 C 
ATOM     18  O   UNL     1      15.643  27.171  31.445  1.00  0.00    -0.300 OA
ATOM     19  C   UNL     1      17.339  28.776  31.701  1.00  0.00     0.087 C 
ENDBRANCH  16  17
ENDBRANCH  15  16
ENDBRANCH  13  15
ENDBRANCH  11  12
ENDBRANCH   1  11
TORSDOF 9
ENDMDL
MODEL 9
REMARK VINA RESULT:    -4.956      4.823      7.746
REMARK INTER + INTRA:          -8.910
REMARK INTER:                  -7.349
REMARK INTRA:                  -1.561
REMARK UNBOUND:                -1.345
REMARK SMILES CC(=O)CCC=C(C)CCC=C(C)CCC=C(C)C
REMARK SMILES IDX 10 1 11 2 12 3 13 4 14 5 15 6 16 7 18 8 17 9 19 10 9 11 7 12
REMARK SMILES IDX 6 13 8 14 5 15 4 16 2 17 3 18 1 19
REMARK H PARENT
REMARK Flexibility Score: inf
ROOT
ATOM      1  C   UNL     1      18.686  28.367  27.872  1.00  0.00     0.032 C 
ENDROOT
BRANCH   1   2
ATOM      2  C   UNL     1      17.383  27.698  28.227  1.00  0.00    -0.028 C 
ATOM      3  C   UNL     1      17.195  26.358  28.250  1.00  0.00    -0.077 C 
ATOM      4  C   UNL     1      18.284  25.392  27.846  1.00  0.00     0.039 C 
BRANCH   3   5
ATOM      5  C   UNL     1      15.850  25.812  28.677  1.00  0.00     0.034 C 
BRANCH   5   6
ATOM      6  C   UNL     1      15.122  25.169  27.492  1.00  0.00     0.032 C 
BRANCH   6   7
ATOM      7  C   UNL     1      14.740  23.744  27.807  1.00  0.00    -0.028 C 
ATOM      8  C   UNL     1      14.711  21.287  27.506  1.00  0.00     0.039 C 
ATOM      9  C   UNL     1      15.180  22.667  27.119  1.00  0.00    -0.080 C 
ATOM     10  C   UNL     1      16.175  22.787  25.991  1.00  0.00     0.039 C 
ENDBRANCH   6   7
ENDBRANCH   5   6
ENDBRANCH   3   5
ENDBRANCH   1   2
BRANCH   1  11
ATOM     11  C   UNL     1      19.458  28.756  29.137  1.00  0.00     0.034 C 
BRANCH  11  12
ATOM     12  C   UNL     1      18.850  29.980  29.784  1.00  0.00    -0.077 C 
ATOM     13  C   UNL     1      18.678  31.098  29.042  1.00  0.00    -0.028 C 
ATOM     14  C   UNL     1      18.471  29.926  31.246  1.00  0.00     0.039 C 
BRANCH  13  15
ATOM     15  C   UNL     1      18.054  32.374  29.551  1.00  0.00     0.035 C 
BRANCH  15  16
ATOM     16  C   UNL     1      16.609  32.510  29.050  1.00  0.00     0.079 C 
BRANCH  16  17
ATOM     17  C   UNL     1      15.597  31.883  29.980  1.00  0.00     0.130 C 
ATOM     18  O   UNL     1      15.262  32.442  31.015  1.00  0.00    -0.300 OA
ATOM     19  C   UNL     1      14.985  30.560  29.638  1.00  0.00     0.087 C 
ENDBRANCH  16  17
ENDBRANCH  15  16
ENDBRANCH  13  15
ENDBRANCH  11  12
ENDBRANCH   1  11
TORSDOF 9
ENDMDL
