MODEL 1
REMARK VINA RESULT:    -1.751      0.000      0.000
REMARK INTER + INTRA:          -1.751
REMARK INTER:                  -1.751
REMARK INTRA:                   0.000
REMARK UNBOUND:                 0.000
REMARK SMILES c1ccc2ccccc2c1
REMARK SMILES IDX 2 1 1 2 10 3 9 4 8 5 7 6 6 7 5 8 4 9 3 10
REMARK H PARENT
REMARK Flexibility Score: inf
ROOT
ATOM      1  C   UNL     1     -12.876 -20.407  82.695  1.00  0.00     0.001 A 
ATOM      2  C   UNL     1     -13.792 -20.764  81.702  1.00  0.00     0.001 A 
ATOM      3  C   UNL     1     -14.727 -21.775  81.938  1.00  0.00     0.009 A 
ATOM      4  C   UNL     1     -14.752 -22.438  83.175  1.00  0.00    -0.018 A 
ATOM      5  C   UNL     1     -15.685 -23.455  83.425  1.00  0.00     0.009 A 
ATOM      6  C   UNL     1     -15.698 -24.107  84.661  1.00  0.00     0.001 A 
ATOM      7  C   UNL     1     -14.782 -23.750  85.655  1.00  0.00     0.001 A 
ATOM      8  C   UNL     1     -13.847 -22.739  85.419  1.00  0.00     0.009 A 
ATOM      9  C   UNL     1     -13.822 -22.076  84.181  1.00  0.00    -0.018 A 
ATOM     10  C   UNL     1     -12.889 -21.059  83.932  1.00  0.00     0.009 A 
ENDROOT
TORSDOF 0
ENDMDL
MODEL 2
REMARK VINA RESULT:    -1.725      0.316      2.105
REMARK INTER + INTRA:          -1.725
REMARK INTER:                  -1.725
REMARK INTRA:                   0.000
REMARK UNBOUND:                 0.000
REMARK SMILES c1ccc2ccccc2c1
REMARK SMILES IDX 2 1 1 2 10 3 9 4 8 5 7 6 6 7 5 8 4 9 3 10
REMARK H PARENT
REMARK Flexibility Score: inf
ROOT
ATOM      1  C   UNL     1     -13.850 -20.989  81.853  1.00  0.00     0.001 A 
ATOM      2  C   UNL     1     -12.938 -20.651  82.857  1.00  0.00     0.001 A 
ATOM      3  C   UNL     1     -13.015 -21.260  84.112  1.00  0.00     0.009 A 
ATOM      4  C   UNL     1     -14.011 -22.216  84.372  1.00  0.00    -0.018 A 
ATOM      5  C   UNL     1     -14.100 -22.834  85.628  1.00  0.00     0.009 A 
ATOM      6  C   UNL     1     -15.096 -23.784  85.873  1.00  0.00     0.001 A 
ATOM      7  C   UNL     1     -16.008 -24.122  84.869  1.00  0.00     0.001 A 
ATOM      8  C   UNL     1     -15.931 -23.513  83.614  1.00  0.00     0.009 A 
ATOM      9  C   UNL     1     -14.936 -22.557  83.354  1.00  0.00    -0.018 A 
ATOM     10  C   UNL     1     -14.847 -21.938  82.098  1.00  0.00     0.009 A 
ENDROOT
TORSDOF 0
ENDMDL
MODEL 3
REMARK VINA RESULT:    -1.687      0.366      4.024
REMARK INTER + INTRA:          -1.687
REMARK INTER:                  -1.687
REMARK INTRA:                   0.000
REMARK UNBOUND:                 0.000
REMARK SMILES c1ccc2ccccc2c1
REMARK SMILES IDX 2 1 1 2 10 3 9 4 8 5 7 6 6 7 5 8 4 9 3 10
REMARK H PARENT
REMARK Flexibility Score: inf
ROOT
ATOM      1  C   UNL     1     -16.059 -24.216  84.667  1.00  0.00     0.001 A 
ATOM      2  C   UNL     1     -15.173 -23.980  85.722  1.00  0.00     0.001 A 
ATOM      3  C   UNL     1     -14.156 -23.031  85.588  1.00  0.00     0.009 A 
ATOM      4  C   UNL     1     -14.018 -22.309  84.391  1.00  0.00    -0.018 A 
ATOM      5  C   UNL     1     -13.001 -21.354  84.243  1.00  0.00     0.009 A 
ATOM      6  C   UNL     1     -12.876 -20.643  83.046  1.00  0.00     0.001 A 
ATOM      7  C   UNL     1     -13.762 -20.880  81.991  1.00  0.00     0.001 A 
ATOM      8  C   UNL     1     -14.779 -21.829  82.125  1.00  0.00     0.009 A 
ATOM      9  C   UNL     1     -14.916 -22.550  83.322  1.00  0.00    -0.018 A 
ATOM     10  C   UNL     1     -15.933 -23.505  83.469  1.00  0.00     0.009 A 
ENDROOT
TORSDOF 0
ENDMDL
MODEL 4
REMARK VINA RESULT:    -1.597      1.085      2.798
REMARK INTER + INTRA:          -1.597
REMARK INTER:                  -1.597
REMARK INTRA:                   0.000
REMARK UNBOUND:                 0.000
REMARK SMILES c1ccc2ccccc2c1
REMARK SMILES IDX 2 1 1 2 10 3 9 4 8 5 7 6 6 7 5 8 4 9 3 10
REMARK H PARENT
REMARK Flexibility Score: inf
ROOT
ATOM      1  C   UNL     1     -14.540 -20.449  79.968  1.00  0.00     0.001 A 
ATOM      2  C   UNL     1     -13.432 -19.702  80.382  1.00  0.00     0.001 A 
ATOM      3  C   UNL     1     -12.875 -19.912  81.646  1.00  0.00     0.009 A 
ATOM      4  C   UNL     1     -13.425 -20.874  82.508  1.00  0.00    -0.018 A 
ATOM      5  C   UNL     1     -12.875 -21.093  83.780  1.00  0.00     0.009 A 
ATOM      6  C   UNL     1     -13.433 -22.054  84.629  1.00  0.00     0.001 A 
ATOM      7  C   UNL     1     -14.540 -22.801  84.215  1.00  0.00     0.001 A 
ATOM      8  C   UNL     1     -15.097 -22.592  82.951  1.00  0.00     0.009 A 
ATOM      9  C   UNL     1     -14.547 -21.629  82.089  1.00  0.00    -0.018 A 
ATOM     10  C   UNL     1     -15.097 -21.410  80.817  1.00  0.00     0.009 A 
ENDROOT
TORSDOF 0
ENDMDL
MODEL 5
REMARK VINA RESULT:    -1.583      0.932      4.117
REMARK INTER + INTRA:          -1.583
REMARK INTER:                  -1.583
REMARK INTRA:                   0.000
REMARK UNBOUND:                 0.000
REMARK SMILES c1ccc2ccccc2c1
REMARK SMILES IDX 2 1 1 2 10 3 9 4 8 5 7 6 6 7 5 8 4 9 3 10
REMARK H PARENT
REMARK Flexibility Score: inf
ROOT
ATOM      1  C   UNL     1     -14.864 -23.270  84.426  1.00  0.00     0.001 A 
ATOM      2  C   UNL     1     -13.756 -22.631  84.989  1.00  0.00     0.001 A 
ATOM      3  C   UNL     1     -13.092 -21.623  84.285  1.00  0.00     0.009 A 
ATOM      4  C   UNL     1     -13.535 -21.246  83.007  1.00  0.00    -0.018 A 
ATOM      5  C   UNL     1     -12.878 -20.236  82.289  1.00  0.00     0.009 A 
ATOM      6  C   UNL     1     -13.330 -19.871  81.018  1.00  0.00     0.001 A 
ATOM      7  C   UNL     1     -14.438 -20.511  80.455  1.00  0.00     0.001 A 
ATOM      8  C   UNL     1     -15.102 -21.519  81.159  1.00  0.00     0.009 A 
ATOM      9  C   UNL     1     -14.658 -21.895  82.437  1.00  0.00    -0.018 A 
ATOM     10  C   UNL     1     -15.316 -22.905  83.155  1.00  0.00     0.009 A 
ENDROOT
TORSDOF 0
ENDMDL
MODEL 6
REMARK VINA RESULT:    -1.572      1.083      3.765
REMARK INTER + INTRA:          -1.572
REMARK INTER:                  -1.572
REMARK INTRA:                   0.000
REMARK UNBOUND:                 0.000
REMARK SMILES c1ccc2ccccc2c1
REMARK SMILES IDX 2 1 1 2 10 3 9 4 8 5 7 6 6 7 5 8 4 9 3 10
REMARK H PARENT
REMARK Flexibility Score: inf
ROOT
ATOM      1  C   UNL     1     -13.595 -22.172  84.644  1.00  0.00     0.001 A 
ATOM      2  C   UNL     1     -14.707 -22.886  84.187  1.00  0.00     0.001 A 
ATOM      3  C   UNL     1     -15.213 -22.656  82.905  1.00  0.00     0.009 A 
ATOM      4  C   UNL     1     -14.607 -21.705  82.068  1.00  0.00    -0.018 A 
ATOM      5  C   UNL     1     -15.105 -21.464  80.779  1.00  0.00     0.009 A 
ATOM      6  C   UNL     1     -14.492 -20.514  79.956  1.00  0.00     0.001 A 
ATOM      7  C   UNL     1     -13.381 -19.800  80.413  1.00  0.00     0.001 A 
ATOM      8  C   UNL     1     -12.875 -20.030  81.695  1.00  0.00     0.009 A 
ATOM      9  C   UNL     1     -13.481 -20.981  82.532  1.00  0.00    -0.018 A 
ATOM     10  C   UNL     1     -12.983 -21.222  83.821  1.00  0.00     0.009 A 
ENDROOT
TORSDOF 0
ENDMDL
MODEL 7
REMARK VINA RESULT:    -1.515      7.940      8.674
REMARK INTER + INTRA:          -1.515
REMARK INTER:                  -1.515
REMARK INTRA:                   0.000
REMARK UNBOUND:                 0.000
REMARK SMILES c1ccc2ccccc2c1
REMARK SMILES IDX 2 1 1 2 10 3 9 4 8 5 7 6 6 7 5 8 4 9 3 10
REMARK H PARENT
REMARK Flexibility Score: inf
ROOT
ATOM      1  C   UNL     1     -15.298 -13.991  86.120  1.00  0.00     0.001 A 
ATOM      2  C   UNL     1     -13.909 -14.150  86.125  1.00  0.00     0.001 A 
ATOM      3  C   UNL     1     -13.221 -14.367  84.928  1.00  0.00     0.009 A 
ATOM      4  C   UNL     1     -13.921 -14.425  83.713  1.00  0.00    -0.018 A 
ATOM      5  C   UNL     1     -13.243 -14.642  82.504  1.00  0.00     0.009 A 
ATOM      6  C   UNL     1     -13.953 -14.698  81.301  1.00  0.00     0.001 A 
ATOM      7  C   UNL     1     -15.342 -14.539  81.296  1.00  0.00     0.001 A 
ATOM      8  C   UNL     1     -16.030 -14.322  82.493  1.00  0.00     0.009 A 
ATOM      9  C   UNL     1     -15.329 -14.264  83.708  1.00  0.00    -0.018 A 
ATOM     10  C   UNL     1     -16.008 -14.047  84.917  1.00  0.00     0.009 A 
ENDROOT
TORSDOF 0
ENDMDL
MODEL 8
REMARK VINA RESULT:    -1.468      8.012      8.398
REMARK INTER + INTRA:          -1.468
REMARK INTER:                  -1.468
REMARK INTRA:                   0.000
REMARK UNBOUND:                 0.000
REMARK SMILES c1ccc2ccccc2c1
REMARK SMILES IDX 2 1 1 2 10 3 9 4 8 5 7 6 6 7 5 8 4 9 3 10
REMARK H PARENT
REMARK Flexibility Score: inf
ROOT
ATOM      1  C   UNL     1     -15.505 -14.502  81.343  1.00  0.00     0.001 A 
ATOM      2  C   UNL     1     -14.123 -14.672  81.215  1.00  0.00     0.001 A 
ATOM      3  C   UNL     1     -13.297 -14.595  82.340  1.00  0.00     0.009 A 
ATOM      4  C   UNL     1     -13.852 -14.347  83.605  1.00  0.00    -0.018 A 
ATOM      5  C   UNL     1     -13.034 -14.267  84.743  1.00  0.00     0.009 A 
ATOM      6  C   UNL     1     -13.599 -14.019  85.997  1.00  0.00     0.001 A 
ATOM      7  C   UNL     1     -14.981 -13.849  86.125  1.00  0.00     0.001 A 
ATOM      8  C   UNL     1     -15.806 -13.926  85.000  1.00  0.00     0.009 A 
ATOM      9  C   UNL     1     -15.252 -14.174  83.735  1.00  0.00    -0.018 A 
ATOM     10  C   UNL     1     -16.070 -14.254  82.597  1.00  0.00     0.009 A 
ENDROOT
TORSDOF 0
ENDMDL
