MODEL 1
REMARK VINA RESULT:    -6.041      0.000      0.000
REMARK INTER + INTRA:          -6.860
REMARK INTER:                  -6.571
REMARK INTRA:                  -0.289
REMARK UNBOUND:                -0.289
REMARK SMILES CC1(C)CC[C@]2(C(=O)[O-])CC[C@@]3(C)C(=CC[C@@H]4[C@]5(C)CC[C@H](O)C(C)(C)[C@H]5CC[C@@]43C)[C@@H]2C1
REMARK SMILES IDX 6 1 5 2 10 3 32 4 4 5 11 6 14 7 33 8 2 9 12 10 15 11 1 12
REMARK SMILES IDX 3 13 13 14 30 15 16 16 17 17 29 18 31 19 18 20 28 21 27 22
REMARK SMILES IDX 20 23 19 24 24 25 21 26 22 27 25 28 26 29 7 30 8 31 9 32
REMARK SMILES IDX 23 33
REMARK H PARENT 23 34
REMARK Flexibility Score: inf
ROOT
ATOM      1  C   UNL     1     103.997  82.265  24.010  1.00  0.00     0.017 C 
ATOM      2  C   UNL     1     103.942  82.870  25.442  1.00  0.00     0.014 C 
ATOM      3  C   UNL     1     105.250  82.855  23.293  1.00  0.00     0.014 C 
ATOM      4  C   UNL     1     102.685  82.627  23.180  1.00  0.00     0.028 C 
ATOM      5  C   UNL     1     102.640  82.500  26.174  1.00  0.00     0.007 C 
ATOM      6  C   UNL     1     105.396  82.395  21.819  1.00  0.00     0.013 C 
ATOM      7  C   UNL     1     103.051  83.212  21.784  1.00  0.00    -0.064 C 
ATOM      8  C   UNL     1     101.691  83.507  23.997  1.00  0.00     0.015 C 
ATOM      9  C   UNL     1     101.351  82.946  25.407  1.00  0.00    -0.035 C 
ATOM     10  C   UNL     1     104.070  82.421  20.957  1.00  0.00    -0.006 C 
ATOM     11  C   UNL     1     102.768  84.491  21.478  1.00  0.00    -0.027 C 
ATOM     12  C   UNL     1     100.365  81.764  25.284  1.00  0.00     0.011 C 
ATOM     13  C   UNL     1     100.643  84.063  26.210  1.00  0.00     0.011 C 
ATOM     14  C   UNL     1     103.518  80.959  20.827  1.00  0.00     0.017 C 
ATOM     15  C   UNL     1     104.327  83.018  19.471  1.00  0.00    -0.020 C 
ATOM     16  C   UNL     1     103.339  85.260  20.342  1.00  0.00     0.032 C 
ATOM     17  C   UNL     1     104.476  84.599  19.506  1.00  0.00     0.006 C 
ATOM     18  C   UNL     1     103.140  82.685  18.505  1.00  0.00     0.008 C 
ATOM     19  C   UNL     1     105.626  82.329  18.912  1.00  0.00     0.012 C 
ATOM     20  C   UNL     1     104.605  85.304  18.064  1.00  0.00    -0.025 C 
ATOM     21  C   UNL     1     103.245  83.320  17.100  1.00  0.00     0.005 C 
ATOM     22  C   UNL     1     103.390  84.858  17.157  1.00  0.00     0.003 C 
ATOM     23  C   UNL     1     104.566  86.868  18.199  1.00  0.00     0.010 C 
ATOM     24  C   UNL     1     105.999  84.954  17.448  1.00  0.00     0.012 C 
ATOM     25  C   UNL     1     103.250  85.599  15.765  1.00  0.00    -0.006 C 
ATOM     26  C   UNL     1     104.484  87.621  16.855  1.00  0.00     0.033 C 
ATOM     27  C   UNL     1     103.313  87.156  15.971  1.00  0.00     0.120 C 
ATOM     28  C   UNL     1     101.875  85.261  15.120  1.00  0.00     0.014 C 
ATOM     29  C   UNL     1     104.325  85.175  14.730  1.00  0.00     0.014 C 
ENDROOT
BRANCH   1  30
ATOM     30  C   UNL     1     104.185  80.757  24.183  1.00  0.00     0.048 C 
ATOM     31  O   UNL     1     105.283  80.294  24.595  1.00  0.00    -0.550 OA
ATOM     32  O   UNL     1     103.125  79.875  23.995  1.00  0.00    -0.550 OA
ENDBRANCH   1  30
BRANCH  27  33
ATOM     33  O   UNL     1     102.097  87.687  16.450  1.00  0.00    -0.393 OA
ATOM     34  H   UNL     1     102.219  87.948  17.397  1.00  0.00     0.210 HD
ENDBRANCH  27  33
TORSDOF 2
ENDMDL
MODEL 2
REMARK VINA RESULT:    -6.013     11.596     14.981
REMARK INTER + INTRA:          -6.829
REMARK INTER:                  -6.540
REMARK INTRA:                  -0.290
REMARK UNBOUND:                -0.289
REMARK SMILES CC1(C)CC[C@]2(C(=O)[O-])CC[C@@]3(C)C(=CC[C@@H]4[C@]5(C)CC[C@H](O)C(C)(C)[C@H]5CC[C@@]43C)[C@@H]2C1
REMARK SMILES IDX 6 1 5 2 10 3 32 4 4 5 11 6 14 7 33 8 2 9 12 10 15 11 1 12
REMARK SMILES IDX 3 13 13 14 30 15 16 16 17 17 29 18 31 19 18 20 28 21 27 22
REMARK SMILES IDX 20 23 19 24 24 25 21 26 22 27 25 28 26 29 7 30 8 31 9 32
REMARK SMILES IDX 23 33
REMARK H PARENT 23 34
REMARK Flexibility Score: inf
ROOT
ATOM      1  C   UNL     1     113.540  93.899  19.775  1.00  0.00     0.017 C 
ATOM      2  C   UNL     1     114.221  92.533  19.473  1.00  0.00     0.014 C 
ATOM      3  C   UNL     1     113.562  94.110  21.319  1.00  0.00     0.014 C 
ATOM      4  C   UNL     1     112.034  93.921  19.252  1.00  0.00     0.028 C 
ATOM      5  C   UNL     1     114.087  92.137  17.993  1.00  0.00     0.007 C 
ATOM      6  C   UNL     1     112.847  95.408  21.779  1.00  0.00     0.013 C 
ATOM      7  C   UNL     1     111.064  94.411  20.367  1.00  0.00    -0.064 C 
ATOM      8  C   UNL     1     111.617  92.571  18.593  1.00  0.00     0.015 C 
ATOM      9  C   UNL     1     112.602  92.059  17.506  1.00  0.00    -0.035 C 
ATOM     10  C   UNL     1     111.452  95.703  21.093  1.00  0.00    -0.006 C 
ATOM     11  C   UNL     1     110.146  93.580  20.894  1.00  0.00    -0.027 C 
ATOM     12  C   UNL     1     112.423  92.870  16.202  1.00  0.00     0.011 C 
ATOM     13  C   UNL     1     112.246  90.586  17.192  1.00  0.00     0.011 C 
ATOM     14  C   UNL     1     111.649  96.804  19.994  1.00  0.00     0.017 C 
ATOM     15  C   UNL     1     110.350  96.222  22.164  1.00  0.00    -0.020 C 
ATOM     16  C   UNL     1     109.397  93.802  22.159  1.00  0.00     0.032 C 
ATOM     17  C   UNL     1     109.797  95.021  23.044  1.00  0.00     0.006 C 
ATOM     18  C   UNL     1     109.121  96.879  21.450  1.00  0.00     0.008 C 
ATOM     19  C   UNL     1     111.047  97.316  23.054  1.00  0.00     0.012 C 
ATOM     20  C   UNL     1     108.601  95.408  24.051  1.00  0.00    -0.025 C 
ATOM     21  C   UNL     1     107.966  97.292  22.389  1.00  0.00     0.005 C 
ATOM     22  C   UNL     1     107.443  96.110  23.237  1.00  0.00     0.003 C 
ATOM     23  C   UNL     1     108.009  94.126  24.738  1.00  0.00     0.010 C 
ATOM     24  C   UNL     1     109.174  96.295  25.204  1.00  0.00     0.012 C 
ATOM     25  C   UNL     1     106.103  96.393  24.033  1.00  0.00    -0.006 C 
ATOM     26  C   UNL     1     106.733  94.379  25.566  1.00  0.00     0.033 C 
ATOM     27  C   UNL     1     105.624  95.089  24.768  1.00  0.00     0.120 C 
ATOM     28  C   UNL     1     104.980  96.822  23.046  1.00  0.00     0.014 C 
ATOM     29  C   UNL     1     106.231  97.545  25.064  1.00  0.00     0.014 C 
ENDROOT
BRANCH   1  30
ATOM     30  C   UNL     1     114.407  94.971  19.112  1.00  0.00     0.048 C 
ATOM     31  O   UNL     1     115.553  95.236  19.567  1.00  0.00    -0.550 OA
ATOM     32  O   UNL     1     114.002  95.598  17.937  1.00  0.00    -0.550 OA
ENDBRANCH   1  30
BRANCH  27  33
ATOM     33  O   UNL     1     104.990  94.180  23.896  1.00  0.00    -0.393 OA
ATOM     34  H   UNL     1     104.687  94.672  23.092  1.00  0.00     0.210 HD
ENDBRANCH  27  33
TORSDOF 2
ENDMDL
MODEL 3
REMARK VINA RESULT:    -5.869      2.108      3.831
REMARK INTER + INTRA:          -6.673
REMARK INTER:                  -6.382
REMARK INTRA:                  -0.291
REMARK UNBOUND:                -0.289
REMARK SMILES CC1(C)CC[C@]2(C(=O)[O-])CC[C@@]3(C)C(=CC[C@@H]4[C@]5(C)CC[C@H](O)C(C)(C)[C@H]5CC[C@@]43C)[C@@H]2C1
REMARK SMILES IDX 6 1 5 2 10 3 32 4 4 5 11 6 14 7 33 8 2 9 12 10 15 11 1 12
REMARK SMILES IDX 3 13 13 14 30 15 16 16 17 17 29 18 31 19 18 20 28 21 27 22
REMARK SMILES IDX 20 23 19 24 24 25 21 26 22 27 25 28 26 29 7 30 8 31 9 32
REMARK SMILES IDX 23 33
REMARK H PARENT 23 34
REMARK Flexibility Score: inf
ROOT
ATOM      1  C   UNL     1     102.275  82.081  22.844  1.00  0.00     0.017 C 
ATOM      2  C   UNL     1     102.440  80.605  23.306  1.00  0.00     0.014 C 
ATOM      3  C   UNL     1     101.770  82.063  21.368  1.00  0.00     0.014 C 
ATOM      4  C   UNL     1     103.657  82.871  22.928  1.00  0.00     0.028 C 
ATOM      5  C   UNL     1     103.112  80.506  24.687  1.00  0.00     0.007 C 
ATOM      6  C   UNL     1     101.628  83.475  20.743  1.00  0.00     0.013 C 
ATOM      7  C   UNL     1     103.957  83.614  21.593  1.00  0.00    -0.064 C 
ATOM      8  C   UNL     1     104.824  81.968  23.430  1.00  0.00     0.015 C 
ATOM      9  C   UNL     1     104.516  81.193  24.742  1.00  0.00    -0.035 C 
ATOM     10  C   UNL     1     102.825  84.472  21.019  1.00  0.00    -0.006 C 
ATOM     11  C   UNL     1     104.999  83.252  20.823  1.00  0.00    -0.027 C 
ATOM     12  C   UNL     1     104.597  82.149  25.954  1.00  0.00     0.011 C 
ATOM     13  C   UNL     1     105.605  80.111  24.928  1.00  0.00     0.011 C 
ATOM     14  C   UNL     1     102.399  85.480  22.142  1.00  0.00     0.017 C 
ATOM     15  C   UNL     1     103.233  85.308  19.690  1.00  0.00    -0.020 C 
ATOM     16  C   UNL     1     105.206  83.639  19.403  1.00  0.00     0.032 C 
ATOM     17  C   UNL     1     104.060  84.408  18.677  1.00  0.00     0.006 C 
ATOM     18  C   UNL     1     104.123  86.548  20.043  1.00  0.00     0.008 C 
ATOM     19  C   UNL     1     101.897  85.828  19.041  1.00  0.00     0.012 C 
ATOM     20  C   UNL     1     104.626  85.180  17.383  1.00  0.00    -0.025 C 
ATOM     21  C   UNL     1     104.658  87.333  18.825  1.00  0.00     0.005 C 
ATOM     22  C   UNL     1     105.460  86.438  17.852  1.00  0.00     0.003 C 
ATOM     23  C   UNL     1     105.573  84.250  16.544  1.00  0.00     0.010 C 
ATOM     24  C   UNL     1     103.430  85.544  16.444  1.00  0.00     0.012 C 
ATOM     25  C   UNL     1     106.249  87.214  16.719  1.00  0.00    -0.006 C 
ATOM     26  C   UNL     1     106.316  84.966  15.397  1.00  0.00     0.033 C 
ATOM     27  C   UNL     1     107.101  86.206  15.865  1.00  0.00     0.120 C 
ATOM     28  C   UNL     1     107.228  88.238  17.360  1.00  0.00     0.014 C 
ATOM     29  C   UNL     1     105.327  88.033  15.777  1.00  0.00     0.014 C 
ENDROOT
BRANCH   1  30
ATOM     30  C   UNL     1     101.193  82.695  23.734  1.00  0.00     0.048 C 
ATOM     31  O   UNL     1      99.987  82.348  23.603  1.00  0.00    -0.550 OA
ATOM     32  O   UNL     1     101.522  83.563  24.770  1.00  0.00    -0.550 OA
ENDBRANCH   1  30
BRANCH  27  33
ATOM     33  O   UNL     1     108.289  85.816  16.516  1.00  0.00    -0.393 OA
ATOM     34  H   UNL     1     109.051  86.275  16.083  1.00  0.00     0.210 HD
ENDBRANCH  27  33
TORSDOF 2
ENDMDL
MODEL 4
REMARK VINA RESULT:    -5.832      5.486      9.205
REMARK INTER + INTRA:          -6.633
REMARK INTER:                  -6.344
REMARK INTRA:                  -0.289
REMARK UNBOUND:                -0.289
REMARK SMILES CC1(C)CC[C@]2(C(=O)[O-])CC[C@@]3(C)C(=CC[C@@H]4[C@]5(C)CC[C@H](O)C(C)(C)[C@H]5CC[C@@]43C)[C@@H]2C1
REMARK SMILES IDX 6 1 5 2 10 3 32 4 4 5 11 6 14 7 33 8 2 9 12 10 15 11 1 12
REMARK SMILES IDX 3 13 13 14 30 15 16 16 17 17 29 18 31 19 18 20 28 21 27 22
REMARK SMILES IDX 20 23 19 24 24 25 21 26 22 27 25 28 26 29 7 30 8 31 9 32
REMARK SMILES IDX 23 33
REMARK H PARENT 23 34
REMARK Flexibility Score: inf
ROOT
ATOM      1  C   UNL     1     105.403  84.747  15.882  1.00  0.00     0.017 C 
ATOM      2  C   UNL     1     104.903  83.349  15.417  1.00  0.00     0.014 C 
ATOM      3  C   UNL     1     105.831  85.544  14.611  1.00  0.00     0.014 C 
ATOM      4  C   UNL     1     106.643  84.616  16.875  1.00  0.00     0.028 C 
ATOM      5  C   UNL     1     104.631  82.411  16.606  1.00  0.00     0.007 C 
ATOM      6  C   UNL     1     106.425  86.942  14.926  1.00  0.00     0.013 C 
ATOM      7  C   UNL     1     107.817  85.536  16.426  1.00  0.00    -0.064 C 
ATOM      8  C   UNL     1     107.055  83.132  17.115  1.00  0.00     0.015 C 
ATOM      9  C   UNL     1     105.880  82.200  17.526  1.00  0.00    -0.035 C 
ATOM     10  C   UNL     1     107.463  86.995  16.118  1.00  0.00    -0.006 C 
ATOM     11  C   UNL     1     108.980  85.010  16.001  1.00  0.00    -0.027 C 
ATOM     12  C   UNL     1     105.502  82.443  19.005  1.00  0.00     0.011 C 
ATOM     13  C   UNL     1     106.362  80.736  17.402  1.00  0.00     0.011 C 
ATOM     14  C   UNL     1     106.749  87.571  17.390  1.00  0.00     0.017 C 
ATOM     15  C   UNL     1     108.741  87.929  15.765  1.00  0.00    -0.020 C 
ATOM     16  C   UNL     1     110.039  85.735  15.250  1.00  0.00     0.032 C 
ATOM     17  C   UNL     1     109.736  87.188  14.775  1.00  0.00     0.006 C 
ATOM     18  C   UNL     1     109.556  88.297  17.052  1.00  0.00     0.008 C 
ATOM     19  C   UNL     1     108.185  89.259  15.136  1.00  0.00     0.012 C 
ATOM     20  C   UNL     1     111.104  87.979  14.463  1.00  0.00    -0.025 C 
ATOM     21  C   UNL     1     110.859  89.085  16.794  1.00  0.00     0.005 C 
ATOM     22  C   UNL     1     111.813  88.347  15.827  1.00  0.00     0.003 C 
ATOM     23  C   UNL     1     112.089  87.089  13.625  1.00  0.00     0.010 C 
ATOM     24  C   UNL     1     110.781  89.225  13.577  1.00  0.00     0.012 C 
ATOM     25  C   UNL     1     113.267  88.965  15.713  1.00  0.00    -0.006 C 
ATOM     26  C   UNL     1     113.498  87.690  13.449  1.00  0.00     0.033 C 
ATOM     27  C   UNL     1     114.165  88.070  14.784  1.00  0.00     0.120 C 
ATOM     28  C   UNL     1     113.935  89.013  17.116  1.00  0.00     0.014 C 
ATOM     29  C   UNL     1     113.276  90.424  15.183  1.00  0.00     0.014 C 
ENDROOT
BRANCH   1  30
ATOM     30  C   UNL     1     104.205  85.443  16.528  1.00  0.00     0.048 C 
ATOM     31  O   UNL     1     103.238  85.837  15.820  1.00  0.00    -0.550 OA
ATOM     32  O   UNL     1     104.103  85.563  17.910  1.00  0.00    -0.550 OA
ENDBRANCH   1  30
BRANCH  27  33
ATOM     33  O   UNL     1     114.637  86.915  15.441  1.00  0.00    -0.393 OA
ATOM     34  H   UNL     1     114.037  86.159  15.220  1.00  0.00     0.210 HD
ENDBRANCH  27  33
TORSDOF 2
ENDMDL
MODEL 5
REMARK VINA RESULT:    -5.546      1.851      7.998
REMARK INTER + INTRA:          -6.322
REMARK INTER:                  -6.032
REMARK INTRA:                  -0.290
REMARK UNBOUND:                -0.289
REMARK SMILES CC1(C)CC[C@]2(C(=O)[O-])CC[C@@]3(C)C(=CC[C@@H]4[C@]5(C)CC[C@H](O)C(C)(C)[C@H]5CC[C@@]43C)[C@@H]2C1
REMARK SMILES IDX 6 1 5 2 10 3 32 4 4 5 11 6 14 7 33 8 2 9 12 10 15 11 1 12
REMARK SMILES IDX 3 13 13 14 30 15 16 16 17 17 29 18 31 19 18 20 28 21 27 22
REMARK SMILES IDX 20 23 19 24 24 25 21 26 22 27 25 28 26 29 7 30 8 31 9 32
REMARK SMILES IDX 23 33
REMARK H PARENT 23 34
REMARK Flexibility Score: inf
ROOT
ATOM      1  C   UNL     1     103.742  87.164  17.575  1.00  0.00     0.017 C 
ATOM      2  C   UNL     1     103.239  88.622  17.373  1.00  0.00     0.014 C 
ATOM      3  C   UNL     1     102.492  86.252  17.765  1.00  0.00     0.014 C 
ATOM      4  C   UNL     1     104.688  87.051  18.853  1.00  0.00     0.028 C 
ATOM      5  C   UNL     1     104.397  89.635  17.362  1.00  0.00     0.007 C 
ATOM      6  C   UNL     1     102.844  84.768  18.052  1.00  0.00     0.013 C 
ATOM      7  C   UNL     1     104.240  85.881  19.777  1.00  0.00    -0.064 C 
ATOM      8  C   UNL     1     104.855  88.415  19.588  1.00  0.00     0.015 C 
ATOM      9  C   UNL     1     105.266  89.595  18.663  1.00  0.00    -0.035 C 
ATOM     10  C   UNL     1     104.002  84.527  19.102  1.00  0.00    -0.006 C 
ATOM     11  C   UNL     1     103.756  86.125  21.009  1.00  0.00    -0.027 C 
ATOM     12  C   UNL     1     106.765  89.489  18.302  1.00  0.00     0.011 C 
ATOM     13  C   UNL     1     105.067  90.913  19.448  1.00  0.00     0.011 C 
ATOM     14  C   UNL     1     105.319  84.163  18.331  1.00  0.00     0.017 C 
ATOM     15  C   UNL     1     103.646  83.324  20.129  1.00  0.00    -0.020 C 
ATOM     16  C   UNL     1     103.000  85.161  21.852  1.00  0.00     0.032 C 
ATOM     17  C   UNL     1     102.594  83.795  21.221  1.00  0.00     0.006 C 
ATOM     18  C   UNL     1     104.919  82.827  20.895  1.00  0.00     0.008 C 
ATOM     19  C   UNL     1     103.089  82.129  19.269  1.00  0.00     0.012 C 
ATOM     20  C   UNL     1     102.270  82.713  22.368  1.00  0.00    -0.025 C 
ATOM     21  C   UNL     1     104.650  81.764  21.983  1.00  0.00     0.005 C 
ATOM     22  C   UNL     1     103.623  82.242  23.035  1.00  0.00     0.003 C 
ATOM     23  C   UNL     1     101.364  83.337  23.489  1.00  0.00     0.010 C 
ATOM     24  C   UNL     1     101.446  81.540  21.745  1.00  0.00     0.012 C 
ATOM     25  C   UNL     1     103.487  81.316  24.312  1.00  0.00    -0.006 C 
ATOM     26  C   UNL     1     101.167  82.435  24.724  1.00  0.00     0.033 C 
ATOM     27  C   UNL     1     102.494  81.961  25.346  1.00  0.00     0.120 C 
ATOM     28  C   UNL     1     104.869  81.167  25.010  1.00  0.00     0.014 C 
ATOM     29  C   UNL     1     103.016  79.875  23.981  1.00  0.00     0.014 C 
ENDROOT
BRANCH   1  30
ATOM     30  C   UNL     1     104.455  86.769  16.280  1.00  0.00     0.048 C 
ATOM     31  O   UNL     1     103.798  86.592  15.219  1.00  0.00    -0.550 OA
ATOM     32  O   UNL     1     105.844  86.703  16.216  1.00  0.00    -0.550 OA
ENDBRANCH   1  30
BRANCH  27  33
ATOM     33  O   UNL     1     103.088  83.005  26.085  1.00  0.00    -0.393 OA
ATOM     34  H   UNL     1     103.964  82.692  26.424  1.00  0.00     0.210 HD
ENDBRANCH  27  33
TORSDOF 2
ENDMDL
MODEL 6
REMARK VINA RESULT:    -5.525     11.553     14.950
REMARK INTER + INTRA:          -6.299
REMARK INTER:                  -6.010
REMARK INTRA:                  -0.289
REMARK UNBOUND:                -0.289
REMARK SMILES CC1(C)CC[C@]2(C(=O)[O-])CC[C@@]3(C)C(=CC[C@@H]4[C@]5(C)CC[C@H](O)C(C)(C)[C@H]5CC[C@@]43C)[C@@H]2C1
REMARK SMILES IDX 6 1 5 2 10 3 32 4 4 5 11 6 14 7 33 8 2 9 12 10 15 11 1 12
REMARK SMILES IDX 3 13 13 14 30 15 16 16 17 17 29 18 31 19 18 20 28 21 27 22
REMARK SMILES IDX 20 23 19 24 24 25 21 26 22 27 25 28 26 29 7 30 8 31 9 32
REMARK SMILES IDX 23 33
REMARK H PARENT 23 34
REMARK Flexibility Score: inf
ROOT
ATOM      1  C   UNL     1     112.442  95.311  18.646  1.00  0.00     0.017 C 
ATOM      2  C   UNL     1     113.954  94.955  18.731  1.00  0.00     0.014 C 
ATOM      3  C   UNL     1     112.188  96.532  19.583  1.00  0.00     0.014 C 
ATOM      4  C   UNL     1     111.532  94.085  19.104  1.00  0.00     0.028 C 
ATOM      5  C   UNL     1     114.280  93.647  17.989  1.00  0.00     0.007 C 
ATOM      6  C   UNL     1     110.699  96.958  19.658  1.00  0.00     0.013 C 
ATOM      7  C   UNL     1     110.478  94.536  20.157  1.00  0.00    -0.064 C 
ATOM      8  C   UNL     1     112.379  92.851  19.540  1.00  0.00     0.015 C 
ATOM      9  C   UNL     1     113.459  92.420  18.508  1.00  0.00    -0.035 C 
ATOM     10  C   UNL     1     109.654  95.780  19.811  1.00  0.00    -0.006 C 
ATOM     11  C   UNL     1     110.531  94.082  21.422  1.00  0.00    -0.027 C 
ATOM     12  C   UNL     1     112.797  91.678  17.325  1.00  0.00     0.011 C 
ATOM     13  C   UNL     1     114.417  91.425  19.205  1.00  0.00     0.011 C 
ATOM     14  C   UNL     1     108.982  95.513  18.419  1.00  0.00     0.017 C 
ATOM     15  C   UNL     1     108.498  96.136  20.892  1.00  0.00    -0.020 C 
ATOM     16  C   UNL     1     109.812  94.665  22.586  1.00  0.00     0.032 C 
ATOM     17  C   UNL     1     109.043  96.004  22.377  1.00  0.00     0.006 C 
ATOM     18  C   UNL     1     107.272  95.170  20.759  1.00  0.00     0.008 C 
ATOM     19  C   UNL     1     108.009  97.599  20.585  1.00  0.00     0.012 C 
ATOM     20  C   UNL     1     107.937  96.209  23.530  1.00  0.00    -0.025 C 
ATOM     21  C   UNL     1     106.175  95.358  21.831  1.00  0.00     0.005 C 
ATOM     22  C   UNL     1     106.727  95.227  23.269  1.00  0.00     0.003 C 
ATOM     23  C   UNL     1     108.535  95.882  24.945  1.00  0.00     0.010 C 
ATOM     24  C   UNL     1     107.517  97.714  23.571  1.00  0.00     0.012 C 
ATOM     25  C   UNL     1     105.627  95.156  24.407  1.00  0.00    -0.006 C 
ATOM     26  C   UNL     1     107.496  95.860  26.085  1.00  0.00     0.033 C 
ATOM     27  C   UNL     1     106.308  94.921  25.804  1.00  0.00     0.120 C 
ATOM     28  C   UNL     1     104.664  93.964  24.142  1.00  0.00     0.014 C 
ATOM     29  C   UNL     1     104.733  96.422  24.480  1.00  0.00     0.014 C 
ENDROOT
BRANCH   1  30
ATOM     30  C   UNL     1     112.177  95.730  17.199  1.00  0.00     0.048 C 
ATOM     31  O   UNL     1     112.634  96.819  16.756  1.00  0.00    -0.550 OA
ATOM     32  O   UNL     1     111.524  94.879  16.312  1.00  0.00    -0.550 OA
ENDBRANCH   1  30
BRANCH  27  33
ATOM     33  O   UNL     1     106.690  93.577  25.999  1.00  0.00    -0.393 OA
ATOM     34  H   UNL     1     106.778  93.143  25.114  1.00  0.00     0.210 HD
ENDBRANCH  27  33
TORSDOF 2
ENDMDL
MODEL 7
REMARK VINA RESULT:    -5.494      7.066     11.868
REMARK INTER + INTRA:          -6.265
REMARK INTER:                  -5.975
REMARK INTRA:                  -0.289
REMARK UNBOUND:                -0.289
REMARK SMILES CC1(C)CC[C@]2(C(=O)[O-])CC[C@@]3(C)C(=CC[C@@H]4[C@]5(C)CC[C@H](O)C(C)(C)[C@H]5CC[C@@]43C)[C@@H]2C1
REMARK SMILES IDX 6 1 5 2 10 3 32 4 4 5 11 6 14 7 33 8 2 9 12 10 15 11 1 12
REMARK SMILES IDX 3 13 13 14 30 15 16 16 17 17 29 18 31 19 18 20 28 21 27 22
REMARK SMILES IDX 20 23 19 24 24 25 21 26 22 27 25 28 26 29 7 30 8 31 9 32
REMARK SMILES IDX 23 33
REMARK H PARENT 23 34
REMARK Flexibility Score: inf
ROOT
ATOM      1  C   UNL     1     113.688  88.634  15.253  1.00  0.00     0.017 C 
ATOM      2  C   UNL     1     115.033  87.895  15.505  1.00  0.00     0.014 C 
ATOM      3  C   UNL     1     112.866  88.589  16.577  1.00  0.00     0.014 C 
ATOM      4  C   UNL     1     112.858  87.941  14.082  1.00  0.00     0.028 C 
ATOM      5  C   UNL     1     115.844  87.717  14.209  1.00  0.00     0.007 C 
ATOM      6  C   UNL     1     111.458  89.229  16.456  1.00  0.00     0.013 C 
ATOM      7  C   UNL     1     111.389  87.672  14.523  1.00  0.00    -0.064 C 
ATOM      8  C   UNL     1     113.586  86.692  13.500  1.00  0.00     0.015 C 
ATOM      9  C   UNL     1     115.065  86.945  13.093  1.00  0.00    -0.035 C 
ATOM     10  C   UNL     1     110.639  88.848  15.157  1.00  0.00    -0.006 C 
ATOM     11  C   UNL     1     110.932  86.415  14.662  1.00  0.00    -0.027 C 
ATOM     12  C   UNL     1     115.123  87.728  11.762  1.00  0.00     0.011 C 
ATOM     13  C   UNL     1     115.740  85.574  12.857  1.00  0.00     0.011 C 
ATOM     14  C   UNL     1     110.713  90.040  14.142  1.00  0.00     0.017 C 
ATOM     15  C   UNL     1     109.082  88.540  15.494  1.00  0.00    -0.020 C 
ATOM     16  C   UNL     1     109.690  86.015  15.376  1.00  0.00     0.032 C 
ATOM     17  C   UNL     1     108.912  87.111  16.164  1.00  0.00     0.006 C 
ATOM     18  C   UNL     1     108.202  88.554  14.198  1.00  0.00     0.008 C 
ATOM     19  C   UNL     1     108.578  89.687  16.445  1.00  0.00     0.012 C 
ATOM     20  C   UNL     1     107.389  86.654  16.419  1.00  0.00    -0.025 C 
ATOM     21  C   UNL     1     106.726  88.150  14.410  1.00  0.00     0.005 C 
ATOM     22  C   UNL     1     106.583  86.757  15.064  1.00  0.00     0.003 C 
ATOM     23  C   UNL     1     107.326  85.165  16.914  1.00  0.00     0.010 C 
ATOM     24  C   UNL     1     106.782  87.522  17.569  1.00  0.00     0.012 C 
ATOM     25  C   UNL     1     105.112  86.169  15.081  1.00  0.00    -0.006 C 
ATOM     26  C   UNL     1     105.900  84.581  16.994  1.00  0.00     0.033 C 
ATOM     27  C   UNL     1     105.117  84.714  15.675  1.00  0.00     0.120 C 
ATOM     28  C   UNL     1     104.556  86.088  13.631  1.00  0.00     0.014 C 
ATOM     29  C   UNL     1     104.108  87.045  15.877  1.00  0.00     0.014 C 
ENDROOT
BRANCH   1  30
ATOM     30  C   UNL     1     114.046  90.088  14.938  1.00  0.00     0.048 C 
ATOM     31  O   UNL     1     114.486  90.847  15.844  1.00  0.00    -0.550 OA
ATOM     32  O   UNL     1     113.997  90.574  13.635  1.00  0.00    -0.550 OA
ENDBRANCH   1  30
BRANCH  27  33
ATOM     33  O   UNL     1     105.560  83.752  14.744  1.00  0.00    -0.393 OA
ATOM     34  H   UNL     1     106.549  83.717  14.774  1.00  0.00     0.210 HD
ENDBRANCH  27  33
TORSDOF 2
ENDMDL
MODEL 8
REMARK VINA RESULT:    -5.476     11.840     14.169
REMARK INTER + INTRA:          -6.246
REMARK INTER:                  -5.961
REMARK INTRA:                  -0.285
REMARK UNBOUND:                -0.289
REMARK SMILES CC1(C)CC[C@]2(C(=O)[O-])CC[C@@]3(C)C(=CC[C@@H]4[C@]5(C)CC[C@H](O)C(C)(C)[C@H]5CC[C@@]43C)[C@@H]2C1
REMARK SMILES IDX 6 1 5 2 10 3 32 4 4 5 11 6 14 7 33 8 2 9 12 10 15 11 1 12
REMARK SMILES IDX 3 13 13 14 30 15 16 16 17 17 29 18 31 19 18 20 28 21 27 22
REMARK SMILES IDX 20 23 19 24 24 25 21 26 22 27 25 28 26 29 7 30 8 31 9 32
REMARK SMILES IDX 23 33
REMARK H PARENT 23 34
REMARK Flexibility Score: inf
ROOT
ATOM      1  C   UNL     1     110.166  97.024  21.794  1.00  0.00     0.017 C 
ATOM      2  C   UNL     1     108.717  97.533  22.039  1.00  0.00     0.014 C 
ATOM      3  C   UNL     1     110.504  97.261  20.291  1.00  0.00     0.014 C 
ATOM      4  C   UNL     1     110.299  95.473  22.136  1.00  0.00     0.028 C 
ATOM      5  C   UNL     1     108.212  97.177  23.448  1.00  0.00     0.007 C 
ATOM      6  C   UNL     1     111.903  96.732  19.878  1.00  0.00     0.013 C 
ATOM      7  C   UNL     1     110.979  94.701  20.967  1.00  0.00    -0.064 C 
ATOM      8  C   UNL     1     108.949  94.853  22.607  1.00  0.00     0.015 C 
ATOM      9  C   UNL     1     108.246  95.641  23.748  1.00  0.00    -0.035 C 
ATOM     10  C   UNL     1     112.281  95.295  20.421  1.00  0.00    -0.006 C 
ATOM     11  C   UNL     1     110.296  93.784  20.258  1.00  0.00    -0.027 C 
ATOM     12  C   UNL     1     108.957  95.374  25.093  1.00  0.00     0.011 C 
ATOM     13  C   UNL     1     106.797  95.115  23.873  1.00  0.00     0.011 C 
ATOM     14  C   UNL     1     113.259  95.452  21.637  1.00  0.00     0.017 C 
ATOM     15  C   UNL     1     113.000  94.390  19.283  1.00  0.00    -0.020 C 
ATOM     16  C   UNL     1     110.701  93.225  18.941  1.00  0.00     0.032 C 
ATOM     17  C   UNL     1     111.943  93.844  18.232  1.00  0.00     0.006 C 
ATOM     18  C   UNL     1     113.718  93.146  19.908  1.00  0.00     0.008 C 
ATOM     19  C   UNL     1     114.089  95.291  18.591  1.00  0.00     0.012 C 
ATOM     20  C   UNL     1     112.535  92.826  17.134  1.00  0.00    -0.025 C 
ATOM     21  C   UNL     1     114.326  92.162  18.884  1.00  0.00     0.005 C 
ATOM     22  C   UNL     1     113.281  91.644  17.871  1.00  0.00     0.003 C 
ATOM     23  C   UNL     1     111.384  92.210  16.261  1.00  0.00     0.010 C 
ATOM     24  C   UNL     1     113.453  93.619  16.147  1.00  0.00     0.012 C 
ATOM     25  C   UNL     1     113.768  90.447  16.954  1.00  0.00    -0.006 C 
ATOM     26  C   UNL     1     111.838  91.078  15.317  1.00  0.00     0.033 C 
ATOM     27  C   UNL     1     112.588  89.946  16.045  1.00  0.00     0.120 C 
ATOM     28  C   UNL     1     114.225  89.253  17.839  1.00  0.00     0.014 C 
ATOM     29  C   UNL     1     114.984  90.810  16.062  1.00  0.00     0.014 C 
ENDROOT
BRANCH   1  30
ATOM     30  C   UNL     1     111.082  97.895  22.655  1.00  0.00     0.048 C 
ATOM     31  O   UNL     1     111.310  99.094  22.334  1.00  0.00    -0.550 OA
ATOM     32  O   UNL     1     111.596  97.426  23.860  1.00  0.00    -0.550 OA
ENDBRANCH   1  30
BRANCH  27  33
ATOM     33  O   UNL     1     111.678  89.127  16.744  1.00  0.00    -0.393 OA
ATOM     34  H   UNL     1     110.994  89.705  17.167  1.00  0.00     0.210 HD
ENDBRANCH  27  33
TORSDOF 2
ENDMDL
MODEL 9
REMARK VINA RESULT:    -5.410      5.752     10.430
REMARK INTER + INTRA:          -6.174
REMARK INTER:                  -5.884
REMARK INTRA:                  -0.290
REMARK UNBOUND:                -0.289
REMARK SMILES CC1(C)CC[C@]2(C(=O)[O-])CC[C@@]3(C)C(=CC[C@@H]4[C@]5(C)CC[C@H](O)C(C)(C)[C@H]5CC[C@@]43C)[C@@H]2C1
REMARK SMILES IDX 6 1 5 2 10 3 32 4 4 5 11 6 14 7 33 8 2 9 12 10 15 11 1 12
REMARK SMILES IDX 3 13 13 14 30 15 16 16 17 17 29 18 31 19 18 20 28 21 27 22
REMARK SMILES IDX 20 23 19 24 24 25 21 26 22 27 25 28 26 29 7 30 8 31 9 32
REMARK SMILES IDX 23 33
REMARK H PARENT 23 34
REMARK Flexibility Score: inf
ROOT
ATOM      1  C   UNL     1     111.316  88.803  14.322  1.00  0.00     0.017 C 
ATOM      2  C   UNL     1     111.944  90.223  14.419  1.00  0.00     0.014 C 
ATOM      3  C   UNL     1     109.861  88.963  13.785  1.00  0.00     0.014 C 
ATOM      4  C   UNL     1     111.286  88.086  15.746  1.00  0.00     0.028 C 
ATOM      5  C   UNL     1     113.315  90.200  15.116  1.00  0.00     0.007 C 
ATOM      6  C   UNL     1     109.079  87.626  13.703  1.00  0.00     0.013 C 
ATOM      7  C   UNL     1     109.869  87.519  16.055  1.00  0.00    -0.064 C 
ATOM      8  C   UNL     1     111.869  88.989  16.875  1.00  0.00     0.015 C 
ATOM      9  C   UNL     1     113.268  89.589  16.556  1.00  0.00    -0.035 C 
ATOM     10  C   UNL     1     109.217  86.671  14.957  1.00  0.00    -0.006 C 
ATOM     11  C   UNL     1     109.129  88.025  17.058  1.00  0.00    -0.027 C 
ATOM     12  C   UNL     1     114.358  88.506  16.715  1.00  0.00     0.011 C 
ATOM     13  C   UNL     1     113.560  90.701  17.591  1.00  0.00     0.011 C 
ATOM     14  C   UNL     1     110.222  85.519  14.611  1.00  0.00     0.017 C 
ATOM     15  C   UNL     1     107.794  86.017  15.378  1.00  0.00    -0.020 C 
ATOM     16  C   UNL     1     107.670  87.815  17.253  1.00  0.00     0.032 C 
ATOM     17  C   UNL     1     106.879  87.073  16.134  1.00  0.00     0.006 C 
ATOM     18  C   UNL     1     107.986  84.796  16.341  1.00  0.00     0.008 C 
ATOM     19  C   UNL     1     107.111  85.502  14.058  1.00  0.00     0.012 C 
ATOM     20  C   UNL     1     105.494  86.487  16.710  1.00  0.00    -0.025 C 
ATOM     21  C   UNL     1     106.676  84.187  16.889  1.00  0.00     0.005 C 
ATOM     22  C   UNL     1     105.801  85.231  17.620  1.00  0.00     0.003 C 
ATOM     23  C   UNL     1     104.754  87.557  17.588  1.00  0.00     0.010 C 
ATOM     24  C   UNL     1     104.540  86.167  15.514  1.00  0.00     0.012 C 
ATOM     25  C   UNL     1     104.573  84.635  18.423  1.00  0.00    -0.006 C 
ATOM     26  C   UNL     1     103.520  87.020  18.341  1.00  0.00     0.033 C 
ATOM     27  C   UNL     1     103.827  85.780  19.201  1.00  0.00     0.120 C 
ATOM     28  C   UNL     1     105.075  83.600  19.469  1.00  0.00     0.014 C 
ATOM     29  C   UNL     1     103.557  83.880  17.525  1.00  0.00     0.014 C 
ENDROOT
BRANCH   1  30
ATOM     30  C   UNL     1     112.146  88.032  13.295  1.00  0.00     0.048 C 
ATOM     31  O   UNL     1     112.094  88.339  12.073  1.00  0.00    -0.550 OA
ATOM     32  O   UNL     1     113.052  87.053  13.692  1.00  0.00    -0.550 OA
ENDBRANCH   1  30
BRANCH  27  33
ATOM     33  O   UNL     1     104.500  86.158  20.381  1.00  0.00    -0.393 OA
ATOM     34  H   UNL     1     104.026  86.929  20.781  1.00  0.00     0.210 HD
ENDBRANCH  27  33
TORSDOF 2
ENDMDL
