MODEL 1
REMARK VINA RESULT:    -3.507      0.000      0.000
REMARK INTER + INTRA:          -3.729
REMARK INTER:                  -3.712
REMARK INTRA:                  -0.017
REMARK UNBOUND:                -0.017
REMARK SMILES O=C([O-])c1cccnc1
REMARK SMILES IDX 4 1 5 2 9 3 6 4 8 5 7 6 2 7 1 8 3 9
REMARK H PARENT
REMARK Flexibility Score: inf
ROOT
ATOM      1  C   UNL     1      49.704 -28.532 -31.710  1.00  0.00     0.016 A 
ATOM      2  C   UNL     1      48.616 -28.272 -32.561  1.00  0.00     0.013 A 
ATOM      3  C   UNL     1      49.452 -29.155 -30.476  1.00  0.00     0.120 A 
ATOM      4  C   UNL     1      47.323 -28.629 -32.175  1.00  0.00     0.021 A 
ATOM      5  N   UNL     1      48.183 -29.491 -30.124  1.00  0.00    -0.264 NA
ATOM      6  C   UNL     1      47.123 -29.244 -30.939  1.00  0.00     0.111 A 
ENDROOT
BRANCH   1   7
ATOM      7  C   UNL     1      51.081 -28.163 -32.101  1.00  0.00     0.073 C 
ATOM      8  O   UNL     1      51.430 -26.952 -32.150  1.00  0.00    -0.545 OA
ATOM      9  O   UNL     1      52.011 -29.146 -32.418  1.00  0.00    -0.545 OA
ENDBRANCH   1   7
TORSDOF 1
ENDMDL
MODEL 2
REMARK VINA RESULT:    -3.484      1.098      1.444
REMARK INTER + INTRA:          -3.705
REMARK INTER:                  -3.684
REMARK INTRA:                  -0.020
REMARK UNBOUND:                -0.017
REMARK SMILES O=C([O-])c1cccnc1
REMARK SMILES IDX 4 1 5 2 9 3 6 4 8 5 7 6 2 7 1 8 3 9
REMARK H PARENT
REMARK Flexibility Score: inf
ROOT
ATOM      1  C   UNL     1      48.839 -28.439 -31.814  1.00  0.00     0.016 A 
ATOM      2  C   UNL     1      47.477 -28.371 -32.151  1.00  0.00     0.013 A 
ATOM      3  C   UNL     1      49.202 -29.107 -30.632  1.00  0.00     0.120 A 
ATOM      4  C   UNL     1      46.519 -28.958 -31.322  1.00  0.00     0.021 A 
ATOM      5  N   UNL     1      48.249 -29.669 -29.842  1.00  0.00    -0.264 NA
ATOM      6  C   UNL     1      46.928 -29.609 -30.158  1.00  0.00     0.111 A 
ENDROOT
BRANCH   1   7
ATOM      7  C   UNL     1      49.868 -27.825 -32.679  1.00  0.00     0.073 C 
ATOM      8  O   UNL     1      49.795 -27.926 -33.934  1.00  0.00    -0.545 OA
ATOM      9  O   UNL     1      50.934 -27.127 -32.121  1.00  0.00    -0.545 OA
ENDBRANCH   1   7
TORSDOF 1
ENDMDL
MODEL 3
REMARK VINA RESULT:    -3.478      2.956      3.679
REMARK INTER + INTRA:          -3.698
REMARK INTER:                  -3.675
REMARK INTRA:                  -0.023
REMARK UNBOUND:                -0.017
REMARK SMILES O=C([O-])c1cccnc1
REMARK SMILES IDX 4 1 5 2 9 3 6 4 8 5 7 6 2 7 1 8 3 9
REMARK H PARENT
REMARK Flexibility Score: inf
ROOT
ATOM      1  C   UNL     1      48.268 -28.743 -31.573  1.00  0.00     0.016 A 
ATOM      2  C   UNL     1      48.628 -28.124 -32.781  1.00  0.00     0.013 A 
ATOM      3  C   UNL     1      49.290 -29.112 -30.681  1.00  0.00     0.120 A 
ATOM      4  C   UNL     1      49.972 -27.888 -33.076  1.00  0.00     0.021 A 
ATOM      5  N   UNL     1      50.591 -28.872 -30.993  1.00  0.00    -0.264 NA
ATOM      6  C   UNL     1      50.951 -28.275 -32.160  1.00  0.00     0.111 A 
ENDROOT
BRANCH   1   7
ATOM      7  C   UNL     1      46.851 -29.000 -31.241  1.00  0.00     0.073 C 
ATOM      8  O   UNL     1      45.931 -28.362 -31.821  1.00  0.00    -0.545 OA
ATOM      9  O   UNL     1      46.511 -29.951 -30.285  1.00  0.00    -0.545 OA
ENDBRANCH   1   7
TORSDOF 1
ENDMDL
MODEL 4
REMARK VINA RESULT:    -3.395      3.090      4.115
REMARK INTER + INTRA:          -3.610
REMARK INTER:                  -3.587
REMARK INTRA:                  -0.023
REMARK UNBOUND:                -0.017
REMARK SMILES O=C([O-])c1cccnc1
REMARK SMILES IDX 4 1 5 2 9 3 6 4 8 5 7 6 2 7 1 8 3 9
REMARK H PARENT
REMARK Flexibility Score: inf
ROOT
ATOM      1  C   UNL     1      48.236 -28.763 -31.565  1.00  0.00     0.016 A 
ATOM      2  C   UNL     1      49.294 -29.092 -30.702  1.00  0.00     0.013 A 
ATOM      3  C   UNL     1      48.542 -28.150 -32.792  1.00  0.00     0.120 A 
ATOM      4  C   UNL     1      50.612 -28.812 -31.068  1.00  0.00     0.021 A 
ATOM      5  N   UNL     1      49.833 -27.887 -33.125  1.00  0.00    -0.264 NA
ATOM      6  C   UNL     1      50.864 -28.201 -32.297  1.00  0.00     0.111 A 
ENDROOT
BRANCH   1   7
ATOM      7  C   UNL     1      46.834 -29.053 -31.196  1.00  0.00     0.073 C 
ATOM      8  O   UNL     1      46.568 -29.911 -30.311  1.00  0.00    -0.545 OA
ATOM      9  O   UNL     1      45.788 -28.382 -31.820  1.00  0.00    -0.545 OA
ENDBRANCH   1   7
TORSDOF 1
ENDMDL
MODEL 5
REMARK VINA RESULT:    -3.395     15.739     16.820
REMARK INTER + INTRA:          -3.610
REMARK INTER:                  -3.590
REMARK INTRA:                  -0.020
REMARK UNBOUND:                -0.017
REMARK SMILES O=C([O-])c1cccnc1
REMARK SMILES IDX 4 1 5 2 9 3 6 4 8 5 7 6 2 7 1 8 3 9
REMARK H PARENT
REMARK Flexibility Score: inf
ROOT
ATOM      1  C   UNL     1      38.629 -40.676 -28.820  1.00  0.00     0.016 A 
ATOM      2  C   UNL     1      39.054 -41.230 -30.039  1.00  0.00     0.013 A 
ATOM      3  C   UNL     1      38.076 -41.533 -27.853  1.00  0.00     0.120 A 
ATOM      4  C   UNL     1      38.925 -42.601 -30.269  1.00  0.00     0.021 A 
ATOM      5  N   UNL     1      37.961 -42.864 -28.103  1.00  0.00    -0.264 NA
ATOM      6  C   UNL     1      38.369 -43.411 -29.279  1.00  0.00     0.111 A 
ENDROOT
BRANCH   1   7
ATOM      7  C   UNL     1      38.758 -39.227 -28.557  1.00  0.00     0.073 C 
ATOM      8  O   UNL     1      38.456 -38.384 -29.444  1.00  0.00    -0.545 OA
ATOM      9  O   UNL     1      39.215 -38.773 -27.324  1.00  0.00    -0.545 OA
ENDBRANCH   1   7
TORSDOF 1
ENDMDL
MODEL 6
REMARK VINA RESULT:    -3.364     12.979     13.526
REMARK INTER + INTRA:          -3.578
REMARK INTER:                  -3.561
REMARK INTRA:                  -0.017
REMARK UNBOUND:                -0.017
REMARK SMILES O=C([O-])c1cccnc1
REMARK SMILES IDX 4 1 5 2 9 3 6 4 8 5 7 6 2 7 1 8 3 9
REMARK H PARENT
REMARK Flexibility Score: inf
ROOT
ATOM      1  C   UNL     1      54.102 -41.126 -31.898  1.00  0.00     0.016 A 
ATOM      2  C   UNL     1      52.726 -41.005 -31.637  1.00  0.00     0.013 A 
ATOM      3  C   UNL     1      54.895 -41.833 -30.978  1.00  0.00     0.120 A 
ATOM      4  C   UNL     1      52.176 -41.579 -30.490  1.00  0.00     0.021 A 
ATOM      5  N   UNL     1      54.335 -42.382 -29.868  1.00  0.00    -0.264 NA
ATOM      6  C   UNL     1      53.006 -42.270 -29.606  1.00  0.00     0.111 A 
ENDROOT
BRANCH   1   7
ATOM      7  C   UNL     1      54.703 -40.527 -33.108  1.00  0.00     0.073 C 
ATOM      8  O   UNL     1      55.461 -39.523 -33.017  1.00  0.00    -0.545 OA
ATOM      9  O   UNL     1      54.442 -41.063 -34.364  1.00  0.00    -0.545 OA
ENDBRANCH   1   7
TORSDOF 1
ENDMDL
MODEL 7
REMARK VINA RESULT:    -3.350      0.933      1.603
REMARK INTER + INTRA:          -3.563
REMARK INTER:                  -3.546
REMARK INTRA:                  -0.017
REMARK UNBOUND:                -0.017
REMARK SMILES O=C([O-])c1cccnc1
REMARK SMILES IDX 4 1 5 2 9 3 6 4 8 5 7 6 2 7 1 8 3 9
REMARK H PARENT
REMARK Flexibility Score: inf
ROOT
ATOM      1  C   UNL     1      49.628 -28.517 -31.674  1.00  0.00     0.016 A 
ATOM      2  C   UNL     1      49.328 -29.148 -30.455  1.00  0.00     0.013 A 
ATOM      3  C   UNL     1      48.572 -28.242 -32.561  1.00  0.00     0.120 A 
ATOM      4  C   UNL     1      48.009 -29.487 -30.146  1.00  0.00     0.021 A 
ATOM      5  N   UNL     1      47.297 -28.584 -32.236  1.00  0.00    -0.264 NA
ATOM      6  C   UNL     1      46.996 -29.194 -31.060  1.00  0.00     0.111 A 
ENDROOT
BRANCH   1   7
ATOM      7  C   UNL     1      51.017 -28.149 -32.020  1.00  0.00     0.073 C 
ATOM      8  O   UNL     1      51.362 -26.938 -32.085  1.00  0.00    -0.545 OA
ATOM      9  O   UNL     1      51.964 -29.135 -32.277  1.00  0.00    -0.545 OA
ENDBRANCH   1   7
TORSDOF 1
ENDMDL
MODEL 8
REMARK VINA RESULT:    -3.248     13.074     13.653
REMARK INTER + INTRA:          -3.454
REMARK INTER:                  -3.438
REMARK INTRA:                  -0.016
REMARK UNBOUND:                -0.017
REMARK SMILES O=C([O-])c1cccnc1
REMARK SMILES IDX 4 1 5 2 9 3 6 4 8 5 7 6 2 7 1 8 3 9
REMARK H PARENT
REMARK Flexibility Score: inf
ROOT
ATOM      1  C   UNL     1      53.152 -41.232 -31.150  1.00  0.00     0.016 A 
ATOM      2  C   UNL     1      53.382 -40.808 -32.469  1.00  0.00     0.013 A 
ATOM      3  C   UNL     1      54.234 -41.239 -30.252  1.00  0.00     0.120 A 
ATOM      4  C   UNL     1      54.659 -40.405 -32.864  1.00  0.00     0.021 A 
ATOM      5  N   UNL     1      55.468 -40.843 -30.663  1.00  0.00    -0.264 NA
ATOM      6  C   UNL     1      55.701 -40.431 -31.937  1.00  0.00     0.111 A 
ENDROOT
BRANCH   1   7
ATOM      7  C   UNL     1      51.807 -41.661 -30.711  1.00  0.00     0.073 C 
ATOM      8  O   UNL     1      51.514 -42.886 -30.644  1.00  0.00    -0.545 OA
ATOM      9  O   UNL     1      50.845 -40.718 -30.364  1.00  0.00    -0.545 OA
ENDBRANCH   1   7
TORSDOF 1
ENDMDL
MODEL 9
REMARK VINA RESULT:    -3.126      1.724      2.059
REMARK INTER + INTRA:          -3.325
REMARK INTER:                  -3.306
REMARK INTRA:                  -0.020
REMARK UNBOUND:                -0.017
REMARK SMILES O=C([O-])c1cccnc1
REMARK SMILES IDX 4 1 5 2 9 3 6 4 8 5 7 6 2 7 1 8 3 9
REMARK H PARENT
REMARK Flexibility Score: inf
ROOT
ATOM      1  C   UNL     1      50.504 -27.771 -31.866  1.00  0.00     0.016 A 
ATOM      2  C   UNL     1      49.437 -28.246 -32.647  1.00  0.00     0.013 A 
ATOM      3  C   UNL     1      50.227 -26.833 -30.857  1.00  0.00     0.120 A 
ATOM      4  C   UNL     1      48.139 -27.788 -32.414  1.00  0.00     0.021 A 
ATOM      5  N   UNL     1      48.954 -26.403 -30.651  1.00  0.00    -0.264 NA
ATOM      6  C   UNL     1      47.914 -26.855 -31.401  1.00  0.00     0.111 A 
ENDROOT
BRANCH   1   7
ATOM      7  C   UNL     1      51.885 -28.244 -32.096  1.00  0.00     0.073 C 
ATOM      8  O   UNL     1      52.125 -29.473 -32.247  1.00  0.00    -0.545 OA
ATOM      9  O   UNL     1      52.941 -27.340 -32.150  1.00  0.00    -0.545 OA
ENDBRANCH   1   7
TORSDOF 1
ENDMDL
