MODEL 1
REMARK VINA RESULT:    -3.213      0.000      0.000
REMARK INTER + INTRA:          -8.766
REMARK INTER:                  -6.217
REMARK INTRA:                  -2.548
REMARK UNBOUND:                -2.548
REMARK SMILES CCCCCCCCCCCCCCCCCC(=O)[O-]
REMARK SMILES IDX 10 1 11 2 12 3 13 4 14 5 15 6 16 7 17 8 18 9 19 10 20 11
REMARK SMILES IDX 9 12 8 13 7 14 6 15 5 16 4 17 3 18 2 19 1 20
REMARK H PARENT
REMARK Flexibility Score: inf
ROOT
ATOM      1  C   UNL     1     -16.608 -14.464  27.807  1.00  0.00     0.000 C 
ENDROOT
BRANCH   1   2
ATOM      2  C   UNL     1     -15.588 -14.913  26.751  1.00  0.00     0.000 C 
BRANCH   2   3
ATOM      3  C   UNL     1     -15.287 -16.418  26.823  1.00  0.00     0.000 C 
BRANCH   3   4
ATOM      4  C   UNL     1     -15.980 -17.103  28.016  1.00  0.00     0.000 C 
BRANCH   4   5
ATOM      5  C   UNL     1     -14.980 -17.613  29.066  1.00  0.00     0.000 C 
BRANCH   5   6
ATOM      6  C   UNL     1     -14.847 -16.665  30.266  1.00  0.00     0.000 C 
BRANCH   6   7
ATOM      7  C   UNL     1     -13.682 -15.685  30.064  1.00  0.00     0.006 C 
BRANCH   7   8
ATOM      8  C   UNL     1     -12.469 -16.353  29.402  1.00  0.00     0.053 C 
BRANCH   8   9
ATOM      9  C   UNL     1     -11.482 -16.848  30.415  1.00  0.00     0.041 C 
ATOM     10  O   UNL     1     -10.341 -17.234  30.050  1.00  0.00    -0.550 OA
ATOM     11  O   UNL     1     -11.834 -16.907  31.758  1.00  0.00    -0.550 OA
ENDBRANCH   8   9
ENDBRANCH   7   8
ENDBRANCH   6   7
ENDBRANCH   5   6
ENDBRANCH   4   5
ENDBRANCH   3   4
ENDBRANCH   2   3
ENDBRANCH   1   2
BRANCH   1  12
ATOM     12  C   UNL     1     -16.868 -12.954  27.711  1.00  0.00     0.000 C 
BRANCH  12  13
ATOM     13  C   UNL     1     -18.100 -12.663  26.840  1.00  0.00    -0.000 C 
BRANCH  13  14
ATOM     14  C   UNL     1     -17.755 -11.857  25.578  1.00  0.00    -0.000 C 
BRANCH  14  15
ATOM     15  C   UNL     1     -18.317 -12.492  24.297  1.00  0.00    -0.000 C 
BRANCH  15  16
ATOM     16  C   UNL     1     -17.350 -13.547  23.738  1.00  0.00    -0.000 C 
BRANCH  16  17
ATOM     17  C   UNL     1     -18.058 -14.853  23.338  1.00  0.00    -0.000 C 
BRANCH  17  18
ATOM     18  C   UNL     1     -19.143 -15.268  24.345  1.00  0.00    -0.000 C 
BRANCH  18  19
ATOM     19  C   UNL     1     -18.671 -16.384  25.291  1.00  0.00    -0.003 C 
ATOM     20  C   UNL     1     -17.988 -17.536  24.555  1.00  0.00     0.004 C 
ENDBRANCH  18  19
ENDBRANCH  17  18
ENDBRANCH  16  17
ENDBRANCH  15  16
ENDBRANCH  14  15
ENDBRANCH  13  14
ENDBRANCH  12  13
ENDBRANCH   1  12
TORSDOF 16
ENDMDL
MODEL 2
REMARK VINA RESULT:    -3.116      9.051     11.096
REMARK INTER + INTRA:          -8.580
REMARK INTER:                  -6.373
REMARK INTRA:                  -2.206
REMARK UNBOUND:                -2.548
REMARK SMILES CCCCCCCCCCCCCCCCCC(=O)[O-]
REMARK SMILES IDX 10 1 11 2 12 3 13 4 14 5 15 6 16 7 17 8 18 9 19 10 20 11
REMARK SMILES IDX 9 12 8 13 7 14 6 15 5 16 4 17 3 18 2 19 1 20
REMARK H PARENT
REMARK Flexibility Score: inf
ROOT
ATOM      1  C   UNL     1     -10.570 -22.877  19.363  1.00  0.00     0.000 C 
ENDROOT
BRANCH   1   2
ATOM      2  C   UNL     1     -11.442 -21.766  18.759  1.00  0.00     0.000 C 
BRANCH   2   3
ATOM      3  C   UNL     1     -10.677 -20.445  18.584  1.00  0.00     0.000 C 
BRANCH   3   4
ATOM      4  C   UNL     1     -10.675 -19.589  19.864  1.00  0.00     0.000 C 
BRANCH   4   5
ATOM      5  C   UNL     1      -9.273 -19.453  20.480  1.00  0.00     0.000 C 
BRANCH   5   6
ATOM      6  C   UNL     1      -8.175 -19.282  19.419  1.00  0.00     0.000 C 
BRANCH   6   7
ATOM      7  C   UNL     1      -7.043 -18.386  19.941  1.00  0.00     0.006 C 
BRANCH   7   8
ATOM      8  C   UNL     1      -6.488 -18.873  21.286  1.00  0.00     0.053 C 
BRANCH   8   9
ATOM      9  C   UNL     1      -5.562 -17.870  21.904  1.00  0.00     0.041 C 
ATOM     10  O   UNL     1      -4.353 -18.162  22.099  1.00  0.00    -0.550 OA
ATOM     11  O   UNL     1      -6.041 -16.624  22.287  1.00  0.00    -0.550 OA
ENDBRANCH   8   9
ENDBRANCH   7   8
ENDBRANCH   6   7
ENDBRANCH   5   6
ENDBRANCH   4   5
ENDBRANCH   3   4
ENDBRANCH   2   3
ENDBRANCH   1   2
BRANCH   1  12
ATOM     12  C   UNL     1     -10.969 -23.158  20.818  1.00  0.00     0.000 C 
BRANCH  12  13
ATOM     13  C   UNL     1     -12.095 -24.203  20.886  1.00  0.00    -0.000 C 
BRANCH  13  14
ATOM     14  C   UNL     1     -12.716 -24.312  22.288  1.00  0.00    -0.000 C 
BRANCH  14  15
ATOM     15  C   UNL     1     -11.911 -23.553  23.354  1.00  0.00    -0.000 C 
BRANCH  15  16
ATOM     16  C   UNL     1     -12.777 -22.483  24.036  1.00  0.00    -0.000 C 
BRANCH  16  17
ATOM     17  C   UNL     1     -12.682 -21.112  23.347  1.00  0.00    -0.000 C 
BRANCH  17  18
ATOM     18  C   UNL     1     -13.997 -20.701  22.666  1.00  0.00    -0.000 C 
BRANCH  18  19
ATOM     19  C   UNL     1     -13.922 -20.798  21.133  1.00  0.00    -0.003 C 
ATOM     20  C   UNL     1     -14.911 -21.810  20.555  1.00  0.00     0.004 C 
ENDBRANCH  18  19
ENDBRANCH  17  18
ENDBRANCH  16  17
ENDBRANCH  15  16
ENDBRANCH  14  15
ENDBRANCH  13  14
ENDBRANCH  12  13
ENDBRANCH   1  12
TORSDOF 16
ENDMDL
MODEL 3
REMARK VINA RESULT:    -3.065      8.571     10.420
REMARK INTER + INTRA:          -8.480
REMARK INTER:                  -5.344
REMARK INTRA:                  -3.136
REMARK UNBOUND:                -2.548
REMARK SMILES CCCCCCCCCCCCCCCCCC(=O)[O-]
REMARK SMILES IDX 10 1 11 2 12 3 13 4 14 5 15 6 16 7 17 8 18 9 19 10 20 11
REMARK SMILES IDX 9 12 8 13 7 14 6 15 5 16 4 17 3 18 2 19 1 20
REMARK H PARENT
REMARK Flexibility Score: inf
ROOT
ATOM      1  C   UNL     1     -13.479 -20.944  17.833  1.00  0.00     0.000 C 
ENDROOT
BRANCH   1   2
ATOM      2  C   UNL     1     -13.975 -22.080  18.740  1.00  0.00     0.000 C 
BRANCH   2   3
ATOM      3  C   UNL     1     -14.727 -21.562  19.976  1.00  0.00     0.000 C 
BRANCH   3   4
ATOM      4  C   UNL     1     -14.044 -21.966  21.296  1.00  0.00     0.000 C 
BRANCH   4   5
ATOM      5  C   UNL     1     -14.059 -20.836  22.338  1.00  0.00     0.000 C 
BRANCH   5   6
ATOM      6  C   UNL     1     -12.868 -20.908  23.304  1.00  0.00     0.000 C 
BRANCH   6   7
ATOM      7  C   UNL     1     -12.355 -22.349  23.436  1.00  0.00     0.006 C 
BRANCH   7   8
ATOM      8  C   UNL     1     -12.801 -23.008  24.747  1.00  0.00     0.053 C 
BRANCH   8   9
ATOM      9  C   UNL     1     -14.008 -23.875  24.553  1.00  0.00     0.041 C 
ATOM     10  O   UNL     1     -13.877 -25.119  24.413  1.00  0.00    -0.550 OA
ATOM     11  O   UNL     1     -15.274 -23.304  24.500  1.00  0.00    -0.550 OA
ENDBRANCH   8   9
ENDBRANCH   7   8
ENDBRANCH   6   7
ENDBRANCH   5   6
ENDBRANCH   4   5
ENDBRANCH   3   4
ENDBRANCH   2   3
ENDBRANCH   1   2
BRANCH   1  12
ATOM     12  C   UNL     1     -13.899 -19.576  18.386  1.00  0.00     0.000 C 
BRANCH  12  13
ATOM     13  C   UNL     1     -12.672 -18.692  18.657  1.00  0.00    -0.000 C 
BRANCH  13  14
ATOM     14  C   UNL     1     -12.184 -18.787  20.111  1.00  0.00    -0.000 C 
BRANCH  14  15
ATOM     15  C   UNL     1     -10.738 -19.295  20.221  1.00  0.00    -0.000 C 
BRANCH  15  16
ATOM     16  C   UNL     1     -10.705 -20.824  20.371  1.00  0.00    -0.000 C 
BRANCH  16  17
ATOM     17  C   UNL     1     -10.009 -21.524  19.191  1.00  0.00    -0.000 C 
BRANCH  17  18
ATOM     18  C   UNL     1     -10.492 -22.970  18.995  1.00  0.00    -0.000 C 
BRANCH  18  19
ATOM     19  C   UNL     1     -10.858 -23.653  20.323  1.00  0.00    -0.003 C 
ATOM     20  C   UNL     1     -10.295 -25.069  20.437  1.00  0.00     0.004 C 
ENDBRANCH  18  19
ENDBRANCH  17  18
ENDBRANCH  16  17
ENDBRANCH  15  16
ENDBRANCH  14  15
ENDBRANCH  13  14
ENDBRANCH  12  13
ENDBRANCH   1  12
TORSDOF 16
ENDMDL
MODEL 4
REMARK VINA RESULT:    -3.029      1.871      3.262
REMARK INTER + INTRA:          -8.410
REMARK INTER:                  -5.908
REMARK INTRA:                  -2.502
REMARK UNBOUND:                -2.548
REMARK SMILES CCCCCCCCCCCCCCCCCC(=O)[O-]
REMARK SMILES IDX 10 1 11 2 12 3 13 4 14 5 15 6 16 7 17 8 18 9 19 10 20 11
REMARK SMILES IDX 9 12 8 13 7 14 6 15 5 16 4 17 3 18 2 19 1 20
REMARK H PARENT
REMARK Flexibility Score: inf
ROOT
ATOM      1  C   UNL     1     -16.974 -13.807  25.088  1.00  0.00     0.000 C 
ENDROOT
BRANCH   1   2
ATOM      2  C   UNL     1     -18.278 -13.614  25.876  1.00  0.00     0.000 C 
BRANCH   2   3
ATOM      3  C   UNL     1     -18.131 -13.984  27.360  1.00  0.00     0.000 C 
BRANCH   3   4
ATOM      4  C   UNL     1     -16.998 -13.204  28.054  1.00  0.00     0.000 C 
BRANCH   4   5
ATOM      5  C   UNL     1     -16.000 -14.128  28.771  1.00  0.00     0.000 C 
BRANCH   5   6
ATOM      6  C   UNL     1     -14.917 -14.673  27.828  1.00  0.00     0.000 C 
BRANCH   6   7
ATOM      7  C   UNL     1     -14.962 -16.206  27.769  1.00  0.00     0.006 C 
BRANCH   7   8
ATOM      8  C   UNL     1     -15.894 -16.802  28.833  1.00  0.00     0.053 C 
BRANCH   8   9
ATOM      9  C   UNL     1     -15.132 -17.550  29.884  1.00  0.00     0.041 C 
ATOM     10  O   UNL     1     -13.895 -17.744  29.751  1.00  0.00    -0.550 OA
ATOM     11  O   UNL     1     -15.793 -18.055  30.996  1.00  0.00    -0.550 OA
ENDBRANCH   8   9
ENDBRANCH   7   8
ENDBRANCH   6   7
ENDBRANCH   5   6
ENDBRANCH   4   5
ENDBRANCH   3   4
ENDBRANCH   2   3
ENDBRANCH   1   2
BRANCH   1  12
ATOM     12  C   UNL     1     -17.150 -13.383  23.624  1.00  0.00     0.000 C 
BRANCH  12  13
ATOM     13  C   UNL     1     -18.382 -12.480  23.458  1.00  0.00    -0.000 C 
BRANCH  13  14
ATOM     14  C   UNL     1     -19.043 -12.628  22.079  1.00  0.00    -0.000 C 
BRANCH  14  15
ATOM     15  C   UNL     1     -18.735 -13.980  21.415  1.00  0.00    -0.000 C 
BRANCH  15  16
ATOM     16  C   UNL     1     -19.872 -14.983  21.661  1.00  0.00    -0.000 C 
BRANCH  16  17
ATOM     17  C   UNL     1     -19.366 -16.350  22.150  1.00  0.00    -0.000 C 
BRANCH  17  18
ATOM     18  C   UNL     1     -19.308 -16.444  23.683  1.00  0.00    -0.000 C 
BRANCH  18  19
ATOM     19  C   UNL     1     -18.084 -17.232  24.179  1.00  0.00    -0.003 C 
ATOM     20  C   UNL     1     -18.030 -17.347  25.702  1.00  0.00     0.004 C 
ENDBRANCH  18  19
ENDBRANCH  17  18
ENDBRANCH  16  17
ENDBRANCH  15  16
ENDBRANCH  14  15
ENDBRANCH  13  14
ENDBRANCH  12  13
ENDBRANCH   1  12
TORSDOF 16
ENDMDL
MODEL 5
REMARK VINA RESULT:    -3.017      1.505      3.113
REMARK INTER + INTRA:          -8.388
REMARK INTER:                  -5.783
REMARK INTRA:                  -2.605
REMARK UNBOUND:                -2.548
REMARK SMILES CCCCCCCCCCCCCCCCCC(=O)[O-]
REMARK SMILES IDX 10 1 11 2 12 3 13 4 14 5 15 6 16 7 17 8 18 9 19 10 20 11
REMARK SMILES IDX 9 12 8 13 7 14 6 15 5 16 4 17 3 18 2 19 1 20
REMARK H PARENT
REMARK Flexibility Score: inf
ROOT
ATOM      1  C   UNL     1     -15.615 -15.841  26.484  1.00  0.00     0.000 C 
ENDROOT
BRANCH   1   2
ATOM      2  C   UNL     1     -15.299 -16.612  27.773  1.00  0.00     0.000 C 
BRANCH   2   3
ATOM      3  C   UNL     1     -15.387 -15.728  29.027  1.00  0.00     0.000 C 
BRANCH   3   4
ATOM      4  C   UNL     1     -14.645 -14.389  28.859  1.00  0.00     0.000 C 
BRANCH   4   5
ATOM      5  C   UNL     1     -13.535 -14.194  29.904  1.00  0.00     0.000 C 
BRANCH   5   6
ATOM      6  C   UNL     1     -12.128 -14.284  29.297  1.00  0.00     0.000 C 
BRANCH   6   7
ATOM      7  C   UNL     1     -11.786 -15.731  28.915  1.00  0.00     0.006 C 
BRANCH   7   8
ATOM      8  C   UNL     1     -11.643 -16.638  30.145  1.00  0.00     0.053 C 
BRANCH   8   9
ATOM      9  C   UNL     1     -10.272 -16.554  30.743  1.00  0.00     0.041 C 
ATOM     10  O   UNL     1     -10.061 -16.993  31.904  1.00  0.00    -0.550 OA
ATOM     11  O   UNL     1      -9.236 -15.967  30.028  1.00  0.00    -0.550 OA
ENDBRANCH   8   9
ENDBRANCH   7   8
ENDBRANCH   6   7
ENDBRANCH   5   6
ENDBRANCH   4   5
ENDBRANCH   3   4
ENDBRANCH   2   3
ENDBRANCH   1   2
BRANCH   1  12
ATOM     12  C   UNL     1     -16.810 -16.464  25.750  1.00  0.00     0.000 C 
BRANCH  12  13
ATOM     13  C   UNL     1     -17.427 -15.466  24.758  1.00  0.00    -0.000 C 
BRANCH  13  14
ATOM     14  C   UNL     1     -16.798 -14.068  24.857  1.00  0.00    -0.000 C 
BRANCH  14  15
ATOM     15  C   UNL     1     -17.807 -12.942  24.585  1.00  0.00    -0.000 C 
BRANCH  15  16
ATOM     16  C   UNL     1     -17.766 -11.887  25.701  1.00  0.00    -0.000 C 
BRANCH  16  17
ATOM     17  C   UNL     1     -17.112 -12.410  26.991  1.00  0.00    -0.000 C 
BRANCH  17  18
ATOM     18  C   UNL     1     -18.137 -12.673  28.108  1.00  0.00    -0.000 C 
BRANCH  18  19
ATOM     19  C   UNL     1     -18.527 -14.156  28.210  1.00  0.00    -0.003 C 
ATOM     20  C   UNL     1     -19.831 -14.478  27.481  1.00  0.00     0.004 C 
ENDBRANCH  18  19
ENDBRANCH  17  18
ENDBRANCH  16  17
ENDBRANCH  15  16
ENDBRANCH  14  15
ENDBRANCH  13  14
ENDBRANCH  12  13
ENDBRANCH   1  12
TORSDOF 16
ENDMDL
MODEL 6
REMARK VINA RESULT:    -2.992      1.549      3.180
REMARK INTER + INTRA:          -8.339
REMARK INTER:                  -6.207
REMARK INTRA:                  -2.131
REMARK UNBOUND:                -2.548
REMARK SMILES CCCCCCCCCCCCCCCCCC(=O)[O-]
REMARK SMILES IDX 10 1 11 2 12 3 13 4 14 5 15 6 16 7 17 8 18 9 19 10 20 11
REMARK SMILES IDX 9 12 8 13 7 14 6 15 5 16 4 17 3 18 2 19 1 20
REMARK H PARENT
REMARK Flexibility Score: inf
ROOT
ATOM      1  C   UNL     1     -16.046 -17.170  28.232  1.00  0.00     0.000 C 
ENDROOT
BRANCH   1   2
ATOM      2  C   UNL     1     -15.767 -16.721  29.675  1.00  0.00     0.000 C 
BRANCH   2   3
ATOM      3  C   UNL     1     -16.300 -15.309  29.967  1.00  0.00     0.000 C 
BRANCH   3   4
ATOM      4  C   UNL     1     -15.221 -14.380  30.554  1.00  0.00     0.000 C 
BRANCH   4   5
ATOM      5  C   UNL     1     -14.710 -13.352  29.532  1.00  0.00     0.000 C 
BRANCH   5   6
ATOM      6  C   UNL     1     -13.293 -13.669  29.032  1.00  0.00     0.000 C 
BRANCH   6   7
ATOM      7  C   UNL     1     -12.651 -14.782  29.872  1.00  0.00     0.006 C 
BRANCH   7   8
ATOM      8  C   UNL     1     -11.888 -15.796  29.010  1.00  0.00     0.053 C 
BRANCH   8   9
ATOM      9  C   UNL     1     -11.174 -16.814  29.846  1.00  0.00     0.041 C 
ATOM     10  O   UNL     1     -11.773 -17.854  30.225  1.00  0.00    -0.550 OA
ATOM     11  O   UNL     1      -9.856 -16.599  30.229  1.00  0.00    -0.550 OA
ENDBRANCH   8   9
ENDBRANCH   7   8
ENDBRANCH   6   7
ENDBRANCH   5   6
ENDBRANCH   4   5
ENDBRANCH   3   4
ENDBRANCH   2   3
ENDBRANCH   1   2
BRANCH   1  12
ATOM     12  C   UNL     1     -15.194 -16.374  27.235  1.00  0.00     0.000 C 
BRANCH  12  13
ATOM     13  C   UNL     1     -16.075 -15.720  26.159  1.00  0.00    -0.000 C 
BRANCH  13  14
ATOM     14  C   UNL     1     -16.219 -14.203  26.354  1.00  0.00    -0.000 C 
BRANCH  14  15
ATOM     15  C   UNL     1     -17.663 -13.779  26.667  1.00  0.00    -0.000 C 
BRANCH  15  16
ATOM     16  C   UNL     1     -18.543 -13.865  25.411  1.00  0.00    -0.000 C 
BRANCH  16  17
ATOM     17  C   UNL     1     -18.146 -12.842  24.333  1.00  0.00    -0.000 C 
BRANCH  17  18
ATOM     18  C   UNL     1     -17.480 -13.498  23.113  1.00  0.00    -0.000 C 
BRANCH  18  19
ATOM     19  C   UNL     1     -18.501 -13.939  22.052  1.00  0.00    -0.003 C 
ATOM     20  C   UNL     1     -19.119 -12.761  21.298  1.00  0.00     0.004 C 
ENDBRANCH  18  19
ENDBRANCH  17  18
ENDBRANCH  16  17
ENDBRANCH  15  16
ENDBRANCH  14  15
ENDBRANCH  13  14
ENDBRANCH  12  13
ENDBRANCH   1  12
TORSDOF 16
ENDMDL
MODEL 7
REMARK VINA RESULT:    -2.990      8.479     10.417
REMARK INTER + INTRA:          -8.335
REMARK INTER:                  -5.173
REMARK INTRA:                  -3.162
REMARK UNBOUND:                -2.548
REMARK SMILES CCCCCCCCCCCCCCCCCC(=O)[O-]
REMARK SMILES IDX 10 1 11 2 12 3 13 4 14 5 15 6 16 7 17 8 18 9 19 10 20 11
REMARK SMILES IDX 9 12 8 13 7 14 6 15 5 16 4 17 3 18 2 19 1 20
REMARK H PARENT
REMARK Flexibility Score: inf
ROOT
ATOM      1  C   UNL     1     -12.970 -22.542  18.726  1.00  0.00     0.000 C 
ENDROOT
BRANCH   1   2
ATOM      2  C   UNL     1     -14.156 -22.688  19.691  1.00  0.00     0.000 C 
BRANCH   2   3
ATOM      3  C   UNL     1     -14.447 -21.395  20.469  1.00  0.00     0.000 C 
BRANCH   3   4
ATOM      4  C   UNL     1     -15.093 -21.664  21.841  1.00  0.00     0.000 C 
BRANCH   4   5
ATOM      5  C   UNL     1     -14.406 -20.891  22.978  1.00  0.00     0.000 C 
BRANCH   5   6
ATOM      6  C   UNL     1     -12.885 -21.103  23.003  1.00  0.00     0.000 C 
BRANCH   6   7
ATOM      7  C   UNL     1     -12.507 -22.252  23.948  1.00  0.00     0.006 C 
BRANCH   7   8
ATOM      8  C   UNL     1     -11.956 -23.469  23.193  1.00  0.00     0.053 C 
BRANCH   8   9
ATOM      9  C   UNL     1     -13.016 -24.500  22.949  1.00  0.00     0.041 C 
ATOM     10  O   UNL     1     -13.905 -24.710  23.815  1.00  0.00    -0.550 OA
ATOM     11  O   UNL     1     -13.005 -25.247  21.778  1.00  0.00    -0.550 OA
ENDBRANCH   8   9
ENDBRANCH   7   8
ENDBRANCH   6   7
ENDBRANCH   5   6
ENDBRANCH   4   5
ENDBRANCH   3   4
ENDBRANCH   2   3
ENDBRANCH   1   2
BRANCH   1  12
ATOM     12  C   UNL     1     -11.651 -22.912  19.419  1.00  0.00     0.000 C 
BRANCH  12  13
ATOM     13  C   UNL     1     -10.585 -21.830  19.184  1.00  0.00    -0.000 C 
BRANCH  13  14
ATOM     14  C   UNL     1     -10.430 -20.882  20.384  1.00  0.00    -0.000 C 
BRANCH  14  15
ATOM     15  C   UNL     1     -10.631 -19.407  20.004  1.00  0.00    -0.000 C 
BRANCH  15  16
ATOM     16  C   UNL     1     -12.048 -18.936  20.364  1.00  0.00    -0.000 C 
BRANCH  16  17
ATOM     17  C   UNL     1     -12.716 -18.137  19.232  1.00  0.00    -0.000 C 
BRANCH  17  18
ATOM     18  C   UNL     1     -12.140 -18.481  17.848  1.00  0.00    -0.000 C 
BRANCH  18  19
ATOM     19  C   UNL     1     -13.100 -19.339  17.008  1.00  0.00    -0.003 C 
ATOM     20  C   UNL     1     -14.548 -19.252  17.490  1.00  0.00     0.004 C 
ENDBRANCH  18  19
ENDBRANCH  17  18
ENDBRANCH  16  17
ENDBRANCH  15  16
ENDBRANCH  14  15
ENDBRANCH  13  14
ENDBRANCH  12  13
ENDBRANCH   1  12
TORSDOF 16
ENDMDL
MODEL 8
REMARK VINA RESULT:    -2.975      1.678      3.018
REMARK INTER + INTRA:          -8.306
REMARK INTER:                  -5.422
REMARK INTRA:                  -2.884
REMARK UNBOUND:                -2.548
REMARK SMILES CCCCCCCCCCCCCCCCCC(=O)[O-]
REMARK SMILES IDX 10 1 11 2 12 3 13 4 14 5 15 6 16 7 17 8 18 9 19 10 20 11
REMARK SMILES IDX 9 12 8 13 7 14 6 15 5 16 4 17 3 18 2 19 1 20
REMARK H PARENT
REMARK Flexibility Score: inf
ROOT
ATOM      1  C   UNL     1     -17.510 -13.154  28.374  1.00  0.00     0.000 C 
ENDROOT
BRANCH   1   2
ATOM      2  C   UNL     1     -19.017 -13.362  28.586  1.00  0.00     0.000 C 
BRANCH   2   3
ATOM      3  C   UNL     1     -19.373 -14.824  28.900  1.00  0.00     0.000 C 
BRANCH   3   4
ATOM      4  C   UNL     1     -18.144 -15.655  29.313  1.00  0.00     0.000 C 
BRANCH   4   5
ATOM      5  C   UNL     1     -17.940 -16.889  28.419  1.00  0.00     0.000 C 
BRANCH   5   6
ATOM      6  C   UNL     1     -16.486 -17.385  28.420  1.00  0.00     0.000 C 
BRANCH   6   7
ATOM      7  C   UNL     1     -15.528 -16.273  28.869  1.00  0.00     0.006 C 
BRANCH   7   8
ATOM      8  C   UNL     1     -14.194 -16.313  28.112  1.00  0.00     0.053 C 
BRANCH   8   9
ATOM      9  C   UNL     1     -13.036 -16.547  29.034  1.00  0.00     0.041 C 
ATOM     10  O   UNL     1     -13.189 -17.235  30.078  1.00  0.00    -0.550 OA
ATOM     11  O   UNL     1     -11.798 -15.984  28.754  1.00  0.00    -0.550 OA
ENDBRANCH   8   9
ENDBRANCH   7   8
ENDBRANCH   6   7
ENDBRANCH   5   6
ENDBRANCH   4   5
ENDBRANCH   3   4
ENDBRANCH   2   3
ENDBRANCH   1   2
BRANCH   1  12
ATOM     12  C   UNL     1     -17.248 -12.115  27.276  1.00  0.00     0.000 C 
BRANCH  12  13
ATOM     13  C   UNL     1     -17.069 -12.795  25.909  1.00  0.00    -0.000 C 
BRANCH  13  14
ATOM     14  C   UNL     1     -16.403 -14.176  26.018  1.00  0.00    -0.000 C 
BRANCH  14  15
ATOM     15  C   UNL     1     -17.131 -15.251  25.197  1.00  0.00    -0.000 C 
BRANCH  15  16
ATOM     16  C   UNL     1     -18.654 -15.080  25.297  1.00  0.00    -0.000 C 
BRANCH  16  17
ATOM     17  C   UNL     1     -19.329 -14.933  23.922  1.00  0.00    -0.000 C 
BRANCH  17  18
ATOM     18  C   UNL     1     -18.318 -14.951  22.764  1.00  0.00    -0.000 C 
BRANCH  18  19
ATOM     19  C   UNL     1     -18.445 -13.718  21.854  1.00  0.00    -0.003 C 
ATOM     20  C   UNL     1     -18.668 -12.424  22.637  1.00  0.00     0.004 C 
ENDBRANCH  18  19
ENDBRANCH  17  18
ENDBRANCH  16  17
ENDBRANCH  15  16
ENDBRANCH  14  15
ENDBRANCH  13  14
ENDBRANCH  12  13
ENDBRANCH   1  12
TORSDOF 16
ENDMDL
MODEL 9
REMARK VINA RESULT:    -2.945      1.679      3.782
REMARK INTER + INTRA:          -8.247
REMARK INTER:                  -5.706
REMARK INTRA:                  -2.541
REMARK UNBOUND:                -2.548
REMARK SMILES CCCCCCCCCCCCCCCCCC(=O)[O-]
REMARK SMILES IDX 10 1 11 2 12 3 13 4 14 5 15 6 16 7 17 8 18 9 19 10 20 11
REMARK SMILES IDX 9 12 8 13 7 14 6 15 5 16 4 17 3 18 2 19 1 20
REMARK H PARENT
REMARK Flexibility Score: inf
ROOT
ATOM      1  C   UNL     1     -18.878 -16.205  27.795  1.00  0.00     0.000 C 
ENDROOT
BRANCH   1   2
ATOM      2  C   UNL     1     -19.468 -14.827  27.459  1.00  0.00     0.000 C 
BRANCH   2   3
ATOM      3  C   UNL     1     -18.471 -13.923  26.717  1.00  0.00     0.000 C 
BRANCH   3   4
ATOM      4  C   UNL     1     -17.046 -14.016  27.294  1.00  0.00     0.000 C 
BRANCH   4   5
ATOM      5  C   UNL     1     -16.048 -14.634  26.301  1.00  0.00     0.000 C 
BRANCH   5   6
ATOM      6  C   UNL     1     -15.290 -15.831  26.893  1.00  0.00     0.000 C 
BRANCH   6   7
ATOM      7  C   UNL     1     -14.778 -15.512  28.305  1.00  0.00     0.006 C 
BRANCH   7   8
ATOM      8  C   UNL     1     -13.370 -16.071  28.553  1.00  0.00     0.053 C 
BRANCH   8   9
ATOM      9  C   UNL     1     -13.379 -17.172  29.569  1.00  0.00     0.041 C 
ATOM     10  O   UNL     1     -12.309 -17.519  30.134  1.00  0.00    -0.550 OA
ATOM     11  O   UNL     1     -14.563 -17.832  29.870  1.00  0.00    -0.550 OA
ENDBRANCH   8   9
ENDBRANCH   7   8
ENDBRANCH   6   7
ENDBRANCH   5   6
ENDBRANCH   4   5
ENDBRANCH   3   4
ENDBRANCH   2   3
ENDBRANCH   1   2
BRANCH   1  12
ATOM     12  C   UNL     1     -19.863 -17.326  27.436  1.00  0.00     0.000 C 
BRANCH  12  13
ATOM     13  C   UNL     1     -19.341 -18.159  26.256  1.00  0.00    -0.000 C 
BRANCH  13  14
ATOM     14  C   UNL     1     -18.158 -17.492  25.537  1.00  0.00    -0.000 C 
BRANCH  14  15
ATOM     15  C   UNL     1     -18.479 -17.124  24.080  1.00  0.00    -0.000 C 
BRANCH  15  16
ATOM     16  C   UNL     1     -19.811 -16.365  23.987  1.00  0.00    -0.000 C 
BRANCH  16  17
ATOM     17  C   UNL     1     -19.656 -14.961  23.380  1.00  0.00    -0.000 C 
BRANCH  17  18
ATOM     18  C   UNL     1     -18.267 -14.736  22.760  1.00  0.00    -0.000 C 
BRANCH  18  19
ATOM     19  C   UNL     1     -17.637 -13.403  23.194  1.00  0.00    -0.003 C 
ATOM     20  C   UNL     1     -18.630 -12.241  23.166  1.00  0.00     0.004 C 
ENDBRANCH  18  19
ENDBRANCH  17  18
ENDBRANCH  16  17
ENDBRANCH  15  16
ENDBRANCH  14  15
ENDBRANCH  13  14
ENDBRANCH  12  13
ENDBRANCH   1  12
TORSDOF 16
ENDMDL
