MODEL 1
REMARK VINA RESULT:    -4.652      0.000      0.000
REMARK INTER + INTRA:          -5.653
REMARK INTER:                  -5.332
REMARK INTRA:                  -0.321
REMARK UNBOUND:                -0.321
REMARK SMILES COc1ccc(C(C)=O)c(O)c1
REMARK SMILES IDX 6 1 10 2 12 3 3 4 4 5 5 6 7 7 8 8 9 9 11 10 2 12 1 13
REMARK H PARENT 11 11
REMARK Flexibility Score: inf
ROOT
ATOM      1  C   UNL     1      14.097  22.271  -1.551  1.00  0.00     0.059 A 
ATOM      2  C   UNL     1      13.340  21.493  -0.644  1.00  0.00     0.130 A 
ATOM      3  C   UNL     1      12.487  20.490  -1.126  1.00  0.00     0.093 A 
ATOM      4  C   UNL     1      12.382  20.232  -2.496  1.00  0.00     0.122 A 
ATOM      5  C   UNL     1      13.147  20.992  -3.396  1.00  0.00     0.047 A 
ATOM      6  C   UNL     1      13.995  21.996  -2.926  1.00  0.00     0.019 A 
ENDROOT
BRANCH   1   7
ATOM      7  C   UNL     1      15.007  23.361  -1.103  1.00  0.00     0.163 C 
ATOM      8  C   UNL     1      14.805  24.792  -1.501  1.00  0.00     0.093 C 
ATOM      9  O   UNL     1      15.989  23.081  -0.365  1.00  0.00    -0.294 OA
ENDBRANCH   1   7
BRANCH   2  10
ATOM     10  O   UNL     1      13.446  21.692   0.732  1.00  0.00    -0.507 OA
ATOM     11  H   UNL     1      12.666  21.527   1.357  1.00  0.00     0.293 HD
ENDBRANCH   2  10
BRANCH   4  12
ATOM     12  O   UNL     1      11.513  19.215  -2.919  1.00  0.00    -0.497 OA
ATOM     13  C   UNL     1      10.756  19.253  -4.125  1.00  0.00     0.278 C 
ENDBRANCH   4  12
TORSDOF 3
ENDMDL
MODEL 2
REMARK VINA RESULT:    -4.559      1.534      2.284
REMARK INTER + INTRA:          -5.546
REMARK INTER:                  -5.218
REMARK INTRA:                  -0.328
REMARK UNBOUND:                -0.321
REMARK SMILES COc1ccc(C(C)=O)c(O)c1
REMARK SMILES IDX 6 1 10 2 12 3 3 4 4 5 5 6 7 7 8 8 9 9 11 10 2 12 1 13
REMARK H PARENT 11 11
REMARK Flexibility Score: inf
ROOT
ATOM      1  C   UNL     1      13.501  21.990  -1.562  1.00  0.00     0.059 A 
ATOM      2  C   UNL     1      13.426  22.014  -2.974  1.00  0.00     0.130 A 
ATOM      3  C   UNL     1      12.795  20.965  -3.659  1.00  0.00     0.093 A 
ATOM      4  C   UNL     1      12.222  19.895  -2.965  1.00  0.00     0.122 A 
ATOM      5  C   UNL     1      12.280  19.880  -1.562  1.00  0.00     0.047 A 
ATOM      6  C   UNL     1      12.910  20.917  -0.872  1.00  0.00     0.019 A 
ENDROOT
BRANCH   1   7
ATOM      7  C   UNL     1      14.171  23.064  -0.778  1.00  0.00     0.163 C 
ATOM      8  C   UNL     1      15.302  22.786   0.166  1.00  0.00     0.093 C 
ATOM      9  O   UNL     1      13.779  24.256  -0.904  1.00  0.00    -0.294 OA
ENDBRANCH   1   7
BRANCH   2  10
ATOM     10  O   UNL     1      13.951  23.082  -3.701  1.00  0.00    -0.507 OA
ATOM     11  H   UNL     1      14.850  23.022  -4.164  1.00  0.00     0.293 HD
ENDBRANCH   2  10
BRANCH   4  12
ATOM     12  O   UNL     1      11.603  18.875  -3.704  1.00  0.00    -0.497 OA
ATOM     13  C   UNL     1      10.243  18.899  -4.125  1.00  0.00     0.278 C 
ENDBRANCH   4  12
TORSDOF 3
ENDMDL
MODEL 3
REMARK VINA RESULT:    -4.280      1.588      4.980
REMARK INTER + INTRA:          -5.226
REMARK INTER:                  -4.912
REMARK INTRA:                  -0.313
REMARK UNBOUND:                -0.321
REMARK SMILES COc1ccc(C(C)=O)c(O)c1
REMARK SMILES IDX 6 1 10 2 12 3 3 4 4 5 5 6 7 7 8 8 9 9 11 10 2 12 1 13
REMARK H PARENT 11 11
REMARK Flexibility Score: inf
ROOT
ATOM      1  C   UNL     1      12.817  20.883  -2.148  1.00  0.00     0.059 A 
ATOM      2  C   UNL     1      13.610  21.903  -2.724  1.00  0.00     0.130 A 
ATOM      3  C   UNL     1      14.410  22.713  -1.904  1.00  0.00     0.093 A 
ATOM      4  C   UNL     1      14.451  22.519  -0.520  1.00  0.00     0.122 A 
ATOM      5  C   UNL     1      13.678  21.494   0.050  1.00  0.00     0.047 A 
ATOM      6  C   UNL     1      12.874  20.687  -0.757  1.00  0.00     0.019 A 
ENDROOT
BRANCH   1   7
ATOM      7  C   UNL     1      11.934  20.002  -2.960  1.00  0.00     0.163 C 
ATOM      8  C   UNL     1      10.628  19.477  -2.446  1.00  0.00     0.093 C 
ATOM      9  O   UNL     1      12.291  19.676  -4.125  1.00  0.00    -0.294 OA
ENDBRANCH   1   7
BRANCH   2  10
ATOM     10  O   UNL     1      13.628  22.103  -4.103  1.00  0.00    -0.507 OA
ATOM     11  H   UNL     1      13.055  21.551  -4.731  1.00  0.00     0.293 HD
ENDBRANCH   2  10
BRANCH   4  12
ATOM     12  O   UNL     1      15.271  23.360   0.247  1.00  0.00    -0.497 OA
ATOM     13  C   UNL     1      16.556  22.996   0.741  1.00  0.00     0.278 C 
ENDBRANCH   4  12
TORSDOF 3
ENDMDL
MODEL 4
REMARK VINA RESULT:    -3.503      1.515      4.551
REMARK INTER + INTRA:          -4.336
REMARK INTER:                  -4.203
REMARK INTRA:                  -0.133
REMARK UNBOUND:                -0.321
REMARK SMILES COc1ccc(C(C)=O)c(O)c1
REMARK SMILES IDX 6 1 10 2 12 3 3 4 4 5 5 6 7 7 8 8 9 9 11 10 2 12 1 13
REMARK H PARENT 11 11
REMARK Flexibility Score: inf
ROOT
ATOM      1  C   UNL     1      12.872  20.806  -2.933  1.00  0.00     0.059 A 
ATOM      2  C   UNL     1      12.658  20.862  -1.536  1.00  0.00     0.130 A 
ATOM      3  C   UNL     1      12.942  22.042  -0.833  1.00  0.00     0.093 A 
ATOM      4  C   UNL     1      13.422  23.177  -1.494  1.00  0.00     0.122 A 
ATOM      5  C   UNL     1      13.617  23.127  -2.884  1.00  0.00     0.047 A 
ATOM      6  C   UNL     1      13.342  21.955  -3.592  1.00  0.00     0.019 A 
ENDROOT
BRANCH   1   7
ATOM      7  C   UNL     1      12.606  19.579  -3.734  1.00  0.00     0.163 C 
ATOM      8  C   UNL     1      11.219  19.140  -4.096  1.00  0.00     0.093 C 
ATOM      9  O   UNL     1      13.576  18.875  -4.125  1.00  0.00    -0.294 OA
ENDBRANCH   1   7
BRANCH   2  10
ATOM     10  O   UNL     1      12.144  19.766  -0.846  1.00  0.00    -0.507 OA
ATOM     11  H   UNL     1      11.655  19.016  -1.321  1.00  0.00     0.293 HD
ENDBRANCH   2  10
BRANCH   4  12
ATOM     12  O   UNL     1      13.687  24.328  -0.737  1.00  0.00    -0.497 OA
ATOM     13  C   UNL     1      14.938  25.007  -0.719  1.00  0.00     0.278 C 
ENDBRANCH   4  12
TORSDOF 3
ENDMDL
MODEL 5
REMARK VINA RESULT:    -3.307      1.404      4.693
REMARK INTER + INTRA:          -4.111
REMARK INTER:                  -3.809
REMARK INTRA:                  -0.302
REMARK UNBOUND:                -0.321
REMARK SMILES COc1ccc(C(C)=O)c(O)c1
REMARK SMILES IDX 6 1 10 2 12 3 3 4 4 5 5 6 7 7 8 8 9 9 11 10 2 12 1 13
REMARK H PARENT 11 11
REMARK Flexibility Score: inf
ROOT
ATOM      1  C   UNL     1      12.945  21.109  -2.168  1.00  0.00     0.059 A 
ATOM      2  C   UNL     1      12.397  22.087  -1.305  1.00  0.00     0.130 A 
ATOM      3  C   UNL     1      13.234  23.041  -0.707  1.00  0.00     0.093 A 
ATOM      4  C   UNL     1      14.608  23.053  -0.962  1.00  0.00     0.122 A 
ATOM      5  C   UNL     1      15.151  22.093  -1.833  1.00  0.00     0.047 A 
ATOM      6  C   UNL     1      14.327  21.137  -2.428  1.00  0.00     0.019 A 
ENDROOT
BRANCH   1   7
ATOM      7  C   UNL     1      12.113  20.061  -2.819  1.00  0.00     0.163 C 
ATOM      8  C   UNL     1      12.501  19.417  -4.116  1.00  0.00     0.093 C 
ATOM      9  O   UNL     1      11.039  19.695  -2.269  1.00  0.00    -0.294 OA
ENDBRANCH   1   7
BRANCH   2  10
ATOM     10  O   UNL     1      11.026  22.135  -1.056  1.00  0.00    -0.507 OA
ATOM     11  H   UNL     1      10.410  22.749  -1.576  1.00  0.00     0.293 HD
ENDBRANCH   2  10
BRANCH   4  12
ATOM     12  O   UNL     1      15.395  24.032  -0.336  1.00  0.00    -0.497 OA
ATOM     13  C   UNL     1      15.300  25.428  -0.599  1.00  0.00     0.278 C 
ENDBRANCH   4  12
TORSDOF 3
ENDMDL
MODEL 6
REMARK VINA RESULT:    -3.281      1.157      4.606
REMARK INTER + INTRA:          -4.081
REMARK INTER:                  -3.753
REMARK INTRA:                  -0.328
REMARK UNBOUND:                -0.321
REMARK SMILES COc1ccc(C(C)=O)c(O)c1
REMARK SMILES IDX 6 1 10 2 12 3 3 4 4 5 5 6 7 7 8 8 9 9 11 10 2 12 1 13
REMARK H PARENT 11 11
REMARK Flexibility Score: inf
ROOT
ATOM      1  C   UNL     1      12.898  20.970  -2.131  1.00  0.00     0.059 A 
ATOM      2  C   UNL     1      13.252  20.942  -0.761  1.00  0.00     0.130 A 
ATOM      3  C   UNL     1      14.011  21.987  -0.214  1.00  0.00     0.093 A 
ATOM      4  C   UNL     1      14.416  23.070  -0.999  1.00  0.00     0.122 A 
ATOM      5  C   UNL     1      14.050  23.107  -2.355  1.00  0.00     0.047 A 
ATOM      6  C   UNL     1      13.299  22.070  -2.910  1.00  0.00     0.019 A 
ENDROOT
BRANCH   1   7
ATOM      7  C   UNL     1      12.109  19.885  -2.775  1.00  0.00     0.163 C 
ATOM      8  C   UNL     1      12.635  19.081  -3.926  1.00  0.00     0.093 C 
ATOM      9  O   UNL     1      10.952  19.625  -2.346  1.00  0.00    -0.294 OA
ENDBRANCH   1   7
BRANCH   2  10
ATOM     10  O   UNL     1      12.834  19.900   0.065  1.00  0.00    -0.507 OA
ATOM     11  H   UNL     1      13.172  18.953  -0.057  1.00  0.00     0.293 HD
ENDBRANCH   2  10
BRANCH   4  12
ATOM     12  O   UNL     1      15.173  24.086  -0.395  1.00  0.00    -0.497 OA
ATOM     13  C   UNL     1      15.179  25.444  -0.820  1.00  0.00     0.278 C 
ENDBRANCH   4  12
TORSDOF 3
ENDMDL
MODEL 7
REMARK VINA RESULT:    -1.738      2.337      4.020
REMARK INTER + INTRA:          -2.313
REMARK INTER:                  -2.191
REMARK INTRA:                  -0.122
REMARK UNBOUND:                -0.321
REMARK SMILES COc1ccc(C(C)=O)c(O)c1
REMARK SMILES IDX 6 1 10 2 12 3 3 4 4 5 5 6 7 7 8 8 9 9 11 10 2 12 1 13
REMARK H PARENT 11 11
REMARK Flexibility Score: inf
ROOT
ATOM      1  C   UNL     1      14.499  22.755  -0.958  1.00  0.00     0.059 A 
ATOM      2  C   UNL     1      13.843  22.265  -2.111  1.00  0.00     0.130 A 
ATOM      3  C   UNL     1      13.482  23.148  -3.140  1.00  0.00     0.093 A 
ATOM      4  C   UNL     1      13.775  24.512  -3.052  1.00  0.00     0.122 A 
ATOM      5  C   UNL     1      14.443  24.997  -1.916  1.00  0.00     0.047 A 
ATOM      6  C   UNL     1      14.801  24.127  -0.885  1.00  0.00     0.019 A 
ENDROOT
BRANCH   1   7
ATOM      7  C   UNL     1      14.893  21.873   0.174  1.00  0.00     0.163 C 
ATOM      8  C   UNL     1      13.891  21.284   1.122  1.00  0.00     0.093 C 
ATOM      9  O   UNL     1      16.112  21.606   0.354  1.00  0.00    -0.294 OA
ENDBRANCH   1   7
BRANCH   2  10
ATOM     10  O   UNL     1      13.569  20.906  -2.255  1.00  0.00    -0.507 OA
ATOM     11  H   UNL     1      14.176  20.291  -2.785  1.00  0.00     0.293 HD
ENDBRANCH   2  10
BRANCH   4  12
ATOM     12  O   UNL     1      13.391  25.346  -4.113  1.00  0.00    -0.497 OA
ATOM     13  C   UNL     1      12.207  26.138  -4.125  1.00  0.00     0.278 C 
ENDBRANCH   4  12
TORSDOF 3
ENDMDL
