MODEL 1
REMARK VINA RESULT:    -4.124      0.000      0.000
REMARK INTER + INTRA:          -6.236
REMARK INTER:                  -5.571
REMARK INTRA:                  -0.665
REMARK UNBOUND:                -0.665
REMARK SMILES CCCCCCC=CC(=O)[O-]
REMARK SMILES IDX 5 1 6 2 7 3 8 4 9 5 10 6 11 7 4 8 3 9 2 10 1 11
REMARK H PARENT
REMARK Flexibility Score: inf
ROOT
ATOM      1  C   UNL     1      -8.447  25.745  24.804  1.00  0.00     0.004 C 
ENDROOT
BRANCH   1   2
ATOM      2  C   UNL     1      -7.108  25.953  24.079  1.00  0.00     0.027 C 
BRANCH   2   3
ATOM      3  C   UNL     1      -7.275  25.854  22.589  1.00  0.00    -0.025 C 
ATOM      4  C   UNL     1      -8.434  26.153  21.994  1.00  0.00     0.020 C 
BRANCH   4   5
ATOM      5  C   UNL     1      -8.607  26.074  20.536  1.00  0.00     0.064 C 
ATOM      6  O   UNL     1      -8.443  24.972  19.951  1.00  0.00    -0.545 OA
ATOM      7  O   UNL     1      -8.949  27.198  19.793  1.00  0.00    -0.545 OA
ENDBRANCH   4   5
ENDBRANCH   2   3
ENDBRANCH   1   2
BRANCH   1   8
ATOM      8  C   UNL     1      -8.811  26.942  25.708  1.00  0.00     0.000 C 
BRANCH   8   9
ATOM      9  C   UNL     1      -9.765  27.949  25.043  1.00  0.00    -0.000 C 
BRANCH   9  10
ATOM     10  C   UNL     1      -9.035  29.158  24.445  1.00  0.00    -0.003 C 
ATOM     11  C   UNL     1      -9.429  29.373  22.986  1.00  0.00     0.004 C 
ENDBRANCH   9  10
ENDBRANCH   8   9
ENDBRANCH   1   8
TORSDOF 6
ENDMDL
MODEL 2
REMARK VINA RESULT:    -3.951      1.207      1.963
REMARK INTER + INTRA:          -6.002
REMARK INTER:                  -5.294
REMARK INTRA:                  -0.707
REMARK UNBOUND:                -0.665
REMARK SMILES CCCCCCC=CC(=O)[O-]
REMARK SMILES IDX 5 1 6 2 7 3 8 4 9 5 10 6 11 7 4 8 3 9 2 10 1 11
REMARK H PARENT
REMARK Flexibility Score: inf
ROOT
ATOM      1  C   UNL     1      -8.789  27.095  25.678  1.00  0.00     0.004 C 
ENDROOT
BRANCH   1   2
ATOM      2  C   UNL     1      -7.639  26.637  24.767  1.00  0.00     0.027 C 
BRANCH   2   3
ATOM      3  C   UNL     1      -8.103  25.599  23.786  1.00  0.00    -0.025 C 
ATOM      4  C   UNL     1      -7.660  25.581  22.525  1.00  0.00     0.020 C 
BRANCH   4   5
ATOM      5  C   UNL     1      -8.095  24.563  21.559  1.00  0.00     0.064 C 
ATOM      6  O   UNL     1      -8.234  24.875  20.347  1.00  0.00    -0.545 OA
ATOM      7  O   UNL     1      -8.355  23.258  21.962  1.00  0.00    -0.545 OA
ENDBRANCH   4   5
ENDBRANCH   2   3
ENDBRANCH   1   2
BRANCH   1   8
ATOM      8  C   UNL     1      -9.901  27.821  24.892  1.00  0.00     0.000 C 
BRANCH   8   9
ATOM      9  C   UNL     1      -9.465  29.183  24.323  1.00  0.00    -0.000 C 
BRANCH   9  10
ATOM     10  C   UNL     1      -9.449  29.211  22.789  1.00  0.00    -0.003 C 
ATOM     11  C   UNL     1     -10.323  28.104  22.208  1.00  0.00     0.004 C 
ENDBRANCH   9  10
ENDBRANCH   8   9
ENDBRANCH   1   8
TORSDOF 6
ENDMDL
MODEL 3
REMARK VINA RESULT:    -3.933      3.554      5.260
REMARK INTER + INTRA:          -5.978
REMARK INTER:                  -5.317
REMARK INTRA:                  -0.661
REMARK UNBOUND:                -0.665
REMARK SMILES CCCCCCC=CC(=O)[O-]
REMARK SMILES IDX 5 1 6 2 7 3 8 4 9 5 10 6 11 7 4 8 3 9 2 10 1 11
REMARK H PARENT
REMARK Flexibility Score: inf
ROOT
ATOM      1  C   UNL     1      -8.127  26.460  22.271  1.00  0.00     0.004 C 
ENDROOT
BRANCH   1   2
ATOM      2  C   UNL     1      -7.316  25.968  23.479  1.00  0.00     0.027 C 
BRANCH   2   3
ATOM      3  C   UNL     1      -7.992  26.330  24.772  1.00  0.00    -0.025 C 
ATOM      4  C   UNL     1      -9.191  25.837  25.096  1.00  0.00     0.020 C 
BRANCH   4   5
ATOM      5  C   UNL     1      -9.856  26.173  26.363  1.00  0.00     0.064 C 
ATOM      6  O   UNL     1      -9.529  27.221  26.978  1.00  0.00    -0.545 OA
ATOM      7  O   UNL     1     -10.844  25.350  26.893  1.00  0.00    -0.545 OA
ENDBRANCH   4   5
ENDBRANCH   2   3
ENDBRANCH   1   2
BRANCH   1   8
ATOM      8  C   UNL     1      -8.728  25.293  21.459  1.00  0.00     0.000 C 
BRANCH   8   9
ATOM      9  C   UNL     1      -8.023  23.947  21.699  1.00  0.00    -0.000 C 
BRANCH   9  10
ATOM     10  C   UNL     1      -8.959  22.875  22.270  1.00  0.00    -0.003 C 
ATOM     11  C   UNL     1     -10.399  23.376  22.330  1.00  0.00     0.004 C 
ENDBRANCH   9  10
ENDBRANCH   8   9
ENDBRANCH   1   8
TORSDOF 6
ENDMDL
MODEL 4
REMARK VINA RESULT:    -3.903      3.711      5.438
REMARK INTER + INTRA:          -5.936
REMARK INTER:                  -5.691
REMARK INTRA:                  -0.245
REMARK UNBOUND:                -0.665
REMARK SMILES CCCCCCC=CC(=O)[O-]
REMARK SMILES IDX 5 1 6 2 7 3 8 4 9 5 10 6 11 7 4 8 3 9 2 10 1 11
REMARK H PARENT
REMARK Flexibility Score: inf
ROOT
ATOM      1  C   UNL     1      -7.846  24.545  21.683  1.00  0.00     0.004 C 
ENDROOT
BRANCH   1   2
ATOM      2  C   UNL     1      -7.167  25.616  22.550  1.00  0.00     0.027 C 
BRANCH   2   3
ATOM      3  C   UNL     1      -8.172  26.363  23.380  1.00  0.00    -0.025 C 
ATOM      4  C   UNL     1      -7.942  26.651  24.665  1.00  0.00     0.020 C 
BRANCH   4   5
ATOM      5  C   UNL     1      -8.911  27.392  25.484  1.00  0.00     0.064 C 
ATOM      6  O   UNL     1      -9.088  27.063  26.686  1.00  0.00    -0.545 OA
ATOM      7  O   UNL     1      -9.635  28.453  24.952  1.00  0.00    -0.545 OA
ENDBRANCH   4   5
ENDBRANCH   2   3
ENDBRANCH   1   2
BRANCH   1   8
ATOM      8  C   UNL     1      -9.056  23.902  22.395  1.00  0.00     0.000 C 
BRANCH   8   9
ATOM      9  C   UNL     1      -9.240  22.410  22.070  1.00  0.00    -0.000 C 
BRANCH   9  10
ATOM     10  C   UNL     1     -10.641  22.084  21.535  1.00  0.00    -0.003 C 
ATOM     11  C   UNL     1     -10.566  21.171  20.315  1.00  0.00     0.004 C 
ENDBRANCH   9  10
ENDBRANCH   8   9
ENDBRANCH   1   8
TORSDOF 6
ENDMDL
MODEL 5
REMARK VINA RESULT:    -3.882      3.289      4.489
REMARK INTER + INTRA:          -5.908
REMARK INTER:                  -5.192
REMARK INTRA:                  -0.716
REMARK UNBOUND:                -0.665
REMARK SMILES CCCCCCC=CC(=O)[O-]
REMARK SMILES IDX 5 1 6 2 7 3 8 4 9 5 10 6 11 7 4 8 3 9 2 10 1 11
REMARK H PARENT
REMARK Flexibility Score: inf
ROOT
ATOM      1  C   UNL     1      -7.509  25.835  22.674  1.00  0.00     0.004 C 
ENDROOT
BRANCH   1   2
ATOM      2  C   UNL     1      -7.272  26.045  24.177  1.00  0.00     0.027 C 
BRANCH   2   3
ATOM      3  C   UNL     1      -8.551  25.909  24.954  1.00  0.00    -0.025 C 
ATOM      4  C   UNL     1      -8.884  26.782  25.910  1.00  0.00     0.020 C 
BRANCH   4   5
ATOM      5  C   UNL     1     -10.138  26.668  26.668  1.00  0.00     0.064 C 
ATOM      6  O   UNL     1     -10.769  27.710  26.985  1.00  0.00    -0.545 OA
ATOM      7  O   UNL     1     -10.640  25.426  27.040  1.00  0.00    -0.545 OA
ENDBRANCH   4   5
ENDBRANCH   2   3
ENDBRANCH   1   2
BRANCH   1   8
ATOM      8  C   UNL     1      -9.001  25.956  22.297  1.00  0.00     0.000 C 
BRANCH   8   9
ATOM      9  C   UNL     1      -9.345  27.255  21.548  1.00  0.00    -0.000 C 
BRANCH   9  10
ATOM     10  C   UNL     1     -10.143  28.245  22.405  1.00  0.00    -0.003 C 
ATOM     11  C   UNL     1      -9.218  29.223  23.122  1.00  0.00     0.004 C 
ENDBRANCH   9  10
ENDBRANCH   8   9
ENDBRANCH   1   8
TORSDOF 6
ENDMDL
MODEL 6
REMARK VINA RESULT:    -3.836      2.169      3.472
REMARK INTER + INTRA:          -5.846
REMARK INTER:                  -5.204
REMARK INTRA:                  -0.642
REMARK UNBOUND:                -0.665
REMARK SMILES CCCCCCC=CC(=O)[O-]
REMARK SMILES IDX 5 1 6 2 7 3 8 4 9 5 10 6 11 7 4 8 3 9 2 10 1 11
REMARK H PARENT
REMARK Flexibility Score: inf
ROOT
ATOM      1  C   UNL     1      -8.094  24.906  22.115  1.00  0.00     0.004 C 
ENDROOT
BRANCH   1   2
ATOM      2  C   UNL     1      -8.658  25.481  20.807  1.00  0.00     0.027 C 
BRANCH   2   3
ATOM      3  C   UNL     1      -9.010  26.934  20.958  1.00  0.00    -0.025 C 
ATOM      4  C   UNL     1     -10.192  27.320  21.450  1.00  0.00     0.020 C 
BRANCH   4   5
ATOM      5  C   UNL     1     -10.543  28.737  21.615  1.00  0.00     0.064 C 
ATOM      6  O   UNL     1     -10.905  29.408  20.614  1.00  0.00    -0.545 OA
ATOM      7  O   UNL     1     -10.481  29.350  22.862  1.00  0.00    -0.545 OA
ENDBRANCH   4   5
ENDBRANCH   2   3
ENDBRANCH   1   2
BRANCH   1   8
ATOM      8  C   UNL     1      -7.040  25.836  22.752  1.00  0.00     0.000 C 
BRANCH   8   9
ATOM      9  C   UNL     1      -7.211  26.011  24.271  1.00  0.00    -0.000 C 
BRANCH   9  10
ATOM     10  C   UNL     1      -8.325  27.001  24.636  1.00  0.00    -0.003 C 
ATOM     11  C   UNL     1      -9.325  26.372  25.602  1.00  0.00     0.004 C 
ENDBRANCH   9  10
ENDBRANCH   8   9
ENDBRANCH   1   8
TORSDOF 6
ENDMDL
MODEL 7
REMARK VINA RESULT:    -3.813      2.168      4.155
REMARK INTER + INTRA:          -5.815
REMARK INTER:                  -5.067
REMARK INTRA:                  -0.748
REMARK UNBOUND:                -0.665
REMARK SMILES CCCCCCC=CC(=O)[O-]
REMARK SMILES IDX 5 1 6 2 7 3 8 4 9 5 10 6 11 7 4 8 3 9 2 10 1 11
REMARK H PARENT
REMARK Flexibility Score: inf
ROOT
ATOM      1  C   UNL     1      -7.283  25.649  22.484  1.00  0.00     0.004 C 
ENDROOT
BRANCH   1   2
ATOM      2  C   UNL     1      -7.836  26.040  23.864  1.00  0.00     0.027 C 
BRANCH   2   3
ATOM      3  C   UNL     1      -8.944  27.047  23.740  1.00  0.00    -0.025 C 
ATOM      4  C   UNL     1      -8.883  28.048  22.856  1.00  0.00     0.020 C 
BRANCH   4   5
ATOM      5  C   UNL     1      -9.965  29.033  22.716  1.00  0.00     0.064 C 
ATOM      6  O   UNL     1     -10.350  29.374  21.567  1.00  0.00    -0.545 OA
ATOM      7  O   UNL     1     -10.572  29.594  23.834  1.00  0.00    -0.545 OA
ENDBRANCH   4   5
ENDBRANCH   2   3
ENDBRANCH   1   2
BRANCH   1   8
ATOM      8  C   UNL     1      -8.144  24.570  21.796  1.00  0.00     0.000 C 
BRANCH   8   9
ATOM      9  C   UNL     1      -8.403  24.847  20.304  1.00  0.00    -0.000 C 
BRANCH   9  10
ATOM     10  C   UNL     1      -9.517  25.876  20.072  1.00  0.00    -0.003 C 
ATOM     11  C   UNL     1     -10.781  25.502  20.842  1.00  0.00     0.004 C 
ENDBRANCH   9  10
ENDBRANCH   8   9
ENDBRANCH   1   8
TORSDOF 6
ENDMDL
MODEL 8
REMARK VINA RESULT:    -3.775      2.042      2.394
REMARK INTER + INTRA:          -5.763
REMARK INTER:                  -5.290
REMARK INTRA:                  -0.474
REMARK UNBOUND:                -0.665
REMARK SMILES CCCCCCC=CC(=O)[O-]
REMARK SMILES IDX 5 1 6 2 7 3 8 4 9 5 10 6 11 7 4 8 3 9 2 10 1 11
REMARK H PARENT
REMARK Flexibility Score: inf
ROOT
ATOM      1  C   UNL     1      -7.608  26.014  24.384  1.00  0.00     0.004 C 
ENDROOT
BRANCH   1   2
ATOM      2  C   UNL     1      -7.432  26.106  22.860  1.00  0.00     0.027 C 
BRANCH   2   3
ATOM      3  C   UNL     1      -7.868  24.837  22.184  1.00  0.00    -0.025 C 
ATOM      4  C   UNL     1      -8.921  24.138  22.621  1.00  0.00     0.020 C 
BRANCH   4   5
ATOM      5  C   UNL     1      -9.366  22.903  21.961  1.00  0.00     0.064 C 
ATOM      6  O   UNL     1      -8.800  21.813  22.236  1.00  0.00    -0.545 OA
ATOM      7  O   UNL     1     -10.405  22.920  21.036  1.00  0.00    -0.545 OA
ENDBRANCH   4   5
ENDBRANCH   2   3
ENDBRANCH   1   2
BRANCH   1   8
ATOM      8  C   UNL     1      -8.095  27.345  24.995  1.00  0.00     0.000 C 
BRANCH   8   9
ATOM      9  C   UNL     1      -9.619  27.537  24.920  1.00  0.00    -0.000 C 
BRANCH   9  10
ATOM     10  C   UNL     1     -10.024  28.806  24.159  1.00  0.00    -0.003 C 
ATOM     11  C   UNL     1      -8.865  29.795  24.081  1.00  0.00     0.004 C 
ENDBRANCH   9  10
ENDBRANCH   8   9
ENDBRANCH   1   8
TORSDOF 6
ENDMDL
MODEL 9
REMARK VINA RESULT:    -3.731      2.929      4.885
REMARK INTER + INTRA:          -5.704
REMARK INTER:                  -5.239
REMARK INTRA:                  -0.465
REMARK UNBOUND:                -0.665
REMARK SMILES CCCCCCC=CC(=O)[O-]
REMARK SMILES IDX 5 1 6 2 7 3 8 4 9 5 10 6 11 7 4 8 3 9 2 10 1 11
REMARK H PARENT
REMARK Flexibility Score: inf
ROOT
ATOM      1  C   UNL     1      -7.006  25.917  22.731  1.00  0.00     0.004 C 
ENDROOT
BRANCH   1   2
ATOM      2  C   UNL     1      -7.402  26.007  24.213  1.00  0.00     0.027 C 
BRANCH   2   3
ATOM      3  C   UNL     1      -8.721  26.705  24.383  1.00  0.00    -0.025 C 
ATOM      4  C   UNL     1      -8.790  27.992  24.740  1.00  0.00     0.020 C 
BRANCH   4   5
ATOM      5  C   UNL     1     -10.073  28.690  24.897  1.00  0.00     0.064 C 
ATOM      6  O   UNL     1     -10.818  28.409  25.871  1.00  0.00    -0.545 OA
ATOM      7  O   UNL     1     -10.478  29.659  23.985  1.00  0.00    -0.545 OA
ENDBRANCH   4   5
ENDBRANCH   2   3
ENDBRANCH   1   2
BRANCH   1   8
ATOM      8  C   UNL     1      -8.237  25.897  21.800  1.00  0.00     0.000 C 
BRANCH   8   9
ATOM      9  C   UNL     1      -8.373  24.600  20.985  1.00  0.00    -0.000 C 
BRANCH   9  10
ATOM     10  C   UNL     1      -9.489  23.683  21.504  1.00  0.00    -0.003 C 
ATOM     11  C   UNL     1      -8.920  22.544  22.344  1.00  0.00     0.004 C 
ENDBRANCH   9  10
ENDBRANCH   8   9
ENDBRANCH   1   8
TORSDOF 6
ENDMDL
