MODEL 1
REMARK VINA RESULT:    -4.097      0.000      0.000
REMARK INTER + INTRA:          -5.862
REMARK INTER:                  -5.534
REMARK INTRA:                  -0.328
REMARK UNBOUND:                -0.328
REMARK SMILES CCCCCCC=CC(=O)[O-]
REMARK SMILES IDX 5 1 6 2 7 3 8 4 9 5 10 6 11 7 4 8 3 9 2 10 1 11
REMARK H PARENT
REMARK Flexibility Score: inf
ROOT
ATOM      1  C   UNL     1      41.112   7.237   0.955  1.00  0.00     0.004 C 
ENDROOT
BRANCH   1   2
ATOM      2  C   UNL     1      41.184   8.752   0.709  1.00  0.00     0.027 C 
BRANCH   2   3
ATOM      3  C   UNL     1      41.463   9.053  -0.736  1.00  0.00    -0.025 C 
ATOM      4  C   UNL     1      40.709   8.541  -1.715  1.00  0.00     0.020 C 
BRANCH   4   5
ATOM      5  C   UNL     1      40.955   8.834  -3.136  1.00  0.00     0.064 C 
ATOM      6  O   UNL     1      40.007   9.108  -3.919  1.00  0.00    -0.545 OA
ATOM      7  O   UNL     1      42.256   8.808  -3.622  1.00  0.00    -0.545 OA
ENDBRANCH   4   5
ENDBRANCH   2   3
ENDBRANCH   1   2
BRANCH   1   8
ATOM      8  C   UNL     1      40.365   6.885   2.251  1.00  0.00     0.000 C 
BRANCH   8   9
ATOM      9  C   UNL     1      40.429   8.014   3.294  1.00  0.00    -0.000 C 
BRANCH   9  10
ATOM     10  C   UNL     1      39.231   7.994   4.257  1.00  0.00    -0.003 C 
ATOM     11  C   UNL     1      38.154   6.994   3.836  1.00  0.00     0.004 C 
ENDBRANCH   9  10
ENDBRANCH   8   9
ENDBRANCH   1   8
TORSDOF 6
ENDMDL
MODEL 2
REMARK VINA RESULT:    -4.096      9.844     10.867
REMARK INTER + INTRA:          -5.861
REMARK INTER:                  -5.207
REMARK INTRA:                  -0.654
REMARK UNBOUND:                -0.328
REMARK SMILES CCCCCCC=CC(=O)[O-]
REMARK SMILES IDX 5 1 6 2 7 3 8 4 9 5 10 6 11 7 4 8 3 9 2 10 1 11
REMARK H PARENT
REMARK Flexibility Score: inf
ROOT
ATOM      1  C   UNL     1      43.335   2.941  -8.596  1.00  0.00     0.004 C 
ENDROOT
BRANCH   1   2
ATOM      2  C   UNL     1      41.981   3.564  -8.225  1.00  0.00     0.027 C 
BRANCH   2   3
ATOM      3  C   UNL     1      40.850   2.848  -8.906  1.00  0.00    -0.025 C 
ATOM      4  C   UNL     1      40.043   2.018  -8.236  1.00  0.00     0.020 C 
BRANCH   4   5
ATOM      5  C   UNL     1      38.922   1.317  -8.881  1.00  0.00     0.064 C 
ATOM      6  O   UNL     1      38.906   0.060  -8.974  1.00  0.00    -0.545 OA
ATOM      7  O   UNL     1      37.861   2.053  -9.394  1.00  0.00    -0.545 OA
ENDBRANCH   4   5
ENDBRANCH   2   3
ENDBRANCH   1   2
BRANCH   1   8
ATOM      8  C   UNL     1      43.866   1.995  -7.508  1.00  0.00     0.000 C 
BRANCH   8   9
ATOM      9  C   UNL     1      43.341   2.353  -6.107  1.00  0.00    -0.000 C 
BRANCH   9  10
ATOM     10  C   UNL     1      42.644   1.168  -5.420  1.00  0.00    -0.003 C 
ATOM     11  C   UNL     1      42.912  -0.162  -6.125  1.00  0.00     0.004 C 
ENDBRANCH   9  10
ENDBRANCH   8   9
ENDBRANCH   1   8
TORSDOF 6
ENDMDL
MODEL 3
REMARK VINA RESULT:    -4.076      4.294      6.383
REMARK INTER + INTRA:          -5.835
REMARK INTER:                  -5.482
REMARK INTRA:                  -0.353
REMARK UNBOUND:                -0.328
REMARK SMILES CCCCCCC=CC(=O)[O-]
REMARK SMILES IDX 5 1 6 2 7 3 8 4 9 5 10 6 11 7 4 8 3 9 2 10 1 11
REMARK H PARENT
REMARK Flexibility Score: inf
ROOT
ATOM      1  C   UNL     1      40.599   6.959   1.997  1.00  0.00     0.004 C 
ENDROOT
BRANCH   1   2
ATOM      2  C   UNL     1      40.415   8.032   3.081  1.00  0.00     0.027 C 
BRANCH   2   3
ATOM      3  C   UNL     1      39.338   7.642   4.052  1.00  0.00    -0.025 C 
ATOM      4  C   UNL     1      38.241   6.989   3.653  1.00  0.00     0.020 C 
BRANCH   4   5
ATOM      5  C   UNL     1      37.180   6.585   4.590  1.00  0.00     0.064 C 
ATOM      6  O   UNL     1      36.035   6.259   4.177  1.00  0.00    -0.545 OA
ATOM      7  O   UNL     1      37.446   6.560   5.953  1.00  0.00    -0.545 OA
ENDBRANCH   4   5
ENDBRANCH   2   3
ENDBRANCH   1   2
BRANCH   1   8
ATOM      8  C   UNL     1      41.162   7.534   0.688  1.00  0.00     0.000 C 
BRANCH   8   9
ATOM      9  C   UNL     1      41.311   9.065   0.732  1.00  0.00    -0.000 C 
BRANCH   9  10
ATOM     10  C   UNL     1      41.223   9.705  -0.663  1.00  0.00    -0.003 C 
ATOM     11  C   UNL     1      40.933   8.683  -1.762  1.00  0.00     0.004 C 
ENDBRANCH   9  10
ENDBRANCH   8   9
ENDBRANCH   1   8
TORSDOF 6
ENDMDL
MODEL 4
REMARK VINA RESULT:    -4.064      7.531      8.830
REMARK INTER + INTRA:          -5.817
REMARK INTER:                  -5.249
REMARK INTRA:                  -0.569
REMARK UNBOUND:                -0.328
REMARK SMILES CCCCCCC=CC(=O)[O-]
REMARK SMILES IDX 5 1 6 2 7 3 8 4 9 5 10 6 11 7 4 8 3 9 2 10 1 11
REMARK H PARENT
REMARK Flexibility Score: inf
ROOT
ATOM      1  C   UNL     1      34.713  11.576   4.933  1.00  0.00     0.004 C 
ENDROOT
BRANCH   1   2
ATOM      2  C   UNL     1      35.649  10.510   4.344  1.00  0.00     0.027 C 
BRANCH   2   3
ATOM      3  C   UNL     1      35.395   9.165   4.963  1.00  0.00    -0.025 C 
ATOM      4  C   UNL     1      34.849   8.165   4.263  1.00  0.00     0.020 C 
BRANCH   4   5
ATOM      5  C   UNL     1      34.604   6.836   4.845  1.00  0.00     0.064 C 
ATOM      6  O   UNL     1      35.555   6.047   5.090  1.00  0.00    -0.545 OA
ATOM      7  O   UNL     1      33.302   6.445   5.131  1.00  0.00    -0.545 OA
ENDBRANCH   4   5
ENDBRANCH   2   3
ENDBRANCH   1   2
BRANCH   1   8
ATOM      8  C   UNL     1      33.658  12.057   3.924  1.00  0.00     0.000 C 
BRANCH   8   9
ATOM      9  C   UNL     1      34.072  11.789   2.466  1.00  0.00    -0.000 C 
BRANCH   9  10
ATOM     10  C   UNL     1      33.087  10.862   1.737  1.00  0.00    -0.003 C 
ATOM     11  C   UNL     1      33.735   9.554   1.282  1.00  0.00     0.004 C 
ENDBRANCH   9  10
ENDBRANCH   8   9
ENDBRANCH   1   8
TORSDOF 6
ENDMDL
MODEL 5
REMARK VINA RESULT:    -3.985      3.863      6.247
REMARK INTER + INTRA:          -5.711
REMARK INTER:                  -5.417
REMARK INTRA:                  -0.294
REMARK UNBOUND:                -0.328
REMARK SMILES CCCCCCC=CC(=O)[O-]
REMARK SMILES IDX 5 1 6 2 7 3 8 4 9 5 10 6 11 7 4 8 3 9 2 10 1 11
REMARK H PARENT
REMARK Flexibility Score: inf
ROOT
ATOM      1  C   UNL     1      41.492   8.946   0.589  1.00  0.00     0.004 C 
ENDROOT
BRANCH   1   2
ATOM      2  C   UNL     1      41.188   7.451   0.767  1.00  0.00     0.027 C 
BRANCH   2   3
ATOM      3  C   UNL     1      40.522   7.187   2.088  1.00  0.00    -0.025 C 
ATOM      4  C   UNL     1      40.453   8.128   3.036  1.00  0.00     0.020 C 
BRANCH   4   5
ATOM      5  C   UNL     1      39.793   7.897   4.331  1.00  0.00     0.064 C 
ATOM      6  O   UNL     1      38.591   7.524   4.392  1.00  0.00    -0.545 OA
ATOM      7  O   UNL     1      40.508   8.091   5.506  1.00  0.00    -0.545 OA
ENDBRANCH   4   5
ENDBRANCH   2   3
ENDBRANCH   1   2
BRANCH   1   8
ATOM      8  C   UNL     1      40.989   9.493  -0.756  1.00  0.00     0.000 C 
BRANCH   8   9
ATOM      9  C   UNL     1      40.763   8.383  -1.797  1.00  0.00    -0.000 C 
BRANCH   9  10
ATOM     10  C   UNL     1      41.004   8.867  -3.235  1.00  0.00    -0.003 C 
ATOM     11  C   UNL     1      39.705   9.063  -4.017  1.00  0.00     0.004 C 
ENDBRANCH   9  10
ENDBRANCH   8   9
ENDBRANCH   1   8
TORSDOF 6
ENDMDL
MODEL 6
REMARK VINA RESULT:    -3.915      5.854      7.261
REMARK INTER + INTRA:          -5.616
REMARK INTER:                  -4.944
REMARK INTRA:                  -0.673
REMARK UNBOUND:                -0.328
REMARK SMILES CCCCCCC=CC(=O)[O-]
REMARK SMILES IDX 5 1 6 2 7 3 8 4 9 5 10 6 11 7 4 8 3 9 2 10 1 11
REMARK H PARENT
REMARK Flexibility Score: inf
ROOT
ATOM      1  C   UNL     1      34.736   8.382   5.840  1.00  0.00     0.004 C 
ENDROOT
BRANCH   1   2
ATOM      2  C   UNL     1      35.395   9.761   5.680  1.00  0.00     0.027 C 
BRANCH   2   3
ATOM      3  C   UNL     1      35.051  10.374   4.353  1.00  0.00    -0.025 C 
ATOM      4  C   UNL     1      34.510   9.650   3.367  1.00  0.00     0.020 C 
BRANCH   4   5
ATOM      5  C   UNL     1      34.152  10.233   2.064  1.00  0.00     0.064 C 
ATOM      6  O   UNL     1      34.214  11.476   1.868  1.00  0.00    -0.545 OA
ATOM      7  O   UNL     1      33.741   9.399   1.033  1.00  0.00    -0.545 OA
ENDBRANCH   4   5
ENDBRANCH   2   3
ENDBRANCH   1   2
BRANCH   1   8
ATOM      8  C   UNL     1      35.732   7.301   6.288  1.00  0.00     0.000 C 
BRANCH   8   9
ATOM      9  C   UNL     1      35.774   6.103   5.323  1.00  0.00    -0.000 C 
BRANCH   9  10
ATOM     10  C   UNL     1      36.380   6.467   3.959  1.00  0.00    -0.003 C 
ATOM     11  C   UNL     1      37.786   7.056   4.077  1.00  0.00     0.004 C 
ENDBRANCH   9  10
ENDBRANCH   8   9
ENDBRANCH   1   8
TORSDOF 6
ENDMDL
MODEL 7
REMARK VINA RESULT:    -3.901      9.705     10.615
REMARK INTER + INTRA:          -5.598
REMARK INTER:                  -5.292
REMARK INTRA:                  -0.306
REMARK UNBOUND:                -0.328
REMARK SMILES CCCCCCC=CC(=O)[O-]
REMARK SMILES IDX 5 1 6 2 7 3 8 4 9 5 10 6 11 7 4 8 3 9 2 10 1 11
REMARK H PARENT
REMARK Flexibility Score: inf
ROOT
ATOM      1  C   UNL     1      40.370   2.909  -7.330  1.00  0.00     0.004 C 
ENDROOT
BRANCH   1   2
ATOM      2  C   UNL     1      39.308   4.017  -7.254  1.00  0.00     0.027 C 
BRANCH   2   3
ATOM      3  C   UNL     1      38.404   3.984  -8.453  1.00  0.00    -0.025 C 
ATOM      4  C   UNL     1      38.140   2.842  -9.097  1.00  0.00     0.020 C 
BRANCH   4   5
ATOM      5  C   UNL     1      37.246   2.784 -10.265  1.00  0.00     0.064 C 
ATOM      6  O   UNL     1      36.008   2.990 -10.149  1.00  0.00    -0.545 OA
ATOM      7  O   UNL     1      37.776   2.498 -11.516  1.00  0.00    -0.545 OA
ENDBRANCH   4   5
ENDBRANCH   2   3
ENDBRANCH   1   2
BRANCH   1   8
ATOM      8  C   UNL     1      41.754   3.444  -7.729  1.00  0.00     0.000 C 
BRANCH   8   9
ATOM      9  C   UNL     1      42.891   2.482  -7.346  1.00  0.00    -0.000 C 
BRANCH   9  10
ATOM     10  C   UNL     1      43.001   2.274  -5.828  1.00  0.00    -0.003 C 
ATOM     11  C   UNL     1      42.892   0.803  -5.425  1.00  0.00     0.004 C 
ENDBRANCH   9  10
ENDBRANCH   8   9
ENDBRANCH   1   8
TORSDOF 6
ENDMDL
MODEL 8
REMARK VINA RESULT:    -3.900      8.037      9.335
REMARK INTER + INTRA:          -5.596
REMARK INTER:                  -5.238
REMARK INTRA:                  -0.358
REMARK UNBOUND:                -0.328
REMARK SMILES CCCCCCC=CC(=O)[O-]
REMARK SMILES IDX 5 1 6 2 7 3 8 4 9 5 10 6 11 7 4 8 3 9 2 10 1 11
REMARK H PARENT
REMARK Flexibility Score: inf
ROOT
ATOM      1  C   UNL     1      35.440   9.907   4.158  1.00  0.00     0.004 C 
ENDROOT
BRANCH   1   2
ATOM      2  C   UNL     1      34.872   8.545   3.731  1.00  0.00     0.027 C 
BRANCH   2   3
ATOM      3  C   UNL     1      34.478   7.724   4.925  1.00  0.00    -0.025 C 
ATOM      4  C   UNL     1      35.018   6.522   5.156  1.00  0.00     0.020 C 
BRANCH   4   5
ATOM      5  C   UNL     1      34.658   5.708   6.328  1.00  0.00     0.064 C 
ATOM      6  O   UNL     1      34.836   4.460   6.334  1.00  0.00    -0.545 OA
ATOM      7  O   UNL     1      34.114   6.325   7.447  1.00  0.00    -0.545 OA
ENDBRANCH   4   5
ENDBRANCH   2   3
ENDBRANCH   1   2
BRANCH   1   8
ATOM      8  C   UNL     1      34.609  11.085   3.626  1.00  0.00     0.000 C 
BRANCH   8   9
ATOM      9  C   UNL     1      34.464  11.061   2.094  1.00  0.00    -0.000 C 
BRANCH   9  10
ATOM     10  C   UNL     1      33.022  10.780   1.643  1.00  0.00    -0.003 C 
ATOM     11  C   UNL     1      32.012  10.914   2.784  1.00  0.00     0.004 C 
ENDBRANCH   9  10
ENDBRANCH   8   9
ENDBRANCH   1   8
TORSDOF 6
ENDMDL
MODEL 9
REMARK VINA RESULT:    -3.789      9.157     10.343
REMARK INTER + INTRA:          -5.447
REMARK INTER:                  -4.763
REMARK INTRA:                  -0.684
REMARK UNBOUND:                -0.328
REMARK SMILES CCCCCCC=CC(=O)[O-]
REMARK SMILES IDX 5 1 6 2 7 3 8 4 9 5 10 6 11 7 4 8 3 9 2 10 1 11
REMARK H PARENT
REMARK Flexibility Score: inf
ROOT
ATOM      1  C   UNL     1      41.228   3.076  -9.642  1.00  0.00     0.004 C 
ENDROOT
BRANCH   1   2
ATOM      2  C   UNL     1      42.350   3.938  -9.044  1.00  0.00     0.027 C 
BRANCH   2   3
ATOM      3  C   UNL     1      42.691   3.494  -7.650  1.00  0.00    -0.025 C 
ATOM      4  C   UNL     1      42.440   2.248  -7.233  1.00  0.00     0.020 C 
BRANCH   4   5
ATOM      5  C   UNL     1      42.777   1.788  -5.877  1.00  0.00     0.064 C 
ATOM      6  O   UNL     1      41.884   1.624  -5.003  1.00  0.00    -0.545 OA
ATOM      7  O   UNL     1      44.103   1.528  -5.554  1.00  0.00    -0.545 OA
ENDBRANCH   4   5
ENDBRANCH   2   3
ENDBRANCH   1   2
BRANCH   1   8
ATOM      8  C   UNL     1      39.865   3.784  -9.621  1.00  0.00     0.000 C 
BRANCH   8   9
ATOM      9  C   UNL     1      38.975   3.316  -8.456  1.00  0.00    -0.000 C 
BRANCH   9  10
ATOM     10  C   UNL     1      39.060   4.250  -7.239  1.00  0.00    -0.003 C 
ATOM     11  C   UNL     1      38.998   5.728  -7.625  1.00  0.00     0.004 C 
ENDBRANCH   9  10
ENDBRANCH   8   9
ENDBRANCH   1   8
TORSDOF 6
ENDMDL
