MODEL 1
REMARK VINA RESULT:    -3.281      0.000      0.000
REMARK INTER + INTRA:          -7.205
REMARK INTER:                  -5.774
REMARK INTRA:                  -1.431
REMARK UNBOUND:                -1.431
REMARK SMILES CCCCCCCCCCCCCCC(=O)[O-]
REMARK SMILES IDX 9 1 10 2 11 3 12 4 13 5 14 6 15 7 16 8 17 9 8 10 7 11 6 12
REMARK SMILES IDX 5 13 4 14 3 15 2 16 1 17
REMARK H PARENT
REMARK Flexibility Score: inf
ROOT
ATOM      1  C   UNL     1      54.412   2.683  22.443  1.00  0.00     0.000 C 
ENDROOT
BRANCH   1   2
ATOM      2  C   UNL     1      52.913   2.566  22.114  1.00  0.00     0.000 C 
BRANCH   2   3
ATOM      3  C   UNL     1      52.650   1.880  20.764  1.00  0.00     0.000 C 
BRANCH   3   4
ATOM      4  C   UNL     1      53.051   0.396  20.767  1.00  0.00     0.000 C 
BRANCH   4   5
ATOM      5  C   UNL     1      51.838  -0.545  20.857  1.00  0.00     0.006 C 
BRANCH   5   6
ATOM      6  C   UNL     1      51.867  -1.408  22.125  1.00  0.00     0.053 C 
BRANCH   6   7
ATOM      7  C   UNL     1      50.787  -1.019  23.087  1.00  0.00     0.041 C 
ATOM      8  O   UNL     1      50.489   0.193  23.251  1.00  0.00    -0.550 OA
ATOM      9  O   UNL     1      50.131  -1.995  23.827  1.00  0.00    -0.550 OA
ENDBRANCH   6   7
ENDBRANCH   5   6
ENDBRANCH   4   5
ENDBRANCH   3   4
ENDBRANCH   2   3
ENDBRANCH   1   2
BRANCH   1  10
ATOM     10  C   UNL     1      54.833   1.897  23.702  1.00  0.00     0.000 C 
BRANCH  10  11
ATOM     11  C   UNL     1      56.021   0.958  23.428  1.00  0.00    -0.000 C 
BRANCH  11  12
ATOM     12  C   UNL     1      56.590   1.124  22.011  1.00  0.00    -0.000 C 
BRANCH  12  13
ATOM     13  C   UNL     1      57.256  -0.159  21.490  1.00  0.00    -0.000 C 
BRANCH  13  14
ATOM     14  C   UNL     1      57.228  -1.263  22.553  1.00  0.00    -0.000 C 
BRANCH  14  15
ATOM     15  C   UNL     1      58.596  -1.952  22.666  1.00  0.00    -0.000 C 
BRANCH  15  16
ATOM     16  C   UNL     1      59.034  -2.161  24.124  1.00  0.00    -0.003 C 
ATOM     17  C   UNL     1      58.225  -1.321  25.111  1.00  0.00     0.004 C 
ENDBRANCH  15  16
ENDBRANCH  14  15
ENDBRANCH  13  14
ENDBRANCH  12  13
ENDBRANCH  11  12
ENDBRANCH  10  11
ENDBRANCH   1  10
TORSDOF 13
ENDMDL
MODEL 2
REMARK VINA RESULT:    -3.223     20.038     21.724
REMARK INTER + INTRA:          -7.104
REMARK INTER:                  -5.692
REMARK INTRA:                  -1.412
REMARK UNBOUND:                -1.431
REMARK SMILES CCCCCCCCCCCCCCC(=O)[O-]
REMARK SMILES IDX 9 1 10 2 11 3 12 4 13 5 14 6 15 7 16 8 17 9 8 10 7 11 6 12
REMARK SMILES IDX 5 13 4 14 3 15 2 16 1 17
REMARK H PARENT
REMARK Flexibility Score: inf
ROOT
ATOM      1  C   UNL     1      56.446 -14.810   9.383  1.00  0.00     0.000 C 
ENDROOT
BRANCH   1   2
ATOM      2  C   UNL     1      56.250 -16.313   9.118  1.00  0.00     0.000 C 
BRANCH   2   3
ATOM      3  C   UNL     1      55.449 -17.015  10.227  1.00  0.00     0.000 C 
BRANCH   3   4
ATOM      4  C   UNL     1      55.498 -16.256  11.563  1.00  0.00     0.000 C 
BRANCH   4   5
ATOM      5  C   UNL     1      56.330 -16.988  12.630  1.00  0.00     0.006 C 
BRANCH   5   6
ATOM      6  C   UNL     1      57.835 -16.903  12.349  1.00  0.00     0.053 C 
BRANCH   6   7
ATOM      7  C   UNL     1      58.613 -16.567  13.584  1.00  0.00     0.041 C 
ATOM      8  O   UNL     1      59.872 -16.544  13.555  1.00  0.00    -0.550 OA
ATOM      9  O   UNL     1      57.948 -16.309  14.777  1.00  0.00    -0.550 OA
ENDBRANCH   6   7
ENDBRANCH   5   6
ENDBRANCH   4   5
ENDBRANCH   3   4
ENDBRANCH   2   3
ENDBRANCH   1   2
BRANCH   1  10
ATOM     10  C   UNL     1      57.559 -14.171   8.526  1.00  0.00     0.000 C 
BRANCH  10  11
ATOM     11  C   UNL     1      58.134 -15.159   7.494  1.00  0.00    -0.000 C 
BRANCH  11  12
ATOM     12  C   UNL     1      57.743 -14.799   6.052  1.00  0.00    -0.000 C 
BRANCH  12  13
ATOM     13  C   UNL     1      57.772 -16.016   5.114  1.00  0.00    -0.000 C 
BRANCH  13  14
ATOM     14  C   UNL     1      56.360 -16.570   4.890  1.00  0.00    -0.000 C 
BRANCH  14  15
ATOM     15  C   UNL     1      55.295 -15.527   5.258  1.00  0.00    -0.000 C 
BRANCH  15  16
ATOM     16  C   UNL     1      53.909 -16.151   5.482  1.00  0.00    -0.003 C 
ATOM     17  C   UNL     1      53.441 -16.051   6.933  1.00  0.00     0.004 C 
ENDBRANCH  15  16
ENDBRANCH  14  15
ENDBRANCH  13  14
ENDBRANCH  12  13
ENDBRANCH  11  12
ENDBRANCH  10  11
ENDBRANCH   1  10
TORSDOF 13
ENDMDL
MODEL 3
REMARK VINA RESULT:    -3.219      1.332      2.293
REMARK INTER + INTRA:          -7.096
REMARK INTER:                  -5.358
REMARK INTRA:                  -1.738
REMARK UNBOUND:                -1.431
REMARK SMILES CCCCCCCCCCCCCCC(=O)[O-]
REMARK SMILES IDX 9 1 10 2 11 3 12 4 13 5 14 6 15 7 16 8 17 9 8 10 7 11 6 12
REMARK SMILES IDX 5 13 4 14 3 15 2 16 1 17
REMARK H PARENT
REMARK Flexibility Score: inf
ROOT
ATOM      1  C   UNL     1      54.463   1.252  22.268  1.00  0.00     0.000 C 
ENDROOT
BRANCH   1   2
ATOM      2  C   UNL     1      53.771  -0.036  21.788  1.00  0.00     0.000 C 
BRANCH   2   3
ATOM      3  C   UNL     1      52.779   0.211  20.639  1.00  0.00     0.000 C 
BRANCH   3   4
ATOM      4  C   UNL     1      51.531  -0.681  20.734  1.00  0.00     0.000 C 
BRANCH   4   5
ATOM      5  C   UNL     1      51.237  -1.137  22.173  1.00  0.00     0.006 C 
BRANCH   5   6
ATOM      6  C   UNL     1      50.172  -0.266  22.850  1.00  0.00     0.053 C 
BRANCH   6   7
ATOM      7  C   UNL     1      50.779   0.712  23.809  1.00  0.00     0.041 C 
ATOM      8  O   UNL     1      50.988   1.901  23.455  1.00  0.00    -0.550 OA
ATOM      9  O   UNL     1      51.143   0.299  25.085  1.00  0.00    -0.550 OA
ENDBRANCH   6   7
ENDBRANCH   5   6
ENDBRANCH   4   5
ENDBRANCH   3   4
ENDBRANCH   2   3
ENDBRANCH   1   2
BRANCH   1  10
ATOM     10  C   UNL     1      54.847   1.229  23.762  1.00  0.00     0.000 C 
BRANCH  10  11
ATOM     11  C   UNL     1      56.336   1.548  23.983  1.00  0.00    -0.000 C 
BRANCH  11  12
ATOM     12  C   UNL     1      57.029   0.527  24.897  1.00  0.00    -0.000 C 
BRANCH  12  13
ATOM     13  C   UNL     1      56.945  -0.906  24.349  1.00  0.00    -0.000 C 
BRANCH  13  14
ATOM     14  C   UNL     1      58.343  -1.475  24.080  1.00  0.00    -0.000 C 
BRANCH  14  15
ATOM     15  C   UNL     1      58.553  -1.733  22.581  1.00  0.00    -0.000 C 
BRANCH  15  16
ATOM     16  C   UNL     1      57.348  -1.299  21.732  1.00  0.00    -0.003 C 
ATOM     17  C   UNL     1      57.637  -0.062  20.882  1.00  0.00     0.004 C 
ENDBRANCH  15  16
ENDBRANCH  14  15
ENDBRANCH  13  14
ENDBRANCH  12  13
ENDBRANCH  11  12
ENDBRANCH  10  11
ENDBRANCH   1  10
TORSDOF 13
ENDMDL
MODEL 4
REMARK VINA RESULT:    -3.153     19.957     21.337
REMARK INTER + INTRA:          -6.980
REMARK INTER:                  -5.837
REMARK INTRA:                  -1.143
REMARK UNBOUND:                -1.431
REMARK SMILES CCCCCCCCCCCCCCC(=O)[O-]
REMARK SMILES IDX 9 1 10 2 11 3 12 4 13 5 14 6 15 7 16 8 17 9 8 10 7 11 6 12
REMARK SMILES IDX 5 13 4 14 3 15 2 16 1 17
REMARK H PARENT
REMARK Flexibility Score: inf
ROOT
ATOM      1  C   UNL     1      57.208 -14.129   8.708  1.00  0.00     0.000 C 
ENDROOT
BRANCH   1   2
ATOM      2  C   UNL     1      58.189 -14.429   7.561  1.00  0.00     0.000 C 
BRANCH   2   3
ATOM      3  C   UNL     1      57.682 -15.527   6.612  1.00  0.00     0.000 C 
BRANCH   3   4
ATOM      4  C   UNL     1      57.225 -14.970   5.255  1.00  0.00     0.000 C 
BRANCH   4   5
ATOM      5  C   UNL     1      55.806 -15.427   4.875  1.00  0.00     0.006 C 
BRANCH   5   6
ATOM      6  C   UNL     1      55.094 -16.132   6.036  1.00  0.00     0.053 C 
BRANCH   6   7
ATOM      7  C   UNL     1      53.605 -16.007   5.935  1.00  0.00     0.041 C 
ATOM      8  O   UNL     1      52.861 -16.589   6.767  1.00  0.00    -0.550 OA
ATOM      9  O   UNL     1      53.038 -15.270   4.902  1.00  0.00    -0.550 OA
ENDBRANCH   6   7
ENDBRANCH   5   6
ENDBRANCH   4   5
ENDBRANCH   3   4
ENDBRANCH   2   3
ENDBRANCH   1   2
BRANCH   1  10
ATOM     10  C   UNL     1      57.173 -15.224   9.795  1.00  0.00     0.000 C 
BRANCH  10  11
ATOM     11  C   UNL     1      55.872 -16.045   9.748  1.00  0.00    -0.000 C 
BRANCH  11  12
ATOM     12  C   UNL     1      55.655 -16.878  11.020  1.00  0.00    -0.000 C 
BRANCH  12  13
ATOM     13  C   UNL     1      55.276 -16.014  12.233  1.00  0.00    -0.000 C 
BRANCH  13  14
ATOM     14  C   UNL     1      56.100 -16.404  13.465  1.00  0.00    -0.000 C 
BRANCH  14  15
ATOM     15  C   UNL     1      57.393 -17.125  13.056  1.00  0.00    -0.000 C 
BRANCH  15  16
ATOM     16  C   UNL     1      58.653 -16.422  13.585  1.00  0.00    -0.003 C 
ATOM     17  C   UNL     1      59.944 -17.121  13.158  1.00  0.00     0.004 C 
ENDBRANCH  15  16
ENDBRANCH  14  15
ENDBRANCH  13  14
ENDBRANCH  12  13
ENDBRANCH  11  12
ENDBRANCH  10  11
ENDBRANCH   1  10
TORSDOF 13
ENDMDL
MODEL 5
REMARK VINA RESULT:    -3.136      3.212      6.193
REMARK INTER + INTRA:          -6.951
REMARK INTER:                  -5.638
REMARK INTRA:                  -1.313
REMARK UNBOUND:                -1.431
REMARK SMILES CCCCCCCCCCCCCCC(=O)[O-]
REMARK SMILES IDX 9 1 10 2 11 3 12 4 13 5 14 6 15 7 16 8 17 9 8 10 7 11 6 12
REMARK SMILES IDX 5 13 4 14 3 15 2 16 1 17
REMARK H PARENT
REMARK Flexibility Score: inf
ROOT
ATOM      1  C   UNL     1      55.345   2.190  22.863  1.00  0.00     0.000 C 
ENDROOT
BRANCH   1   2
ATOM      2  C   UNL     1      56.498   1.171  22.872  1.00  0.00     0.000 C 
BRANCH   2   3
ATOM      3  C   UNL     1      57.061   0.893  21.469  1.00  0.00     0.000 C 
BRANCH   3   4
ATOM      4  C   UNL     1      57.440  -0.583  21.267  1.00  0.00     0.000 C 
BRANCH   4   5
ATOM      5  C   UNL     1      57.251  -1.423  22.542  1.00  0.00     0.006 C 
BRANCH   5   6
ATOM      6  C   UNL     1      58.540  -2.140  22.959  1.00  0.00     0.053 C 
BRANCH   6   7
ATOM      7  C   UNL     1      58.984  -1.734  24.331  1.00  0.00     0.041 C 
ATOM      8  O   UNL     1      58.174  -1.188  25.125  1.00  0.00    -0.550 OA
ATOM      9  O   UNL     1      60.303  -1.932  24.722  1.00  0.00    -0.550 OA
ENDBRANCH   6   7
ENDBRANCH   5   6
ENDBRANCH   4   5
ENDBRANCH   3   4
ENDBRANCH   2   3
ENDBRANCH   1   2
BRANCH   1  10
ATOM     10  C   UNL     1      54.107   1.730  23.660  1.00  0.00     0.000 C 
BRANCH  10  11
ATOM     11  C   UNL     1      52.802   1.924  22.866  1.00  0.00    -0.000 C 
BRANCH  11  12
ATOM     12  C   UNL     1      52.999   1.737  21.354  1.00  0.00    -0.000 C 
BRANCH  12  13
ATOM     13  C   UNL     1      53.230   0.268  20.968  1.00  0.00    -0.000 C 
BRANCH  13  14
ATOM     14  C   UNL     1      52.095  -0.251  20.077  1.00  0.00    -0.000 C 
BRANCH  14  15
ATOM     15  C   UNL     1      50.799  -0.427  20.882  1.00  0.00    -0.000 C 
BRANCH  15  16
ATOM     16  C   UNL     1      50.966  -1.392  22.066  1.00  0.00    -0.003 C 
ATOM     17  C   UNL     1      50.371  -0.846  23.363  1.00  0.00     0.004 C 
ENDBRANCH  15  16
ENDBRANCH  14  15
ENDBRANCH  13  14
ENDBRANCH  12  13
ENDBRANCH  11  12
ENDBRANCH  10  11
ENDBRANCH   1  10
TORSDOF 13
ENDMDL
MODEL 6
REMARK VINA RESULT:    -3.053      2.818      6.107
REMARK INTER + INTRA:          -6.804
REMARK INTER:                  -4.836
REMARK INTRA:                  -1.968
REMARK UNBOUND:                -1.431
REMARK SMILES CCCCCCCCCCCCCCC(=O)[O-]
REMARK SMILES IDX 9 1 10 2 11 3 12 4 13 5 14 6 15 7 16 8 17 9 8 10 7 11 6 12
REMARK SMILES IDX 5 13 4 14 3 15 2 16 1 17
REMARK H PARENT
REMARK Flexibility Score: inf
ROOT
ATOM      1  C   UNL     1      51.250   1.799  24.287  1.00  0.00     0.000 C 
ENDROOT
BRANCH   1   2
ATOM      2  C   UNL     1      52.397   2.417  23.468  1.00  0.00     0.000 C 
BRANCH   2   3
ATOM      3  C   UNL     1      53.758   1.764  23.758  1.00  0.00     0.000 C 
BRANCH   3   4
ATOM      4  C   UNL     1      54.735   1.885  22.578  1.00  0.00     0.000 C 
BRANCH   4   5
ATOM      5  C   UNL     1      56.107   1.257  22.878  1.00  0.00     0.006 C 
BRANCH   5   6
ATOM      6  C   UNL     1      56.496   0.193  21.844  1.00  0.00     0.053 C 
BRANCH   6   7
ATOM      7  C   UNL     1      57.121  -1.006  22.487  1.00  0.00     0.041 C 
ATOM      8  O   UNL     1      57.844  -1.784  21.812  1.00  0.00    -0.550 OA
ATOM      9  O   UNL     1      56.879  -1.282  23.828  1.00  0.00    -0.550 OA
ENDBRANCH   6   7
ENDBRANCH   5   6
ENDBRANCH   4   5
ENDBRANCH   3   4
ENDBRANCH   2   3
ENDBRANCH   1   2
BRANCH   1  10
ATOM     10  C   UNL     1      50.390   0.797  23.491  1.00  0.00     0.000 C 
BRANCH  10  11
ATOM     11  C   UNL     1      50.897  -0.649  23.642  1.00  0.00    -0.000 C 
BRANCH  11  12
ATOM     12  C   UNL     1      51.174  -1.321  22.289  1.00  0.00    -0.000 C 
BRANCH  12  13
ATOM     13  C   UNL     1      52.553  -0.951  21.721  1.00  0.00    -0.000 C 
BRANCH  13  14
ATOM     14  C   UNL     1      52.415  -0.106  20.450  1.00  0.00    -0.000 C 
BRANCH  14  15
ATOM     15  C   UNL     1      51.026  -0.285  19.818  1.00  0.00    -0.000 C 
BRANCH  15  16
ATOM     16  C   UNL     1      50.405   1.046  19.369  1.00  0.00    -0.003 C 
ATOM     17  C   UNL     1      50.943   2.244  20.151  1.00  0.00     0.004 C 
ENDBRANCH  15  16
ENDBRANCH  14  15
ENDBRANCH  13  14
ENDBRANCH  12  13
ENDBRANCH  11  12
ENDBRANCH  10  11
ENDBRANCH   1  10
TORSDOF 13
ENDMDL
MODEL 7
REMARK VINA RESULT:    -3.027      2.995      6.123
REMARK INTER + INTRA:          -6.759
REMARK INTER:                  -5.375
REMARK INTRA:                  -1.384
REMARK UNBOUND:                -1.431
REMARK SMILES CCCCCCCCCCCCCCC(=O)[O-]
REMARK SMILES IDX 9 1 10 2 11 3 12 4 13 5 14 6 15 7 16 8 17 9 8 10 7 11 6 12
REMARK SMILES IDX 5 13 4 14 3 15 2 16 1 17
REMARK H PARENT
REMARK Flexibility Score: inf
ROOT
ATOM      1  C   UNL     1      53.802   2.865  22.639  1.00  0.00     0.000 C 
ENDROOT
BRANCH   1   2
ATOM      2  C   UNL     1      54.735   1.845  23.316  1.00  0.00     0.000 C 
BRANCH   2   3
ATOM      3  C   UNL     1      56.020   1.585  22.513  1.00  0.00     0.000 C 
BRANCH   3   4
ATOM      4  C   UNL     1      56.043   0.190  21.869  1.00  0.00     0.000 C 
BRANCH   4   5
ATOM      5  C   UNL     1      57.461  -0.258  21.477  1.00  0.00     0.006 C 
BRANCH   5   6
ATOM      6  C   UNL     1      57.806  -1.644  22.035  1.00  0.00     0.053 C 
BRANCH   6   7
ATOM      7  C   UNL     1      58.254  -1.574  23.462  1.00  0.00     0.041 C 
ATOM      8  O   UNL     1      59.448  -1.830  23.766  1.00  0.00    -0.550 OA
ATOM      9  O   UNL     1      57.343  -1.254  24.462  1.00  0.00    -0.550 OA
ENDBRANCH   6   7
ENDBRANCH   5   6
ENDBRANCH   4   5
ENDBRANCH   3   4
ENDBRANCH   2   3
ENDBRANCH   1   2
BRANCH   1  10
ATOM     10  C   UNL     1      52.303   2.570  22.852  1.00  0.00     0.000 C 
BRANCH  10  11
ATOM     11  C   UNL     1      52.077   1.307  23.703  1.00  0.00    -0.000 C 
BRANCH  11  12
ATOM     12  C   UNL     1      50.653   0.748  23.561  1.00  0.00    -0.000 C 
BRANCH  12  13
ATOM     13  C   UNL     1      50.629  -0.786  23.474  1.00  0.00    -0.000 C 
BRANCH  13  14
ATOM     14  C   UNL     1      51.454  -1.282  22.281  1.00  0.00    -0.000 C 
BRANCH  14  15
ATOM     15  C   UNL     1      50.648  -1.185  20.977  1.00  0.00    -0.000 C 
BRANCH  15  16
ATOM     16  C   UNL     1      51.293  -0.240  19.952  1.00  0.00    -0.003 C 
ATOM     17  C   UNL     1      52.747   0.093  20.287  1.00  0.00     0.004 C 
ENDBRANCH  15  16
ENDBRANCH  14  15
ENDBRANCH  13  14
ENDBRANCH  12  13
ENDBRANCH  11  12
ENDBRANCH  10  11
ENDBRANCH   1  10
TORSDOF 13
ENDMDL
MODEL 8
REMARK VINA RESULT:    -3.002      3.073      6.071
REMARK INTER + INTRA:          -6.715
REMARK INTER:                  -4.670
REMARK INTRA:                  -2.046
REMARK UNBOUND:                -1.431
REMARK SMILES CCCCCCCCCCCCCCC(=O)[O-]
REMARK SMILES IDX 9 1 10 2 11 3 12 4 13 5 14 6 15 7 16 8 17 9 8 10 7 11 6 12
REMARK SMILES IDX 5 13 4 14 3 15 2 16 1 17
REMARK H PARENT
REMARK Flexibility Score: inf
ROOT
ATOM      1  C   UNL     1      52.628   2.322  23.631  1.00  0.00     0.000 C 
ENDROOT
BRANCH   1   2
ATOM      2  C   UNL     1      53.382   2.817  22.385  1.00  0.00     0.000 C 
BRANCH   2   3
ATOM      3  C   UNL     1      54.910   2.746  22.545  1.00  0.00     0.000 C 
BRANCH   3   4
ATOM      4  C   UNL     1      55.374   1.441  23.211  1.00  0.00     0.000 C 
BRANCH   4   5
ATOM      5  C   UNL     1      55.409   0.256  22.231  1.00  0.00     0.006 C 
BRANCH   5   6
ATOM      6  C   UNL     1      56.281  -0.895  22.746  1.00  0.00     0.053 C 
BRANCH   6   7
ATOM      7  C   UNL     1      57.572  -0.997  21.991  1.00  0.00     0.041 C 
ATOM      8  O   UNL     1      57.781  -0.263  20.990  1.00  0.00    -0.550 OA
ATOM      9  O   UNL     1      58.531  -1.925  22.378  1.00  0.00    -0.550 OA
ENDBRANCH   6   7
ENDBRANCH   5   6
ENDBRANCH   4   5
ENDBRANCH   3   4
ENDBRANCH   2   3
ENDBRANCH   1   2
BRANCH   1  10
ATOM     10  C   UNL     1      51.124   2.669  23.623  1.00  0.00     0.000 C 
BRANCH  10  11
ATOM     11  C   UNL     1      50.239   1.410  23.639  1.00  0.00    -0.000 C 
BRANCH  11  12
ATOM     12  C   UNL     1      51.060   0.112  23.686  1.00  0.00    -0.000 C 
BRANCH  12  13
ATOM     13  C   UNL     1      50.838  -0.770  22.448  1.00  0.00    -0.000 C 
BRANCH  13  14
ATOM     14  C   UNL     1      52.149  -0.983  21.683  1.00  0.00    -0.000 C 
BRANCH  14  15
ATOM     15  C   UNL     1      52.197  -0.110  20.420  1.00  0.00    -0.000 C 
BRANCH  15  16
ATOM     16  C   UNL     1      50.808   0.386  19.992  1.00  0.00    -0.003 C 
ATOM     17  C   UNL     1      50.736   1.908  19.865  1.00  0.00     0.004 C 
ENDBRANCH  15  16
ENDBRANCH  14  15
ENDBRANCH  13  14
ENDBRANCH  12  13
ENDBRANCH  11  12
ENDBRANCH  10  11
ENDBRANCH   1  10
TORSDOF 13
ENDMDL
MODEL 9
REMARK VINA RESULT:    -2.997      3.336      6.400
REMARK INTER + INTRA:          -6.705
REMARK INTER:                  -5.047
REMARK INTRA:                  -1.658
REMARK UNBOUND:                -1.431
REMARK SMILES CCCCCCCCCCCCCCC(=O)[O-]
REMARK SMILES IDX 9 1 10 2 11 3 12 4 13 5 14 6 15 7 16 8 17 9 8 10 7 11 6 12
REMARK SMILES IDX 5 13 4 14 3 15 2 16 1 17
REMARK H PARENT
REMARK Flexibility Score: inf
ROOT
ATOM      1  C   UNL     1      53.597   1.745  23.011  1.00  0.00     0.000 C 
ENDROOT
BRANCH   1   2
ATOM      2  C   UNL     1      54.288   0.806  22.007  1.00  0.00     0.000 C 
BRANCH   2   3
ATOM      3  C   UNL     1      55.686   0.361  22.469  1.00  0.00     0.000 C 
BRANCH   3   4
ATOM      4  C   UNL     1      56.052   0.912  23.856  1.00  0.00     0.000 C 
BRANCH   4   5
ATOM      5  C   UNL     1      57.309   0.249  24.444  1.00  0.00     0.006 C 
BRANCH   5   6
ATOM      6  C   UNL     1      57.310  -1.271  24.242  1.00  0.00     0.053 C 
BRANCH   6   7
ATOM      7  C   UNL     1      58.594  -1.752  23.638  1.00  0.00     0.041 C 
ATOM      8  O   UNL     1      58.597  -2.302  22.506  1.00  0.00    -0.550 OA
ATOM      9  O   UNL     1      59.785  -1.620  24.342  1.00  0.00    -0.550 OA
ENDBRANCH   6   7
ENDBRANCH   5   6
ENDBRANCH   4   5
ENDBRANCH   3   4
ENDBRANCH   2   3
ENDBRANCH   1   2
BRANCH   1  10
ATOM     10  C   UNL     1      52.273   2.342  22.490  1.00  0.00     0.000 C 
BRANCH  10  11
ATOM     11  C   UNL     1      52.157   2.245  20.958  1.00  0.00    -0.000 C 
BRANCH  11  12
ATOM     12  C   UNL     1      50.711   2.025  20.489  1.00  0.00    -0.000 C 
BRANCH  12  13
ATOM     13  C   UNL     1      50.587   0.866  19.487  1.00  0.00    -0.000 C 
BRANCH  13  14
ATOM     14  C   UNL     1      51.412  -0.344  19.943  1.00  0.00    -0.000 C 
BRANCH  14  15
ATOM     15  C   UNL     1      50.629  -1.194  20.954  1.00  0.00    -0.000 C 
BRANCH  15  16
ATOM     16  C   UNL     1      51.373  -1.359  22.288  1.00  0.00    -0.003 C 
ATOM     17  C   UNL     1      50.574  -0.835  23.481  1.00  0.00     0.004 C 
ENDBRANCH  15  16
ENDBRANCH  14  15
ENDBRANCH  13  14
ENDBRANCH  12  13
ENDBRANCH  11  12
ENDBRANCH  10  11
ENDBRANCH   1  10
TORSDOF 13
ENDMDL
