MODEL 1
REMARK VINA RESULT:    -3.088      0.000      0.000
REMARK INTER + INTRA:          -3.803
REMARK INTER:                  -3.630
REMARK INTRA:                  -0.173
REMARK UNBOUND:                -0.173
REMARK SMILES [NH3+][C@@H](CO)C(=O)[O-]
REMARK SMILES IDX 3 1 2 2 1 3 5 7 6 8 7 9 4 10
REMARK H PARENT 1 4 1 5 1 6 4 11
REMARK Flexibility Score: inf
ROOT
ATOM      1  C   UNL     1     168.059 176.254  75.203  1.00  0.00     0.227 C 
ENDROOT
BRANCH   1   2
ATOM      2  C   UNL     1     168.958 175.999  73.983  1.00  0.00     0.253 C 
BRANCH   2   3
ATOM      3  N   UNL     1     170.058 176.970  73.922  1.00  0.00    -0.348 N 
ATOM      4  H   UNL     1     170.604 176.859  73.036  1.00  0.00     0.345 HD
ATOM      5  H   UNL     1     170.698 176.832  74.739  1.00  0.00     0.345 HD
ATOM      6  H   UNL     1     169.678 177.943  73.969  1.00  0.00     0.345 HD
ENDBRANCH   2   3
BRANCH   2   7
ATOM      7  C   UNL     1     168.143 176.048  72.718  1.00  0.00     0.102 C 
ATOM      8  O   UNL     1     168.701 176.235  71.605  1.00  0.00    -0.544 OA
ATOM      9  O   UNL     1     166.763 175.901  72.777  1.00  0.00    -0.544 OA
ENDBRANCH   2   7
ENDBRANCH   1   2
BRANCH   1  10
ATOM     10  O   UNL     1     167.746 177.617  75.290  1.00  0.00    -0.390 OA
ATOM     11  H   UNL     1     168.584 178.075  75.559  1.00  0.00     0.210 HD
ENDBRANCH   1  10
TORSDOF 4
ENDMDL
MODEL 2
REMARK VINA RESULT:    -3.060      2.022      2.301
REMARK INTER + INTRA:          -3.769
REMARK INTER:                  -3.391
REMARK INTRA:                  -0.378
REMARK UNBOUND:                -0.173
REMARK SMILES [NH3+][C@@H](CO)C(=O)[O-]
REMARK SMILES IDX 3 1 2 2 1 3 5 7 6 8 7 9 4 10
REMARK H PARENT 1 4 1 5 1 6 4 11
REMARK Flexibility Score: inf
ROOT
ATOM      1  C   UNL     1     167.062 176.671  74.798  1.00  0.00     0.227 C 
ENDROOT
BRANCH   1   2
ATOM      2  C   UNL     1     167.748 176.023  73.585  1.00  0.00     0.253 C 
BRANCH   2   3
ATOM      3  N   UNL     1     167.576 174.564  73.594  1.00  0.00    -0.348 N 
ATOM      4  H   UNL     1     168.017 174.144  74.445  1.00  0.00     0.345 HD
ATOM      5  H   UNL     1     168.015 174.150  72.739  1.00  0.00     0.345 HD
ATOM      6  H   UNL     1     166.558 174.326  73.584  1.00  0.00     0.345 HD
ENDBRANCH   2   3
BRANCH   2   7
ATOM      7  C   UNL     1     169.211 176.379  73.565  1.00  0.00     0.102 C 
ATOM      8  O   UNL     1     170.016 175.819  74.356  1.00  0.00    -0.544 OA
ATOM      9  O   UNL     1     169.678 177.343  72.681  1.00  0.00    -0.544 OA
ENDBRANCH   2   7
ENDBRANCH   1   2
BRANCH   1  10
ATOM     10  O   UNL     1     167.840 177.733  75.277  1.00  0.00    -0.390 OA
ATOM     11  H   UNL     1     168.782 177.422  75.245  1.00  0.00     0.210 HD
ENDBRANCH   1  10
TORSDOF 4
ENDMDL
MODEL 3
REMARK VINA RESULT:    -3.013      2.285      2.710
REMARK INTER + INTRA:          -3.715
REMARK INTER:                  -3.488
REMARK INTRA:                  -0.227
REMARK UNBOUND:                -0.173
REMARK SMILES [NH3+][C@@H](CO)C(=O)[O-]
REMARK SMILES IDX 3 1 2 2 1 3 5 7 6 8 7 9 4 10
REMARK H PARENT 1 4 1 5 1 6 4 11
REMARK Flexibility Score: inf
ROOT
ATOM      1  C   UNL     1     168.873 176.790  73.342  1.00  0.00     0.227 C 
ENDROOT
BRANCH   1   2
ATOM      2  C   UNL     1     167.691 176.635  74.312  1.00  0.00     0.253 C 
BRANCH   2   3
ATOM      3  N   UNL     1     167.683 177.711  75.312  1.00  0.00    -0.348 N 
ATOM      4  H   UNL     1     168.399 177.534  76.054  1.00  0.00     0.345 HD
ATOM      5  H   UNL     1     166.737 177.773  75.757  1.00  0.00     0.345 HD
ATOM      6  H   UNL     1     167.886 178.627  74.853  1.00  0.00     0.345 HD
ENDBRANCH   2   3
BRANCH   2   7
ATOM      7  C   UNL     1     167.747 175.290  74.987  1.00  0.00     0.102 C 
ATOM      8  O   UNL     1     168.625 174.448  74.661  1.00  0.00    -0.544 OA
ATOM      9  O   UNL     1     166.815 174.966  75.964  1.00  0.00    -0.544 OA
ENDBRANCH   2   7
ENDBRANCH   1   2
BRANCH   1  10
ATOM     10  O   UNL     1     170.063 176.965  74.060  1.00  0.00    -0.390 OA
ATOM     11  H   UNL     1     170.789 176.614  73.481  1.00  0.00     0.210 HD
ENDBRANCH   1  10
TORSDOF 4
ENDMDL
MODEL 4
REMARK VINA RESULT:    -2.977      4.023      5.076
REMARK INTER + INTRA:          -3.672
REMARK INTER:                  -3.455
REMARK INTRA:                  -0.217
REMARK UNBOUND:                -0.173
REMARK SMILES [NH3+][C@@H](CO)C(=O)[O-]
REMARK SMILES IDX 3 1 2 2 1 3 5 7 6 8 7 9 4 10
REMARK H PARENT 1 4 1 5 1 6 4 11
REMARK Flexibility Score: inf
ROOT
ATOM      1  C   UNL     1     165.000 175.983  73.566  1.00  0.00     0.227 C 
ENDROOT
BRANCH   1   2
ATOM      2  C   UNL     1     164.690 176.805  74.827  1.00  0.00     0.253 C 
BRANCH   2   3
ATOM      3  N   UNL     1     165.908 177.058  75.607  1.00  0.00    -0.348 N 
ATOM      4  H   UNL     1     166.122 176.249  76.236  1.00  0.00     0.345 HD
ATOM      5  H   UNL     1     165.784 177.920  76.188  1.00  0.00     0.345 HD
ATOM      6  H   UNL     1     166.717 177.214  74.964  1.00  0.00     0.345 HD
ENDBRANCH   2   3
BRANCH   2   7
ATOM      7  C   UNL     1     163.664 176.094  75.669  1.00  0.00     0.102 C 
ATOM      8  O   UNL     1     163.274 176.594  76.758  1.00  0.00    -0.544 OA
ATOM      9  O   UNL     1     163.152 174.872  75.254  1.00  0.00    -0.544 OA
ENDBRANCH   2   7
ENDBRANCH   1   2
BRANCH   1  10
ATOM     10  O   UNL     1     163.983 176.158  72.618  1.00  0.00    -0.390 OA
ATOM     11  H   UNL     1     163.621 175.253  72.431  1.00  0.00     0.210 HD
ENDBRANCH   1  10
TORSDOF 4
ENDMDL
MODEL 5
REMARK VINA RESULT:    -2.967      1.755      2.275
REMARK INTER + INTRA:          -3.660
REMARK INTER:                  -3.434
REMARK INTRA:                  -0.226
REMARK UNBOUND:                -0.173
REMARK SMILES [NH3+][C@@H](CO)C(=O)[O-]
REMARK SMILES IDX 3 1 2 2 1 3 5 7 6 8 7 9 4 10
REMARK H PARENT 1 4 1 5 1 6 4 11
REMARK Flexibility Score: inf
ROOT
ATOM      1  C   UNL     1     169.502 175.714  74.323  1.00  0.00     0.227 C 
ENDROOT
BRANCH   1   2
ATOM      2  C   UNL     1     168.359 175.369  73.355  1.00  0.00     0.253 C 
BRANCH   2   3
ATOM      3  N   UNL     1     168.696 175.752  71.978  1.00  0.00    -0.348 N 
ATOM      4  H   UNL     1     169.046 174.927  71.438  1.00  0.00     0.345 HD
ATOM      5  H   UNL     1     169.434 176.494  71.988  1.00  0.00     0.345 HD
ATOM      6  H   UNL     1     167.852 176.141  71.500  1.00  0.00     0.345 HD
ENDBRANCH   2   3
BRANCH   2   7
ATOM      7  C   UNL     1     167.087 176.045  73.793  1.00  0.00     0.102 C 
ATOM      8  O   UNL     1     165.994 175.782  73.224  1.00  0.00    -0.544 OA
ATOM      9  O   UNL     1     167.116 176.978  74.822  1.00  0.00    -0.544 OA
ENDBRANCH   2   7
ENDBRANCH   1   2
BRANCH   1  10
ATOM     10  O   UNL     1     169.986 177.000  74.053  1.00  0.00    -0.390 OA
ATOM     11  H   UNL     1     169.904 177.125  73.072  1.00  0.00     0.210 HD
ENDBRANCH   1  10
TORSDOF 4
ENDMDL
MODEL 6
REMARK VINA RESULT:    -2.929      3.891      4.719
REMARK INTER + INTRA:          -3.615
REMARK INTER:                  -3.610
REMARK INTRA:                  -0.006
REMARK UNBOUND:                -0.173
REMARK SMILES [NH3+][C@@H](CO)C(=O)[O-]
REMARK SMILES IDX 3 1 2 2 1 3 5 7 6 8 7 9 4 10
REMARK H PARENT 1 4 1 5 1 6 4 11
REMARK Flexibility Score: inf
ROOT
ATOM      1  C   UNL     1     164.934 175.580  73.043  1.00  0.00     0.227 C 
ENDROOT
BRANCH   1   2
ATOM      2  C   UNL     1     164.484 175.947  74.467  1.00  0.00     0.253 C 
BRANCH   2   3
ATOM      3  N   UNL     1     163.379 176.914  74.441  1.00  0.00    -0.348 N 
ATOM      4  H   UNL     1     163.623 177.772  74.988  1.00  0.00     0.345 HD
ATOM      5  H   UNL     1     162.519 176.480  74.850  1.00  0.00     0.345 HD
ATOM      6  H   UNL     1     163.166 177.186  73.454  1.00  0.00     0.345 HD
ENDBRANCH   2   3
BRANCH   2   7
ATOM      7  C   UNL     1     165.645 176.497  75.251  1.00  0.00     0.102 C 
ATOM      8  O   UNL     1     165.640 177.692  75.648  1.00  0.00    -0.544 OA
ATOM      9  O   UNL     1     166.739 175.687  75.529  1.00  0.00    -0.544 OA
ENDBRANCH   2   7
ENDBRANCH   1   2
BRANCH   1  10
ATOM     10  O   UNL     1     163.929 175.910  72.124  1.00  0.00    -0.390 OA
ATOM     11  H   UNL     1     163.174 176.270  72.658  1.00  0.00     0.210 HD
ENDBRANCH   1  10
TORSDOF 4
ENDMDL
MODEL 7
REMARK VINA RESULT:    -2.922      3.077      3.717
REMARK INTER + INTRA:          -3.608
REMARK INTER:                  -3.196
REMARK INTRA:                  -0.412
REMARK UNBOUND:                -0.173
REMARK SMILES [NH3+][C@@H](CO)C(=O)[O-]
REMARK SMILES IDX 3 1 2 2 1 3 5 7 6 8 7 9 4 10
REMARK H PARENT 1 4 1 5 1 6 4 11
REMARK Flexibility Score: inf
ROOT
ATOM      1  C   UNL     1     164.313 177.268  75.393  1.00  0.00     0.227 C 
ENDROOT
BRANCH   1   2
ATOM      2  C   UNL     1     165.509 176.303  75.358  1.00  0.00     0.253 C 
BRANCH   2   3
ATOM      3  N   UNL     1     166.782 177.036  75.389  1.00  0.00    -0.348 N 
ATOM      4  H   UNL     1     167.257 176.916  76.314  1.00  0.00     0.345 HD
ATOM      5  H   UNL     1     166.608 178.054  75.223  1.00  0.00     0.345 HD
ATOM      6  H   UNL     1     167.412 176.687  74.633  1.00  0.00     0.345 HD
ENDBRANCH   2   3
BRANCH   2   7
ATOM      7  C   UNL     1     165.435 175.429  74.134  1.00  0.00     0.102 C 
ATOM      8  O   UNL     1     164.885 174.297  74.190  1.00  0.00    -0.544 OA
ATOM      9  O   UNL     1     165.988 175.864  72.937  1.00  0.00    -0.544 OA
ENDBRANCH   2   7
ENDBRANCH   1   2
BRANCH   1  10
ATOM     10  O   UNL     1     163.485 177.044  74.285  1.00  0.00    -0.390 OA
ATOM     11  H   UNL     1     162.553 177.146  74.611  1.00  0.00     0.210 HD
ENDBRANCH   1  10
TORSDOF 4
ENDMDL
MODEL 8
REMARK VINA RESULT:    -2.853      4.010      4.631
REMARK INTER + INTRA:          -3.526
REMARK INTER:                  -3.112
REMARK INTRA:                  -0.414
REMARK UNBOUND:                -0.173
REMARK SMILES [NH3+][C@@H](CO)C(=O)[O-]
REMARK SMILES IDX 3 1 2 2 1 3 5 7 6 8 7 9 4 10
REMARK H PARENT 1 4 1 5 1 6 4 11
REMARK Flexibility Score: inf
ROOT
ATOM      1  C   UNL     1     166.250 176.251  74.375  1.00  0.00     0.227 C 
ENDROOT
BRANCH   1   2
ATOM      2  C   UNL     1     164.880 175.601  74.129  1.00  0.00     0.253 C 
BRANCH   2   3
ATOM      3  N   UNL     1     164.192 176.227  72.992  1.00  0.00    -0.348 N 
ATOM      4  H   UNL     1     163.167 176.022  73.019  1.00  0.00     0.345 HD
ATOM      5  H   UNL     1     164.591 175.865  72.094  1.00  0.00     0.345 HD
ATOM      6  H   UNL     1     164.334 177.262  73.015  1.00  0.00     0.345 HD
ENDBRANCH   2   3
BRANCH   2   7
ATOM      7  C   UNL     1     164.032 175.691  75.370  1.00  0.00     0.102 C 
ATOM      8  O   UNL     1     163.198 176.626  75.508  1.00  0.00    -0.544 OA
ATOM      9  O   UNL     1     164.179 174.749  76.379  1.00  0.00    -0.544 OA
ENDBRANCH   2   7
ENDBRANCH   1   2
BRANCH   1  10
ATOM     10  O   UNL     1     166.260 176.891  75.621  1.00  0.00    -0.390 OA
ATOM     11  H   UNL     1     167.094 177.428  75.649  1.00  0.00     0.210 HD
ENDBRANCH   1  10
TORSDOF 4
ENDMDL
MODEL 9
REMARK VINA RESULT:    -2.794      3.868      4.429
REMARK INTER + INTRA:          -3.457
REMARK INTER:                  -3.059
REMARK INTRA:                  -0.399
REMARK UNBOUND:                -0.173
REMARK SMILES [NH3+][C@@H](CO)C(=O)[O-]
REMARK SMILES IDX 3 1 2 2 1 3 5 7 6 8 7 9 4 10
REMARK H PARENT 1 4 1 5 1 6 4 11
REMARK Flexibility Score: inf
ROOT
ATOM      1  C   UNL     1     163.959 175.237  76.072  1.00  0.00     0.227 C 
ENDROOT
BRANCH   1   2
ATOM      2  C   UNL     1     164.311 176.591  75.435  1.00  0.00     0.253 C 
BRANCH   2   3
ATOM      3  N   UNL     1     163.255 177.036  74.517  1.00  0.00    -0.348 N 
ATOM      4  H   UNL     1     163.558 176.928  73.522  1.00  0.00     0.345 HD
ATOM      5  H   UNL     1     163.028 178.042  74.699  1.00  0.00     0.345 HD
ATOM      6  H   UNL     1     162.387 176.476  74.673  1.00  0.00     0.345 HD
ENDBRANCH   2   3
BRANCH   2   7
ATOM      7  C   UNL     1     165.629 176.498  74.715  1.00  0.00     0.102 C 
ATOM      8  O   UNL     1     166.679 176.957  75.240  1.00  0.00    -0.544 OA
ATOM      9  O   UNL     1     165.691 175.915  73.456  1.00  0.00    -0.544 OA
ENDBRANCH   2   7
ENDBRANCH   1   2
BRANCH   1  10
ATOM     10  O   UNL     1     165.080 174.398  76.063  1.00  0.00    -0.390 OA
ATOM     11  H   UNL     1     164.877 173.660  76.695  1.00  0.00     0.210 HD
ENDBRANCH   1  10
TORSDOF 4
ENDMDL
