MODEL 1
REMARK VINA RESULT:    -2.991      0.000      0.000
REMARK INTER + INTRA:          -3.079
REMARK INTER:                  -3.079
REMARK INTRA:                   0.000
REMARK UNBOUND:                 0.000
REMARK SMILES Oc1ccc2[nH]ccc2c1
REMARK SMILES IDX 3 1 4 2 5 3 9 4 8 5 7 6 6 7 10 8 2 9 1 11
REMARK H PARENT 6 10 1 12
REMARK Flexibility Score: inf
ROOT
ATOM      1  C   UNL     1      47.678  42.757  37.639  1.00  0.00     0.048 A 
ATOM      2  C   UNL     1      46.772  43.106  38.658  1.00  0.00     0.030 A 
ATOM      3  C   UNL     1      47.119  42.795  39.971  1.00  0.00     0.046 A 
ATOM      4  C   UNL     1      48.299  42.171  40.276  1.00  0.00     0.003 A 
ATOM      5  C   UNL     1      48.339  42.009  41.643  1.00  0.00     0.028 A 
ATOM      6  C   UNL     1      47.149  42.559  42.110  1.00  0.00     0.083 A 
ATOM      7  N   UNL     1      46.407  43.039  41.084  1.00  0.00    -0.361 N 
ATOM      8  C   UNL     1      49.217  41.811  39.292  1.00  0.00     0.056 A 
ATOM      9  C   UNL     1      48.897  42.112  37.951  1.00  0.00     0.116 A 
ATOM     10  H   UNL     1      45.472  43.500  41.149  1.00  0.00     0.166 HD
ENDROOT
BRANCH   9  11
ATOM     11  O   UNL     1      49.775  41.776  36.923  1.00  0.00    -0.508 OA
ATOM     12  H   UNL     1      49.505  41.853  35.950  1.00  0.00     0.293 HD
ENDBRANCH   9  11
TORSDOF 1
ENDMDL
MODEL 2
REMARK VINA RESULT:    -2.940      2.687      4.100
REMARK INTER + INTRA:          -3.026
REMARK INTER:                  -3.026
REMARK INTRA:                   0.000
REMARK UNBOUND:                 0.000
REMARK SMILES Oc1ccc2[nH]ccc2c1
REMARK SMILES IDX 3 1 4 2 5 3 9 4 8 5 7 6 6 7 10 8 2 9 1 11
REMARK H PARENT 6 10 1 12
REMARK Flexibility Score: inf
ROOT
ATOM      1  C   UNL     1      48.895  42.002  42.073  1.00  0.00     0.048 A 
ATOM      2  C   UNL     1      49.623  42.009  40.868  1.00  0.00     0.030 A 
ATOM      3  C   UNL     1      48.911  42.159  39.679  1.00  0.00     0.046 A 
ATOM      4  C   UNL     1      47.549  42.296  39.668  1.00  0.00     0.003 A 
ATOM      5  C   UNL     1      47.158  42.423  38.353  1.00  0.00     0.028 A 
ATOM      6  C   UNL     1      48.336  42.354  37.615  1.00  0.00     0.083 A 
ATOM      7  N   UNL     1      49.405  42.193  38.431  1.00  0.00    -0.361 N 
ATOM      8  C   UNL     1      46.799  42.293  40.842  1.00  0.00     0.056 A 
ATOM      9  C   UNL     1      47.489  42.144  42.064  1.00  0.00     0.116 A 
ATOM     10  H   UNL     1      50.405  42.111  38.143  1.00  0.00     0.166 HD
ENDROOT
BRANCH   9  11
ATOM     11  O   UNL     1      46.792  42.133  43.271  1.00  0.00    -0.508 OA
ATOM     12  H   UNL     1      46.276  41.317  43.576  1.00  0.00     0.293 HD
ENDBRANCH   9  11
TORSDOF 1
ENDMDL
MODEL 3
REMARK VINA RESULT:    -2.937      1.732      2.444
REMARK INTER + INTRA:          -3.023
REMARK INTER:                  -3.023
REMARK INTRA:                   0.000
REMARK UNBOUND:                 0.000
REMARK SMILES Oc1ccc2[nH]ccc2c1
REMARK SMILES IDX 3 1 4 2 5 3 9 4 8 5 7 6 6 7 10 8 2 9 1 11
REMARK H PARENT 6 10 1 12
REMARK Flexibility Score: inf
ROOT
ATOM      1  C   UNL     1      48.828  42.117  38.778  1.00  0.00     0.048 A 
ATOM      2  C   UNL     1      49.590  41.897  39.941  1.00  0.00     0.030 A 
ATOM      3  C   UNL     1      48.932  41.952  41.169  1.00  0.00     0.046 A 
ATOM      4  C   UNL     1      47.591  42.211  41.256  1.00  0.00     0.003 A 
ATOM      5  C   UNL     1      47.254  42.196  42.592  1.00  0.00     0.028 A 
ATOM      6  C   UNL     1      48.442  41.921  43.264  1.00  0.00     0.083 A 
ATOM      7  N   UNL     1      49.465  41.773  42.389  1.00  0.00    -0.361 N 
ATOM      8  C   UNL     1      46.809  42.434  40.126  1.00  0.00     0.056 A 
ATOM      9  C   UNL     1      47.443  42.385  38.866  1.00  0.00     0.116 A 
ATOM     10  H   UNL     1      50.461  41.564  42.620  1.00  0.00     0.166 HD
ENDROOT
BRANCH   9  11
ATOM     11  O   UNL     1      46.712  42.600  37.699  1.00  0.00    -0.508 OA
ATOM     12  H   UNL     1      46.454  43.533  37.402  1.00  0.00     0.293 HD
ENDBRANCH   9  11
TORSDOF 1
ENDMDL
MODEL 4
REMARK VINA RESULT:    -2.895      2.245      3.243
REMARK INTER + INTRA:          -2.979
REMARK INTER:                  -2.979
REMARK INTRA:                   0.000
REMARK UNBOUND:                 0.000
REMARK SMILES Oc1ccc2[nH]ccc2c1
REMARK SMILES IDX 3 1 4 2 5 3 9 4 8 5 7 6 6 7 10 8 2 9 1 11
REMARK H PARENT 6 10 1 12
REMARK Flexibility Score: inf
ROOT
ATOM      1  C   UNL     1      49.231  41.740  40.406  1.00  0.00     0.048 A 
ATOM      2  C   UNL     1      49.750  41.746  41.714  1.00  0.00     0.030 A 
ATOM      3  C   UNL     1      48.855  41.927  42.768  1.00  0.00     0.046 A 
ATOM      4  C   UNL     1      47.513  42.095  42.552  1.00  0.00     0.003 A 
ATOM      5  C   UNL     1      46.914  42.247  43.783  1.00  0.00     0.028 A 
ATOM      6  C   UNL     1      47.951  42.160  44.707  1.00  0.00     0.083 A 
ATOM      7  N   UNL     1      49.136  41.964  44.081  1.00  0.00    -0.361 N 
ATOM      8  C   UNL     1      46.968  42.095  41.271  1.00  0.00     0.056 A 
ATOM      9  C   UNL     1      47.846  41.913  40.181  1.00  0.00     0.116 A 
ATOM     10  H   UNL     1      50.073  41.865  44.531  1.00  0.00     0.166 HD
ENDROOT
BRANCH   9  11
ATOM     11  O   UNL     1      47.358  41.904  38.876  1.00  0.00    -0.508 OA
ATOM     12  H   UNL     1      46.774  41.150  38.535  1.00  0.00     0.293 HD
ENDBRANCH   9  11
TORSDOF 1
ENDMDL
MODEL 5
REMARK VINA RESULT:    -2.830      2.512      3.584
REMARK INTER + INTRA:          -2.912
REMARK INTER:                  -2.912
REMARK INTRA:                   0.000
REMARK UNBOUND:                 0.000
REMARK SMILES Oc1ccc2[nH]ccc2c1
REMARK SMILES IDX 3 1 4 2 5 3 9 4 8 5 7 6 6 7 10 8 2 9 1 11
REMARK H PARENT 6 10 1 12
REMARK Flexibility Score: inf
ROOT
ATOM      1  C   UNL     1      46.523  42.900  40.359  1.00  0.00     0.048 A 
ATOM      2  C   UNL     1      46.811  43.125  39.000  1.00  0.00     0.030 A 
ATOM      3  C   UNL     1      48.022  42.644  38.505  1.00  0.00     0.046 A 
ATOM      4  C   UNL     1      48.911  41.973  39.302  1.00  0.00     0.003 A 
ATOM      5  C   UNL     1      49.993  41.636  38.520  1.00  0.00     0.028 A 
ATOM      6  C   UNL     1      49.696  42.133  37.253  1.00  0.00     0.083 A 
ATOM      7  N   UNL     1      48.490  42.748  37.250  1.00  0.00    -0.361 N 
ATOM      8  C   UNL     1      48.656  41.735  40.650  1.00  0.00     0.056 A 
ATOM      9  C   UNL     1      47.439  42.208  41.184  1.00  0.00     0.116 A 
ATOM     10  H   UNL     1      48.025  43.208  36.437  1.00  0.00     0.166 HD
ENDROOT
BRANCH   9  11
ATOM     11  O   UNL     1      47.128  42.000  42.526  1.00  0.00    -0.508 OA
ATOM     12  H   UNL     1      46.430  42.561  43.001  1.00  0.00     0.293 HD
ENDBRANCH   9  11
TORSDOF 1
ENDMDL
MODEL 6
REMARK VINA RESULT:    -2.736      3.039      4.534
REMARK INTER + INTRA:          -2.816
REMARK INTER:                  -2.816
REMARK INTRA:                   0.000
REMARK UNBOUND:                 0.000
REMARK SMILES Oc1ccc2[nH]ccc2c1
REMARK SMILES IDX 3 1 4 2 5 3 9 4 8 5 7 6 6 7 10 8 2 9 1 11
REMARK H PARENT 6 10 1 12
REMARK Flexibility Score: inf
ROOT
ATOM      1  C   UNL     1      49.499  41.680  43.233  1.00  0.00     0.048 A 
ATOM      2  C   UNL     1      49.782  41.670  41.854  1.00  0.00     0.030 A 
ATOM      3  C   UNL     1      48.730  41.915  40.973  1.00  0.00     0.046 A 
ATOM      4  C   UNL     1      47.459  42.159  41.419  1.00  0.00     0.003 A 
ATOM      5  C   UNL     1      46.665  42.359  40.311  1.00  0.00     0.028 A 
ATOM      6  C   UNL     1      47.520  42.223  39.221  1.00  0.00     0.083 A 
ATOM      7  N   UNL     1      48.781  41.951  39.631  1.00  0.00    -0.361 N 
ATOM      8  C   UNL     1      47.145  42.176  42.776  1.00  0.00     0.056 A 
ATOM      9  C   UNL     1      48.187  41.932  43.696  1.00  0.00     0.116 A 
ATOM     10  H   UNL     1      49.617  41.800  39.025  1.00  0.00     0.166 HD
ENDROOT
BRANCH   9  11
ATOM     11  O   UNL     1      47.934  41.936  45.066  1.00  0.00    -0.508 OA
ATOM     12  H   UNL     1      47.140  41.444  45.458  1.00  0.00     0.293 HD
ENDBRANCH   9  11
TORSDOF 1
ENDMDL
MODEL 7
REMARK VINA RESULT:    -2.728      1.230      1.565
REMARK INTER + INTRA:          -2.808
REMARK INTER:                  -2.808
REMARK INTRA:                   0.000
REMARK UNBOUND:                 0.000
REMARK SMILES Oc1ccc2[nH]ccc2c1
REMARK SMILES IDX 3 1 4 2 5 3 9 4 8 5 7 6 6 7 10 8 2 9 1 11
REMARK H PARENT 6 10 1 12
REMARK Flexibility Score: inf
ROOT
ATOM      1  C   UNL     1      46.776  43.036  39.268  1.00  0.00     0.048 A 
ATOM      2  C   UNL     1      46.367  43.125  40.611  1.00  0.00     0.030 A 
ATOM      3  C   UNL     1      47.225  42.617  41.586  1.00  0.00     0.046 A 
ATOM      4  C   UNL     1      48.427  42.048  41.262  1.00  0.00     0.003 A 
ATOM      5  C   UNL     1      49.026  41.651  42.437  1.00  0.00     0.028 A 
ATOM      6  C   UNL     1      48.131  42.011  43.441  1.00  0.00     0.083 A 
ATOM      7  N   UNL     1      47.032  42.600  42.915  1.00  0.00    -0.361 N 
ATOM      8  C   UNL     1      48.860  41.944  39.942  1.00  0.00     0.056 A 
ATOM      9  C   UNL     1      48.017  42.449  38.930  1.00  0.00     0.116 A 
ATOM     10  H   UNL     1      46.205  42.965  43.440  1.00  0.00     0.166 HD
ENDROOT
BRANCH   9  11
ATOM     11  O   UNL     1      48.396  42.374  37.592  1.00  0.00    -0.508 OA
ATOM     12  H   UNL     1      48.756  43.182  37.098  1.00  0.00     0.293 HD
ENDBRANCH   9  11
TORSDOF 1
ENDMDL
MODEL 8
REMARK VINA RESULT:    -2.717      1.623      2.229
REMARK INTER + INTRA:          -2.797
REMARK INTER:                  -2.797
REMARK INTRA:                   0.000
REMARK UNBOUND:                 0.000
REMARK SMILES Oc1ccc2[nH]ccc2c1
REMARK SMILES IDX 3 1 4 2 5 3 9 4 8 5 7 6 6 7 10 8 2 9 1 11
REMARK H PARENT 6 10 1 12
REMARK Flexibility Score: inf
ROOT
ATOM      1  C   UNL     1      47.527  41.788  39.817  1.00  0.00     0.048 A 
ATOM      2  C   UNL     1      46.787  41.923  41.007  1.00  0.00     0.030 A 
ATOM      3  C   UNL     1      47.494  42.000  42.206  1.00  0.00     0.046 A 
ATOM      4  C   UNL     1      48.862  41.948  42.240  1.00  0.00     0.003 A 
ATOM      5  C   UNL     1      49.245  42.049  43.560  1.00  0.00     0.028 A 
ATOM      6  C   UNL     1      48.057  42.161  44.276  1.00  0.00     0.083 A 
ATOM      7  N   UNL     1      46.990  42.131  43.444  1.00  0.00    -0.361 N 
ATOM      8  C   UNL     1      49.623  41.814  41.082  1.00  0.00     0.056 A 
ATOM      9  C   UNL     1      48.939  41.734  39.850  1.00  0.00     0.116 A 
ATOM     10  H   UNL     1      45.983  42.194  43.714  1.00  0.00     0.166 HD
ENDROOT
BRANCH   9  11
ATOM     11  O   UNL     1      49.647  41.600  38.657  1.00  0.00    -0.508 OA
ATOM     12  H   UNL     1      50.618  41.311  38.648  1.00  0.00     0.293 HD
ENDBRANCH   9  11
TORSDOF 1
ENDMDL
MODEL 9
REMARK VINA RESULT:    -2.650      3.692      4.868
REMARK INTER + INTRA:          -2.727
REMARK INTER:                  -2.727
REMARK INTRA:                   0.000
REMARK UNBOUND:                 0.000
REMARK SMILES Oc1ccc2[nH]ccc2c1
REMARK SMILES IDX 3 1 4 2 5 3 9 4 8 5 7 6 6 7 10 8 2 9 1 11
REMARK H PARENT 6 10 1 12
REMARK Flexibility Score: inf
ROOT
ATOM      1  C   UNL     1      46.755  42.906  43.318  1.00  0.00     0.048 A 
ATOM      2  C   UNL     1      47.033  42.626  44.668  1.00  0.00     0.030 A 
ATOM      3  C   UNL     1      48.186  41.897  44.956  1.00  0.00     0.046 A 
ATOM      4  C   UNL     1      49.029  41.464  43.969  1.00  0.00     0.003 A 
ATOM      5  C   UNL     1      50.062  40.784  44.578  1.00  0.00     0.028 A 
ATOM      6  C   UNL     1      49.783  40.843  45.940  1.00  0.00     0.083 A 
ATOM      7  N   UNL     1      48.635  41.525  46.166  1.00  0.00    -0.361 N 
ATOM      8  C   UNL     1      48.783  41.724  42.623  1.00  0.00     0.056 A 
ATOM      9  C   UNL     1      47.624  42.459  42.296  1.00  0.00     0.116 A 
ATOM     10  H   UNL     1      48.194  41.717  47.093  1.00  0.00     0.166 HD
ENDROOT
BRANCH   9  11
ATOM     11  O   UNL     1      47.325  42.751  40.967  1.00  0.00    -0.508 OA
ATOM     12  H   UNL     1      46.458  42.445  40.541  1.00  0.00     0.293 HD
ENDBRANCH   9  11
TORSDOF 1
ENDMDL
