MODEL 1
REMARK VINA RESULT:    -3.395      0.000      0.000
REMARK INTER + INTRA:         -13.599
REMARK INTER:                  -8.953
REMARK INTRA:                  -4.646
REMARK UNBOUND:                -4.646
REMARK SMILES CCCCCCCCCCCCCCCCCCCCCCCCCCCCCC(=O)[O-]
REMARK SMILES IDX 16 1 17 2 18 3 19 4 20 5 21 6 22 7 23 8 24 9 25 10 26 11
REMARK SMILES IDX 27 12 28 13 29 14 30 15 31 16 32 17 15 18 14 19 13 20 12 21
REMARK SMILES IDX 11 22 10 23 9 24 8 25 7 26 6 27 5 28 4 29 3 30 2 31 1 32
REMARK H PARENT
REMARK Flexibility Score: inf
ROOT
ATOM      1  C   UNL     1      64.107  42.089  16.543  1.00  0.00     0.000 C 
ENDROOT
BRANCH   1   2
ATOM      2  C   UNL     1      63.647  42.484  15.131  1.00  0.00     0.000 C 
BRANCH   2   3
ATOM      3  C   UNL     1      63.816  43.985  14.851  1.00  0.00     0.000 C 
BRANCH   3   4
ATOM      4  C   UNL     1      64.967  44.569  15.684  1.00  0.00     0.000 C 
BRANCH   4   5
ATOM      5  C   UNL     1      64.700  46.012  16.146  1.00  0.00     0.000 C 
BRANCH   5   6
ATOM      6  C   UNL     1      63.367  46.222  16.888  1.00  0.00     0.000 C 
BRANCH   6   7
ATOM      7  C   UNL     1      63.359  45.591  18.292  1.00  0.00     0.000 C 
BRANCH   7   8
ATOM      8  C   UNL     1      62.078  44.785  18.566  1.00  0.00     0.000 C 
BRANCH   8   9
ATOM      9  C   UNL     1      61.165  44.698  17.331  1.00  0.00     0.000 C 
BRANCH   9  10
ATOM     10  C   UNL     1      59.669  44.667  17.693  1.00  0.00     0.000 C 
BRANCH  10  11
ATOM     11  C   UNL     1      58.814  45.765  17.033  1.00  0.00     0.000 C 
BRANCH  11  12
ATOM     12  C   UNL     1      57.965  45.241  15.865  1.00  0.00     0.000 C 
BRANCH  12  13
ATOM     13  C   UNL     1      56.510  45.708  15.988  1.00  0.00     0.006 C 
BRANCH  13  14
ATOM     14  C   UNL     1      56.380  47.196  15.645  1.00  0.00     0.053 C 
BRANCH  14  15
ATOM     15  C   UNL     1      56.630  47.427  14.187  1.00  0.00     0.041 C 
ATOM     16  O   UNL     1      55.925  46.843  13.323  1.00  0.00    -0.550 OA
ATOM     17  O   UNL     1      57.653  48.275  13.782  1.00  0.00    -0.550 OA
ENDBRANCH  14  15
ENDBRANCH  13  14
ENDBRANCH  12  13
ENDBRANCH  11  12
ENDBRANCH  10  11
ENDBRANCH   9  10
ENDBRANCH   8   9
ENDBRANCH   7   8
ENDBRANCH   6   7
ENDBRANCH   5   6
ENDBRANCH   4   5
ENDBRANCH   3   4
ENDBRANCH   2   3
ENDBRANCH   1   2
BRANCH   1  18
ATOM     18  C   UNL     1      63.952  40.584  16.817  1.00  0.00     0.000 C 
BRANCH  18  19
ATOM     19  C   UNL     1      63.886  40.261  18.319  1.00  0.00     0.000 C 
BRANCH  19  20
ATOM     20  C   UNL     1      63.238  41.389  19.137  1.00  0.00     0.000 C 
BRANCH  20  21
ATOM     21  C   UNL     1      62.439  40.867  20.344  1.00  0.00     0.000 C 
BRANCH  21  22
ATOM     22  C   UNL     1      61.705  41.979  21.125  1.00  0.00     0.000 C 
BRANCH  22  23
ATOM     23  C   UNL     1      60.337  42.312  20.512  1.00  0.00     0.000 C 
BRANCH  23  24
ATOM     24  C   UNL     1      59.196  41.793  21.398  1.00  0.00    -0.000 C 
BRANCH  24  25
ATOM     25  C   UNL     1      58.683  40.411  20.958  1.00  0.00    -0.000 C 
BRANCH  25  26
ATOM     26  C   UNL     1      57.330  40.049  21.594  1.00  0.00    -0.000 C 
BRANCH  26  27
ATOM     27  C   UNL     1      56.164  40.179  20.591  1.00  0.00    -0.000 C 
BRANCH  27  28
ATOM     28  C   UNL     1      56.525  39.736  19.163  1.00  0.00    -0.000 C 
BRANCH  28  29
ATOM     29  C   UNL     1      56.000  40.696  18.087  1.00  0.00    -0.000 C 
BRANCH  29  30
ATOM     30  C   UNL     1      56.856  41.970  18.022  1.00  0.00    -0.000 C 
BRANCH  30  31
ATOM     31  C   UNL     1      56.081  43.223  18.459  1.00  0.00    -0.003 C 
ATOM     32  C   UNL     1      56.615  43.825  19.759  1.00  0.00     0.004 C 
ENDBRANCH  30  31
ENDBRANCH  29  30
ENDBRANCH  28  29
ENDBRANCH  27  28
ENDBRANCH  26  27
ENDBRANCH  25  26
ENDBRANCH  24  25
ENDBRANCH  23  24
ENDBRANCH  22  23
ENDBRANCH  21  22
ENDBRANCH  20  21
ENDBRANCH  19  20
ENDBRANCH  18  19
ENDBRANCH   1  18
TORSDOF 28
ENDMDL
MODEL 2
REMARK VINA RESULT:    -3.381      1.311      2.815
REMARK INTER + INTRA:         -13.561
REMARK INTER:                  -8.725
REMARK INTRA:                  -4.836
REMARK UNBOUND:                -4.646
REMARK SMILES CCCCCCCCCCCCCCCCCCCCCCCCCCCCCC(=O)[O-]
REMARK SMILES IDX 16 1 17 2 18 3 19 4 20 5 21 6 22 7 23 8 24 9 25 10 26 11
REMARK SMILES IDX 27 12 28 13 29 14 30 15 31 16 32 17 15 18 14 19 13 20 12 21
REMARK SMILES IDX 11 22 10 23 9 24 8 25 7 26 6 27 5 28 4 29 3 30 2 31 1 32
REMARK H PARENT
REMARK Flexibility Score: inf
ROOT
ATOM      1  C   UNL     1      63.242  43.968  15.446  1.00  0.00     0.000 C 
ENDROOT
BRANCH   1   2
ATOM      2  C   UNL     1      64.435  44.917  15.640  1.00  0.00     0.000 C 
BRANCH   2   3
ATOM      3  C   UNL     1      64.074  46.163  16.461  1.00  0.00     0.000 C 
BRANCH   3   4
ATOM      4  C   UNL     1      64.499  45.993  17.927  1.00  0.00     0.000 C 
BRANCH   4   5
ATOM      5  C   UNL     1      63.389  46.376  18.921  1.00  0.00     0.000 C 
BRANCH   5   6
ATOM      6  C   UNL     1      62.041  46.753  18.279  1.00  0.00     0.000 C 
BRANCH   6   7
ATOM      7  C   UNL     1      60.891  45.829  18.719  1.00  0.00     0.000 C 
BRANCH   7   8
ATOM      8  C   UNL     1      60.409  44.910  17.585  1.00  0.00     0.000 C 
BRANCH   8   9
ATOM      9  C   UNL     1      59.077  45.380  16.975  1.00  0.00     0.000 C 
BRANCH   9  10
ATOM     10  C   UNL     1      58.321  44.254  16.247  1.00  0.00     0.000 C 
BRANCH  10  11
ATOM     11  C   UNL     1      57.244  44.726  15.253  1.00  0.00     0.000 C 
BRANCH  11  12
ATOM     12  C   UNL     1      55.815  44.451  15.742  1.00  0.00     0.000 C 
BRANCH  12  13
ATOM     13  C   UNL     1      55.225  45.683  16.440  1.00  0.00     0.006 C 
BRANCH  13  14
ATOM     14  C   UNL     1      55.693  46.975  15.761  1.00  0.00     0.053 C 
BRANCH  14  15
ATOM     15  C   UNL     1      54.758  47.364  14.659  1.00  0.00     0.041 C 
ATOM     16  O   UNL     1      55.088  47.188  13.456  1.00  0.00    -0.550 OA
ATOM     17  O   UNL     1      53.529  47.938  14.960  1.00  0.00    -0.550 OA
ENDBRANCH  14  15
ENDBRANCH  13  14
ENDBRANCH  12  13
ENDBRANCH  11  12
ENDBRANCH  10  11
ENDBRANCH   9  10
ENDBRANCH   8   9
ENDBRANCH   7   8
ENDBRANCH   6   7
ENDBRANCH   5   6
ENDBRANCH   4   5
ENDBRANCH   3   4
ENDBRANCH   2   3
ENDBRANCH   1   2
BRANCH   1  18
ATOM     18  C   UNL     1      63.653  42.617  14.836  1.00  0.00     0.000 C 
BRANCH  18  19
ATOM     19  C   UNL     1      64.603  41.822  15.747  1.00  0.00     0.000 C 
BRANCH  19  20
ATOM     20  C   UNL     1      63.932  40.585  16.363  1.00  0.00     0.000 C 
BRANCH  20  21
ATOM     21  C   UNL     1      63.958  40.596  17.901  1.00  0.00     0.000 C 
BRANCH  21  22
ATOM     22  C   UNL     1      64.174  42.002  18.503  1.00  0.00     0.000 C 
BRANCH  22  23
ATOM     23  C   UNL     1      62.847  42.697  18.845  1.00  0.00     0.000 C 
BRANCH  23  24
ATOM     24  C   UNL     1      62.572  42.648  20.355  1.00  0.00    -0.000 C 
BRANCH  24  25
ATOM     25  C   UNL     1      61.293  41.868  20.701  1.00  0.00    -0.000 C 
BRANCH  25  26
ATOM     26  C   UNL     1      60.112  42.790  21.051  1.00  0.00    -0.000 C 
BRANCH  26  27
ATOM     27  C   UNL     1      58.924  42.606  20.083  1.00  0.00    -0.000 C 
BRANCH  27  28
ATOM     28  C   UNL     1      57.637  43.310  20.545  1.00  0.00    -0.000 C 
BRANCH  28  29
ATOM     29  C   UNL     1      56.738  43.742  19.379  1.00  0.00    -0.000 C 
BRANCH  29  30
ATOM     30  C   UNL     1      55.746  42.630  19.007  1.00  0.00    -0.000 C 
BRANCH  30  31
ATOM     31  C   UNL     1      56.334  41.628  18.001  1.00  0.00    -0.003 C 
ATOM     32  C   UNL     1      56.269  40.184  18.497  1.00  0.00     0.004 C 
ENDBRANCH  30  31
ENDBRANCH  29  30
ENDBRANCH  28  29
ENDBRANCH  27  28
ENDBRANCH  26  27
ENDBRANCH  25  26
ENDBRANCH  24  25
ENDBRANCH  23  24
ENDBRANCH  22  23
ENDBRANCH  21  22
ENDBRANCH  20  21
ENDBRANCH  19  20
ENDBRANCH  18  19
ENDBRANCH   1  18
TORSDOF 28
ENDMDL
MODEL 3
REMARK VINA RESULT:    -3.329      6.195     10.779
REMARK INTER + INTRA:         -13.425
REMARK INTER:                  -9.162
REMARK INTRA:                  -4.263
REMARK UNBOUND:                -4.646
REMARK SMILES CCCCCCCCCCCCCCCCCCCCCCCCCCCCCC(=O)[O-]
REMARK SMILES IDX 16 1 17 2 18 3 19 4 20 5 21 6 22 7 23 8 24 9 25 10 26 11
REMARK SMILES IDX 27 12 28 13 29 14 30 15 31 16 32 17 15 18 14 19 13 20 12 21
REMARK SMILES IDX 11 22 10 23 9 24 8 25 7 26 6 27 5 28 4 29 3 30 2 31 1 32
REMARK H PARENT
REMARK Flexibility Score: inf
ROOT
ATOM      1  C   UNL     1      52.661  51.125  11.724  1.00  0.00     0.000 C 
ENDROOT
BRANCH   1   2
ATOM      2  C   UNL     1      53.768  50.467  12.561  1.00  0.00     0.000 C 
BRANCH   2   3
ATOM      3  C   UNL     1      53.673  48.934  12.572  1.00  0.00     0.000 C 
BRANCH   3   4
ATOM      4  C   UNL     1      54.392  48.351  13.798  1.00  0.00     0.000 C 
BRANCH   4   5
ATOM      5  C   UNL     1      55.101  47.019  13.500  1.00  0.00     0.000 C 
BRANCH   5   6
ATOM      6  C   UNL     1      56.571  46.949  13.950  1.00  0.00     0.000 C 
BRANCH   6   7
ATOM      7  C   UNL     1      57.265  48.323  13.945  1.00  0.00     0.000 C 
BRANCH   7   8
ATOM      8  C   UNL     1      57.552  48.841  15.364  1.00  0.00     0.000 C 
BRANCH   8   9
ATOM      9  C   UNL     1      57.734  47.699  16.379  1.00  0.00     0.000 C 
BRANCH   9  10
ATOM     10  C   UNL     1      56.901  47.896  17.658  1.00  0.00     0.000 C 
BRANCH  10  11
ATOM     11  C   UNL     1      55.440  48.325  17.427  1.00  0.00     0.000 C 
BRANCH  11  12
ATOM     12  C   UNL     1      54.426  47.273  17.900  1.00  0.00     0.000 C 
BRANCH  12  13
ATOM     13  C   UNL     1      54.209  46.197  16.829  1.00  0.00     0.006 C 
BRANCH  13  14
ATOM     14  C   UNL     1      54.214  44.796  17.450  1.00  0.00     0.053 C 
BRANCH  14  15
ATOM     15  C   UNL     1      54.541  43.760  16.420  1.00  0.00     0.041 C 
ATOM     16  O   UNL     1      55.535  43.913  15.661  1.00  0.00    -0.550 OA
ATOM     17  O   UNL     1      53.739  42.634  16.286  1.00  0.00    -0.550 OA
ENDBRANCH  14  15
ENDBRANCH  13  14
ENDBRANCH  12  13
ENDBRANCH  11  12
ENDBRANCH  10  11
ENDBRANCH   9  10
ENDBRANCH   8   9
ENDBRANCH   7   8
ENDBRANCH   6   7
ENDBRANCH   5   6
ENDBRANCH   4   5
ENDBRANCH   3   4
ENDBRANCH   2   3
ENDBRANCH   1   2
BRANCH   1  18
ATOM     18  C   UNL     1      51.451  50.198  11.509  1.00  0.00     0.000 C 
BRANCH  18  19
ATOM     19  C   UNL     1      50.192  50.694  12.239  1.00  0.00     0.000 C 
BRANCH  19  20
ATOM     20  C   UNL     1      50.092  50.157  13.676  1.00  0.00     0.000 C 
BRANCH  20  21
ATOM     21  C   UNL     1      49.739  48.661  13.730  1.00  0.00     0.000 C 
BRANCH  21  22
ATOM     22  C   UNL     1      50.688  47.836  14.626  1.00  0.00     0.000 C 
BRANCH  22  23
ATOM     23  C   UNL     1      51.141  46.534  13.948  1.00  0.00     0.000 C 
BRANCH  23  24
ATOM     24  C   UNL     1      51.275  45.398  14.971  1.00  0.00    -0.000 C 
BRANCH  24  25
ATOM     25  C   UNL     1      49.973  45.143  15.750  1.00  0.00    -0.000 C 
BRANCH  25  26
ATOM     26  C   UNL     1      48.836  44.626  14.853  1.00  0.00    -0.000 C 
BRANCH  26  27
ATOM     27  C   UNL     1      47.452  44.789  15.516  1.00  0.00    -0.000 C 
BRANCH  27  28
ATOM     28  C   UNL     1      46.373  43.863  14.930  1.00  0.00    -0.000 C 
BRANCH  28  29
ATOM     29  C   UNL     1      46.944  42.545  14.389  1.00  0.00    -0.000 C 
BRANCH  29  30
ATOM     30  C   UNL     1      46.172  41.341  14.950  1.00  0.00    -0.000 C 
BRANCH  30  31
ATOM     31  C   UNL     1      45.549  41.629  16.324  1.00  0.00    -0.003 C 
ATOM     32  C   UNL     1      46.472  41.253  17.483  1.00  0.00     0.004 C 
ENDBRANCH  30  31
ENDBRANCH  29  30
ENDBRANCH  28  29
ENDBRANCH  27  28
ENDBRANCH  26  27
ENDBRANCH  25  26
ENDBRANCH  24  25
ENDBRANCH  23  24
ENDBRANCH  22  23
ENDBRANCH  21  22
ENDBRANCH  20  21
ENDBRANCH  19  20
ENDBRANCH  18  19
ENDBRANCH   1  18
TORSDOF 28
ENDMDL
MODEL 4
REMARK VINA RESULT:    -3.283      4.755     11.125
REMARK INTER + INTRA:         -13.303
REMARK INTER:                  -7.649
REMARK INTRA:                  -5.654
REMARK UNBOUND:                -4.646
REMARK SMILES CCCCCCCCCCCCCCCCCCCCCCCCCCCCCC(=O)[O-]
REMARK SMILES IDX 16 1 17 2 18 3 19 4 20 5 21 6 22 7 23 8 24 9 25 10 26 11
REMARK SMILES IDX 27 12 28 13 29 14 30 15 31 16 32 17 15 18 14 19 13 20 12 21
REMARK SMILES IDX 11 22 10 23 9 24 8 25 7 26 6 27 5 28 4 29 3 30 2 31 1 32
REMARK H PARENT
REMARK Flexibility Score: inf
ROOT
ATOM      1  C   UNL     1      50.743  45.931  14.231  1.00  0.00     0.000 C 
ENDROOT
BRANCH   1   2
ATOM      2  C   UNL     1      49.586  46.623  14.967  1.00  0.00     0.000 C 
BRANCH   2   3
ATOM      3  C   UNL     1      48.530  45.632  15.478  1.00  0.00     0.000 C 
BRANCH   3   4
ATOM      4  C   UNL     1      48.924  44.188  15.132  1.00  0.00     0.000 C 
BRANCH   4   5
ATOM      5  C   UNL     1      49.199  43.326  16.376  1.00  0.00     0.000 C 
BRANCH   5   6
ATOM      6  C   UNL     1      50.660  43.327  16.860  1.00  0.00     0.000 C 
BRANCH   6   7
ATOM      7  C   UNL     1      50.813  43.846  18.301  1.00  0.00     0.000 C 
BRANCH   7   8
ATOM      8  C   UNL     1      50.777  45.381  18.380  1.00  0.00     0.000 C 
BRANCH   8   9
ATOM      9  C   UNL     1      52.165  45.986  18.654  1.00  0.00     0.000 C 
BRANCH   9  10
ATOM     10  C   UNL     1      52.796  46.626  17.404  1.00  0.00     0.000 C 
BRANCH  10  11
ATOM     11  C   UNL     1      54.123  45.994  16.944  1.00  0.00     0.000 C 
BRANCH  11  12
ATOM     12  C   UNL     1      53.920  44.781  16.023  1.00  0.00     0.000 C 
BRANCH  12  13
ATOM     13  C   UNL     1      54.811  43.609  16.453  1.00  0.00     0.006 C 
BRANCH  13  14
ATOM     14  C   UNL     1      54.437  43.120  17.855  1.00  0.00     0.053 C 
BRANCH  14  15
ATOM     15  C   UNL     1      54.340  41.627  17.888  1.00  0.00     0.041 C 
ATOM     16  O   UNL     1      53.234  41.059  17.685  1.00  0.00    -0.550 OA
ATOM     17  O   UNL     1      55.468  40.862  18.159  1.00  0.00    -0.550 OA
ENDBRANCH  14  15
ENDBRANCH  13  14
ENDBRANCH  12  13
ENDBRANCH  11  12
ENDBRANCH  10  11
ENDBRANCH   9  10
ENDBRANCH   8   9
ENDBRANCH   7   8
ENDBRANCH   6   7
ENDBRANCH   5   6
ENDBRANCH   4   5
ENDBRANCH   3   4
ENDBRANCH   2   3
ENDBRANCH   1   2
BRANCH   1  18
ATOM     18  C   UNL     1      51.844  46.914  13.799  1.00  0.00     0.000 C 
BRANCH  18  19
ATOM     19  C   UNL     1      51.274  48.232  13.248  1.00  0.00     0.000 C 
BRANCH  19  20
ATOM     20  C   UNL     1      52.124  48.810  12.105  1.00  0.00     0.000 C 
BRANCH  20  21
ATOM     21  C   UNL     1      51.984  50.336  11.971  1.00  0.00     0.000 C 
BRANCH  21  22
ATOM     22  C   UNL     1      53.031  51.125  12.788  1.00  0.00     0.000 C 
BRANCH  22  23
ATOM     23  C   UNL     1      54.379  50.394  12.863  1.00  0.00     0.000 C 
BRANCH  23  24
ATOM     24  C   UNL     1      54.806  50.174  14.321  1.00  0.00    -0.000 C 
BRANCH  24  25
ATOM     25  C   UNL     1      54.942  48.685  14.682  1.00  0.00    -0.000 C 
BRANCH  25  26
ATOM     26  C   UNL     1      55.512  47.844  13.526  1.00  0.00    -0.000 C 
BRANCH  26  27
ATOM     27  C   UNL     1      57.000  47.495  13.741  1.00  0.00    -0.000 C 
BRANCH  27  28
ATOM     28  C   UNL     1      57.221  46.153  14.459  1.00  0.00    -0.000 C 
BRANCH  28  29
ATOM     29  C   UNL     1      57.663  46.320  15.919  1.00  0.00    -0.000 C 
BRANCH  29  30
ATOM     30  C   UNL     1      58.040  44.967  16.539  1.00  0.00    -0.000 C 
BRANCH  30  31
ATOM     31  C   UNL     1      58.172  45.035  18.068  1.00  0.00    -0.003 C 
ATOM     32  C   UNL     1      58.288  43.655  18.714  1.00  0.00     0.004 C 
ENDBRANCH  30  31
ENDBRANCH  29  30
ENDBRANCH  28  29
ENDBRANCH  27  28
ENDBRANCH  26  27
ENDBRANCH  25  26
ENDBRANCH  24  25
ENDBRANCH  23  24
ENDBRANCH  22  23
ENDBRANCH  21  22
ENDBRANCH  20  21
ENDBRANCH  19  20
ENDBRANCH  18  19
ENDBRANCH   1  18
TORSDOF 28
ENDMDL
MODEL 5
REMARK VINA RESULT:    -3.281      6.878     11.545
REMARK INTER + INTRA:         -13.297
REMARK INTER:                  -9.399
REMARK INTRA:                  -3.898
REMARK UNBOUND:                -4.646
REMARK SMILES CCCCCCCCCCCCCCCCCCCCCCCCCCCCCC(=O)[O-]
REMARK SMILES IDX 16 1 17 2 18 3 19 4 20 5 21 6 22 7 23 8 24 9 25 10 26 11
REMARK SMILES IDX 27 12 28 13 29 14 30 15 31 16 32 17 15 18 14 19 13 20 12 21
REMARK SMILES IDX 11 22 10 23 9 24 8 25 7 26 6 27 5 28 4 29 3 30 2 31 1 32
REMARK H PARENT
REMARK Flexibility Score: inf
ROOT
ATOM      1  C   UNL     1      50.572  49.142  14.889  1.00  0.00     0.000 C 
ENDROOT
BRANCH   1   2
ATOM      2  C   UNL     1      49.913  49.181  13.502  1.00  0.00     0.000 C 
BRANCH   2   3
ATOM      3  C   UNL     1      49.668  50.612  13.002  1.00  0.00     0.000 C 
BRANCH   3   4
ATOM      4  C   UNL     1      50.376  50.850  11.660  1.00  0.00     0.000 C 
BRANCH   4   5
ATOM      5  C   UNL     1      51.216  49.645  11.203  1.00  0.00     0.000 C 
BRANCH   5   6
ATOM      6  C   UNL     1      52.729  49.910  11.091  1.00  0.00     0.000 C 
BRANCH   6   7
ATOM      7  C   UNL     1      53.214  51.016  12.047  1.00  0.00     0.000 C 
BRANCH   7   8
ATOM      8  C   UNL     1      53.675  50.459  13.404  1.00  0.00     0.000 C 
BRANCH   8   9
ATOM      9  C   UNL     1      54.669  49.294  13.252  1.00  0.00     0.000 C 
BRANCH   9  10
ATOM     10  C   UNL     1      56.138  49.747  13.331  1.00  0.00     0.000 C 
BRANCH  10  11
ATOM     11  C   UNL     1      57.125  48.679  13.839  1.00  0.00     0.000 C 
BRANCH  11  12
ATOM     12  C   UNL     1      56.716  47.252  13.446  1.00  0.00     0.000 C 
BRANCH  12  13
ATOM     13  C   UNL     1      57.234  46.231  14.466  1.00  0.00     0.006 C 
BRANCH  13  14
ATOM     14  C   UNL     1      57.244  46.823  15.879  1.00  0.00     0.053 C 
BRANCH  14  15
ATOM     15  C   UNL     1      56.527  45.924  16.837  1.00  0.00     0.041 C 
ATOM     16  O   UNL     1      56.008  44.850  16.431  1.00  0.00    -0.550 OA
ATOM     17  O   UNL     1      56.416  46.280  18.175  1.00  0.00    -0.550 OA
ENDBRANCH  14  15
ENDBRANCH  13  14
ENDBRANCH  12  13
ENDBRANCH  11  12
ENDBRANCH  10  11
ENDBRANCH   9  10
ENDBRANCH   8   9
ENDBRANCH   7   8
ENDBRANCH   6   7
ENDBRANCH   5   6
ENDBRANCH   4   5
ENDBRANCH   3   4
ENDBRANCH   2   3
ENDBRANCH   1   2
BRANCH   1  18
ATOM     18  C   UNL     1      51.516  47.940  15.064  1.00  0.00     0.000 C 
BRANCH  18  19
ATOM     19  C   UNL     1      51.611  47.075  13.796  1.00  0.00     0.000 C 
BRANCH  19  20
ATOM     20  C   UNL     1      50.757  45.801  13.885  1.00  0.00     0.000 C 
BRANCH  20  21
ATOM     21  C   UNL     1      50.869  45.102  15.251  1.00  0.00     0.000 C 
BRANCH  21  22
ATOM     22  C   UNL     1      49.573  44.382  15.682  1.00  0.00     0.000 C 
BRANCH  22  23
ATOM     23  C   UNL     1      48.339  45.290  15.567  1.00  0.00     0.000 C 
BRANCH  23  24
ATOM     24  C   UNL     1      47.094  44.480  15.177  1.00  0.00    -0.000 C 
BRANCH  24  25
ATOM     25  C   UNL     1      47.442  43.164  14.461  1.00  0.00    -0.000 C 
BRANCH  25  26
ATOM     26  C   UNL     1      46.815  41.935  15.140  1.00  0.00    -0.000 C 
BRANCH  26  27
ATOM     27  C   UNL     1      47.446  41.646  16.518  1.00  0.00    -0.000 C 
BRANCH  27  28
ATOM     28  C   UNL     1      46.425  41.595  17.667  1.00  0.00    -0.000 C 
BRANCH  28  29
ATOM     29  C   UNL     1      45.233  42.538  17.451  1.00  0.00    -0.000 C 
BRANCH  29  30
ATOM     30  C   UNL     1      44.876  43.279  18.749  1.00  0.00    -0.000 C 
BRANCH  30  31
ATOM     31  C   UNL     1      46.061  44.074  19.319  1.00  0.00    -0.003 C 
ATOM     32  C   UNL     1      46.257  45.422  18.626  1.00  0.00     0.004 C 
ENDBRANCH  30  31
ENDBRANCH  29  30
ENDBRANCH  28  29
ENDBRANCH  27  28
ENDBRANCH  26  27
ENDBRANCH  25  26
ENDBRANCH  24  25
ENDBRANCH  23  24
ENDBRANCH  22  23
ENDBRANCH  21  22
ENDBRANCH  20  21
ENDBRANCH  19  20
ENDBRANCH  18  19
ENDBRANCH   1  18
TORSDOF 28
ENDMDL
MODEL 6
REMARK VINA RESULT:    -3.277      4.490      8.958
REMARK INTER + INTRA:         -13.288
REMARK INTER:                  -7.707
REMARK INTRA:                  -5.581
REMARK UNBOUND:                -4.646
REMARK SMILES CCCCCCCCCCCCCCCCCCCCCCCCCCCCCC(=O)[O-]
REMARK SMILES IDX 16 1 17 2 18 3 19 4 20 5 21 6 22 7 23 8 24 9 25 10 26 11
REMARK SMILES IDX 27 12 28 13 29 14 30 15 31 16 32 17 15 18 14 19 13 20 12 21
REMARK SMILES IDX 11 22 10 23 9 24 8 25 7 26 6 27 5 28 4 29 3 30 2 31 1 32
REMARK H PARENT
REMARK Flexibility Score: inf
ROOT
ATOM      1  C   UNL     1      56.595  47.592  13.659  1.00  0.00     0.000 C 
ENDROOT
BRANCH   1   2
ATOM      2  C   UNL     1      57.269  47.891  15.006  1.00  0.00     0.000 C 
BRANCH   2   3
ATOM      3  C   UNL     1      57.497  46.627  15.849  1.00  0.00     0.000 C 
BRANCH   3   4
ATOM      4  C   UNL     1      57.261  45.362  15.009  1.00  0.00     0.000 C 
BRANCH   4   5
ATOM      5  C   UNL     1      57.889  44.103  15.633  1.00  0.00     0.000 C 
BRANCH   5   6
ATOM      6  C   UNL     1      58.350  44.261  17.094  1.00  0.00     0.000 C 
BRANCH   6   7
ATOM      7  C   UNL     1      57.590  43.337  18.063  1.00  0.00     0.000 C 
BRANCH   7   8
ATOM      8  C   UNL     1      56.744  42.284  17.329  1.00  0.00     0.000 C 
BRANCH   8   9
ATOM      9  C   UNL     1      55.522  41.837  18.151  1.00  0.00     0.000 C 
BRANCH   9  10
ATOM     10  C   UNL     1      54.243  42.616  17.793  1.00  0.00     0.000 C 
BRANCH  10  11
ATOM     11  C   UNL     1      54.227  43.234  16.383  1.00  0.00     0.000 C 
BRANCH  11  12
ATOM     12  C   UNL     1      54.237  44.770  16.402  1.00  0.00     0.000 C 
BRANCH  12  13
ATOM     13  C   UNL     1      53.808  45.305  17.774  1.00  0.00     0.006 C 
BRANCH  13  14
ATOM     14  C   UNL     1      54.704  46.467  18.214  1.00  0.00     0.053 C 
BRANCH  14  15
ATOM     15  C   UNL     1      55.654  46.029  19.284  1.00  0.00     0.041 C 
ATOM     16  O   UNL     1      55.295  45.178  20.141  1.00  0.00    -0.550 OA
ATOM     17  O   UNL     1      56.931  46.572  19.346  1.00  0.00    -0.550 OA
ENDBRANCH  14  15
ENDBRANCH  13  14
ENDBRANCH  12  13
ENDBRANCH  11  12
ENDBRANCH  10  11
ENDBRANCH   9  10
ENDBRANCH   8   9
ENDBRANCH   7   8
ENDBRANCH   6   7
ENDBRANCH   5   6
ENDBRANCH   4   5
ENDBRANCH   3   4
ENDBRANCH   2   3
ENDBRANCH   1   2
BRANCH   1  18
ATOM     18  C   UNL     1      55.339  48.448  13.422  1.00  0.00     0.000 C 
BRANCH  18  19
ATOM     19  C   UNL     1      54.520  48.663  14.705  1.00  0.00     0.000 C 
BRANCH  19  20
ATOM     20  C   UNL     1      53.235  47.821  14.733  1.00  0.00     0.000 C 
BRANCH  20  21
ATOM     21  C   UNL     1      52.769  47.397  13.330  1.00  0.00     0.000 C 
BRANCH  21  22
ATOM     22  C   UNL     1      51.649  48.292  12.756  1.00  0.00     0.000 C 
BRANCH  22  23
ATOM     23  C   UNL     1      50.852  49.004  13.860  1.00  0.00     0.000 C 
BRANCH  23  24
ATOM     24  C   UNL     1      49.504  48.308  14.101  1.00  0.00    -0.000 C 
BRANCH  24  25
ATOM     25  C   UNL     1      49.544  47.336  15.292  1.00  0.00    -0.000 C 
BRANCH  25  26
ATOM     26  C   UNL     1      49.374  45.868  14.865  1.00  0.00    -0.000 C 
BRANCH  26  27
ATOM     27  C   UNL     1      50.681  45.062  15.022  1.00  0.00    -0.000 C 
BRANCH  27  28
ATOM     28  C   UNL     1      50.644  44.046  16.177  1.00  0.00    -0.000 C 
BRANCH  28  29
ATOM     29  C   UNL     1      49.217  43.665  16.595  1.00  0.00    -0.000 C 
BRANCH  29  30
ATOM     30  C   UNL     1      49.148  42.196  17.039  1.00  0.00    -0.000 C 
BRANCH  30  31
ATOM     31  C   UNL     1      50.539  41.558  17.182  1.00  0.00    -0.003 C 
ATOM     32  C   UNL     1      50.912  41.275  18.637  1.00  0.00     0.004 C 
ENDBRANCH  30  31
ENDBRANCH  29  30
ENDBRANCH  28  29
ENDBRANCH  27  28
ENDBRANCH  26  27
ENDBRANCH  25  26
ENDBRANCH  24  25
ENDBRANCH  23  24
ENDBRANCH  22  23
ENDBRANCH  21  22
ENDBRANCH  20  21
ENDBRANCH  19  20
ENDBRANCH  18  19
ENDBRANCH   1  18
TORSDOF 28
ENDMDL
MODEL 7
REMARK VINA RESULT:    -3.272      4.513      9.175
REMARK INTER + INTRA:         -13.274
REMARK INTER:                  -7.780
REMARK INTRA:                  -5.494
REMARK UNBOUND:                -4.646
REMARK SMILES CCCCCCCCCCCCCCCCCCCCCCCCCCCCCC(=O)[O-]
REMARK SMILES IDX 16 1 17 2 18 3 19 4 20 5 21 6 22 7 23 8 24 9 25 10 26 11
REMARK SMILES IDX 27 12 28 13 29 14 30 15 31 16 32 17 15 18 14 19 13 20 12 21
REMARK SMILES IDX 11 22 10 23 9 24 8 25 7 26 6 27 5 28 4 29 3 30 2 31 1 32
REMARK H PARENT
REMARK Flexibility Score: inf
ROOT
ATOM      1  C   UNL     1      56.127  48.038  13.357  1.00  0.00     0.000 C 
ENDROOT
BRANCH   1   2
ATOM      2  C   UNL     1      54.634  48.401  13.367  1.00  0.00     0.000 C 
BRANCH   2   3
ATOM      3  C   UNL     1      54.384  49.872  13.735  1.00  0.00     0.000 C 
BRANCH   3   4
ATOM      4  C   UNL     1      53.279  50.474  12.854  1.00  0.00     0.000 C 
BRANCH   4   5
ATOM      5  C   UNL     1      52.610  49.436  11.937  1.00  0.00     0.000 C 
BRANCH   5   6
ATOM      6  C   UNL     1      51.087  49.595  11.775  1.00  0.00     0.000 C 
BRANCH   6   7
ATOM      7  C   UNL     1      50.378  49.936  13.098  1.00  0.00     0.000 C 
BRANCH   7   8
ATOM      8  C   UNL     1      49.695  48.711  13.730  1.00  0.00     0.000 C 
BRANCH   8   9
ATOM      9  C   UNL     1      50.458  48.185  14.959  1.00  0.00     0.000 C 
BRANCH   9  10
ATOM     10  C   UNL     1      51.479  47.088  14.605  1.00  0.00     0.000 C 
BRANCH  10  11
ATOM     11  C   UNL     1      50.868  45.743  14.171  1.00  0.00     0.000 C 
BRANCH  11  12
ATOM     12  C   UNL     1      49.631  45.354  14.994  1.00  0.00     0.000 C 
BRANCH  12  13
ATOM     13  C   UNL     1      49.963  44.242  15.996  1.00  0.00     0.006 C 
BRANCH  13  14
ATOM     14  C   UNL     1      49.421  44.577  17.389  1.00  0.00     0.053 C 
BRANCH  14  15
ATOM     15  C   UNL     1      49.904  45.921  17.838  1.00  0.00     0.041 C 
ATOM     16  O   UNL     1      51.134  46.123  18.022  1.00  0.00    -0.550 OA
ATOM     17  O   UNL     1      48.996  46.946  18.068  1.00  0.00    -0.550 OA
ENDBRANCH  14  15
ENDBRANCH  13  14
ENDBRANCH  12  13
ENDBRANCH  11  12
ENDBRANCH  10  11
ENDBRANCH   9  10
ENDBRANCH   8   9
ENDBRANCH   7   8
ENDBRANCH   6   7
ENDBRANCH   5   6
ENDBRANCH   4   5
ENDBRANCH   3   4
ENDBRANCH   2   3
ENDBRANCH   1   2
BRANCH   1  18
ATOM     18  C   UNL     1      56.531  47.160  14.554  1.00  0.00     0.000 C 
BRANCH  18  19
ATOM     19  C   UNL     1      56.949  47.990  15.780  1.00  0.00     0.000 C 
BRANCH  19  20
ATOM     20  C   UNL     1      56.186  47.588  17.052  1.00  0.00     0.000 C 
BRANCH  20  21
ATOM     21  C   UNL     1      54.784  47.029  16.755  1.00  0.00     0.000 C 
BRANCH  21  22
ATOM     22  C   UNL     1      54.547  45.619  17.337  1.00  0.00     0.000 C 
BRANCH  22  23
ATOM     23  C   UNL     1      53.962  44.652  16.296  1.00  0.00     0.000 C 
BRANCH  23  24
ATOM     24  C   UNL     1      53.357  43.414  16.973  1.00  0.00    -0.000 C 
BRANCH  24  25
ATOM     25  C   UNL     1      53.417  43.488  18.508  1.00  0.00    -0.000 C 
BRANCH  25  26
ATOM     26  C   UNL     1      54.523  42.597  19.101  1.00  0.00    -0.000 C 
BRANCH  26  27
ATOM     27  C   UNL     1      54.879  41.417  18.173  1.00  0.00    -0.000 C 
BRANCH  27  28
ATOM     28  C   UNL     1      56.371  41.349  17.805  1.00  0.00    -0.000 C 
BRANCH  28  29
ATOM     29  C   UNL     1      57.026  42.732  17.704  1.00  0.00    -0.000 C 
BRANCH  29  30
ATOM     30  C   UNL     1      57.287  43.112  16.239  1.00  0.00    -0.000 C 
BRANCH  30  31
ATOM     31  C   UNL     1      58.026  44.452  16.101  1.00  0.00    -0.003 C 
ATOM     32  C   UNL     1      58.966  44.733  17.274  1.00  0.00     0.004 C 
ENDBRANCH  30  31
ENDBRANCH  29  30
ENDBRANCH  28  29
ENDBRANCH  27  28
ENDBRANCH  26  27
ENDBRANCH  25  26
ENDBRANCH  24  25
ENDBRANCH  23  24
ENDBRANCH  22  23
ENDBRANCH  21  22
ENDBRANCH  20  21
ENDBRANCH  19  20
ENDBRANCH  18  19
ENDBRANCH   1  18
TORSDOF 28
ENDMDL
MODEL 8
REMARK VINA RESULT:    -3.257      6.962     12.901
REMARK INTER + INTRA:         -13.235
REMARK INTER:                  -7.375
REMARK INTRA:                  -5.860
REMARK UNBOUND:                -4.646
REMARK SMILES CCCCCCCCCCCCCCCCCCCCCCCCCCCCCC(=O)[O-]
REMARK SMILES IDX 16 1 17 2 18 3 19 4 20 5 21 6 22 7 23 8 24 9 25 10 26 11
REMARK SMILES IDX 27 12 28 13 29 14 30 15 31 16 32 17 15 18 14 19 13 20 12 21
REMARK SMILES IDX 11 22 10 23 9 24 8 25 7 26 6 27 5 28 4 29 3 30 2 31 1 32
REMARK H PARENT
REMARK Flexibility Score: inf
ROOT
ATOM      1  C   UNL     1      46.214  44.035  18.629  1.00  0.00     0.000 C 
ENDROOT
BRANCH   1   2
ATOM      2  C   UNL     1      46.821  42.625  18.683  1.00  0.00     0.000 C 
BRANCH   2   3
ATOM      3  C   UNL     1      46.180  41.664  17.671  1.00  0.00     0.000 C 
BRANCH   3   4
ATOM      4  C   UNL     1      45.221  42.416  16.737  1.00  0.00     0.000 C 
BRANCH   4   5
ATOM      5  C   UNL     1      45.385  42.015  15.260  1.00  0.00     0.000 C 
BRANCH   5   6
ATOM      6  C   UNL     1      46.542  42.712  14.521  1.00  0.00     0.000 C 
BRANCH   6   7
ATOM      7  C   UNL     1      46.706  44.189  14.925  1.00  0.00     0.000 C 
BRANCH   7   8
ATOM      8  C   UNL     1      48.178  44.578  15.141  1.00  0.00     0.000 C 
BRANCH   8   9
ATOM      9  C   UNL     1      49.039  43.387  15.596  1.00  0.00     0.000 C 
BRANCH   9  10
ATOM     10  C   UNL     1      49.910  43.712  16.822  1.00  0.00     0.000 C 
BRANCH  10  11
ATOM     11  C   UNL     1      51.359  44.124  16.503  1.00  0.00     0.000 C 
BRANCH  11  12
ATOM     12  C   UNL     1      52.001  44.966  17.617  1.00  0.00     0.000 C 
BRANCH  12  13
ATOM     13  C   UNL     1      53.489  45.206  17.336  1.00  0.00     0.006 C 
BRANCH  13  14
ATOM     14  C   UNL     1      54.012  44.235  16.273  1.00  0.00     0.053 C 
BRANCH  14  15
ATOM     15  C   UNL     1      54.970  43.254  16.874  1.00  0.00     0.041 C 
ATOM     16  O   UNL     1      56.205  43.501  16.886  1.00  0.00    -0.550 OA
ATOM     17  O   UNL     1      54.500  42.060  17.407  1.00  0.00    -0.550 OA
ENDBRANCH  14  15
ENDBRANCH  13  14
ENDBRANCH  12  13
ENDBRANCH  11  12
ENDBRANCH  10  11
ENDBRANCH   9  10
ENDBRANCH   8   9
ENDBRANCH   7   8
ENDBRANCH   6   7
ENDBRANCH   5   6
ENDBRANCH   4   5
ENDBRANCH   3   4
ENDBRANCH   2   3
ENDBRANCH   1   2
BRANCH   1  18
ATOM     18  C   UNL     1      47.282  45.142  18.657  1.00  0.00     0.000 C 
BRANCH  18  19
ATOM     19  C   UNL     1      46.682  46.546  18.476  1.00  0.00     0.000 C 
BRANCH  19  20
ATOM     20  C   UNL     1      47.758  47.639  18.378  1.00  0.00     0.000 C 
BRANCH  20  21
ATOM     21  C   UNL     1      49.001  47.184  17.595  1.00  0.00     0.000 C 
BRANCH  21  22
ATOM     22  C   UNL     1      50.092  48.271  17.485  1.00  0.00     0.000 C 
BRANCH  22  23
ATOM     23  C   UNL     1      50.892  48.161  16.178  1.00  0.00     0.000 C 
BRANCH  23  24
ATOM     24  C   UNL     1      50.090  47.416  15.103  1.00  0.00    -0.000 C 
BRANCH  24  25
ATOM     25  C   UNL     1      50.982  46.836  13.992  1.00  0.00    -0.000 C 
BRANCH  25  26
ATOM     26  C   UNL     1      52.482  47.016  14.281  1.00  0.00    -0.000 C 
BRANCH  26  27
ATOM     27  C   UNL     1      53.212  47.746  13.134  1.00  0.00    -0.000 C 
BRANCH  27  28
ATOM     28  C   UNL     1      54.424  48.571  13.599  1.00  0.00    -0.000 C 
BRANCH  28  29
ATOM     29  C   UNL     1      54.629  48.529  15.119  1.00  0.00    -0.000 C 
BRANCH  29  30
ATOM     30  C   UNL     1      56.116  48.374  15.470  1.00  0.00    -0.000 C 
BRANCH  30  31
ATOM     31  C   UNL     1      56.480  46.935  15.870  1.00  0.00    -0.003 C 
ATOM     32  C   UNL     1      57.229  46.186  14.767  1.00  0.00     0.004 C 
ENDBRANCH  30  31
ENDBRANCH  29  30
ENDBRANCH  28  29
ENDBRANCH  27  28
ENDBRANCH  26  27
ENDBRANCH  25  26
ENDBRANCH  24  25
ENDBRANCH  23  24
ENDBRANCH  22  23
ENDBRANCH  21  22
ENDBRANCH  20  21
ENDBRANCH  19  20
ENDBRANCH  18  19
ENDBRANCH   1  18
TORSDOF 28
ENDMDL
MODEL 9
REMARK VINA RESULT:    -3.228      6.345     11.222
REMARK INTER + INTRA:         -13.159
REMARK INTER:                  -7.735
REMARK INTRA:                  -5.424
REMARK UNBOUND:                -4.646
REMARK SMILES CCCCCCCCCCCCCCCCCCCCCCCCCCCCCC(=O)[O-]
REMARK SMILES IDX 16 1 17 2 18 3 19 4 20 5 21 6 22 7 23 8 24 9 25 10 26 11
REMARK SMILES IDX 27 12 28 13 29 14 30 15 31 16 32 17 15 18 14 19 13 20 12 21
REMARK SMILES IDX 11 22 10 23 9 24 8 25 7 26 6 27 5 28 4 29 3 30 2 31 1 32
REMARK H PARENT
REMARK Flexibility Score: inf
ROOT
ATOM      1  C   UNL     1      49.609  45.461  18.433  1.00  0.00     0.000 C 
ENDROOT
BRANCH   1   2
ATOM      2  C   UNL     1      49.494  46.991  18.360  1.00  0.00     0.000 C 
BRANCH   2   3
ATOM      3  C   UNL     1      50.707  47.707  18.971  1.00  0.00     0.000 C 
BRANCH   3   4
ATOM      4  C   UNL     1      50.711  49.195  18.593  1.00  0.00     0.000 C 
BRANCH   4   5
ATOM      5  C   UNL     1      52.115  49.726  18.259  1.00  0.00     0.000 C 
BRANCH   5   6
ATOM      6  C   UNL     1      52.229  50.468  16.915  1.00  0.00     0.000 C 
BRANCH   6   7
ATOM      7  C   UNL     1      50.888  50.555  16.165  1.00  0.00     0.000 C 
BRANCH   7   8
ATOM      8  C   UNL     1      51.052  51.070  14.725  1.00  0.00     0.000 C 
BRANCH   8   9
ATOM      9  C   UNL     1      50.035  50.440  13.758  1.00  0.00     0.000 C 
BRANCH   9  10
ATOM     10  C   UNL     1      50.101  51.044  12.343  1.00  0.00     0.000 C 
BRANCH  10  11
ATOM     11  C   UNL     1      50.584  50.081  11.244  1.00  0.00     0.000 C 
BRANCH  11  12
ATOM     12  C   UNL     1      51.770  50.636  10.441  1.00  0.00     0.000 C 
BRANCH  12  13
ATOM     13  C   UNL     1      52.941  50.994  11.365  1.00  0.00     0.006 C 
BRANCH  13  14
ATOM     14  C   UNL     1      53.443  49.758  12.119  1.00  0.00     0.053 C 
BRANCH  14  15
ATOM     15  C   UNL     1      54.567  50.119  13.039  1.00  0.00     0.041 C 
ATOM     16  O   UNL     1      54.469  49.901  14.276  1.00  0.00    -0.550 OA
ATOM     17  O   UNL     1      55.718  50.710  12.533  1.00  0.00    -0.550 OA
ENDBRANCH  14  15
ENDBRANCH  13  14
ENDBRANCH  12  13
ENDBRANCH  11  12
ENDBRANCH  10  11
ENDBRANCH   9  10
ENDBRANCH   8   9
ENDBRANCH   7   8
ENDBRANCH   6   7
ENDBRANCH   5   6
ENDBRANCH   4   5
ENDBRANCH   3   4
ENDBRANCH   2   3
ENDBRANCH   1   2
BRANCH   1  18
ATOM     18  C   UNL     1      48.695  44.748  17.421  1.00  0.00     0.000 C 
BRANCH  18  19
ATOM     19  C   UNL     1      49.482  43.878  16.426  1.00  0.00     0.000 C 
BRANCH  19  20
ATOM     20  C   UNL     1      49.598  44.527  15.038  1.00  0.00     0.000 C 
BRANCH  20  21
ATOM     21  C   UNL     1      48.987  45.937  14.986  1.00  0.00     0.000 C 
BRANCH  21  22
ATOM     22  C   UNL     1      50.012  47.041  14.644  1.00  0.00     0.000 C 
BRANCH  22  23
ATOM     23  C   UNL     1      51.216  46.493  13.864  1.00  0.00     0.000 C 
BRANCH  23  24
ATOM     24  C   UNL     1      52.536  47.005  14.458  1.00  0.00    -0.000 C 
BRANCH  24  25
ATOM     25  C   UNL     1      52.571  46.916  15.993  1.00  0.00    -0.000 C 
BRANCH  25  26
ATOM     26  C   UNL     1      52.827  45.486  16.498  1.00  0.00    -0.000 C 
BRANCH  26  27
ATOM     27  C   UNL     1      54.298  45.273  16.917  1.00  0.00    -0.000 C 
BRANCH  27  28
ATOM     28  C   UNL     1      55.020  44.187  16.101  1.00  0.00    -0.000 C 
BRANCH  28  29
ATOM     29  C   UNL     1      56.168  44.743  15.248  1.00  0.00    -0.000 C 
BRANCH  29  30
ATOM     30  C   UNL     1      56.145  46.279  15.228  1.00  0.00    -0.000 C 
BRANCH  30  31
ATOM     31  C   UNL     1      56.335  46.853  13.816  1.00  0.00    -0.003 C 
ATOM     32  C   UNL     1      57.495  47.845  13.732  1.00  0.00     0.004 C 
ENDBRANCH  30  31
ENDBRANCH  29  30
ENDBRANCH  28  29
ENDBRANCH  27  28
ENDBRANCH  26  27
ENDBRANCH  25  26
ENDBRANCH  24  25
ENDBRANCH  23  24
ENDBRANCH  22  23
ENDBRANCH  21  22
ENDBRANCH  20  21
ENDBRANCH  19  20
ENDBRANCH  18  19
ENDBRANCH   1  18
TORSDOF 28
ENDMDL
