MODEL 1
REMARK VINA RESULT:    -4.130      0.000      0.000
REMARK INTER + INTRA:          -7.946
REMARK INTER:                  -6.544
REMARK INTRA:                  -1.402
REMARK UNBOUND:                -1.402
REMARK SMILES CCCCCCCCCCCC(=O)[O-]
REMARK SMILES IDX 7 1 8 2 9 3 10 4 11 5 12 6 13 7 14 8 6 9 5 10 4 11 3 12 2 13
REMARK SMILES IDX 1 14
REMARK H PARENT
REMARK Flexibility Score: inf
ROOT
ATOM      1  C   UNL     1      13.942  -1.812   4.025  1.00  0.00     0.000 C 
ENDROOT
BRANCH   1   2
ATOM      2  C   UNL     1      12.602  -1.083   4.205  1.00  0.00     0.000 C 
BRANCH   2   3
ATOM      3  C   UNL     1      12.570   0.214   3.383  1.00  0.00     0.000 C 
BRANCH   3   4
ATOM      4  C   UNL     1      11.253   0.394   2.611  1.00  0.00     0.006 C 
BRANCH   4   5
ATOM      5  C   UNL     1      11.357  -0.065   1.150  1.00  0.00     0.053 C 
BRANCH   5   6
ATOM      6  C   UNL     1      10.923  -1.491   1.021  1.00  0.00     0.041 C 
ATOM      7  O   UNL     1      10.048  -1.960   1.795  1.00  0.00    -0.550 OA
ATOM      8  O   UNL     1      11.519  -2.316   0.077  1.00  0.00    -0.550 OA
ENDBRANCH   5   6
ENDBRANCH   4   5
ENDBRANCH   3   4
ENDBRANCH   2   3
ENDBRANCH   1   2
BRANCH   1   9
ATOM      9  C   UNL     1      13.936  -2.790   2.836  1.00  0.00     0.000 C 
BRANCH   9  10
ATOM     10  C   UNL     1      14.760  -2.339   1.612  1.00  0.00    -0.000 C 
BRANCH  10  11
ATOM     11  C   UNL     1      15.771  -1.211   1.887  1.00  0.00    -0.000 C 
BRANCH  11  12
ATOM     12  C   UNL     1      15.815  -0.164   0.762  1.00  0.00    -0.000 C 
BRANCH  12  13
ATOM     13  C   UNL     1      14.654  -0.320  -0.232  1.00  0.00    -0.003 C 
ATOM     14  C   UNL     1      15.131  -0.442  -1.680  1.00  0.00     0.004 C 
ENDBRANCH  12  13
ENDBRANCH  11  12
ENDBRANCH  10  11
ENDBRANCH   9  10
ENDBRANCH   1   9
TORSDOF 10
ENDMDL
MODEL 2
REMARK VINA RESULT:    -4.087      2.356      4.522
REMARK INTER + INTRA:          -7.878
REMARK INTER:                  -6.402
REMARK INTRA:                  -1.476
REMARK UNBOUND:                -1.402
REMARK SMILES CCCCCCCCCCCC(=O)[O-]
REMARK SMILES IDX 7 1 8 2 9 3 10 4 11 5 12 6 13 7 14 8 6 9 5 10 4 11 3 12 2 13
REMARK SMILES IDX 1 14
REMARK H PARENT
REMARK Flexibility Score: inf
ROOT
ATOM      1  C   UNL     1      12.375  -0.982   4.204  1.00  0.00     0.000 C 
ENDROOT
BRANCH   1   2
ATOM      2  C   UNL     1      13.790  -1.300   3.699  1.00  0.00     0.000 C 
BRANCH   2   3
ATOM      3  C   UNL     1      14.384  -0.102   2.944  1.00  0.00     0.000 C 
BRANCH   3   4
ATOM      4  C   UNL     1      15.692  -0.449   2.216  1.00  0.00     0.006 C 
BRANCH   4   5
ATOM      5  C   UNL     1      15.454  -1.213   0.906  1.00  0.00     0.053 C 
BRANCH   5   6
ATOM      6  C   UNL     1      16.078  -0.485  -0.243  1.00  0.00     0.041 C 
ATOM      7  O   UNL     1      17.315  -0.248  -0.246  1.00  0.00    -0.550 OA
ATOM      8  O   UNL     1      15.286  -0.024  -1.286  1.00  0.00    -0.550 OA
ENDBRANCH   5   6
ENDBRANCH   4   5
ENDBRANCH   3   4
ENDBRANCH   2   3
ENDBRANCH   1   2
BRANCH   1   9
ATOM      9  C   UNL     1      11.960   0.476   3.941  1.00  0.00     0.000 C 
BRANCH   9  10
ATOM     10  C   UNL     1      10.517   0.665   3.429  1.00  0.00    -0.000 C 
BRANCH  10  11
ATOM     11  C   UNL     1      10.251   0.113   2.016  1.00  0.00    -0.000 C 
BRANCH  11  12
ATOM     12  C   UNL     1      11.261   0.627   0.977  1.00  0.00    -0.000 C 
BRANCH  12  13
ATOM     13  C   UNL     1      11.835  -0.501   0.107  1.00  0.00    -0.003 C 
ATOM     14  C   UNL     1      11.476  -1.891   0.632  1.00  0.00     0.004 C 
ENDBRANCH  12  13
ENDBRANCH  11  12
ENDBRANCH  10  11
ENDBRANCH   9  10
ENDBRANCH   1   9
TORSDOF 10
ENDMDL
MODEL 3
REMARK VINA RESULT:    -4.076      2.389      4.254
REMARK INTER + INTRA:          -7.861
REMARK INTER:                  -6.578
REMARK INTRA:                  -1.282
REMARK UNBOUND:                -1.402
REMARK SMILES CCCCCCCCCCCC(=O)[O-]
REMARK SMILES IDX 7 1 8 2 9 3 10 4 11 5 12 6 13 7 14 8 6 9 5 10 4 11 3 12 2 13
REMARK SMILES IDX 1 14
REMARK H PARENT
REMARK Flexibility Score: inf
ROOT
ATOM      1  C   UNL     1      11.001   0.589   2.459  1.00  0.00     0.000 C 
ENDROOT
BRANCH   1   2
ATOM      2  C   UNL     1      11.078   0.400   0.937  1.00  0.00     0.000 C 
BRANCH   2   3
ATOM      3  C   UNL     1      11.823  -0.895   0.583  1.00  0.00     0.000 C 
BRANCH   3   4
ATOM      4  C   UNL     1      12.968  -0.666  -0.416  1.00  0.00     0.006 C 
BRANCH   4   5
ATOM      5  C   UNL     1      14.272  -0.231   0.268  1.00  0.00     0.053 C 
BRANCH   5   6
ATOM      6  C   UNL     1      15.417  -0.314  -0.691  1.00  0.00     0.041 C 
ATOM      7  O   UNL     1      15.209  -0.272  -1.932  1.00  0.00    -0.550 OA
ATOM      8  O   UNL     1      16.710  -0.489  -0.216  1.00  0.00    -0.550 OA
ENDBRANCH   5   6
ENDBRANCH   4   5
ENDBRANCH   3   4
ENDBRANCH   2   3
ENDBRANCH   1   2
BRANCH   1   9
ATOM      9  C   UNL     1      11.488  -0.644   3.241  1.00  0.00     0.000 C 
BRANCH   9  10
ATOM     10  C   UNL     1      12.472  -0.346   4.390  1.00  0.00    -0.000 C 
BRANCH  10  11
ATOM     11  C   UNL     1      13.875  -0.957   4.220  1.00  0.00    -0.000 C 
BRANCH  11  12
ATOM     12  C   UNL     1      13.862  -2.258   3.400  1.00  0.00    -0.000 C 
BRANCH  12  13
ATOM     13  C   UNL     1      15.276  -2.782   3.106  1.00  0.00    -0.003 C 
ATOM     14  C   UNL     1      15.368  -3.507   1.763  1.00  0.00     0.004 C 
ENDBRANCH  12  13
ENDBRANCH  11  12
ENDBRANCH  10  11
ENDBRANCH   9  10
ENDBRANCH   1   9
TORSDOF 10
ENDMDL
MODEL 4
REMARK VINA RESULT:    -3.956      2.680      4.525
REMARK INTER + INTRA:          -7.672
REMARK INTER:                  -6.235
REMARK INTRA:                  -1.436
REMARK UNBOUND:                -1.402
REMARK SMILES CCCCCCCCCCCC(=O)[O-]
REMARK SMILES IDX 7 1 8 2 9 3 10 4 11 5 12 6 13 7 14 8 6 9 5 10 4 11 3 12 2 13
REMARK SMILES IDX 1 14
REMARK H PARENT
REMARK Flexibility Score: inf
ROOT
ATOM      1  C   UNL     1      12.717   0.036   4.071  1.00  0.00     0.000 C 
ENDROOT
BRANCH   1   2
ATOM      2  C   UNL     1      12.595  -1.485   3.898  1.00  0.00     0.000 C 
BRANCH   2   3
ATOM      3  C   UNL     1      13.970  -2.160   4.014  1.00  0.00     0.000 C 
BRANCH   3   4
ATOM      4  C   UNL     1      14.449  -2.763   2.683  1.00  0.00     0.006 C 
BRANCH   4   5
ATOM      5  C   UNL     1      15.038  -1.709   1.736  1.00  0.00     0.053 C 
BRANCH   5   6
ATOM      6  C   UNL     1      16.086  -0.905   2.439  1.00  0.00     0.041 C 
ATOM      7  O   UNL     1      17.099  -1.472   2.927  1.00  0.00    -0.550 OA
ATOM      8  O   UNL     1      15.921   0.465   2.599  1.00  0.00    -0.550 OA
ENDBRANCH   5   6
ENDBRANCH   4   5
ENDBRANCH   3   4
ENDBRANCH   2   3
ENDBRANCH   1   2
BRANCH   1   9
ATOM      9  C   UNL     1      11.410   0.782   3.745  1.00  0.00     0.000 C 
BRANCH   9  10
ATOM     10  C   UNL     1      10.666   0.283   2.488  1.00  0.00    -0.000 C 
BRANCH  10  11
ATOM     11  C   UNL     1      11.302   0.698   1.149  1.00  0.00    -0.000 C 
BRANCH  11  12
ATOM     12  C   UNL     1      11.794  -0.504   0.326  1.00  0.00    -0.000 C 
BRANCH  12  13
ATOM     13  C   UNL     1      10.999  -1.784   0.622  1.00  0.00    -0.003 C 
ATOM     14  C   UNL     1      11.716  -3.047   0.143  1.00  0.00     0.004 C 
ENDBRANCH  12  13
ENDBRANCH  11  12
ENDBRANCH  10  11
ENDBRANCH   9  10
ENDBRANCH   1   9
TORSDOF 10
ENDMDL
MODEL 5
REMARK VINA RESULT:    -3.949      1.348      3.317
REMARK INTER + INTRA:          -7.661
REMARK INTER:                  -6.295
REMARK INTRA:                  -1.365
REMARK UNBOUND:                -1.402
REMARK SMILES CCCCCCCCCCCC(=O)[O-]
REMARK SMILES IDX 7 1 8 2 9 3 10 4 11 5 12 6 13 7 14 8 6 9 5 10 4 11 3 12 2 13
REMARK SMILES IDX 1 14
REMARK H PARENT
REMARK Flexibility Score: inf
ROOT
ATOM      1  C   UNL     1      14.076  -0.449  -1.170  1.00  0.00     0.000 C 
ENDROOT
BRANCH   1   2
ATOM      2  C   UNL     1      13.079  -1.035  -0.159  1.00  0.00     0.000 C 
BRANCH   2   3
ATOM      3  C   UNL     1      11.965  -0.025   0.159  1.00  0.00     0.000 C 
BRANCH   3   4
ATOM      4  C   UNL     1      12.081   0.558   1.576  1.00  0.00     0.006 C 
BRANCH   4   5
ATOM      5  C   UNL     1      11.447  -0.348   2.641  1.00  0.00     0.053 C 
BRANCH   5   6
ATOM      6  C   UNL     1      10.044  -0.698   2.258  1.00  0.00     0.041 C 
ATOM      7  O   UNL     1       9.119   0.144   2.400  1.00  0.00    -0.550 OA
ATOM      8  O   UNL     1       9.748  -1.972   1.790  1.00  0.00    -0.550 OA
ENDBRANCH   5   6
ENDBRANCH   4   5
ENDBRANCH   3   4
ENDBRANCH   2   3
ENDBRANCH   1   2
BRANCH   1   9
ATOM      9  C   UNL     1      15.529  -0.479  -0.663  1.00  0.00     0.000 C 
BRANCH   9  10
ATOM     10  C   UNL     1      15.761   0.195   0.705  1.00  0.00    -0.000 C 
BRANCH  10  11
ATOM     11  C   UNL     1      16.378  -0.715   1.782  1.00  0.00    -0.000 C 
BRANCH  11  12
ATOM     12  C   UNL     1      15.321  -1.346   2.704  1.00  0.00    -0.000 C 
BRANCH  12  13
ATOM     13  C   UNL     1      15.077  -2.829   2.389  1.00  0.00    -0.003 C 
ATOM     14  C   UNL     1      13.620  -3.244   2.600  1.00  0.00     0.004 C 
ENDBRANCH  12  13
ENDBRANCH  11  12
ENDBRANCH  10  11
ENDBRANCH   9  10
ENDBRANCH   1   9
TORSDOF 10
ENDMDL
MODEL 6
REMARK VINA RESULT:    -3.943      1.718      2.367
REMARK INTER + INTRA:          -7.651
REMARK INTER:                  -6.089
REMARK INTRA:                  -1.561
REMARK UNBOUND:                -1.402
REMARK SMILES CCCCCCCCCCCC(=O)[O-]
REMARK SMILES IDX 7 1 8 2 9 3 10 4 11 5 12 6 13 7 14 8 6 9 5 10 4 11 3 12 2 13
REMARK SMILES IDX 1 14
REMARK H PARENT
REMARK Flexibility Score: inf
ROOT
ATOM      1  C   UNL     1      13.381  -3.097   2.525  1.00  0.00     0.000 C 
ENDROOT
BRANCH   1   2
ATOM      2  C   UNL     1      12.931  -2.565   1.156  1.00  0.00     0.000 C 
BRANCH   2   3
ATOM      3  C   UNL     1      11.507  -1.995   1.233  1.00  0.00     0.000 C 
BRANCH   3   4
ATOM      4  C   UNL     1      11.440  -0.512   0.830  1.00  0.00     0.006 C 
BRANCH   4   5
ATOM      5  C   UNL     1      12.196   0.399   1.807  1.00  0.00     0.053 C 
BRANCH   5   6
ATOM      6  C   UNL     1      11.537   0.383   3.150  1.00  0.00     0.041 C 
ATOM      7  O   UNL     1      10.302   0.604   3.253  1.00  0.00    -0.550 OA
ATOM      8  O   UNL     1      12.297   0.175   4.294  1.00  0.00    -0.550 OA
ENDBRANCH   5   6
ENDBRANCH   4   5
ENDBRANCH   3   4
ENDBRANCH   2   3
ENDBRANCH   1   2
BRANCH   1   9
ATOM      9  C   UNL     1      14.548  -2.292   3.126  1.00  0.00     0.000 C 
BRANCH   9  10
ATOM     10  C   UNL     1      15.605  -1.812   2.110  1.00  0.00    -0.000 C 
BRANCH  10  11
ATOM     11  C   UNL     1      15.814  -0.287   2.061  1.00  0.00    -0.000 C 
BRANCH  11  12
ATOM     12  C   UNL     1      16.004   0.241   0.629  1.00  0.00    -0.000 C 
BRANCH  12  13
ATOM     13  C   UNL     1      15.832  -0.857  -0.431  1.00  0.00    -0.003 C 
ATOM     14  C   UNL     1      14.858  -0.458  -1.539  1.00  0.00     0.004 C 
ENDBRANCH  12  13
ENDBRANCH  11  12
ENDBRANCH  10  11
ENDBRANCH   9  10
ENDBRANCH   1   9
TORSDOF 10
ENDMDL
MODEL 7
REMARK VINA RESULT:    -3.910      1.807      4.818
REMARK INTER + INTRA:          -7.598
REMARK INTER:                  -6.330
REMARK INTRA:                  -1.269
REMARK UNBOUND:                -1.402
REMARK SMILES CCCCCCCCCCCC(=O)[O-]
REMARK SMILES IDX 7 1 8 2 9 3 10 4 11 5 12 6 13 7 14 8 6 9 5 10 4 11 3 12 2 13
REMARK SMILES IDX 1 14
REMARK H PARENT
REMARK Flexibility Score: inf
ROOT
ATOM      1  C   UNL     1      13.477  -0.367  -0.574  1.00  0.00     0.000 C 
ENDROOT
BRANCH   1   2
ATOM      2  C   UNL     1      14.839  -0.617   0.089  1.00  0.00     0.000 C 
BRANCH   2   3
ATOM      3  C   UNL     1      14.786  -0.288   1.588  1.00  0.00     0.000 C 
BRANCH   3   4
ATOM      4  C   UNL     1      15.285  -1.447   2.467  1.00  0.00     0.006 C 
BRANCH   4   5
ATOM      5  C   UNL     1      15.588  -2.714   1.656  1.00  0.00     0.053 C 
BRANCH   5   6
ATOM      6  C   UNL     1      14.551  -3.760   1.917  1.00  0.00     0.041 C 
ATOM      7  O   UNL     1      14.694  -4.924   1.458  1.00  0.00    -0.550 OA
ATOM      8  O   UNL     1      13.400  -3.437   2.625  1.00  0.00    -0.550 OA
ENDBRANCH   5   6
ENDBRANCH   4   5
ENDBRANCH   3   4
ENDBRANCH   2   3
ENDBRANCH   1   2
BRANCH   1   9
ATOM      9  C   UNL     1      12.293  -0.800   0.309  1.00  0.00     0.000 C 
BRANCH   9  10
ATOM     10  C   UNL     1      11.254   0.304   0.600  1.00  0.00    -0.000 C 
BRANCH  10  11
ATOM     11  C   UNL     1      10.699   0.312   2.036  1.00  0.00    -0.000 C 
BRANCH  11  12
ATOM     12  C   UNL     1      11.256  -0.834   2.896  1.00  0.00    -0.000 C 
BRANCH  12  13
ATOM     13  C   UNL     1      12.087  -0.328   4.085  1.00  0.00    -0.003 C 
ATOM     14  C   UNL     1      11.677   1.075   4.534  1.00  0.00     0.004 C 
ENDBRANCH  12  13
ENDBRANCH  11  12
ENDBRANCH  10  11
ENDBRANCH   9  10
ENDBRANCH   1   9
TORSDOF 10
ENDMDL
MODEL 8
REMARK VINA RESULT:    -3.896      2.332      4.468
REMARK INTER + INTRA:          -7.576
REMARK INTER:                  -6.269
REMARK INTRA:                  -1.308
REMARK UNBOUND:                -1.402
REMARK SMILES CCCCCCCCCCCC(=O)[O-]
REMARK SMILES IDX 7 1 8 2 9 3 10 4 11 5 12 6 13 7 14 8 6 9 5 10 4 11 3 12 2 13
REMARK SMILES IDX 1 14
REMARK H PARENT
REMARK Flexibility Score: inf
ROOT
ATOM      1  C   UNL     1      12.722  -2.348   3.045  1.00  0.00     0.000 C 
ENDROOT
BRANCH   1   2
ATOM      2  C   UNL     1      13.918  -2.399   2.084  1.00  0.00     0.000 C 
BRANCH   2   3
ATOM      3  C   UNL     1      15.223  -2.045   2.814  1.00  0.00     0.000 C 
BRANCH   3   4
ATOM      4  C   UNL     1      15.821  -0.709   2.346  1.00  0.00     0.006 C 
BRANCH   4   5
ATOM      5  C   UNL     1      15.104  -0.141   1.113  1.00  0.00     0.053 C 
BRANCH   5   6
ATOM      6  C   UNL     1      15.990  -0.225  -0.089  1.00  0.00     0.041 C 
ATOM      7  O   UNL     1      15.493  -0.409  -1.232  1.00  0.00    -0.550 OA
ATOM      8  O   UNL     1      17.369  -0.151   0.057  1.00  0.00    -0.550 OA
ENDBRANCH   5   6
ENDBRANCH   4   5
ENDBRANCH   3   4
ENDBRANCH   2   3
ENDBRANCH   1   2
BRANCH   1   9
ATOM      9  C   UNL     1      12.840  -1.222   4.088  1.00  0.00     0.000 C 
BRANCH   9  10
ATOM     10  C   UNL     1      12.319   0.155   3.629  1.00  0.00    -0.000 C 
BRANCH  10  11
ATOM     11  C   UNL     1      10.787   0.267   3.515  1.00  0.00    -0.000 C 
BRANCH  11  12
ATOM     12  C   UNL     1      10.300   0.299   2.057  1.00  0.00    -0.000 C 
BRANCH  12  13
ATOM     13  C   UNL     1      11.426   0.636   1.068  1.00  0.00    -0.003 C 
ATOM     14  C   UNL     1      11.652  -0.468   0.034  1.00  0.00     0.004 C 
ENDBRANCH  12  13
ENDBRANCH  11  12
ENDBRANCH  10  11
ENDBRANCH   9  10
ENDBRANCH   1   9
TORSDOF 10
ENDMDL
MODEL 9
REMARK VINA RESULT:    -3.896      1.586      2.789
REMARK INTER + INTRA:          -7.575
REMARK INTER:                  -6.240
REMARK INTRA:                  -1.335
REMARK UNBOUND:                -1.402
REMARK SMILES CCCCCCCCCCCC(=O)[O-]
REMARK SMILES IDX 7 1 8 2 9 3 10 4 11 5 12 6 13 7 14 8 6 9 5 10 4 11 3 12 2 13
REMARK SMILES IDX 1 14
REMARK H PARENT
REMARK Flexibility Score: inf
ROOT
ATOM      1  C   UNL     1      11.189   0.878   3.818  1.00  0.00     0.000 C 
ENDROOT
BRANCH   1   2
ATOM      2  C   UNL     1      10.756   0.295   2.465  1.00  0.00     0.000 C 
BRANCH   2   3
ATOM      3  C   UNL     1      11.759   0.666   1.363  1.00  0.00     0.000 C 
BRANCH   3   4
ATOM      4  C   UNL     1      12.087  -0.516   0.437  1.00  0.00     0.006 C 
BRANCH   4   5
ATOM      5  C   UNL     1      11.051  -1.645   0.532  1.00  0.00     0.053 C 
BRANCH   5   6
ATOM      6  C   UNL     1      11.716  -2.976   0.375  1.00  0.00     0.041 C 
ATOM      7  O   UNL     1      11.188  -3.869  -0.340  1.00  0.00    -0.550 OA
ATOM      8  O   UNL     1      12.894  -3.250   1.058  1.00  0.00    -0.550 OA
ENDBRANCH   5   6
ENDBRANCH   4   5
ENDBRANCH   3   4
ENDBRANCH   2   3
ENDBRANCH   1   2
BRANCH   1   9
ATOM      9  C   UNL     1      12.522   0.296   4.322  1.00  0.00     0.000 C 
BRANCH   9  10
ATOM     10  C   UNL     1      12.662  -1.234   4.187  1.00  0.00    -0.000 C 
BRANCH  10  11
ATOM     11  C   UNL     1      14.061  -1.726   3.772  1.00  0.00    -0.000 C 
BRANCH  11  12
ATOM     12  C   UNL     1      14.955  -0.594   3.239  1.00  0.00    -0.000 C 
BRANCH  12  13
ATOM     13  C   UNL     1      15.450  -0.859   1.809  1.00  0.00    -0.003 C 
ATOM     14  C   UNL     1      16.213   0.328   1.220  1.00  0.00     0.004 C 
ENDBRANCH  12  13
ENDBRANCH  11  12
ENDBRANCH  10  11
ENDBRANCH   9  10
ENDBRANCH   1   9
TORSDOF 10
ENDMDL
