MODEL 1
REMARK VINA RESULT:    -3.015      0.000      0.000
REMARK INTER + INTRA:          -3.382
REMARK INTER:                  -3.367
REMARK INTRA:                  -0.014
REMARK UNBOUND:                -0.014
REMARK SMILES CCCC(=O)[O-]
REMARK SMILES IDX 3 1 4 2 5 3 6 4 2 5 1 6
REMARK H PARENT
REMARK Flexibility Score: inf
ROOT
ATOM      1  C   UNL     1      31.154  44.545  22.107  1.00  0.00     0.052 C 
ENDROOT
BRANCH   1   2
ATOM      2  C   UNL     1      32.333  44.087  22.907  1.00  0.00     0.041 C 
ATOM      3  O   UNL     1      32.165  43.406  23.952  1.00  0.00    -0.550 OA
ATOM      4  O   UNL     1      33.617  44.454  22.522  1.00  0.00    -0.550 OA
ENDBRANCH   1   2
BRANCH   1   5
ATOM      5  C   UNL     1      31.277  46.034  21.776  1.00  0.00     0.003 C 
ATOM      6  C   UNL     1      30.098  46.823  22.335  1.00  0.00     0.004 C 
ENDBRANCH   1   5
TORSDOF 2
ENDMDL
MODEL 2
REMARK VINA RESULT:    -3.014      1.959      2.935
REMARK INTER + INTRA:          -3.380
REMARK INTER:                  -3.368
REMARK INTRA:                  -0.012
REMARK UNBOUND:                -0.014
REMARK SMILES CCCC(=O)[O-]
REMARK SMILES IDX 3 1 4 2 5 3 6 4 2 5 1 6
REMARK H PARENT
REMARK Flexibility Score: inf
ROOT
ATOM      1  C   UNL     1      32.631  44.500  21.641  1.00  0.00     0.052 C 
ENDROOT
BRANCH   1   2
ATOM      2  C   UNL     1      31.819  43.707  22.616  1.00  0.00     0.041 C 
ATOM      3  O   UNL     1      30.710  43.222  22.270  1.00  0.00    -0.550 OA
ATOM      4  O   UNL     1      32.266  43.543  23.921  1.00  0.00    -0.550 OA
ENDBRANCH   1   2
BRANCH   1   5
ATOM      5  C   UNL     1      34.022  44.787  22.213  1.00  0.00     0.003 C 
ATOM      6  C   UNL     1      35.064  44.885  21.104  1.00  0.00     0.004 C 
ENDBRANCH   1   5
TORSDOF 2
ENDMDL
MODEL 3
REMARK VINA RESULT:    -2.998      2.244      2.800
REMARK INTER + INTRA:          -3.363
REMARK INTER:                  -3.345
REMARK INTRA:                  -0.018
REMARK UNBOUND:                -0.014
REMARK SMILES CCCC(=O)[O-]
REMARK SMILES IDX 3 1 4 2 5 3 6 4 2 5 1 6
REMARK H PARENT
REMARK Flexibility Score: inf
ROOT
ATOM      1  C   UNL     1      32.927  44.759  21.624  1.00  0.00     0.052 C 
ENDROOT
BRANCH   1   2
ATOM      2  C   UNL     1      34.405  44.772  21.859  1.00  0.00     0.041 C 
ATOM      3  O   UNL     1      34.860  44.823  23.031  1.00  0.00    -0.550 OA
ATOM      4  O   UNL     1      35.280  44.776  20.780  1.00  0.00    -0.550 OA
ENDBRANCH   1   2
BRANCH   1   5
ATOM      5  C   UNL     1      32.203  44.116  22.810  1.00  0.00     0.003 C 
ATOM      6  C   UNL     1      31.287  42.986  22.350  1.00  0.00     0.004 C 
ENDBRANCH   1   5
TORSDOF 2
ENDMDL
MODEL 4
REMARK VINA RESULT:    -2.919     18.660     19.345
REMARK INTER + INTRA:          -3.274
REMARK INTER:                  -3.259
REMARK INTRA:                  -0.015
REMARK UNBOUND:                -0.014
REMARK SMILES CCCC(=O)[O-]
REMARK SMILES IDX 3 1 4 2 5 3 6 4 2 5 1 6
REMARK H PARENT
REMARK Flexibility Score: inf
ROOT
ATOM      1  C   UNL     1      34.106  28.983  12.366  1.00  0.00     0.052 C 
ENDROOT
BRANCH   1   2
ATOM      2  C   UNL     1      32.906  29.438  13.135  1.00  0.00     0.041 C 
ATOM      3  O   UNL     1      32.309  28.643  13.907  1.00  0.00    -0.550 OA
ATOM      4  O   UNL     1      32.419  30.728  12.964  1.00  0.00    -0.550 OA
ENDBRANCH   1   2
BRANCH   1   5
ATOM      5  C   UNL     1      33.771  27.739  11.539  1.00  0.00     0.003 C 
ATOM      6  C   UNL     1      35.010  26.879  11.311  1.00  0.00     0.004 C 
ENDBRANCH   1   5
TORSDOF 2
ENDMDL
MODEL 5
REMARK VINA RESULT:    -2.895     18.709     19.417
REMARK INTER + INTRA:          -3.247
REMARK INTER:                  -3.219
REMARK INTRA:                  -0.028
REMARK UNBOUND:                -0.014
REMARK SMILES CCCC(=O)[O-]
REMARK SMILES IDX 3 1 4 2 5 3 6 4 2 5 1 6
REMARK H PARENT
REMARK Flexibility Score: inf
ROOT
ATOM      1  C   UNL     1      34.096  29.137  12.084  1.00  0.00     0.052 C 
ENDROOT
BRANCH   1   2
ATOM      2  C   UNL     1      32.937  29.471  12.970  1.00  0.00     0.041 C 
ATOM      3  O   UNL     1      32.434  30.625  12.948  1.00  0.00    -0.550 OA
ATOM      4  O   UNL     1      32.441  28.520  13.853  1.00  0.00    -0.550 OA
ENDBRANCH   1   2
BRANCH   1   5
ATOM      5  C   UNL     1      33.825  27.841  11.315  1.00  0.00     0.003 C 
ATOM      6  C   UNL     1      35.007  26.882  11.419  1.00  0.00     0.004 C 
ENDBRANCH   1   5
TORSDOF 2
ENDMDL
MODEL 6
REMARK VINA RESULT:    -2.569     18.841     19.421
REMARK INTER + INTRA:          -2.883
REMARK INTER:                  -2.852
REMARK INTRA:                  -0.031
REMARK UNBOUND:                -0.014
REMARK SMILES CCCC(=O)[O-]
REMARK SMILES IDX 3 1 4 2 5 3 6 4 2 5 1 6
REMARK H PARENT
REMARK Flexibility Score: inf
ROOT
ATOM      1  C   UNL     1      33.729  28.023  13.684  1.00  0.00     0.052 C 
ENDROOT
BRANCH   1   2
ATOM      2  C   UNL     1      34.969  27.951  14.518  1.00  0.00     0.041 C 
ATOM      3  O   UNL     1      34.953  28.341  15.714  1.00  0.00    -0.550 OA
ATOM      4  O   UNL     1      36.157  27.495  13.959  1.00  0.00    -0.550 OA
ENDBRANCH   1   2
BRANCH   1   5
ATOM      5  C   UNL     1      34.031  28.673  12.331  1.00  0.00     0.003 C 
ATOM      6  C   UNL     1      33.984  27.647  11.204  1.00  0.00     0.004 C 
ENDBRANCH   1   5
TORSDOF 2
ENDMDL
MODEL 7
REMARK VINA RESULT:    -2.565     19.133     19.677
REMARK INTER + INTRA:          -2.880
REMARK INTER:                  -2.856
REMARK INTRA:                  -0.024
REMARK UNBOUND:                -0.014
REMARK SMILES CCCC(=O)[O-]
REMARK SMILES IDX 3 1 4 2 5 3 6 4 2 5 1 6
REMARK H PARENT
REMARK Flexibility Score: inf
ROOT
ATOM      1  C   UNL     1      33.481  28.085  12.138  1.00  0.00     0.052 C 
ENDROOT
BRANCH   1   2
ATOM      2  C   UNL     1      34.783  27.387  12.374  1.00  0.00     0.041 C 
ATOM      3  O   UNL     1      35.249  27.293  13.540  1.00  0.00    -0.550 OA
ATOM      4  O   UNL     1      35.505  26.881  11.301  1.00  0.00    -0.550 OA
ENDBRANCH   1   2
BRANCH   1   5
ATOM      5  C   UNL     1      33.030  28.818  13.404  1.00  0.00     0.003 C 
ATOM      6  C   UNL     1      32.648  30.263  13.098  1.00  0.00     0.004 C 
ENDBRANCH   1   5
TORSDOF 2
ENDMDL
MODEL 8
REMARK VINA RESULT:    -2.546     19.153     19.867
REMARK INTER + INTRA:          -2.858
REMARK INTER:                  -2.792
REMARK INTRA:                  -0.066
REMARK UNBOUND:                -0.014
REMARK SMILES CCCC(=O)[O-]
REMARK SMILES IDX 3 1 4 2 5 3 6 4 2 5 1 6
REMARK H PARENT
REMARK Flexibility Score: inf
ROOT
ATOM      1  C   UNL     1      33.705  27.995  13.610  1.00  0.00     0.052 C 
ENDROOT
BRANCH   1   2
ATOM      2  C   UNL     1      33.921  28.513  12.223  1.00  0.00     0.041 C 
ATOM      3  O   UNL     1      34.105  29.742  12.027  1.00  0.00    -0.550 OA
ATOM      4  O   UNL     1      33.872  27.642  11.141  1.00  0.00    -0.550 OA
ENDBRANCH   1   2
BRANCH   1   5
ATOM      5  C   UNL     1      34.751  26.932  13.954  1.00  0.00     0.003 C 
ATOM      6  C   UNL     1      36.116  27.563  14.209  1.00  0.00     0.004 C 
ENDBRANCH   1   5
TORSDOF 2
ENDMDL
MODEL 9
REMARK VINA RESULT:    -2.457     18.877     19.491
REMARK INTER + INTRA:          -2.758
REMARK INTER:                  -2.722
REMARK INTRA:                  -0.037
REMARK UNBOUND:                -0.014
REMARK SMILES CCCC(=O)[O-]
REMARK SMILES IDX 3 1 4 2 5 3 6 4 2 5 1 6
REMARK H PARENT
REMARK Flexibility Score: inf
ROOT
ATOM      1  C   UNL     1      34.126  27.312  13.019  1.00  0.00     0.052 C 
ENDROOT
BRANCH   1   2
ATOM      2  C   UNL     1      35.338  27.368  13.894  1.00  0.00     0.041 C 
ATOM      3  O   UNL     1      36.428  26.875  13.501  1.00  0.00    -0.550 OA
ATOM      4  O   UNL     1      35.253  27.925  15.164  1.00  0.00    -0.550 OA
ENDBRANCH   1   2
BRANCH   1   5
ATOM      5  C   UNL     1      33.867  28.677  12.376  1.00  0.00     0.003 C 
ATOM      6  C   UNL     1      32.780  29.441  13.124  1.00  0.00     0.004 C 
ENDBRANCH   1   5
TORSDOF 2
ENDMDL
