MODEL 1
REMARK VINA RESULT:    -5.420      0.000      0.000
REMARK INTER + INTRA:         -12.323
REMARK INTER:                  -9.855
REMARK INTRA:                  -2.467
REMARK UNBOUND:                -2.467
REMARK SMILES CCCCCC=CCC=CCCCCCCCC(=O)[O-]
REMARK SMILES IDX 11 1 12 2 13 3 14 4 15 5 16 6 17 7 18 8 19 9 20 10 10 11
REMARK SMILES IDX 9 12 8 13 7 14 6 15 5 16 4 17 3 18 2 19 1 20
REMARK H PARENT
REMARK Flexibility Score: inf
ROOT
ATOM      1  C   UNL     1     150.853 168.286 149.618  1.00  0.00     0.027 C 
ENDROOT
BRANCH   1   2
ATOM      2  C   UNL     1     149.686 168.781 148.756  1.00  0.00     0.004 C 
BRANCH   2   3
ATOM      3  C   UNL     1     148.692 169.601 149.593  1.00  0.00     0.000 C 
BRANCH   3   4
ATOM      4  C   UNL     1     147.267 169.019 149.573  1.00  0.00     0.000 C 
BRANCH   4   5
ATOM      5  C   UNL     1     146.575 168.944 150.945  1.00  0.00     0.000 C 
BRANCH   5   6
ATOM      6  C   UNL     1     147.557 169.071 152.121  1.00  0.00     0.006 C 
BRANCH   6   7
ATOM      7  C   UNL     1     147.546 167.829 153.022  1.00  0.00     0.053 C 
BRANCH   7   8
ATOM      8  C   UNL     1     147.641 166.562 152.230  1.00  0.00     0.041 C 
ATOM      9  O   UNL     1     148.679 166.307 151.565  1.00  0.00    -0.550 OA
ATOM     10  O   UNL     1     146.593 165.649 152.247  1.00  0.00    -0.550 OA
ENDBRANCH   7   8
ENDBRANCH   6   7
ENDBRANCH   5   6
ENDBRANCH   4   5
ENDBRANCH   3   4
ENDBRANCH   2   3
ENDBRANCH   1   2
BRANCH   1  11
ATOM     11  C   UNL     1     151.000 169.117 150.862  1.00  0.00    -0.031 C 
ATOM     12  C   UNL     1     151.222 168.537 152.050  1.00  0.00    -0.027 C 
BRANCH  12  13
ATOM     13  C   UNL     1     151.364 169.347 153.310  1.00  0.00     0.054 C 
BRANCH  13  14
ATOM     14  C   UNL     1     151.928 170.716 153.023  1.00  0.00    -0.027 C 
ATOM     15  C   UNL     1     153.237 171.026 153.063  1.00  0.00    -0.031 C 
BRANCH  15  16
ATOM     16  C   UNL     1     154.341 170.036 153.326  1.00  0.00     0.027 C 
BRANCH  16  17
ATOM     17  C   UNL     1     154.957 169.546 152.011  1.00  0.00     0.004 C 
BRANCH  17  18
ATOM     18  C   UNL     1     154.833 168.021 151.878  1.00  0.00     0.000 C 
BRANCH  18  19
ATOM     19  C   UNL     1     155.484 167.272 153.052  1.00  0.00    -0.003 C 
ATOM     20  C   UNL     1     154.481 166.435 153.846  1.00  0.00     0.004 C 
ENDBRANCH  18  19
ENDBRANCH  17  18
ENDBRANCH  16  17
ENDBRANCH  15  16
ENDBRANCH  13  14
ENDBRANCH  12  13
ENDBRANCH   1  11
TORSDOF 14
ENDMDL
MODEL 2
REMARK VINA RESULT:    -5.412      1.771      3.401
REMARK INTER + INTRA:         -12.308
REMARK INTER:                  -9.653
REMARK INTRA:                  -2.656
REMARK UNBOUND:                -2.467
REMARK SMILES CCCCCC=CCC=CCCCCCCCC(=O)[O-]
REMARK SMILES IDX 11 1 12 2 13 3 14 4 15 5 16 6 17 7 18 8 19 9 20 10 10 11
REMARK SMILES IDX 9 12 8 13 7 14 6 15 5 16 4 17 3 18 2 19 1 20
REMARK H PARENT
REMARK Flexibility Score: inf
ROOT
ATOM      1  C   UNL     1     150.640 168.361 149.144  1.00  0.00     0.027 C 
ENDROOT
BRANCH   1   2
ATOM      2  C   UNL     1     149.350 168.929 148.542  1.00  0.00     0.004 C 
BRANCH   2   3
ATOM      3  C   UNL     1     148.503 169.629 149.616  1.00  0.00     0.000 C 
BRANCH   3   4
ATOM      4  C   UNL     1     147.061 169.095 149.686  1.00  0.00     0.000 C 
BRANCH   4   5
ATOM      5  C   UNL     1     146.615 168.603 151.074  1.00  0.00     0.000 C 
BRANCH   5   6
ATOM      6  C   UNL     1     146.893 167.108 151.299  1.00  0.00     0.006 C 
BRANCH   6   7
ATOM      7  C   UNL     1     148.117 166.875 152.195  1.00  0.00     0.053 C 
BRANCH   7   8
ATOM      8  C   UNL     1     148.558 165.444 152.179  1.00  0.00     0.041 C 
ATOM      9  O   UNL     1     148.318 164.697 153.164  1.00  0.00    -0.550 OA
ATOM     10  O   UNL     1     149.212 164.929 151.067  1.00  0.00    -0.550 OA
ENDBRANCH   7   8
ENDBRANCH   6   7
ENDBRANCH   5   6
ENDBRANCH   4   5
ENDBRANCH   3   4
ENDBRANCH   2   3
ENDBRANCH   1   2
BRANCH   1  11
ATOM     11  C   UNL     1     150.761 168.714 150.601  1.00  0.00    -0.031 C 
ATOM     12  C   UNL     1     151.963 168.791 151.188  1.00  0.00    -0.027 C 
BRANCH  12  13
ATOM     13  C   UNL     1     152.109 169.133 152.646  1.00  0.00     0.054 C 
BRANCH  13  14
ATOM     14  C   UNL     1     152.975 170.352 152.841  1.00  0.00    -0.027 C 
ATOM     15  C   UNL     1     152.521 171.556 153.237  1.00  0.00    -0.031 C 
BRANCH  15  16
ATOM     16  C   UNL     1     151.093 171.847 153.617  1.00  0.00     0.027 C 
BRANCH  16  17
ATOM     17  C   UNL     1     150.232 172.066 152.368  1.00  0.00     0.004 C 
BRANCH  17  18
ATOM     18  C   UNL     1     148.894 171.323 152.484  1.00  0.00     0.000 C 
BRANCH  18  19
ATOM     19  C   UNL     1     148.913 170.237 153.572  1.00  0.00    -0.003 C 
ATOM     20  C   UNL     1     147.576 170.108 154.301  1.00  0.00     0.004 C 
ENDBRANCH  18  19
ENDBRANCH  17  18
ENDBRANCH  16  17
ENDBRANCH  15  16
ENDBRANCH  13  14
ENDBRANCH  12  13
ENDBRANCH   1  11
TORSDOF 14
ENDMDL
MODEL 3
REMARK VINA RESULT:    -5.381      1.750      2.255
REMARK INTER + INTRA:         -12.252
REMARK INTER:                 -10.132
REMARK INTRA:                  -2.120
REMARK UNBOUND:                -2.467
REMARK SMILES CCCCCC=CCC=CCCCCCCCC(=O)[O-]
REMARK SMILES IDX 11 1 12 2 13 3 14 4 15 5 16 6 17 7 18 8 19 9 20 10 10 11
REMARK SMILES IDX 9 12 8 13 7 14 6 15 5 16 4 17 3 18 2 19 1 20
REMARK H PARENT
REMARK Flexibility Score: inf
ROOT
ATOM      1  C   UNL     1     149.524 169.085 148.984  1.00  0.00     0.027 C 
ENDROOT
BRANCH   1   2
ATOM      2  C   UNL     1     148.412 169.810 149.750  1.00  0.00     0.004 C 
BRANCH   2   3
ATOM      3  C   UNL     1     147.086 169.040 149.657  1.00  0.00     0.000 C 
BRANCH   3   4
ATOM      4  C   UNL     1     146.588 168.536 151.024  1.00  0.00     0.000 C 
BRANCH   4   5
ATOM      5  C   UNL     1     147.185 167.193 151.480  1.00  0.00     0.000 C 
BRANCH   5   6
ATOM      6  C   UNL     1     148.189 167.344 152.634  1.00  0.00     0.006 C 
BRANCH   6   7
ATOM      7  C   UNL     1     147.686 168.308 153.718  1.00  0.00     0.053 C 
BRANCH   7   8
ATOM      8  C   UNL     1     148.650 169.427 153.964  1.00  0.00     0.041 C 
ATOM      9  O   UNL     1     149.622 169.264 154.747  1.00  0.00    -0.550 OA
ATOM     10  O   UNL     1     148.491 170.641 153.308  1.00  0.00    -0.550 OA
ENDBRANCH   7   8
ENDBRANCH   6   7
ENDBRANCH   5   6
ENDBRANCH   4   5
ENDBRANCH   3   4
ENDBRANCH   2   3
ENDBRANCH   1   2
BRANCH   1  11
ATOM     11  C   UNL     1     150.636 168.667 149.905  1.00  0.00    -0.031 C 
ATOM     12  C   UNL     1     150.845 169.311 151.062  1.00  0.00    -0.027 C 
BRANCH  12  13
ATOM     13  C   UNL     1     151.957 168.917 151.996  1.00  0.00     0.054 C 
BRANCH  13  14
ATOM     14  C   UNL     1     152.546 170.119 152.690  1.00  0.00    -0.027 C 
ATOM     15  C   UNL     1     153.864 170.337 152.852  1.00  0.00    -0.031 C 
BRANCH  15  16
ATOM     16  C   UNL     1     154.950 169.451 152.299  1.00  0.00     0.027 C 
BRANCH  16  17
ATOM     17  C   UNL     1     155.646 168.678 153.425  1.00  0.00     0.004 C 
BRANCH  17  18
ATOM     18  C   UNL     1     155.437 167.165 153.265  1.00  0.00     0.000 C 
BRANCH  18  19
ATOM     19  C   UNL     1     154.131 166.678 153.913  1.00  0.00    -0.003 C 
ATOM     20  C   UNL     1     154.211 165.225 154.382  1.00  0.00     0.004 C 
ENDBRANCH  18  19
ENDBRANCH  17  18
ENDBRANCH  16  17
ENDBRANCH  15  16
ENDBRANCH  13  14
ENDBRANCH  12  13
ENDBRANCH   1  11
TORSDOF 14
ENDMDL
MODEL 4
REMARK VINA RESULT:    -5.327      1.182      1.473
REMARK INTER + INTRA:         -12.154
REMARK INTER:                 -10.236
REMARK INTRA:                  -1.918
REMARK UNBOUND:                -2.467
REMARK SMILES CCCCCC=CCC=CCCCCCCCC(=O)[O-]
REMARK SMILES IDX 11 1 12 2 13 3 14 4 15 5 16 6 17 7 18 8 19 9 20 10 10 11
REMARK SMILES IDX 9 12 8 13 7 14 6 15 5 16 4 17 3 18 2 19 1 20
REMARK H PARENT
REMARK Flexibility Score: inf
ROOT
ATOM      1  C   UNL     1     150.087 168.964 149.544  1.00  0.00     0.027 C 
ENDROOT
BRANCH   1   2
ATOM      2  C   UNL     1     148.745 169.489 149.022  1.00  0.00     0.004 C 
BRANCH   2   3
ATOM      3  C   UNL     1     147.619 168.475 149.280  1.00  0.00     0.000 C 
BRANCH   3   4
ATOM      4  C   UNL     1     146.571 168.985 150.285  1.00  0.00     0.000 C 
BRANCH   4   5
ATOM      5  C   UNL     1     146.167 167.976 151.374  1.00  0.00     0.000 C 
BRANCH   5   6
ATOM      6  C   UNL     1     147.262 167.764 152.432  1.00  0.00     0.006 C 
BRANCH   6   7
ATOM      7  C   UNL     1     147.291 166.322 152.955  1.00  0.00     0.053 C 
BRANCH   7   8
ATOM      8  C   UNL     1     148.368 165.511 152.303  1.00  0.00     0.041 C 
ATOM      9  O   UNL     1     149.113 166.032 151.433  1.00  0.00    -0.550 OA
ATOM     10  O   UNL     1     148.565 164.187 152.675  1.00  0.00    -0.550 OA
ENDBRANCH   7   8
ENDBRANCH   6   7
ENDBRANCH   5   6
ENDBRANCH   4   5
ENDBRANCH   3   4
ENDBRANCH   2   3
ENDBRANCH   1   2
BRANCH   1  11
ATOM     11  C   UNL     1     150.283 169.317 150.993  1.00  0.00    -0.031 C 
ATOM     12  C   UNL     1     149.859 170.494 151.473  1.00  0.00    -0.027 C 
BRANCH  12  13
ATOM     13  C   UNL     1     150.051 170.873 152.916  1.00  0.00     0.054 C 
BRANCH  13  14
ATOM     14  C   UNL     1     151.241 171.783 153.093  1.00  0.00    -0.027 C 
ATOM     15  C   UNL     1     152.487 171.362 153.378  1.00  0.00    -0.031 C 
BRANCH  15  16
ATOM     16  C   UNL     1     152.896 169.917 153.488  1.00  0.00     0.027 C 
BRANCH  16  17
ATOM     17  C   UNL     1     153.652 169.469 152.233  1.00  0.00     0.004 C 
BRANCH  17  18
ATOM     18  C   UNL     1     155.171 169.518 152.458  1.00  0.00     0.000 C 
BRANCH  18  19
ATOM     19  C   UNL     1     155.630 168.591 153.595  1.00  0.00    -0.003 C 
ATOM     20  C   UNL     1     155.512 167.111 153.232  1.00  0.00     0.004 C 
ENDBRANCH  18  19
ENDBRANCH  17  18
ENDBRANCH  16  17
ENDBRANCH  15  16
ENDBRANCH  13  14
ENDBRANCH  12  13
ENDBRANCH   1  11
TORSDOF 14
ENDMDL
MODEL 5
REMARK VINA RESULT:    -5.295      2.634      5.502
REMARK INTER + INTRA:         -12.097
REMARK INTER:                  -9.253
REMARK INTRA:                  -2.843
REMARK UNBOUND:                -2.467
REMARK SMILES CCCCCC=CCC=CCCCCCCCC(=O)[O-]
REMARK SMILES IDX 11 1 12 2 13 3 14 4 15 5 16 6 17 7 18 8 19 9 20 10 10 11
REMARK SMILES IDX 9 12 8 13 7 14 6 15 5 16 4 17 3 18 2 19 1 20
REMARK H PARENT
REMARK Flexibility Score: inf
ROOT
ATOM      1  C   UNL     1     147.327 169.118 149.659  1.00  0.00     0.027 C 
ENDROOT
BRANCH   1   2
ATOM      2  C   UNL     1     148.699 169.777 149.478  1.00  0.00     0.004 C 
BRANCH   2   3
ATOM      3  C   UNL     1     149.741 168.755 148.997  1.00  0.00     0.000 C 
BRANCH   3   4
ATOM      4  C   UNL     1     150.862 168.511 150.024  1.00  0.00     0.000 C 
BRANCH   4   5
ATOM      5  C   UNL     1     150.882 169.490 151.211  1.00  0.00     0.000 C 
BRANCH   5   6
ATOM      6  C   UNL     1     151.775 169.012 152.368  1.00  0.00     0.006 C 
BRANCH   6   7
ATOM      7  C   UNL     1     152.998 169.918 152.569  1.00  0.00     0.053 C 
BRANCH   7   8
ATOM      8  C   UNL     1     154.272 169.231 152.187  1.00  0.00     0.041 C 
ATOM      9  O   UNL     1     155.314 169.402 152.873  1.00  0.00    -0.550 OA
ATOM     10  O   UNL     1     154.303 168.382 151.087  1.00  0.00    -0.550 OA
ENDBRANCH   7   8
ENDBRANCH   6   7
ENDBRANCH   5   6
ENDBRANCH   4   5
ENDBRANCH   3   4
ENDBRANCH   2   3
ENDBRANCH   1   2
BRANCH   1  11
ATOM     11  C   UNL     1     146.948 169.043 151.112  1.00  0.00    -0.031 C 
ATOM     12  C   UNL     1     147.422 169.938 151.990  1.00  0.00    -0.027 C 
BRANCH  12  13
ATOM     13  C   UNL     1     147.063 169.878 153.450  1.00  0.00     0.054 C 
BRANCH  13  14
ATOM     14  C   UNL     1     148.293 169.913 154.321  1.00  0.00    -0.027 C 
ATOM     15  C   UNL     1     148.737 168.877 155.057  1.00  0.00    -0.031 C 
BRANCH  15  16
ATOM     16  C   UNL     1     148.114 167.505 155.062  1.00  0.00     0.027 C 
BRANCH  16  17
ATOM     17  C   UNL     1     149.101 166.459 154.534  1.00  0.00     0.004 C 
BRANCH  17  18
ATOM     18  C   UNL     1     149.251 166.564 153.009  1.00  0.00     0.000 C 
BRANCH  18  19
ATOM     19  C   UNL     1     148.445 165.491 152.260  1.00  0.00    -0.003 C 
ATOM     20  C   UNL     1     148.484 165.676 150.743  1.00  0.00     0.004 C 
ENDBRANCH  18  19
ENDBRANCH  17  18
ENDBRANCH  16  17
ENDBRANCH  15  16
ENDBRANCH  13  14
ENDBRANCH  12  13
ENDBRANCH   1  11
TORSDOF 14
ENDMDL
MODEL 6
REMARK VINA RESULT:    -5.294      2.748      6.481
REMARK INTER + INTRA:         -12.095
REMARK INTER:                  -9.924
REMARK INTRA:                  -2.170
REMARK UNBOUND:                -2.467
REMARK SMILES CCCCCC=CCC=CCCCCCCCC(=O)[O-]
REMARK SMILES IDX 11 1 12 2 13 3 14 4 15 5 16 6 17 7 18 8 19 9 20 10 10 11
REMARK SMILES IDX 9 12 8 13 7 14 6 15 5 16 4 17 3 18 2 19 1 20
REMARK H PARENT
REMARK Flexibility Score: inf
ROOT
ATOM      1  C   UNL     1     149.984 168.723 148.492  1.00  0.00     0.027 C 
ENDROOT
BRANCH   1   2
ATOM      2  C   UNL     1     150.979 168.067 149.455  1.00  0.00     0.004 C 
BRANCH   2   3
ATOM      3  C   UNL     1     150.956 168.758 150.827  1.00  0.00     0.000 C 
BRANCH   3   4
ATOM      4  C   UNL     1     152.358 168.925 151.440  1.00  0.00     0.000 C 
BRANCH   4   5
ATOM      5  C   UNL     1     152.415 169.783 152.715  1.00  0.00     0.000 C 
BRANCH   5   6
ATOM      6  C   UNL     1     153.741 170.545 152.868  1.00  0.00     0.006 C 
BRANCH   6   7
ATOM      7  C   UNL     1     154.930 169.760 152.295  1.00  0.00     0.053 C 
BRANCH   7   8
ATOM      8  C   UNL     1     155.283 168.580 153.145  1.00  0.00     0.041 C 
ATOM      9  O   UNL     1     155.515 168.731 154.373  1.00  0.00    -0.550 OA
ATOM     10  O   UNL     1     155.330 167.308 152.587  1.00  0.00    -0.550 OA
ENDBRANCH   7   8
ENDBRANCH   6   7
ENDBRANCH   5   6
ENDBRANCH   4   5
ENDBRANCH   3   4
ENDBRANCH   2   3
ENDBRANCH   1   2
BRANCH   1  11
ATOM     11  C   UNL     1     148.766 169.217 149.223  1.00  0.00    -0.031 C 
ATOM     12  C   UNL     1     147.669 168.453 149.320  1.00  0.00    -0.027 C 
BRANCH  12  13
ATOM     13  C   UNL     1     146.436 168.929 150.039  1.00  0.00     0.054 C 
BRANCH  13  14
ATOM     14  C   UNL     1     145.915 167.882 150.991  1.00  0.00    -0.027 C 
ATOM     15  C   UNL     1     146.010 167.954 152.331  1.00  0.00    -0.031 C 
BRANCH  15  16
ATOM     16  C   UNL     1     146.582 169.127 153.084  1.00  0.00     0.027 C 
BRANCH  16  17
ATOM     17  C   UNL     1     148.090 168.953 153.297  1.00  0.00     0.004 C 
BRANCH  17  18
ATOM     18  C   UNL     1     148.813 170.307 153.248  1.00  0.00     0.000 C 
BRANCH  18  19
ATOM     19  C   UNL     1     148.316 171.201 152.100  1.00  0.00    -0.003 C 
ATOM     20  C   UNL     1     149.418 172.091 151.527  1.00  0.00     0.004 C 
ENDBRANCH  18  19
ENDBRANCH  17  18
ENDBRANCH  16  17
ENDBRANCH  15  16
ENDBRANCH  13  14
ENDBRANCH  12  13
ENDBRANCH   1  11
TORSDOF 14
ENDMDL
MODEL 7
REMARK VINA RESULT:    -5.279      1.602      1.857
REMARK INTER + INTRA:         -12.067
REMARK INTER:                  -9.990
REMARK INTRA:                  -2.077
REMARK UNBOUND:                -2.467
REMARK SMILES CCCCCC=CCC=CCCCCCCCC(=O)[O-]
REMARK SMILES IDX 11 1 12 2 13 3 14 4 15 5 16 6 17 7 18 8 19 9 20 10 10 11
REMARK SMILES IDX 9 12 8 13 7 14 6 15 5 16 4 17 3 18 2 19 1 20
REMARK H PARENT
REMARK Flexibility Score: inf
ROOT
ATOM      1  C   UNL     1     149.948 169.036 149.637  1.00  0.00     0.027 C 
ENDROOT
BRANCH   1   2
ATOM      2  C   UNL     1     148.649 169.682 149.141  1.00  0.00     0.004 C 
BRANCH   2   3
ATOM      3  C   UNL     1     147.469 168.705 149.257  1.00  0.00     0.000 C 
BRANCH   3   4
ATOM      4  C   UNL     1     146.523 169.043 150.423  1.00  0.00     0.000 C 
BRANCH   4   5
ATOM      5  C   UNL     1     146.293 167.902 151.429  1.00  0.00     0.000 C 
BRANCH   5   6
ATOM      6  C   UNL     1     146.976 168.150 152.784  1.00  0.00     0.006 C 
BRANCH   6   7
ATOM      7  C   UNL     1     148.040 167.090 153.099  1.00  0.00     0.053 C 
BRANCH   7   8
ATOM      8  C   UNL     1     148.531 167.191 154.510  1.00  0.00     0.041 C 
ATOM      9  O   UNL     1     149.546 167.887 154.778  1.00  0.00    -0.550 OA
ATOM     10  O   UNL     1     147.854 166.539 155.533  1.00  0.00    -0.550 OA
ENDBRANCH   7   8
ENDBRANCH   6   7
ENDBRANCH   5   6
ENDBRANCH   4   5
ENDBRANCH   3   4
ENDBRANCH   2   3
ENDBRANCH   1   2
BRANCH   1  11
ATOM     11  C   UNL     1     150.206 169.373 151.079  1.00  0.00    -0.031 C 
ATOM     12  C   UNL     1     149.777 170.532 151.598  1.00  0.00    -0.027 C 
BRANCH  12  13
ATOM     13  C   UNL     1     150.031 170.894 153.036  1.00  0.00     0.054 C 
BRANCH  13  14
ATOM     14  C   UNL     1     151.177 171.865 153.165  1.00  0.00    -0.027 C 
ATOM     15  C   UNL     1     152.453 171.512 153.407  1.00  0.00    -0.031 C 
BRANCH  15  16
ATOM     16  C   UNL     1     152.940 170.090 153.509  1.00  0.00     0.027 C 
BRANCH  16  17
ATOM     17  C   UNL     1     153.615 169.651 152.205  1.00  0.00     0.004 C 
BRANCH  17  18
ATOM     18  C   UNL     1     155.140 169.578 152.372  1.00  0.00     0.000 C 
BRANCH  18  19
ATOM     19  C   UNL     1     155.565 168.664 153.532  1.00  0.00    -0.003 C 
ATOM     20  C   UNL     1     155.469 167.180 153.179  1.00  0.00     0.004 C 
ENDBRANCH  18  19
ENDBRANCH  17  18
ENDBRANCH  16  17
ENDBRANCH  15  16
ENDBRANCH  13  14
ENDBRANCH  12  13
ENDBRANCH   1  11
TORSDOF 14
ENDMDL
MODEL 8
REMARK VINA RESULT:    -5.249      2.016      2.196
REMARK INTER + INTRA:         -12.012
REMARK INTER:                  -9.703
REMARK INTRA:                  -2.309
REMARK UNBOUND:                -2.467
REMARK SMILES CCCCCC=CCC=CCCCCCCCC(=O)[O-]
REMARK SMILES IDX 11 1 12 2 13 3 14 4 15 5 16 6 17 7 18 8 19 9 20 10 10 11
REMARK SMILES IDX 9 12 8 13 7 14 6 15 5 16 4 17 3 18 2 19 1 20
REMARK H PARENT
REMARK Flexibility Score: inf
ROOT
ATOM      1  C   UNL     1     150.789 168.327 149.442  1.00  0.00     0.027 C 
ENDROOT
BRANCH   1   2
ATOM      2  C   UNL     1     149.658 168.766 148.505  1.00  0.00     0.004 C 
BRANCH   2   3
ATOM      3  C   UNL     1     148.643 169.652 149.243  1.00  0.00     0.000 C 
BRANCH   3   4
ATOM      4  C   UNL     1     147.271 168.976 149.417  1.00  0.00     0.000 C 
BRANCH   4   5
ATOM      5  C   UNL     1     146.976 168.453 150.834  1.00  0.00     0.000 C 
BRANCH   5   6
ATOM      6  C   UNL     1     146.916 169.572 151.886  1.00  0.00     0.006 C 
BRANCH   6   7
ATOM      7  C   UNL     1     146.479 169.051 153.262  1.00  0.00     0.053 C 
BRANCH   7   8
ATOM      8  C   UNL     1     146.551 170.115 154.312  1.00  0.00     0.041 C 
ATOM      9  O   UNL     1     147.588 170.243 155.015  1.00  0.00    -0.550 OA
ATOM     10  O   UNL     1     145.482 170.983 154.500  1.00  0.00    -0.550 OA
ENDBRANCH   7   8
ENDBRANCH   6   7
ENDBRANCH   5   6
ENDBRANCH   4   5
ENDBRANCH   3   4
ENDBRANCH   2   3
ENDBRANCH   1   2
BRANCH   1  11
ATOM     11  C   UNL     1     150.717 169.053 150.757  1.00  0.00    -0.031 C 
ATOM     12  C   UNL     1     150.519 168.380 151.900  1.00  0.00    -0.027 C 
BRANCH  12  13
ATOM     13  C   UNL     1     150.436 169.085 153.226  1.00  0.00     0.054 C 
BRANCH  13  14
ATOM     14  C   UNL     1     150.664 170.569 153.077  1.00  0.00    -0.027 C 
ATOM     15  C   UNL     1     151.832 171.190 153.323  1.00  0.00    -0.031 C 
BRANCH  15  16
ATOM     16  C   UNL     1     153.107 170.488 153.712  1.00  0.00     0.027 C 
BRANCH  16  17
ATOM     17  C   UNL     1     153.981 170.228 152.481  1.00  0.00     0.004 C 
BRANCH  17  18
ATOM     18  C   UNL     1     154.183 168.722 152.258  1.00  0.00     0.000 C 
BRANCH  18  19
ATOM     19  C   UNL     1     155.171 168.104 153.260  1.00  0.00    -0.003 C 
ATOM     20  C   UNL     1     154.794 166.676 153.656  1.00  0.00     0.004 C 
ENDBRANCH  18  19
ENDBRANCH  17  18
ENDBRANCH  16  17
ENDBRANCH  15  16
ENDBRANCH  13  14
ENDBRANCH  12  13
ENDBRANCH   1  11
TORSDOF 14
ENDMDL
MODEL 9
REMARK VINA RESULT:    -5.248      2.756      6.353
REMARK INTER + INTRA:         -12.010
REMARK INTER:                  -9.595
REMARK INTRA:                  -2.415
REMARK UNBOUND:                -2.467
REMARK SMILES CCCCCC=CCC=CCCCCCCCC(=O)[O-]
REMARK SMILES IDX 11 1 12 2 13 3 14 4 15 5 16 6 17 7 18 8 19 9 20 10 10 11
REMARK SMILES IDX 9 12 8 13 7 14 6 15 5 16 4 17 3 18 2 19 1 20
REMARK H PARENT
REMARK Flexibility Score: inf
ROOT
ATOM      1  C   UNL     1     149.382 172.076 151.638  1.00  0.00     0.027 C 
ENDROOT
BRANCH   1   2
ATOM      2  C   UNL     1     149.926 171.514 152.956  1.00  0.00     0.004 C 
BRANCH   2   3
ATOM      3  C   UNL     1     151.345 172.035 153.232  1.00  0.00     0.000 C 
BRANCH   3   4
ATOM      4  C   UNL     1     152.433 170.973 152.985  1.00  0.00     0.000 C 
BRANCH   4   5
ATOM      5  C   UNL     1     151.936 169.670 152.335  1.00  0.00     0.000 C 
BRANCH   5   6
ATOM      6  C   UNL     1     152.492 168.409 153.017  1.00  0.00     0.006 C 
BRANCH   6   7
ATOM      7  C   UNL     1     153.604 168.737 154.022  1.00  0.00     0.053 C 
BRANCH   7   8
ATOM      8  C   UNL     1     154.858 167.970 153.739  1.00  0.00     0.041 C 
ATOM      9  O   UNL     1     154.819 166.718 153.606  1.00  0.00    -0.550 OA
ATOM     10  O   UNL     1     156.068 168.639 153.596  1.00  0.00    -0.550 OA
ENDBRANCH   7   8
ENDBRANCH   6   7
ENDBRANCH   5   6
ENDBRANCH   4   5
ENDBRANCH   3   4
ENDBRANCH   2   3
ENDBRANCH   1   2
BRANCH   1  11
ATOM     11  C   UNL     1     148.558 171.050 150.909  1.00  0.00    -0.031 C 
ATOM     12  C   UNL     1     149.116 170.254 149.987  1.00  0.00    -0.027 C 
BRANCH  12  13
ATOM     13  C   UNL     1     148.310 169.226 149.240  1.00  0.00     0.054 C 
BRANCH  13  14
ATOM     14  C   UNL     1     146.998 168.946 149.931  1.00  0.00    -0.027 C 
ATOM     15  C   UNL     1     146.751 167.862 150.688  1.00  0.00    -0.031 C 
BRANCH  15  16
ATOM     16  C   UNL     1     147.769 166.804 151.023  1.00  0.00     0.027 C 
BRANCH  16  17
ATOM     17  C   UNL     1     147.981 166.712 152.538  1.00  0.00     0.004 C 
BRANCH  17  18
ATOM     18  C   UNL     1     148.689 167.965 153.072  1.00  0.00     0.000 C 
BRANCH  18  19
ATOM     19  C   UNL     1     147.908 168.647 154.206  1.00  0.00    -0.003 C 
ATOM     20  C   UNL     1     148.779 168.942 155.427  1.00  0.00     0.004 C 
ENDBRANCH  18  19
ENDBRANCH  17  18
ENDBRANCH  16  17
ENDBRANCH  15  16
ENDBRANCH  13  14
ENDBRANCH  12  13
ENDBRANCH   1  11
TORSDOF 14
ENDMDL
