MODEL 1
REMARK VINA RESULT:    -2.320      0.000      0.000
REMARK INTER + INTRA:          -2.320
REMARK INTER:                  -2.320
REMARK INTRA:                   0.000
REMARK UNBOUND:                 0.000
REMARK SMILES CC(=O)[O-]
REMARK SMILES IDX 1 1 2 2 3 3 4 4
REMARK H PARENT
REMARK Flexibility Score: inf
ROOT
ATOM      1  C   UNL     1      68.423  50.822  18.521  1.00  0.00     0.063 C 
ATOM      2  C   UNL     1      67.022  50.578  18.973  1.00  0.00     0.038 C 
ATOM      3  O   UNL     1      66.733  49.521  19.591  1.00  0.00    -0.550 OA
ATOM      4  O   UNL     1      66.045  51.542  18.761  1.00  0.00    -0.550 OA
ENDROOT
TORSDOF 0
ENDMDL
MODEL 2
REMARK VINA RESULT:    -2.285      1.357      1.766
REMARK INTER + INTRA:          -2.285
REMARK INTER:                  -2.285
REMARK INTRA:                   0.000
REMARK UNBOUND:                 0.000
REMARK SMILES CC(=O)[O-]
REMARK SMILES IDX 1 1 2 2 3 3 4 4
REMARK H PARENT
REMARK Flexibility Score: inf
ROOT
ATOM      1  C   UNL     1      66.204  51.598  18.632  1.00  0.00     0.063 C 
ATOM      2  C   UNL     1      67.154  50.495  18.953  1.00  0.00     0.038 C 
ATOM      3  O   UNL     1      66.753  49.475  19.572  1.00  0.00    -0.550 OA
ATOM      4  O   UNL     1      68.473  50.564  18.523  1.00  0.00    -0.550 OA
ENDROOT
TORSDOF 0
ENDMDL
MODEL 3
REMARK VINA RESULT:    -2.283     11.721     12.065
REMARK INTER + INTRA:          -2.283
REMARK INTER:                  -2.283
REMARK INTRA:                   0.000
REMARK UNBOUND:                 0.000
REMARK SMILES CC(=O)[O-]
REMARK SMILES IDX 1 1 2 2 3 3 4 4
REMARK H PARENT
REMARK Flexibility Score: inf
ROOT
ATOM      1  C   UNL     1      66.598  41.161  27.274  1.00  0.00     0.063 C 
ATOM      2  C   UNL     1      65.343  41.591  26.592  1.00  0.00     0.038 C 
ATOM      3  O   UNL     1      64.829  42.708  26.861  1.00  0.00    -0.550 OA
ATOM      4  O   UNL     1      64.767  40.784  25.619  1.00  0.00    -0.550 OA
ENDROOT
TORSDOF 0
ENDMDL
MODEL 4
REMARK VINA RESULT:    -2.211      0.173      1.625
REMARK INTER + INTRA:          -2.211
REMARK INTER:                  -2.211
REMARK INTRA:                   0.000
REMARK UNBOUND:                 0.000
REMARK SMILES CC(=O)[O-]
REMARK SMILES IDX 1 1 2 2 3 3 4 4
REMARK H PARENT
REMARK Flexibility Score: inf
ROOT
ATOM      1  C   UNL     1      68.524  50.894  18.738  1.00  0.00     0.063 C 
ATOM      2  C   UNL     1      67.083  50.631  19.018  1.00  0.00     0.038 C 
ATOM      3  O   UNL     1      66.210  51.472  18.679  1.00  0.00    -0.550 OA
ATOM      4  O   UNL     1      66.695  49.434  19.605  1.00  0.00    -0.550 OA
ENDROOT
TORSDOF 0
ENDMDL
MODEL 5
REMARK VINA RESULT:    -2.120      1.151      1.151
REMARK INTER + INTRA:          -2.120
REMARK INTER:                  -2.120
REMARK INTRA:                   0.000
REMARK UNBOUND:                 0.000
REMARK SMILES CC(=O)[O-]
REMARK SMILES IDX 1 1 2 2 3 3 4 4
REMARK H PARENT
REMARK Flexibility Score: inf
ROOT
ATOM      1  C   UNL     1      68.805  50.786  19.908  1.00  0.00     0.063 C 
ATOM      2  C   UNL     1      67.608  50.506  19.062  1.00  0.00     0.038 C 
ATOM      3  O   UNL     1      66.738  49.685  19.450  1.00  0.00    -0.550 OA
ATOM      4  O   UNL     1      67.425  51.192  17.868  1.00  0.00    -0.550 OA
ENDROOT
TORSDOF 0
ENDMDL
MODEL 6
REMARK VINA RESULT:    -2.109      2.434      2.988
REMARK INTER + INTRA:          -2.109
REMARK INTER:                  -2.109
REMARK INTRA:                   0.000
REMARK UNBOUND:                 0.000
REMARK SMILES CC(=O)[O-]
REMARK SMILES IDX 1 1 2 2 3 3 4 4
REMARK H PARENT
REMARK Flexibility Score: inf
ROOT
ATOM      1  C   UNL     1      67.576  50.462  18.757  1.00  0.00     0.063 C 
ATOM      2  C   UNL     1      68.994  50.906  18.889  1.00  0.00     0.038 C 
ATOM      3  O   UNL     1      69.514  51.630  18.001  1.00  0.00    -0.550 OA
ATOM      4  O   UNL     1      69.727  50.569  20.019  1.00  0.00    -0.550 OA
ENDROOT
TORSDOF 0
ENDMDL
MODEL 7
REMARK VINA RESULT:    -2.096      2.431      2.635
REMARK INTER + INTRA:          -2.096
REMARK INTER:                  -2.096
REMARK INTRA:                   0.000
REMARK UNBOUND:                 0.000
REMARK SMILES CC(=O)[O-]
REMARK SMILES IDX 1 1 2 2 3 3 4 4
REMARK H PARENT
REMARK Flexibility Score: inf
ROOT
ATOM      1  C   UNL     1      67.558  50.446  18.987  1.00  0.00     0.063 C 
ATOM      2  C   UNL     1      68.977  50.902  19.052  1.00  0.00     0.038 C 
ATOM      3  O   UNL     1      69.703  50.571  20.025  1.00  0.00    -0.550 OA
ATOM      4  O   UNL     1      69.517  51.647  18.012  1.00  0.00    -0.550 OA
ENDROOT
TORSDOF 0
ENDMDL
MODEL 8
REMARK VINA RESULT:    -2.006      2.115      2.299
REMARK INTER + INTRA:          -2.006
REMARK INTER:                  -2.006
REMARK INTRA:                   0.000
REMARK UNBOUND:                 0.000
REMARK SMILES CC(=O)[O-]
REMARK SMILES IDX 1 1 2 2 3 3 4 4
REMARK H PARENT
REMARK Flexibility Score: inf
ROOT
ATOM      1  C   UNL     1      67.231  50.395  19.055  1.00  0.00     0.063 C 
ATOM      2  C   UNL     1      68.422  51.137  19.561  1.00  0.00     0.038 C 
ATOM      3  O   UNL     1      69.563  50.609  19.515  1.00  0.00    -0.550 OA
ATOM      4  O   UNL     1      68.283  52.435  20.035  1.00  0.00    -0.550 OA
ENDROOT
TORSDOF 0
ENDMDL
MODEL 9
REMARK VINA RESULT:    -1.976      4.208      4.667
REMARK INTER + INTRA:          -1.976
REMARK INTER:                  -1.976
REMARK INTRA:                   0.000
REMARK UNBOUND:                 0.000
REMARK SMILES CC(=O)[O-]
REMARK SMILES IDX 1 1 2 2 3 3 4 4
REMARK H PARENT
REMARK Flexibility Score: inf
ROOT
ATOM      1  C   UNL     1      69.642  50.459  21.186  1.00  0.00     0.063 C 
ATOM      2  C   UNL     1      69.519  49.870  22.551  1.00  0.00     0.038 C 
ATOM      3  O   UNL     1      68.479  49.240  22.876  1.00  0.00    -0.550 OA
ATOM      4  O   UNL     1      70.575  49.966  23.448  1.00  0.00    -0.550 OA
ENDROOT
TORSDOF 0
ENDMDL
