MODEL 1
REMARK VINA RESULT:    -0.931      0.000      0.000
REMARK INTER + INTRA:          -2.020
REMARK INTER:                  -1.421
REMARK INTRA:                  -0.599
REMARK UNBOUND:                -0.599
REMARK SMILES CCCCCCCCCCC(=O)[O-]
REMARK SMILES IDX 7 1 8 2 9 3 10 4 11 5 12 6 13 7 6 8 5 9 4 10 3 11 2 12 1 13
REMARK H PARENT
REMARK Flexibility Score: inf
ROOT
ATOM      1  C   UNL     1      31.935  22.074  28.441  1.00  0.00     0.000 C 
ENDROOT
BRANCH   1   2
ATOM      2  C   UNL     1      30.416  22.183  28.658  1.00  0.00     0.000 C 
BRANCH   2   3
ATOM      3  C   UNL     1      29.991  23.542  29.240  1.00  0.00     0.006 C 
BRANCH   3   4
ATOM      4  C   UNL     1      31.049  24.124  30.186  1.00  0.00     0.053 C 
BRANCH   4   5
ATOM      5  C   UNL     1      30.584  24.123  31.610  1.00  0.00     0.041 C 
ATOM      6  O   UNL     1      29.353  24.120  31.875  1.00  0.00    -0.550 OA
ATOM      7  O   UNL     1      31.511  24.098  32.644  1.00  0.00    -0.550 OA
ENDBRANCH   4   5
ENDBRANCH   3   4
ENDBRANCH   2   3
ENDBRANCH   1   2
BRANCH   1   8
ATOM      8  C   UNL     1      32.420  22.439  27.022  1.00  0.00     0.000 C 
BRANCH   8   9
ATOM      9  C   UNL     1      32.996  23.861  26.875  1.00  0.00    -0.000 C 
BRANCH   9  10
ATOM     10  C   UNL     1      34.528  23.958  27.006  1.00  0.00    -0.000 C 
BRANCH  10  11
ATOM     11  C   UNL     1      35.062  23.948  28.453  1.00  0.00    -0.000 C 
BRANCH  11  12
ATOM     12  C   UNL     1      36.589  24.101  28.581  1.00  0.00    -0.003 C 
ATOM     13  C   UNL     1      37.068  24.092  30.031  1.00  0.00     0.004 C 
ENDBRANCH  11  12
ENDBRANCH  10  11
ENDBRANCH   9  10
ENDBRANCH   8   9
ENDBRANCH   1   8
TORSDOF 9
ENDMDL
MODEL 2
REMARK VINA RESULT:    -0.600      2.797      5.077
REMARK INTER + INTRA:          -1.514
REMARK INTER:                  -1.027
REMARK INTRA:                  -0.488
REMARK UNBOUND:                -0.599
REMARK SMILES CCCCCCCCCCC(=O)[O-]
REMARK SMILES IDX 7 1 8 2 9 3 10 4 11 5 12 6 13 7 6 8 5 9 4 10 3 11 2 12 1 13
REMARK H PARENT
REMARK Flexibility Score: inf
ROOT
ATOM      1  C   UNL     1      32.637  21.852  28.295  1.00  0.00     0.000 C 
ENDROOT
BRANCH   1   2
ATOM      2  C   UNL     1      32.842  22.457  26.895  1.00  0.00     0.000 C 
BRANCH   2   3
ATOM      3  C   UNL     1      33.794  23.665  26.898  1.00  0.00     0.006 C 
BRANCH   3   4
ATOM      4  C   UNL     1      34.360  23.953  28.294  1.00  0.00     0.053 C 
BRANCH   4   5
ATOM      5  C   UNL     1      35.815  23.604  28.388  1.00  0.00     0.041 C 
ATOM      6  O   UNL     1      36.495  23.982  29.377  1.00  0.00    -0.550 OA
ATOM      7  O   UNL     1      36.411  22.838  27.395  1.00  0.00    -0.550 OA
ENDBRANCH   4   5
ENDBRANCH   3   4
ENDBRANCH   2   3
ENDBRANCH   1   2
BRANCH   1   8
ATOM      8  C   UNL     1      31.178  21.494  28.645  1.00  0.00     0.000 C 
BRANCH   8   9
ATOM      9  C   UNL     1      30.125  22.519  28.181  1.00  0.00    -0.000 C 
BRANCH   9  10
ATOM     10  C   UNL     1      30.258  23.919  28.812  1.00  0.00    -0.000 C 
BRANCH  10  11
ATOM     11  C   UNL     1      31.150  23.985  30.068  1.00  0.00    -0.000 C 
BRANCH  11  12
ATOM     12  C   UNL     1      30.387  24.125  31.398  1.00  0.00    -0.003 C 
ATOM     13  C   UNL     1      31.309  24.117  32.617  1.00  0.00     0.004 C 
ENDBRANCH  11  12
ENDBRANCH  10  11
ENDBRANCH   9  10
ENDBRANCH   8   9
ENDBRANCH   1   8
TORSDOF 9
ENDMDL
MODEL 3
REMARK VINA RESULT:     0.884      3.177      5.876
REMARK INTER + INTRA:           0.751
REMARK INTER:                  -0.310
REMARK INTRA:                   1.061
REMARK UNBOUND:                -0.599
REMARK SMILES CCCCCCCCCCC(=O)[O-]
REMARK SMILES IDX 7 1 8 2 9 3 10 4 11 5 12 6 13 7 6 8 5 9 4 10 3 11 2 12 1 13
REMARK H PARENT
REMARK Flexibility Score: inf
ROOT
ATOM      1  C   UNL     1      32.856  24.022  29.018  1.00  0.00     0.000 C 
ENDROOT
BRANCH   1   2
ATOM      2  C   UNL     1      33.611  23.234  27.934  1.00  0.00     0.000 C 
BRANCH   2   3
ATOM      3  C   UNL     1      34.713  24.063  27.250  1.00  0.00     0.006 C 
BRANCH   3   4
ATOM      4  C   UNL     1      35.995  23.251  27.029  1.00  0.00     0.053 C 
BRANCH   4   5
ATOM      5  C   UNL     1      36.723  22.999  28.315  1.00  0.00     0.041 C 
ATOM      6  O   UNL     1      37.124  21.841  28.600  1.00  0.00    -0.550 OA
ATOM      7  O   UNL     1      36.982  24.051  29.184  1.00  0.00    -0.550 OA
ENDBRANCH   4   5
ENDBRANCH   3   4
ENDBRANCH   2   3
ENDBRANCH   1   2
BRANCH   1   8
ATOM      8  C   UNL     1      31.447  23.489  29.352  1.00  0.00     0.000 C 
BRANCH   8   9
ATOM      9  C   UNL     1      31.336  21.954  29.446  1.00  0.00    -0.000 C 
BRANCH   9  10
ATOM     10  C   UNL     1      31.843  21.188  28.208  1.00  0.00    -0.000 C 
BRANCH  10  11
ATOM     11  C   UNL     1      31.074  21.477  26.902  1.00  0.00    -0.000 C 
BRANCH  11  12
ATOM     12  C   UNL     1      29.625  20.957  26.876  1.00  0.00    -0.003 C 
ATOM     13  C   UNL     1      28.746  21.587  27.954  1.00  0.00     0.004 C 
ENDBRANCH  11  12
ENDBRANCH  10  11
ENDBRANCH   9  10
ENDBRANCH   8   9
ENDBRANCH   1   8
TORSDOF 9
ENDMDL
