MODEL 1
REMARK VINA RESULT:    -2.911      0.000      0.000
REMARK INTER + INTRA:          -3.521
REMARK INTER:                  -3.422
REMARK INTRA:                  -0.099
REMARK UNBOUND:                -0.099
REMARK SMILES CCCCC(=O)[O-]
REMARK SMILES IDX 4 1 5 2 6 3 7 4 3 5 2 6 1 7
REMARK H PARENT
REMARK Flexibility Score: inf
ROOT
ATOM      1  C   UNL     1      27.452  10.677   5.408  1.00  0.00     0.053 C 
ENDROOT
BRANCH   1   2
ATOM      2  C   UNL     1      28.094  11.961   5.827  1.00  0.00     0.041 C 
ATOM      3  O   UNL     1      27.545  12.691   6.695  1.00  0.00    -0.550 OA
ATOM      4  O   UNL     1      29.324  12.330   5.296  1.00  0.00    -0.550 OA
ENDBRANCH   1   2
BRANCH   1   5
ATOM      5  C   UNL     1      27.139   9.810   6.634  1.00  0.00     0.006 C 
BRANCH   5   6
ATOM      6  C   UNL     1      25.680   9.329   6.658  1.00  0.00    -0.003 C 
ATOM      7  C   UNL     1      24.753  10.211   5.823  1.00  0.00     0.004 C 
ENDBRANCH   5   6
ENDBRANCH   1   5
TORSDOF 3
ENDMDL
MODEL 2
REMARK VINA RESULT:    -2.723      8.871      9.550
REMARK INTER + INTRA:          -3.299
REMARK INTER:                  -3.273
REMARK INTRA:                  -0.026
REMARK UNBOUND:                -0.099
REMARK SMILES CCCCC(=O)[O-]
REMARK SMILES IDX 4 1 5 2 6 3 7 4 3 5 2 6 1 7
REMARK H PARENT
REMARK Flexibility Score: inf
ROOT
ATOM      1  C   UNL     1      22.008   3.671   4.590  1.00  0.00     0.053 C 
ENDROOT
BRANCH   1   2
ATOM      2  C   UNL     1      22.838   3.105   5.698  1.00  0.00     0.041 C 
ATOM      3  O   UNL     1      22.346   2.256   6.488  1.00  0.00    -0.550 OA
ATOM      4  O   UNL     1      24.170   3.477   5.830  1.00  0.00    -0.550 OA
ENDBRANCH   1   2
BRANCH   1   5
ATOM      5  C   UNL     1      20.515   3.536   4.916  1.00  0.00     0.006 C 
BRANCH   5   6
ATOM      6  C   UNL     1      19.731   4.825   4.631  1.00  0.00    -0.003 C 
ATOM      7  C   UNL     1      18.533   5.007   5.562  1.00  0.00     0.004 C 
ENDBRANCH   5   6
ENDBRANCH   1   5
TORSDOF 3
ENDMDL
MODEL 3
REMARK VINA RESULT:    -2.721     11.506     12.210
REMARK INTER + INTRA:          -3.297
REMARK INTER:                  -3.246
REMARK INTRA:                  -0.051
REMARK UNBOUND:                -0.099
REMARK SMILES CCCCC(=O)[O-]
REMARK SMILES IDX 4 1 5 2 6 3 7 4 3 5 2 6 1 7
REMARK H PARENT
REMARK Flexibility Score: inf
ROOT
ATOM      1  C   UNL     1      29.785   6.833  17.208  1.00  0.00     0.053 C 
ENDROOT
BRANCH   1   2
ATOM      2  C   UNL     1      30.689   6.632  16.033  1.00  0.00     0.041 C 
ATOM      3  O   UNL     1      31.899   6.976  16.097  1.00  0.00    -0.550 OA
ATOM      4  O   UNL     1      30.208   6.019  14.882  1.00  0.00    -0.550 OA
ENDBRANCH   1   2
BRANCH   1   5
ATOM      5  C   UNL     1      30.352   7.911  18.140  1.00  0.00     0.006 C 
BRANCH   5   6
ATOM      6  C   UNL     1      29.800   9.310  17.827  1.00  0.00    -0.003 C 
ATOM      7  C   UNL     1      28.702   9.742  18.798  1.00  0.00     0.004 C 
ENDBRANCH   5   6
ENDBRANCH   1   5
TORSDOF 3
ENDMDL
MODEL 4
REMARK VINA RESULT:    -2.645      9.000      9.651
REMARK INTER + INTRA:          -3.207
REMARK INTER:                  -3.187
REMARK INTRA:                  -0.021
REMARK UNBOUND:                -0.099
REMARK SMILES CCCCC(=O)[O-]
REMARK SMILES IDX 4 1 5 2 6 3 7 4 3 5 2 6 1 7
REMARK H PARENT
REMARK Flexibility Score: inf
ROOT
ATOM      1  C   UNL     1      22.267   2.283   6.026  1.00  0.00     0.053 C 
ENDROOT
BRANCH   1   2
ATOM      2  C   UNL     1      23.749   2.388   6.195  1.00  0.00     0.041 C 
ATOM      3  O   UNL     1      24.333   3.487   6.003  1.00  0.00    -0.550 OA
ATOM      4  O   UNL     1      24.482   1.284   6.614  1.00  0.00    -0.550 OA
ENDBRANCH   1   2
BRANCH   1   5
ATOM      5  C   UNL     1      21.742   3.445   5.174  1.00  0.00     0.006 C 
BRANCH   5   6
ATOM      6  C   UNL     1      20.250   3.303   4.838  1.00  0.00    -0.003 C 
ATOM      7  C   UNL     1      19.469   4.599   5.052  1.00  0.00     0.004 C 
ENDBRANCH   5   6
ENDBRANCH   1   5
TORSDOF 3
ENDMDL
MODEL 5
REMARK VINA RESULT:    -2.556     17.864     18.786
REMARK INTER + INTRA:          -3.103
REMARK INTER:                  -3.034
REMARK INTRA:                  -0.069
REMARK UNBOUND:                -0.099
REMARK SMILES CCCCC(=O)[O-]
REMARK SMILES IDX 4 1 5 2 6 3 7 4 3 5 2 6 1 7
REMARK H PARENT
REMARK Flexibility Score: inf
ROOT
ATOM      1  C   UNL     1      16.381  -0.359  14.619  1.00  0.00     0.053 C 
ENDROOT
BRANCH   1   2
ATOM      2  C   UNL     1      15.533  -1.591  14.613  1.00  0.00     0.041 C 
ATOM      3  O   UNL     1      15.272  -2.177  13.529  1.00  0.00    -0.550 OA
ATOM      4  O   UNL     1      15.069  -2.122  15.811  1.00  0.00    -0.550 OA
ENDBRANCH   1   2
BRANCH   1   5
ATOM      5  C   UNL     1      16.450   0.237  16.030  1.00  0.00     0.006 C 
BRANCH   5   6
ATOM      6  C   UNL     1      15.486   1.418  16.218  1.00  0.00    -0.003 C 
ATOM      7  C   UNL     1      15.641   2.485  15.135  1.00  0.00     0.004 C 
ENDBRANCH   5   6
ENDBRANCH   1   5
TORSDOF 3
ENDMDL
MODEL 6
REMARK VINA RESULT:    -2.556     18.101     18.710
REMARK INTER + INTRA:          -3.103
REMARK INTER:                  -2.998
REMARK INTRA:                  -0.104
REMARK UNBOUND:                -0.099
REMARK SMILES CCCCC(=O)[O-]
REMARK SMILES IDX 4 1 5 2 6 3 7 4 3 5 2 6 1 7
REMARK H PARENT
REMARK Flexibility Score: inf
ROOT
ATOM      1  C   UNL     1      16.280  -0.090  15.911  1.00  0.00     0.053 C 
ENDROOT
BRANCH   1   2
ATOM      2  C   UNL     1      17.497  -0.439  16.707  1.00  0.00     0.041 C 
ATOM      3  O   UNL     1      17.640   0.007  17.876  1.00  0.00    -0.550 OA
ATOM      4  O   UNL     1      18.452  -1.298  16.177  1.00  0.00    -0.550 OA
ENDBRANCH   1   2
BRANCH   1   5
ATOM      5  C   UNL     1      16.387  -0.660  14.492  1.00  0.00     0.006 C 
BRANCH   5   6
ATOM      6  C   UNL     1      15.377  -1.789  14.233  1.00  0.00    -0.003 C 
ATOM      7  C   UNL     1      15.915  -3.164  14.625  1.00  0.00     0.004 C 
ENDBRANCH   5   6
ENDBRANCH   1   5
TORSDOF 3
ENDMDL
MODEL 7
REMARK VINA RESULT:    -2.551     11.496     12.297
REMARK INTER + INTRA:          -3.097
REMARK INTER:                  -3.061
REMARK INTRA:                  -0.036
REMARK UNBOUND:                -0.099
REMARK SMILES CCCCC(=O)[O-]
REMARK SMILES IDX 4 1 5 2 6 3 7 4 3 5 2 6 1 7
REMARK H PARENT
REMARK Flexibility Score: inf
ROOT
ATOM      1  C   UNL     1      29.414   7.657  18.218  1.00  0.00     0.053 C 
ENDROOT
BRANCH   1   2
ATOM      2  C   UNL     1      29.624   9.138  18.224  1.00  0.00     0.041 C 
ATOM      3  O   UNL     1      30.288   9.688  17.306  1.00  0.00    -0.550 OA
ATOM      4  O   UNL     1      29.043   9.919  19.216  1.00  0.00    -0.550 OA
ENDBRANCH   1   2
BRANCH   1   5
ATOM      5  C   UNL     1      30.371   6.986  17.224  1.00  0.00     0.006 C 
BRANCH   5   6
ATOM      6  C   UNL     1      29.677   5.910  16.375  1.00  0.00    -0.003 C 
ATOM      7  C   UNL     1      30.340   5.714  15.013  1.00  0.00     0.004 C 
ENDBRANCH   5   6
ENDBRANCH   1   5
TORSDOF 3
ENDMDL
MODEL 8
REMARK VINA RESULT:    -2.550      9.071      9.983
REMARK INTER + INTRA:          -3.096
REMARK INTER:                  -3.010
REMARK INTRA:                  -0.086
REMARK UNBOUND:                -0.099
REMARK SMILES CCCCC(=O)[O-]
REMARK SMILES IDX 4 1 5 2 6 3 7 4 3 5 2 6 1 7
REMARK H PARENT
REMARK Flexibility Score: inf
ROOT
ATOM      1  C   UNL     1      23.200   1.551   5.948  1.00  0.00     0.053 C 
ENDROOT
BRANCH   1   2
ATOM      2  C   UNL     1      23.683   2.957   5.787  1.00  0.00     0.041 C 
ATOM      3  O   UNL     1      24.703   3.352   6.412  1.00  0.00    -0.550 OA
ATOM      4  O   UNL     1      23.037   3.819   4.910  1.00  0.00    -0.550 OA
ENDBRANCH   1   2
BRANCH   1   5
ATOM      5  C   UNL     1      21.667   1.512   5.980  1.00  0.00     0.006 C 
BRANCH   5   6
ATOM      6  C   UNL     1      21.064   0.967   4.677  1.00  0.00    -0.003 C 
ATOM      7  C   UNL     1      20.068   1.934   4.037  1.00  0.00     0.004 C 
ENDBRANCH   5   6
ENDBRANCH   1   5
TORSDOF 3
ENDMDL
MODEL 9
REMARK VINA RESULT:    -2.537     18.202     19.480
REMARK INTER + INTRA:          -3.081
REMARK INTER:                  -3.051
REMARK INTRA:                  -0.030
REMARK UNBOUND:                -0.099
REMARK SMILES CCCCC(=O)[O-]
REMARK SMILES IDX 4 1 5 2 6 3 7 4 3 5 2 6 1 7
REMARK H PARENT
REMARK Flexibility Score: inf
ROOT
ATOM      1  C   UNL     1      15.615  -2.111  14.120  1.00  0.00     0.053 C 
ENDROOT
BRANCH   1   2
ATOM      2  C   UNL     1      16.489  -1.091  14.779  1.00  0.00     0.041 C 
ATOM      3  O   UNL     1      16.264   0.137  14.615  1.00  0.00    -0.550 OA
ATOM      4  O   UNL     1      17.522  -1.496  15.615  1.00  0.00    -0.550 OA
ENDBRANCH   1   2
BRANCH   1   5
ATOM      5  C   UNL     1      15.963  -3.518  14.622  1.00  0.00     0.006 C 
BRANCH   5   6
ATOM      6  C   UNL     1      15.980  -4.559  13.492  1.00  0.00    -0.003 C 
ATOM      7  C   UNL     1      15.953  -5.996  14.012  1.00  0.00     0.004 C 
ENDBRANCH   5   6
ENDBRANCH   1   5
TORSDOF 3
ENDMDL
