MODEL 1
REMARK VINA RESULT:    -3.298      0.000      0.000
REMARK INTER + INTRA:          -4.917
REMARK INTER:                  -4.648
REMARK INTRA:                  -0.270
REMARK UNBOUND:                -0.270
REMARK SMILES CCCCCCCCC(=O)[O-]
REMARK SMILES IDX 6 1 7 2 8 3 9 4 10 5 11 6 5 7 4 8 3 9 2 10 1 11
REMARK H PARENT
REMARK Flexibility Score: inf
ROOT
ATOM      1  C   UNL     1      63.309  30.557  59.678  1.00  0.00     0.000 C 
ENDROOT
BRANCH   1   2
ATOM      2  C   UNL     1      63.363  29.584  60.866  1.00  0.00     0.006 C 
BRANCH   2   3
ATOM      3  C   UNL     1      61.975  29.049  61.243  1.00  0.00     0.053 C 
BRANCH   3   4
ATOM      4  C   UNL     1      61.739  27.677  60.692  1.00  0.00     0.041 C 
ATOM      5  O   UNL     1      62.687  26.851  60.622  1.00  0.00    -0.550 OA
ATOM      6  O   UNL     1      60.464  27.297  60.288  1.00  0.00    -0.550 OA
ENDBRANCH   3   4
ENDBRANCH   2   3
ENDBRANCH   1   2
BRANCH   1   7
ATOM      7  C   UNL     1      64.103  31.834  59.976  1.00  0.00     0.000 C 
BRANCH   7   8
ATOM      8  C   UNL     1      63.603  33.006  59.124  1.00  0.00    -0.000 C 
BRANCH   8   9
ATOM      9  C   UNL     1      63.496  34.289  59.961  1.00  0.00    -0.000 C 
BRANCH   9  10
ATOM     10  C   UNL     1      64.475  34.305  61.145  1.00  0.00    -0.003 C 
ATOM     11  C   UNL     1      64.161  35.406  62.158  1.00  0.00     0.004 C 
ENDBRANCH   9  10
ENDBRANCH   8   9
ENDBRANCH   7   8
ENDBRANCH   1   7
TORSDOF 7
ENDMDL
MODEL 2
REMARK VINA RESULT:    -3.204      1.667      2.193
REMARK INTER + INTRA:          -4.785
REMARK INTER:                  -4.549
REMARK INTRA:                  -0.236
REMARK UNBOUND:                -0.270
REMARK SMILES CCCCCCCCC(=O)[O-]
REMARK SMILES IDX 6 1 7 2 8 3 9 4 10 5 11 6 5 7 4 8 3 9 2 10 1 11
REMARK H PARENT
REMARK Flexibility Score: inf
ROOT
ATOM      1  C   UNL     1      64.139  31.461  60.269  1.00  0.00     0.000 C 
ENDROOT
BRANCH   1   2
ATOM      2  C   UNL     1      63.328  30.255  59.771  1.00  0.00     0.006 C 
BRANCH   2   3
ATOM      3  C   UNL     1      63.493  29.029  60.680  1.00  0.00     0.053 C 
BRANCH   3   4
ATOM      4  C   UNL     1      64.632  28.161  60.242  1.00  0.00     0.041 C 
ATOM      5  O   UNL     1      65.810  28.437  60.591  1.00  0.00    -0.550 OA
ATOM      6  O   UNL     1      64.389  27.026  59.477  1.00  0.00    -0.550 OA
ENDBRANCH   3   4
ENDBRANCH   2   3
ENDBRANCH   1   2
BRANCH   1   7
ATOM      7  C   UNL     1      63.806  32.719  59.460  1.00  0.00     0.000 C 
BRANCH   7   8
ATOM      8  C   UNL     1      64.140  33.989  60.252  1.00  0.00    -0.000 C 
BRANCH   8   9
ATOM      9  C   UNL     1      62.949  34.958  60.265  1.00  0.00    -0.000 C 
BRANCH   9  10
ATOM     10  C   UNL     1      62.913  35.833  61.528  1.00  0.00    -0.003 C 
ATOM     11  C   UNL     1      64.095  35.572  62.461  1.00  0.00     0.004 C 
ENDBRANCH   9  10
ENDBRANCH   8   9
ENDBRANCH   7   8
ENDBRANCH   1   7
TORSDOF 7
ENDMDL
MODEL 3
REMARK VINA RESULT:    -3.203     12.649     13.363
REMARK INTER + INTRA:          -4.784
REMARK INTER:                  -4.436
REMARK INTRA:                  -0.347
REMARK UNBOUND:                -0.270
REMARK SMILES CCCCCCCCC(=O)[O-]
REMARK SMILES IDX 6 1 7 2 8 3 9 4 10 5 11 6 5 7 4 8 3 9 2 10 1 11
REMARK H PARENT
REMARK Flexibility Score: inf
ROOT
ATOM      1  C   UNL     1      58.043  28.287  50.001  1.00  0.00     0.000 C 
ENDROOT
BRANCH   1   2
ATOM      2  C   UNL     1      56.533  28.145  49.755  1.00  0.00     0.006 C 
BRANCH   2   3
ATOM      3  C   UNL     1      55.699  28.781  50.875  1.00  0.00     0.053 C 
BRANCH   3   4
ATOM      4  C   UNL     1      54.890  29.939  50.376  1.00  0.00     0.041 C 
ATOM      5  O   UNL     1      55.316  30.648  49.427  1.00  0.00    -0.550 OA
ATOM      6  O   UNL     1      53.649  30.215  50.938  1.00  0.00    -0.550 OA
ENDBRANCH   3   4
ENDBRANCH   2   3
ENDBRANCH   1   2
BRANCH   1   7
ATOM      7  C   UNL     1      58.809  28.382  48.676  1.00  0.00     0.000 C 
BRANCH   7   8
ATOM      8  C   UNL     1      59.964  27.375  48.635  1.00  0.00    -0.000 C 
BRANCH   8   9
ATOM      9  C   UNL     1      59.466  25.953  48.929  1.00  0.00    -0.000 C 
BRANCH   9  10
ATOM     10  C   UNL     1      60.553  25.061  49.548  1.00  0.00    -0.003 C 
ATOM     11  C   UNL     1      61.935  25.714  49.526  1.00  0.00     0.004 C 
ENDBRANCH   9  10
ENDBRANCH   8   9
ENDBRANCH   7   8
ENDBRANCH   1   7
TORSDOF 7
ENDMDL
MODEL 4
REMARK VINA RESULT:    -3.152      8.709      9.991
REMARK INTER + INTRA:          -4.711
REMARK INTER:                  -4.003
REMARK INTRA:                  -0.709
REMARK UNBOUND:                -0.270
REMARK SMILES CCCCCCCCC(=O)[O-]
REMARK SMILES IDX 6 1 7 2 8 3 9 4 10 5 11 6 5 7 4 8 3 9 2 10 1 11
REMARK H PARENT
REMARK Flexibility Score: inf
ROOT
ATOM      1  C   UNL     1      72.189  29.356  57.618  1.00  0.00     0.000 C 
ENDROOT
BRANCH   1   2
ATOM      2  C   UNL     1      71.692  30.791  57.381  1.00  0.00     0.006 C 
BRANCH   2   3
ATOM      3  C   UNL     1      70.572  31.185  58.353  1.00  0.00     0.053 C 
BRANCH   3   4
ATOM      4  C   UNL     1      70.867  32.479  59.047  1.00  0.00     0.041 C 
ATOM      5  O   UNL     1      71.438  32.480  60.169  1.00  0.00    -0.550 OA
ATOM      6  O   UNL     1      70.543  33.686  58.439  1.00  0.00    -0.550 OA
ENDBRANCH   3   4
ENDBRANCH   2   3
ENDBRANCH   1   2
BRANCH   1   7
ATOM      7  C   UNL     1      73.069  29.278  58.870  1.00  0.00     0.000 C 
BRANCH   7   8
ATOM      8  C   UNL     1      72.811  27.982  59.646  1.00  0.00    -0.000 C 
BRANCH   8   9
ATOM      9  C   UNL     1      72.687  28.258  61.152  1.00  0.00    -0.000 C 
BRANCH   9  10
ATOM     10  C   UNL     1      71.502  29.176  61.489  1.00  0.00    -0.003 C 
ATOM     11  C   UNL     1      70.153  28.562  61.112  1.00  0.00     0.004 C 
ENDBRANCH   9  10
ENDBRANCH   8   9
ENDBRANCH   7   8
ENDBRANCH   1   7
TORSDOF 7
ENDMDL
MODEL 5
REMARK VINA RESULT:    -3.135     16.669     17.468
REMARK INTER + INTRA:          -4.688
REMARK INTER:                  -3.986
REMARK INTRA:                  -0.702
REMARK UNBOUND:                -0.270
REMARK SMILES CCCCCCCCC(=O)[O-]
REMARK SMILES IDX 6 1 7 2 8 3 9 4 10 5 11 6 5 7 4 8 3 9 2 10 1 11
REMARK H PARENT
REMARK Flexibility Score: inf
ROOT
ATOM      1  C   UNL     1      56.315  18.151  50.046  1.00  0.00     0.000 C 
ENDROOT
BRANCH   1   2
ATOM      2  C   UNL     1      56.649  18.905  51.343  1.00  0.00     0.006 C 
BRANCH   2   3
ATOM      3  C   UNL     1      55.955  18.293  52.567  1.00  0.00     0.053 C 
BRANCH   3   4
ATOM      4  C   UNL     1      54.645  18.960  52.856  1.00  0.00     0.041 C 
ATOM      5  O   UNL     1      54.336  20.030  52.269  1.00  0.00    -0.550 OA
ATOM      6  O   UNL     1      53.751  18.381  53.749  1.00  0.00    -0.550 OA
ENDBRANCH   3   4
ENDBRANCH   2   3
ENDBRANCH   1   2
BRANCH   1   7
ATOM      7  C   UNL     1      57.465  17.223  49.639  1.00  0.00     0.000 C 
BRANCH   7   8
ATOM      8  C   UNL     1      58.815  17.943  49.733  1.00  0.00    -0.000 C 
BRANCH   8   9
ATOM      9  C   UNL     1      59.813  17.133  50.574  1.00  0.00    -0.000 C 
BRANCH   9  10
ATOM     10  C   UNL     1      59.147  15.963  51.316  1.00  0.00    -0.003 C 
ATOM     11  C   UNL     1      59.149  16.148  52.833  1.00  0.00     0.004 C 
ENDBRANCH   9  10
ENDBRANCH   8   9
ENDBRANCH   7   8
ENDBRANCH   1   7
TORSDOF 7
ENDMDL
MODEL 6
REMARK VINA RESULT:    -3.129     11.651     12.632
REMARK INTER + INTRA:          -4.679
REMARK INTER:                  -4.229
REMARK INTRA:                  -0.449
REMARK UNBOUND:                -0.270
REMARK SMILES CCCCCCCCC(=O)[O-]
REMARK SMILES IDX 6 1 7 2 8 3 9 4 10 5 11 6 5 7 4 8 3 9 2 10 1 11
REMARK H PARENT
REMARK Flexibility Score: inf
ROOT
ATOM      1  C   UNL     1      57.945  28.646  49.790  1.00  0.00     0.000 C 
ENDROOT
BRANCH   1   2
ATOM      2  C   UNL     1      58.808  28.324  48.560  1.00  0.00     0.006 C 
BRANCH   2   3
ATOM      3  C   UNL     1      60.213  27.841  48.947  1.00  0.00     0.053 C 
BRANCH   3   4
ATOM      4  C   UNL     1      60.240  26.368  49.218  1.00  0.00     0.041 C 
ATOM      5  O   UNL     1      61.217  25.852  49.820  1.00  0.00    -0.550 OA
ATOM      6  O   UNL     1      59.168  25.570  48.835  1.00  0.00    -0.550 OA
ENDBRANCH   3   4
ENDBRANCH   2   3
ENDBRANCH   1   2
BRANCH   1   7
ATOM      7  C   UNL     1      56.650  27.826  49.783  1.00  0.00     0.000 C 
BRANCH   7   8
ATOM      8  C   UNL     1      55.473  28.649  50.319  1.00  0.00    -0.000 C 
BRANCH   8   9
ATOM      9  C   UNL     1      55.549  30.102  49.828  1.00  0.00    -0.000 C 
BRANCH   9  10
ATOM     10  C   UNL     1      55.217  31.117  50.933  1.00  0.00    -0.003 C 
ATOM     11  C   UNL     1      56.279  31.164  52.031  1.00  0.00     0.004 C 
ENDBRANCH   9  10
ENDBRANCH   8   9
ENDBRANCH   7   8
ENDBRANCH   1   7
TORSDOF 7
ENDMDL
MODEL 7
REMARK VINA RESULT:    -3.118      7.902      9.015
REMARK INTER + INTRA:          -4.663
REMARK INTER:                  -3.849
REMARK INTRA:                  -0.814
REMARK UNBOUND:                -0.270
REMARK SMILES CCCCCCCCC(=O)[O-]
REMARK SMILES IDX 6 1 7 2 8 3 9 4 10 5 11 6 5 7 4 8 3 9 2 10 1 11
REMARK H PARENT
REMARK Flexibility Score: inf
ROOT
ATOM      1  C   UNL     1      72.718  30.660  60.043  1.00  0.00     0.000 C 
ENDROOT
BRANCH   1   2
ATOM      2  C   UNL     1      72.799  29.976  61.416  1.00  0.00     0.006 C 
BRANCH   2   3
ATOM      3  C   UNL     1      72.640  28.453  61.317  1.00  0.00     0.053 C 
BRANCH   3   4
ATOM      4  C   UNL     1      71.297  28.067  60.777  1.00  0.00     0.041 C 
ATOM      5  O   UNL     1      70.251  28.585  61.250  1.00  0.00    -0.550 OA
ATOM      6  O   UNL     1      71.202  27.162  59.727  1.00  0.00    -0.550 OA
ENDBRANCH   3   4
ENDBRANCH   2   3
ENDBRANCH   1   2
BRANCH   1   7
ATOM      7  C   UNL     1      71.607  31.716  60.019  1.00  0.00     0.000 C 
BRANCH   7   8
ATOM      8  C   UNL     1      70.827  31.666  58.701  1.00  0.00    -0.000 C 
BRANCH   8   9
ATOM      9  C   UNL     1      71.377  30.567  57.778  1.00  0.00    -0.000 C 
BRANCH   9  10
ATOM     10  C   UNL     1      70.301  29.551  57.365  1.00  0.00    -0.003 C 
ATOM     11  C   UNL     1      68.994  29.726  58.138  1.00  0.00     0.004 C 
ENDBRANCH   9  10
ENDBRANCH   8   9
ENDBRANCH   7   8
ENDBRANCH   1   7
TORSDOF 7
ENDMDL
MODEL 8
REMARK VINA RESULT:    -3.089      8.222      8.868
REMARK INTER + INTRA:          -4.622
REMARK INTER:                  -4.269
REMARK INTRA:                  -0.353
REMARK UNBOUND:                -0.270
REMARK SMILES CCCCCCCCC(=O)[O-]
REMARK SMILES IDX 6 1 7 2 8 3 9 4 10 5 11 6 5 7 4 8 3 9 2 10 1 11
REMARK H PARENT
REMARK Flexibility Score: inf
ROOT
ATOM      1  C   UNL     1      71.049  31.506  58.859  1.00  0.00     0.000 C 
ENDROOT
BRANCH   1   2
ATOM      2  C   UNL     1      72.013  30.325  59.049  1.00  0.00     0.006 C 
BRANCH   2   3
ATOM      3  C   UNL     1      72.638  30.304  60.451  1.00  0.00     0.053 C 
BRANCH   3   4
ATOM      4  C   UNL     1      72.158  29.137  61.257  1.00  0.00     0.041 C 
ATOM      5  O   UNL     1      72.986  28.356  61.796  1.00  0.00    -0.550 OA
ATOM      6  O   UNL     1      70.796  28.930  61.441  1.00  0.00    -0.550 OA
ENDBRANCH   3   4
ENDBRANCH   2   3
ENDBRANCH   1   2
BRANCH   1   7
ATOM      7  C   UNL     1      71.305  32.599  59.903  1.00  0.00     0.000 C 
BRANCH   7   8
ATOM      8  C   UNL     1      70.580  33.897  59.531  1.00  0.00    -0.000 C 
BRANCH   8   9
ATOM      9  C   UNL     1      70.375  33.998  58.012  1.00  0.00    -0.000 C 
BRANCH   9  10
ATOM     10  C   UNL     1      70.062  35.430  57.552  1.00  0.00    -0.003 C 
ATOM     11  C   UNL     1      70.777  35.803  56.254  1.00  0.00     0.004 C 
ENDBRANCH   9  10
ENDBRANCH   8   9
ENDBRANCH   7   8
ENDBRANCH   1   7
TORSDOF 7
ENDMDL
