MODEL 1
REMARK VINA RESULT:    -3.624      0.000      0.000
REMARK INTER + INTRA:          -5.935
REMARK INTER:                  -5.530
REMARK INTRA:                  -0.404
REMARK UNBOUND:                -0.404
REMARK SMILES O=C([O-])CCCCCCCCC(=O)[O-]
REMARK SMILES IDX 7 1 6 2 5 3 4 4 2 5 1 6 3 7 8 8 9 9 10 10 11 11 12 12 13 13
REMARK SMILES IDX 14 14
REMARK H PARENT
REMARK Flexibility Score: inf
ROOT
ATOM      1  C   UNL     1     -16.729 -16.188  25.965  1.00  0.00     0.000 C 
ENDROOT
BRANCH   1   2
ATOM      2  C   UNL     1     -17.062 -14.780  25.445  1.00  0.00     0.000 C 
BRANCH   2   3
ATOM      3  C   UNL     1     -17.705 -14.801  24.047  1.00  0.00     0.006 C 
BRANCH   3   4
ATOM      4  C   UNL     1     -17.609 -13.438  23.347  1.00  0.00     0.053 C 
BRANCH   4   5
ATOM      5  C   UNL     1     -18.727 -12.525  23.747  1.00  0.00     0.041 C 
ATOM      6  O   UNL     1     -19.811 -12.531  23.105  1.00  0.00    -0.550 OA
ATOM      7  O   UNL     1     -18.562 -11.644  24.809  1.00  0.00    -0.550 OA
ENDBRANCH   4   5
ENDBRANCH   3   4
ENDBRANCH   2   3
ENDBRANCH   1   2
BRANCH   1   8
ATOM      8  C   UNL     1     -15.364 -16.248  26.675  1.00  0.00     0.000 C 
BRANCH   8   9
ATOM      9  C   UNL     1     -15.054 -14.967  27.466  1.00  0.00     0.000 C 
BRANCH   9  10
ATOM     10  C   UNL     1     -14.641 -15.253  28.921  1.00  0.00     0.006 C 
BRANCH  10  11
ATOM     11  C   UNL     1     -13.226 -15.839  29.016  1.00  0.00     0.053 C 
BRANCH  11  12
ATOM     12  C   UNL     1     -13.223 -17.192  29.657  1.00  0.00     0.041 C 
ATOM     13  O   UNL     1     -14.296 -17.840  29.774  1.00  0.00    -0.550 OA
ATOM     14  O   UNL     1     -12.030 -17.752  30.097  1.00  0.00    -0.550 OA
ENDBRANCH  11  12
ENDBRANCH  10  11
ENDBRANCH   9  10
ENDBRANCH   8   9
ENDBRANCH   1   8
TORSDOF 9
ENDMDL
MODEL 2
REMARK VINA RESULT:    -3.541      1.036      7.693
REMARK INTER + INTRA:          -5.808
REMARK INTER:                  -5.393
REMARK INTRA:                  -0.415
REMARK UNBOUND:                -0.404
REMARK SMILES O=C([O-])CCCCCCCCC(=O)[O-]
REMARK SMILES IDX 7 1 6 2 5 3 4 4 2 5 1 6 3 7 8 8 9 9 10 10 11 11 12 12 13 13
REMARK SMILES IDX 14 14
REMARK H PARENT
REMARK Flexibility Score: inf
ROOT
ATOM      1  C   UNL     1     -15.454 -15.959  26.718  1.00  0.00     0.000 C 
ENDROOT
BRANCH   1   2
ATOM      2  C   UNL     1     -14.656 -16.648  27.837  1.00  0.00     0.000 C 
BRANCH   2   3
ATOM      3  C   UNL     1     -14.025 -15.647  28.820  1.00  0.00     0.006 C 
BRANCH   3   4
ATOM      4  C   UNL     1     -12.536 -15.928  29.057  1.00  0.00     0.053 C 
BRANCH   4   5
ATOM      5  C   UNL     1     -12.319 -16.863  30.206  1.00  0.00     0.041 C 
ATOM      6  O   UNL     1     -11.833 -18.008  30.008  1.00  0.00    -0.550 OA
ATOM      7  O   UNL     1     -12.680 -16.483  31.492  1.00  0.00    -0.550 OA
ENDBRANCH   4   5
ENDBRANCH   3   4
ENDBRANCH   2   3
ENDBRANCH   1   2
BRANCH   1   8
ATOM      8  C   UNL     1     -15.821 -14.504  27.065  1.00  0.00     0.000 C 
BRANCH   8   9
ATOM      9  C   UNL     1     -17.012 -13.984  26.243  1.00  0.00     0.000 C 
BRANCH   9  10
ATOM     10  C   UNL     1     -17.067 -14.590  24.829  1.00  0.00     0.006 C 
BRANCH  10  11
ATOM     11  C   UNL     1     -17.328 -13.527  23.755  1.00  0.00     0.053 C 
BRANCH  11  12
ATOM     12  C   UNL     1     -18.654 -12.856  23.942  1.00  0.00     0.041 C 
ATOM     13  O   UNL     1     -19.719 -13.464  23.656  1.00  0.00    -0.550 OA
ATOM     14  O   UNL     1     -18.716 -11.569  24.462  1.00  0.00    -0.550 OA
ENDBRANCH  11  12
ENDBRANCH  10  11
ENDBRANCH   9  10
ENDBRANCH   8   9
ENDBRANCH   1   8
TORSDOF 9
ENDMDL
MODEL 3
REMARK VINA RESULT:    -3.518      1.302      1.629
REMARK INTER + INTRA:          -5.773
REMARK INTER:                  -5.395
REMARK INTRA:                  -0.379
REMARK UNBOUND:                -0.404
REMARK SMILES O=C([O-])CCCCCCCCC(=O)[O-]
REMARK SMILES IDX 7 1 6 2 5 3 4 4 2 5 1 6 3 7 8 8 9 9 10 10 11 11 12 12 13 13
REMARK SMILES IDX 14 14
REMARK H PARENT
REMARK Flexibility Score: inf
ROOT
ATOM      1  C   UNL     1     -15.927 -15.250  26.575  1.00  0.00     0.000 C 
ENDROOT
BRANCH   1   2
ATOM      2  C   UNL     1     -16.831 -15.931  25.534  1.00  0.00     0.000 C 
BRANCH   2   3
ATOM      3  C   UNL     1     -17.333 -14.955  24.455  1.00  0.00     0.006 C 
BRANCH   3   4
ATOM      4  C   UNL     1     -17.006 -13.496  24.798  1.00  0.00     0.053 C 
BRANCH   4   5
ATOM      5  C   UNL     1     -18.243 -12.684  25.028  1.00  0.00     0.041 C 
ATOM      6  O   UNL     1     -19.367 -13.129  24.673  1.00  0.00    -0.550 OA
ATOM      7  O   UNL     1     -18.153 -11.425  25.607  1.00  0.00    -0.550 OA
ENDBRANCH   4   5
ENDBRANCH   3   4
ENDBRANCH   2   3
ENDBRANCH   1   2
BRANCH   1   8
ATOM      8  C   UNL     1     -14.845 -16.197  27.126  1.00  0.00     0.000 C 
BRANCH   8   9
ATOM      9  C   UNL     1     -15.349 -17.047  28.304  1.00  0.00     0.000 C 
BRANCH   9  10
ATOM     10  C   UNL     1     -14.249 -17.339  29.340  1.00  0.00     0.006 C 
BRANCH  10  11
ATOM     11  C   UNL     1     -13.263 -16.171  29.481  1.00  0.00     0.053 C 
BRANCH  11  12
ATOM     12  C   UNL     1     -11.880 -16.643  29.807  1.00  0.00     0.041 C 
ATOM     13  O   UNL     1     -11.707 -17.754  30.376  1.00  0.00    -0.550 OA
ATOM     14  O   UNL     1     -10.779 -15.872  29.456  1.00  0.00    -0.550 OA
ENDBRANCH  11  12
ENDBRANCH  10  11
ENDBRANCH   9  10
ENDBRANCH   8   9
ENDBRANCH   1   8
TORSDOF 9
ENDMDL
MODEL 4
REMARK VINA RESULT:    -3.517      1.528      2.447
REMARK INTER + INTRA:          -5.771
REMARK INTER:                  -5.173
REMARK INTRA:                  -0.598
REMARK UNBOUND:                -0.404
REMARK SMILES O=C([O-])CCCCCCCCC(=O)[O-]
REMARK SMILES IDX 7 1 6 2 5 3 4 4 2 5 1 6 3 7 8 8 9 9 10 10 11 11 12 12 13 13
REMARK SMILES IDX 14 14
REMARK H PARENT
REMARK Flexibility Score: inf
ROOT
ATOM      1  C   UNL     1     -14.697 -16.097  27.703  1.00  0.00     0.000 C 
ENDROOT
BRANCH   1   2
ATOM      2  C   UNL     1     -15.666 -15.797  26.548  1.00  0.00     0.000 C 
BRANCH   2   3
ATOM      3  C   UNL     1     -16.162 -14.340  26.552  1.00  0.00     0.006 C 
BRANCH   3   4
ATOM      4  C   UNL     1     -16.901 -13.978  25.258  1.00  0.00     0.053 C 
BRANCH   4   5
ATOM      5  C   UNL     1     -18.267 -13.427  25.529  1.00  0.00     0.041 C 
ATOM      6  O   UNL     1     -18.400 -12.269  26.008  1.00  0.00    -0.550 OA
ATOM      7  O   UNL     1     -19.393 -14.202  25.283  1.00  0.00    -0.550 OA
ENDBRANCH   4   5
ENDBRANCH   3   4
ENDBRANCH   2   3
ENDBRANCH   1   2
BRANCH   1   8
ATOM      8  C   UNL     1     -14.757 -15.034  28.816  1.00  0.00     0.000 C 
BRANCH   8   9
ATOM      9  C   UNL     1     -13.364 -14.646  29.337  1.00  0.00     0.000 C 
BRANCH   9  10
ATOM     10  C   UNL     1     -12.228 -15.359  28.582  1.00  0.00     0.006 C 
BRANCH  10  11
ATOM     11  C   UNL     1     -11.210 -15.996  29.537  1.00  0.00     0.053 C 
BRANCH  11  12
ATOM     12  C   UNL     1     -11.843 -17.021  30.427  1.00  0.00     0.041 C 
ATOM     13  O   UNL     1     -11.772 -16.902  31.679  1.00  0.00    -0.550 OA
ATOM     14  O   UNL     1     -12.537 -18.090  29.875  1.00  0.00    -0.550 OA
ENDBRANCH  11  12
ENDBRANCH  10  11
ENDBRANCH   9  10
ENDBRANCH   8   9
ENDBRANCH   1   8
TORSDOF 9
ENDMDL
MODEL 5
REMARK VINA RESULT:    -3.496      1.442      1.935
REMARK INTER + INTRA:          -5.739
REMARK INTER:                  -5.385
REMARK INTRA:                  -0.354
REMARK UNBOUND:                -0.404
REMARK SMILES O=C([O-])CCCCCCCCC(=O)[O-]
REMARK SMILES IDX 7 1 6 2 5 3 4 4 2 5 1 6 3 7 8 8 9 9 10 10 11 11 12 12 13 13
REMARK SMILES IDX 14 14
REMARK H PARENT
REMARK Flexibility Score: inf
ROOT
ATOM      1  C   UNL     1     -16.439 -14.139  26.239  1.00  0.00     0.000 C 
ENDROOT
BRANCH   1   2
ATOM      2  C   UNL     1     -16.777 -13.344  24.967  1.00  0.00     0.000 C 
BRANCH   2   3
ATOM      3  C   UNL     1     -17.969 -12.390  25.163  1.00  0.00     0.006 C 
BRANCH   3   4
ATOM      4  C   UNL     1     -18.633 -12.014  23.832  1.00  0.00     0.053 C 
BRANCH   4   5
ATOM      5  C   UNL     1     -19.070 -13.222  23.063  1.00  0.00     0.041 C 
ATOM      6  O   UNL     1     -19.979 -13.967  23.517  1.00  0.00    -0.550 OA
ATOM      7  O   UNL     1     -18.454 -13.544  21.860  1.00  0.00    -0.550 OA
ENDBRANCH   4   5
ENDBRANCH   3   4
ENDBRANCH   2   3
ENDBRANCH   1   2
BRANCH   1   8
ATOM      8  C   UNL     1     -16.470 -15.662  26.009  1.00  0.00     0.000 C 
BRANCH   8   9
ATOM      9  C   UNL     1     -15.203 -16.362  26.526  1.00  0.00     0.000 C 
BRANCH   9  10
ATOM     10  C   UNL     1     -14.699 -15.772  27.855  1.00  0.00     0.006 C 
BRANCH  10  11
ATOM     11  C   UNL     1     -14.300 -16.862  28.858  1.00  0.00     0.053 C 
BRANCH  11  12
ATOM     12  C   UNL     1     -12.921 -16.646  29.400  1.00  0.00     0.041 C 
ATOM     13  O   UNL     1     -12.017 -16.174  28.661  1.00  0.00    -0.550 OA
ATOM     14  O   UNL     1     -12.641 -16.938  30.729  1.00  0.00    -0.550 OA
ENDBRANCH  11  12
ENDBRANCH  10  11
ENDBRANCH   9  10
ENDBRANCH   8   9
ENDBRANCH   1   8
TORSDOF 9
ENDMDL
MODEL 6
REMARK VINA RESULT:    -3.447      1.460      7.463
REMARK INTER + INTRA:          -5.665
REMARK INTER:                  -5.189
REMARK INTRA:                  -0.476
REMARK UNBOUND:                -0.404
REMARK SMILES O=C([O-])CCCCCCCCC(=O)[O-]
REMARK SMILES IDX 7 1 6 2 5 3 4 4 2 5 1 6 3 7 8 8 9 9 10 10 11 11 12 12 13 13
REMARK SMILES IDX 14 14
REMARK H PARENT
REMARK Flexibility Score: inf
ROOT
ATOM      1  C   UNL     1     -16.054 -15.646  28.795  1.00  0.00     0.000 C 
ENDROOT
BRANCH   1   2
ATOM      2  C   UNL     1     -15.168 -16.770  28.234  1.00  0.00     0.000 C 
BRANCH   2   3
ATOM      3  C   UNL     1     -14.417 -17.540  29.335  1.00  0.00     0.006 C 
BRANCH   3   4
ATOM      4  C   UNL     1     -13.480 -16.630  30.140  1.00  0.00     0.053 C 
BRANCH   4   5
ATOM      5  C   UNL     1     -12.082 -16.651  29.603  1.00  0.00     0.041 C 
ATOM      6  O   UNL     1     -11.754 -15.882  28.662  1.00  0.00    -0.550 OA
ATOM      7  O   UNL     1     -11.150 -17.541  30.121  1.00  0.00    -0.550 OA
ENDBRANCH   4   5
ENDBRANCH   3   4
ENDBRANCH   2   3
ENDBRANCH   1   2
BRANCH   1   8
ATOM      8  C   UNL     1     -16.578 -14.702  27.697  1.00  0.00     0.000 C 
BRANCH   8   9
ATOM      9  C   UNL     1     -15.958 -14.997  26.321  1.00  0.00     0.000 C 
BRANCH   9  10
ATOM     10  C   UNL     1     -17.005 -15.031  25.194  1.00  0.00     0.006 C 
BRANCH  10  11
ATOM     11  C   UNL     1     -17.013 -13.734  24.374  1.00  0.00     0.053 C 
BRANCH  11  12
ATOM     12  C   UNL     1     -18.270 -12.948  24.583  1.00  0.00     0.041 C 
ATOM     13  O   UNL     1     -19.038 -13.223  25.543  1.00  0.00    -0.550 OA
ATOM     14  O   UNL     1     -18.580 -11.890  23.737  1.00  0.00    -0.550 OA
ENDBRANCH  11  12
ENDBRANCH  10  11
ENDBRANCH   9  10
ENDBRANCH   8   9
ENDBRANCH   1   8
TORSDOF 9
ENDMDL
MODEL 7
REMARK VINA RESULT:    -3.426      1.289      7.481
REMARK INTER + INTRA:          -5.633
REMARK INTER:                  -5.279
REMARK INTRA:                  -0.354
REMARK UNBOUND:                -0.404
REMARK SMILES O=C([O-])CCCCCCCCC(=O)[O-]
REMARK SMILES IDX 7 1 6 2 5 3 4 4 2 5 1 6 3 7 8 8 9 9 10 10 11 11 12 12 13 13
REMARK SMILES IDX 14 14
REMARK H PARENT
REMARK Flexibility Score: inf
ROOT
ATOM      1  C   UNL     1     -16.303 -14.841  25.988  1.00  0.00     0.000 C 
ENDROOT
BRANCH   1   2
ATOM      2  C   UNL     1     -16.232 -14.431  27.468  1.00  0.00     0.000 C 
BRANCH   2   3
ATOM      3  C   UNL     1     -16.259 -15.640  28.420  1.00  0.00     0.006 C 
BRANCH   3   4
ATOM      4  C   UNL     1     -15.214 -16.697  28.042  1.00  0.00     0.053 C 
BRANCH   4   5
ATOM      5  C   UNL     1     -14.961 -17.660  29.160  1.00  0.00     0.041 C 
ATOM      6  O   UNL     1     -15.871 -18.444  29.538  1.00  0.00    -0.550 OA
ATOM      7  O   UNL     1     -13.731 -17.670  29.807  1.00  0.00    -0.550 OA
ENDBRANCH   4   5
ENDBRANCH   3   4
ENDBRANCH   2   3
ENDBRANCH   1   2
BRANCH   1   8
ATOM      8  C   UNL     1     -17.747 -14.875  25.453  1.00  0.00     0.000 C 
BRANCH   8   9
ATOM      9  C   UNL     1     -17.842 -15.504  24.053  1.00  0.00     0.000 C 
BRANCH   9  10
ATOM     10  C   UNL     1     -18.564 -14.595  23.042  1.00  0.00     0.006 C 
BRANCH  10  11
ATOM     11  C   UNL     1     -17.989 -13.173  23.029  1.00  0.00     0.053 C 
BRANCH  11  12
ATOM     12  C   UNL     1     -18.983 -12.163  23.514  1.00  0.00     0.041 C 
ATOM     13  O   UNL     1     -20.080 -12.016  22.913  1.00  0.00    -0.550 OA
ATOM     14  O   UNL     1     -18.711 -11.406  24.646  1.00  0.00    -0.550 OA
ENDBRANCH  11  12
ENDBRANCH  10  11
ENDBRANCH   9  10
ENDBRANCH   8   9
ENDBRANCH   1   8
TORSDOF 9
ENDMDL
MODEL 8
REMARK VINA RESULT:    -3.272      9.179     10.774
REMARK INTER + INTRA:          -5.398
REMARK INTER:                  -5.063
REMARK INTRA:                  -0.335
REMARK UNBOUND:                -0.404
REMARK SMILES O=C([O-])CCCCCCCCC(=O)[O-]
REMARK SMILES IDX 7 1 6 2 5 3 4 4 2 5 1 6 3 7 8 8 9 9 10 10 11 11 12 12 13 13
REMARK SMILES IDX 14 14
REMARK H PARENT
REMARK Flexibility Score: inf
ROOT
ATOM      1  C   UNL     1     -10.616 -21.234  20.159  1.00  0.00     0.000 C 
ENDROOT
BRANCH   1   2
ATOM      2  C   UNL     1     -11.603 -21.749  21.219  1.00  0.00     0.000 C 
BRANCH   2   3
ATOM      3  C   UNL     1     -11.962 -20.678  22.265  1.00  0.00     0.006 C 
BRANCH   3   4
ATOM      4  C   UNL     1     -13.269 -21.003  23.000  1.00  0.00     0.053 C 
BRANCH   4   5
ATOM      5  C   UNL     1     -13.144 -22.231  23.848  1.00  0.00     0.041 C 
ATOM      6  O   UNL     1     -12.147 -22.381  24.603  1.00  0.00    -0.550 OA
ATOM      7  O   UNL     1     -14.113 -23.224  23.784  1.00  0.00    -0.550 OA
ENDBRANCH   4   5
ENDBRANCH   3   4
ENDBRANCH   2   3
ENDBRANCH   1   2
BRANCH   1   8
ATOM      8  C   UNL     1     -10.186 -19.777  20.409  1.00  0.00     0.000 C 
BRANCH   8   9
ATOM      9  C   UNL     1      -8.883 -19.413  19.680  1.00  0.00     0.000 C 
BRANCH   9  10
ATOM     10  C   UNL     1      -7.749 -19.031  20.648  1.00  0.00     0.006 C 
BRANCH  10  11
ATOM     11  C   UNL     1      -6.741 -18.067  20.006  1.00  0.00     0.053 C 
BRANCH  11  12
ATOM     12  C   UNL     1      -5.956 -17.314  21.034  1.00  0.00     0.041 C 
ATOM     13  O   UNL     1      -5.897 -17.734  22.221  1.00  0.00    -0.550 OA
ATOM     14  O   UNL     1      -5.262 -16.164  20.677  1.00  0.00    -0.550 OA
ENDBRANCH  11  12
ENDBRANCH  10  11
ENDBRANCH   9  10
ENDBRANCH   8   9
ENDBRANCH   1   8
TORSDOF 9
ENDMDL
MODEL 9
REMARK VINA RESULT:    -3.260      1.849      2.226
REMARK INTER + INTRA:          -5.380
REMARK INTER:                  -4.977
REMARK INTRA:                  -0.403
REMARK UNBOUND:                -0.404
REMARK SMILES O=C([O-])CCCCCCCCC(=O)[O-]
REMARK SMILES IDX 7 1 6 2 5 3 4 4 2 5 1 6 3 7 8 8 9 9 10 10 11 11 12 12 13 13
REMARK SMILES IDX 14 14
REMARK H PARENT
REMARK Flexibility Score: inf
ROOT
ATOM      1  C   UNL     1     -16.523 -16.352  26.936  1.00  0.00     0.000 C 
ENDROOT
BRANCH   1   2
ATOM      2  C   UNL     1     -16.698 -16.455  25.412  1.00  0.00     0.000 C 
BRANCH   2   3
ATOM      3  C   UNL     1     -17.379 -15.214  24.808  1.00  0.00     0.006 C 
BRANCH   3   4
ATOM      4  C   UNL     1     -16.655 -13.915  25.187  1.00  0.00     0.053 C 
BRANCH   4   5
ATOM      5  C   UNL     1     -17.615 -12.826  25.552  1.00  0.00     0.041 C 
ATOM      6  O   UNL     1     -17.188 -11.727  25.996  1.00  0.00    -0.550 OA
ATOM      7  O   UNL     1     -18.984 -13.033  25.431  1.00  0.00    -0.550 OA
ENDBRANCH   4   5
ENDBRANCH   3   4
ENDBRANCH   2   3
ENDBRANCH   1   2
BRANCH   1   8
ATOM      8  C   UNL     1     -15.049 -16.454  27.369  1.00  0.00     0.000 C 
BRANCH   8   9
ATOM      9  C   UNL     1     -14.868 -17.277  28.655  1.00  0.00     0.000 C 
BRANCH   9  10
ATOM     10  C   UNL     1     -14.036 -16.541  29.719  1.00  0.00     0.006 C 
BRANCH  10  11
ATOM     11  C   UNL     1     -12.593 -17.059  29.786  1.00  0.00     0.053 C 
BRANCH  11  12
ATOM     12  C   UNL     1     -11.601 -16.001  29.414  1.00  0.00     0.041 C 
ATOM     13  O   UNL     1     -11.980 -14.959  28.815  1.00  0.00    -0.550 OA
ATOM     14  O   UNL     1     -10.262 -16.149  29.755  1.00  0.00    -0.550 OA
ENDBRANCH  11  12
ENDBRANCH  10  11
ENDBRANCH   9  10
ENDBRANCH   8   9
ENDBRANCH   1   8
TORSDOF 9
ENDMDL
