MODEL 1
REMARK VINA RESULT:    -4.215      0.000      0.000
REMARK INTER + INTRA:          -4.611
REMARK INTER:                  -4.584
REMARK INTRA:                  -0.027
REMARK UNBOUND:                -0.027
REMARK SMILES O=C([O-])c1ccc(O)cc1
REMARK SMILES IDX 4 1 5 2 10 3 6 4 9 5 7 6 2 7 1 8 3 9 8 10
REMARK H PARENT 8 11
REMARK Flexibility Score: inf
ROOT
ATOM      1  C   UNL     1      11.220   3.588 -18.943  1.00  0.00    -0.003 A 
ATOM      2  C   UNL     1      11.162   3.092 -20.257  1.00  0.00     0.014 A 
ATOM      3  C   UNL     1      10.025   3.741 -18.218  1.00  0.00     0.014 A 
ATOM      4  C   UNL     1       9.933   2.757 -20.834  1.00  0.00     0.047 A 
ATOM      5  C   UNL     1       8.798   3.405 -18.798  1.00  0.00     0.047 A 
ATOM      6  C   UNL     1       8.748   2.912 -20.108  1.00  0.00     0.115 A 
ENDROOT
BRANCH   1   7
ATOM      7  C   UNL     1      12.517   3.944 -18.327  1.00  0.00     0.071 C 
ATOM      8  O   UNL     1      13.038   5.072 -18.537  1.00  0.00    -0.545 OA
ATOM      9  O   UNL     1      13.180   3.040 -17.506  1.00  0.00    -0.545 OA
ENDBRANCH   1   7
BRANCH   6  10
ATOM     10  O   UNL     1       7.532   2.574 -20.696  1.00  0.00    -0.508 OA
ATOM     11  H   UNL     1       7.186   3.062 -21.514  1.00  0.00     0.293 HD
ENDBRANCH   6  10
TORSDOF 2
ENDMDL
MODEL 2
REMARK VINA RESULT:    -4.212      0.068      1.533
REMARK INTER + INTRA:          -4.608
REMARK INTER:                  -4.581
REMARK INTRA:                  -0.027
REMARK UNBOUND:                -0.027
REMARK SMILES O=C([O-])c1ccc(O)cc1
REMARK SMILES IDX 4 1 5 2 10 3 6 4 9 5 7 6 2 7 1 8 3 9 8 10
REMARK H PARENT 8 11
REMARK Flexibility Score: inf
ROOT
ATOM      1  C   UNL     1      11.211   3.606 -18.929  1.00  0.00    -0.003 A 
ATOM      2  C   UNL     1       9.999   3.759 -18.234  1.00  0.00     0.014 A 
ATOM      3  C   UNL     1      11.188   3.084 -20.235  1.00  0.00     0.014 A 
ATOM      4  C   UNL     1       8.788   3.396 -18.833  1.00  0.00     0.047 A 
ATOM      5  C   UNL     1       9.976   2.724 -20.831  1.00  0.00     0.047 A 
ATOM      6  C   UNL     1       8.772   2.878 -20.131  1.00  0.00     0.115 A 
ENDROOT
BRANCH   1   7
ATOM      7  C   UNL     1      12.496   3.987 -18.301  1.00  0.00     0.071 C 
ATOM      8  O   UNL     1      12.951   5.155 -18.432  1.00  0.00    -0.545 OA
ATOM      9  O   UNL     1      13.218   3.062 -17.557  1.00  0.00    -0.545 OA
ENDBRANCH   1   7
BRANCH   6  10
ATOM     10  O   UNL     1       7.559   2.522 -20.715  1.00  0.00    -0.508 OA
ATOM     11  H   UNL     1       6.874   1.967 -20.215  1.00  0.00     0.293 HD
ENDBRANCH   6  10
TORSDOF 2
ENDMDL
MODEL 3
REMARK VINA RESULT:    -4.186     13.859     14.546
REMARK INTER + INTRA:          -4.580
REMARK INTER:                  -4.548
REMARK INTRA:                  -0.032
REMARK UNBOUND:                -0.027
REMARK SMILES O=C([O-])c1ccc(O)cc1
REMARK SMILES IDX 4 1 5 2 10 3 6 4 9 5 7 6 2 7 1 8 3 9 8 10
REMARK H PARENT 8 11
REMARK Flexibility Score: inf
ROOT
ATOM      1  C   UNL     1       9.680  -6.167  -8.330  1.00  0.00    -0.003 A 
ATOM      2  C   UNL     1       9.105  -5.608  -9.485  1.00  0.00     0.014 A 
ATOM      3  C   UNL     1       8.958  -6.136  -7.124  1.00  0.00     0.014 A 
ATOM      4  C   UNL     1       7.833  -5.028  -9.433  1.00  0.00     0.047 A 
ATOM      5  C   UNL     1       7.686  -5.556  -7.076  1.00  0.00     0.047 A 
ATOM      6  C   UNL     1       7.120  -5.000  -8.231  1.00  0.00     0.115 A 
ENDROOT
BRANCH   1   7
ATOM      7  C   UNL     1      11.025  -6.782  -8.378  1.00  0.00     0.071 C 
ATOM      8  O   UNL     1      11.264  -7.850  -7.753  1.00  0.00    -0.545 OA
ATOM      9  O   UNL     1      12.045  -6.190  -9.114  1.00  0.00    -0.545 OA
ENDBRANCH   1   7
BRANCH   6  10
ATOM     10  O   UNL     1       5.855  -4.420  -8.195  1.00  0.00    -0.508 OA
ATOM     11  H   UNL     1       5.292  -4.429  -7.351  1.00  0.00     0.293 HD
ENDBRANCH   6  10
TORSDOF 2
ENDMDL
MODEL 4
REMARK VINA RESULT:    -4.123     15.842     17.411
REMARK INTER + INTRA:          -4.512
REMARK INTER:                  -4.477
REMARK INTRA:                  -0.035
REMARK UNBOUND:                -0.027
REMARK SMILES O=C([O-])c1ccc(O)cc1
REMARK SMILES IDX 4 1 5 2 10 3 6 4 9 5 7 6 2 7 1 8 3 9 8 10
REMARK H PARENT 8 11
REMARK Flexibility Score: inf
ROOT
ATOM      1  C   UNL     1      21.877  -2.751  -7.135  1.00  0.00    -0.003 A 
ATOM      2  C   UNL     1      21.364  -3.124  -5.880  1.00  0.00     0.014 A 
ATOM      3  C   UNL     1      20.981  -2.407  -8.163  1.00  0.00     0.014 A 
ATOM      4  C   UNL     1      19.983  -3.151  -5.659  1.00  0.00     0.047 A 
ATOM      5  C   UNL     1      19.601  -2.435  -7.938  1.00  0.00     0.047 A 
ATOM      6  C   UNL     1      19.099  -2.808  -6.685  1.00  0.00     0.115 A 
ENDROOT
BRANCH   1   7
ATOM      7  C   UNL     1      23.336  -2.721  -7.376  1.00  0.00     0.071 C 
ATOM      8  O   UNL     1      24.125  -3.343  -6.615  1.00  0.00    -0.545 OA
ATOM      9  O   UNL     1      23.859  -2.004  -8.446  1.00  0.00    -0.545 OA
ENDBRANCH   1   7
BRANCH   6  10
ATOM     10  O   UNL     1      17.726  -2.839  -6.449  1.00  0.00    -0.508 OA
ATOM     11  H   UNL     1      17.300  -2.269  -5.728  1.00  0.00     0.293 HD
ENDBRANCH   6  10
TORSDOF 2
ENDMDL
MODEL 5
REMARK VINA RESULT:    -4.033      1.850      2.333
REMARK INTER + INTRA:          -4.413
REMARK INTER:                  -4.386
REMARK INTRA:                  -0.027
REMARK UNBOUND:                -0.027
REMARK SMILES O=C([O-])c1ccc(O)cc1
REMARK SMILES IDX 4 1 5 2 10 3 6 4 9 5 7 6 2 7 1 8 3 9 8 10
REMARK H PARENT 8 11
REMARK Flexibility Score: inf
ROOT
ATOM      1  C   UNL     1      12.474   4.697 -18.613  1.00  0.00    -0.003 A 
ATOM      2  C   UNL     1      12.288   3.324 -18.372  1.00  0.00     0.014 A 
ATOM      3  C   UNL     1      11.768   5.307 -19.665  1.00  0.00     0.014 A 
ATOM      4  C   UNL     1      11.413   2.578 -19.168  1.00  0.00     0.047 A 
ATOM      5  C   UNL     1      10.894   4.558 -20.459  1.00  0.00     0.047 A 
ATOM      6  C   UNL     1      10.714   3.191 -20.212  1.00  0.00     0.115 A 
ENDROOT
BRANCH   1   7
ATOM      7  C   UNL     1      13.399   5.493 -17.775  1.00  0.00     0.071 C 
ATOM      8  O   UNL     1      12.955   6.230 -16.855  1.00  0.00    -0.545 OA
ATOM      9  O   UNL     1      14.770   5.438 -17.991  1.00  0.00    -0.545 OA
ENDBRANCH   1   7
BRANCH   6  10
ATOM     10  O   UNL     1       9.846   2.435 -20.996  1.00  0.00    -0.508 OA
ATOM     11  H   UNL     1       9.635   2.694 -21.953  1.00  0.00     0.293 HD
ENDBRANCH   6  10
TORSDOF 2
ENDMDL
MODEL 6
REMARK VINA RESULT:    -4.026      2.594      3.429
REMARK INTER + INTRA:          -4.406
REMARK INTER:                  -4.371
REMARK INTRA:                  -0.034
REMARK UNBOUND:                -0.027
REMARK SMILES O=C([O-])c1ccc(O)cc1
REMARK SMILES IDX 4 1 5 2 10 3 6 4 9 5 7 6 2 7 1 8 3 9 8 10
REMARK H PARENT 8 11
REMARK Flexibility Score: inf
ROOT
ATOM      1  C   UNL     1       9.161   4.291 -18.541  1.00  0.00    -0.003 A 
ATOM      2  C   UNL     1       8.583   3.241 -19.277  1.00  0.00     0.014 A 
ATOM      3  C   UNL     1      10.391   4.825 -18.966  1.00  0.00     0.014 A 
ATOM      4  C   UNL     1       9.223   2.736 -20.413  1.00  0.00     0.047 A 
ATOM      5  C   UNL     1      11.027   4.318 -20.103  1.00  0.00     0.047 A 
ATOM      6  C   UNL     1      10.446   3.271 -20.829  1.00  0.00     0.115 A 
ENDROOT
BRANCH   1   7
ATOM      7  C   UNL     1       8.489   4.829 -17.338  1.00  0.00     0.071 C 
ATOM      8  O   UNL     1       9.157   5.396 -16.431  1.00  0.00    -0.545 OA
ATOM      9  O   UNL     1       7.112   4.720 -17.191  1.00  0.00    -0.545 OA
ENDBRANCH   1   7
BRANCH   6  10
ATOM     10  O   UNL     1      11.071   2.758 -21.963  1.00  0.00    -0.508 OA
ATOM     11  H   UNL     1      11.694   1.960 -21.909  1.00  0.00     0.293 HD
ENDBRANCH   6  10
TORSDOF 2
ENDMDL
MODEL 7
REMARK VINA RESULT:    -3.981     15.462     16.355
REMARK INTER + INTRA:          -4.357
REMARK INTER:                  -4.330
REMARK INTRA:                  -0.027
REMARK UNBOUND:                -0.027
REMARK SMILES O=C([O-])c1ccc(O)cc1
REMARK SMILES IDX 4 1 5 2 10 3 6 4 9 5 7 6 2 7 1 8 3 9 8 10
REMARK H PARENT 8 11
REMARK Flexibility Score: inf
ROOT
ATOM      1  C   UNL     1       8.408  -6.251  -7.501  1.00  0.00    -0.003 A 
ATOM      2  C   UNL     1       8.324  -5.397  -6.387  1.00  0.00     0.014 A 
ATOM      3  C   UNL     1       8.088  -7.611  -7.343  1.00  0.00     0.014 A 
ATOM      4  C   UNL     1       7.929  -5.895  -5.141  1.00  0.00     0.047 A 
ATOM      5  C   UNL     1       7.694  -8.105  -6.097  1.00  0.00     0.047 A 
ATOM      6  C   UNL     1       7.613  -7.249  -4.992  1.00  0.00     0.115 A 
ENDROOT
BRANCH   1   7
ATOM      7  C   UNL     1       8.825  -5.731  -8.822  1.00  0.00     0.071 C 
ATOM      8  O   UNL     1       9.989  -5.943  -9.255  1.00  0.00    -0.545 OA
ATOM      9  O   UNL     1       7.938  -5.001  -9.604  1.00  0.00    -0.545 OA
ENDBRANCH   1   7
BRANCH   6  10
ATOM     10  O   UNL     1       7.221  -7.729  -3.745  1.00  0.00    -0.508 OA
ATOM     11  H   UNL     1       7.518  -7.279  -2.886  1.00  0.00     0.293 HD
ENDBRANCH   6  10
TORSDOF 2
ENDMDL
MODEL 8
REMARK VINA RESULT:    -3.946     14.314     15.144
REMARK INTER + INTRA:          -4.319
REMARK INTER:                  -4.292
REMARK INTRA:                  -0.027
REMARK UNBOUND:                -0.027
REMARK SMILES O=C([O-])c1ccc(O)cc1
REMARK SMILES IDX 4 1 5 2 10 3 6 4 9 5 7 6 2 7 1 8 3 9 8 10
REMARK H PARENT 8 11
REMARK Flexibility Score: inf
ROOT
ATOM      1  C   UNL     1       8.408  -5.809  -7.064  1.00  0.00    -0.003 A 
ATOM      2  C   UNL     1       7.518  -5.314  -8.034  1.00  0.00     0.014 A 
ATOM      3  C   UNL     1       9.715  -6.155  -7.452  1.00  0.00     0.014 A 
ATOM      4  C   UNL     1       7.927  -5.169  -9.363  1.00  0.00     0.047 A 
ATOM      5  C   UNL     1      10.121  -6.008  -8.782  1.00  0.00     0.047 A 
ATOM      6  C   UNL     1       9.228  -5.515  -9.742  1.00  0.00     0.115 A 
ENDROOT
BRANCH   1   7
ATOM      7  C   UNL     1       7.982  -5.965  -5.656  1.00  0.00     0.071 C 
ATOM      8  O   UNL     1       7.988  -4.978  -4.872  1.00  0.00    -0.545 OA
ATOM      9  O   UNL     1       7.567  -7.202  -5.178  1.00  0.00    -0.545 OA
ENDBRANCH   1   7
BRANCH   6  10
ATOM     10  O   UNL     1       9.620  -5.365 -11.069  1.00  0.00    -0.508 OA
ATOM     11  H   UNL     1       9.291  -4.591 -11.634  1.00  0.00     0.293 HD
ENDBRANCH   6  10
TORSDOF 2
ENDMDL
MODEL 9
REMARK VINA RESULT:    -1.384      8.512      9.538
REMARK INTER + INTRA:          -1.533
REMARK INTER:                  -1.498
REMARK INTRA:                  -0.034
REMARK UNBOUND:                -0.027
REMARK SMILES O=C([O-])c1ccc(O)cc1
REMARK SMILES IDX 4 1 5 2 10 3 6 4 9 5 7 6 2 7 1 8 3 9 8 10
REMARK H PARENT 8 11
REMARK Flexibility Score: inf
ROOT
ATOM      1  C   UNL     1      11.767   5.533  -9.532  1.00  0.00    -0.003 A 
ATOM      2  C   UNL     1      11.216   4.243  -9.436  1.00  0.00     0.014 A 
ATOM      3  C   UNL     1      11.528   6.293 -10.690  1.00  0.00     0.014 A 
ATOM      4  C   UNL     1      10.442   3.725 -10.480  1.00  0.00     0.047 A 
ATOM      5  C   UNL     1      10.753   5.772 -11.731  1.00  0.00     0.047 A 
ATOM      6  C   UNL     1      10.208   4.486 -11.629  1.00  0.00     0.115 A 
ENDROOT
BRANCH   1   7
ATOM      7  C   UNL     1      12.587   6.087  -8.432  1.00  0.00     0.071 C 
ATOM      8  O   UNL     1      13.453   6.974  -8.662  1.00  0.00    -0.545 OA
ATOM      9  O   UNL     1      12.414   5.638  -7.128  1.00  0.00    -0.545 OA
ENDBRANCH   1   7
BRANCH   6  10
ATOM     10  O   UNL     1       9.435   3.957 -12.659  1.00  0.00    -0.508 OA
ATOM     11  H   UNL     1       9.765   3.184 -13.226  1.00  0.00     0.293 HD
ENDBRANCH   6  10
TORSDOF 2
ENDMDL
