MODEL 1
REMARK VINA RESULT:    -8.836      0.000      0.000
REMARK INTER + INTRA:         -10.417
REMARK INTER:                 -10.128
REMARK INTRA:                  -0.289
REMARK UNBOUND:                -0.289
REMARK SMILES O=C1C[C@H](c2ccc(O)cc2)Oc2cc(O)cc(O)c21
REMARK SMILES IDX 3 1 4 2 12 3 13 4 14 5 15 6 17 7 18 8 20 9 2 10 1 11 5 12
REMARK SMILES IDX 6 13 11 14 7 15 10 16 8 17 9 18 19 20 16 22
REMARK H PARENT 9 19 19 21 16 23
REMARK Flexibility Score: inf
ROOT
ATOM      1  C   UNL     1     -30.035  16.347  56.733  1.00  0.00     0.131 C 
ATOM      2  C   UNL     1     -31.133  16.714  57.742  1.00  0.00     0.211 C 
ATOM      3  O   UNL     1     -31.366  18.125  57.741  1.00  0.00    -0.484 OA
ATOM      4  C   UNL     1     -30.330  19.063  57.630  1.00  0.00     0.138 A 
ATOM      5  C   UNL     1     -30.598  20.404  57.914  1.00  0.00     0.093 A 
ATOM      6  C   UNL     1     -29.585  21.359  57.826  1.00  0.00     0.123 A 
ATOM      7  C   UNL     1     -28.302  20.975  57.422  1.00  0.00     0.093 A 
ATOM      8  C   UNL     1     -28.020  19.643  57.094  1.00  0.00     0.133 A 
ATOM      9  C   UNL     1     -29.037  18.662  57.228  1.00  0.00     0.102 A 
ATOM     10  C   UNL     1     -28.835  17.213  56.977  1.00  0.00     0.174 C 
ATOM     11  O   UNL     1     -27.692  16.686  57.018  1.00  0.00    -0.294 OA
ENDROOT
BRANCH   2  12
ATOM     12  C   UNL     1     -32.412  15.977  57.429  1.00  0.00    -0.007 A 
ATOM     13  C   UNL     1     -33.012  15.144  58.391  1.00  0.00     0.011 A 
ATOM     14  C   UNL     1     -33.048  16.159  56.189  1.00  0.00     0.011 A 
ATOM     15  C   UNL     1     -34.212  14.488  58.106  1.00  0.00     0.046 A 
ATOM     16  C   UNL     1     -34.249  15.500  55.907  1.00  0.00     0.046 A 
ATOM     17  C   UNL     1     -34.833  14.662  56.866  1.00  0.00     0.115 A 
BRANCH  17  18
ATOM     18  O   UNL     1     -36.030  14.001  56.597  1.00  0.00    -0.508 OA
ATOM     19  H   UNL     1     -36.362  13.874  55.648  1.00  0.00     0.293 HD
ENDBRANCH  17  18
ENDBRANCH   2  12
BRANCH   8  20
ATOM     20  O   UNL     1     -26.742  19.356  56.611  1.00  0.00    -0.507 OA
ATOM     21  H   UNL     1     -25.924  19.265  57.196  1.00  0.00     0.293 HD
ENDBRANCH   8  20
BRANCH   6  22
ATOM     22  O   UNL     1     -29.865  22.688  58.134  1.00  0.00    -0.508 OA
ATOM     23  H   UNL     1     -29.343  23.189  58.845  1.00  0.00     0.293 HD
ENDBRANCH   6  22
TORSDOF 4
ENDMDL
MODEL 2
REMARK VINA RESULT:    -8.692      1.883      2.752
REMARK INTER + INTRA:         -10.252
REMARK INTER:                  -9.964
REMARK INTRA:                  -0.287
REMARK UNBOUND:                -0.289
REMARK SMILES O=C1C[C@H](c2ccc(O)cc2)Oc2cc(O)cc(O)c21
REMARK SMILES IDX 3 1 4 2 12 3 13 4 14 5 15 6 17 7 18 8 20 9 2 10 1 11 5 12
REMARK SMILES IDX 6 13 11 14 7 15 10 16 8 17 9 18 19 20 16 22
REMARK H PARENT 9 19 19 21 16 23
REMARK Flexibility Score: inf
ROOT
ATOM      1  C   UNL     1     -31.375  17.617  56.181  1.00  0.00     0.131 C 
ATOM      2  C   UNL     1     -30.741  16.287  56.612  1.00  0.00     0.211 C 
ATOM      3  O   UNL     1     -29.734  16.509  57.604  1.00  0.00    -0.484 OA
ATOM      4  C   UNL     1     -28.849  17.595  57.554  1.00  0.00     0.138 A 
ATOM      5  C   UNL     1     -27.728  17.594  58.387  1.00  0.00     0.093 A 
ATOM      6  C   UNL     1     -26.823  18.655  58.352  1.00  0.00     0.123 A 
ATOM      7  C   UNL     1     -27.055  19.738  57.498  1.00  0.00     0.093 A 
ATOM      8  C   UNL     1     -28.193  19.779  56.683  1.00  0.00     0.133 A 
ATOM      9  C   UNL     1     -29.091  18.680  56.683  1.00  0.00     0.102 A 
ATOM     10  C   UNL     1     -30.289  18.583  55.812  1.00  0.00     0.174 C 
ATOM     11  O   UNL     1     -30.389  19.247  54.746  1.00  0.00    -0.294 OA
ENDROOT
BRANCH   2  12
ATOM     12  C   UNL     1     -31.791  15.343  57.143  1.00  0.00    -0.007 A 
ATOM     13  C   UNL     1     -31.909  14.040  56.626  1.00  0.00     0.011 A 
ATOM     14  C   UNL     1     -32.629  15.737  58.200  1.00  0.00     0.011 A 
ATOM     15  C   UNL     1     -32.863  13.159  57.141  1.00  0.00     0.046 A 
ATOM     16  C   UNL     1     -33.583  14.854  58.713  1.00  0.00     0.046 A 
ATOM     17  C   UNL     1     -33.703  13.562  58.184  1.00  0.00     0.115 A 
BRANCH  17  18
ATOM     18  O   UNL     1     -34.650  12.673  58.687  1.00  0.00    -0.508 OA
ATOM     19  H   UNL     1     -34.439  12.058  59.464  1.00  0.00     0.293 HD
ENDBRANCH  17  18
ENDBRANCH   2  12
BRANCH   8  20
ATOM     20  O   UNL     1     -28.402  20.935  55.928  1.00  0.00    -0.507 OA
ATOM     21  H   UNL     1     -27.911  21.148  55.073  1.00  0.00     0.293 HD
ENDBRANCH   8  20
BRANCH   6  22
ATOM     22  O   UNL     1     -25.699  18.626  59.174  1.00  0.00    -0.508 OA
ATOM     23  H   UNL     1     -25.741  18.258  60.118  1.00  0.00     0.293 HD
ENDBRANCH   6  22
TORSDOF 4
ENDMDL
MODEL 3
REMARK VINA RESULT:    -8.538      1.995      2.966
REMARK INTER + INTRA:         -10.075
REMARK INTER:                  -9.755
REMARK INTRA:                  -0.320
REMARK UNBOUND:                -0.289
REMARK SMILES O=C1C[C@H](c2ccc(O)cc2)Oc2cc(O)cc(O)c21
REMARK SMILES IDX 3 1 4 2 12 3 13 4 14 5 15 6 17 7 18 8 20 9 2 10 1 11 5 12
REMARK SMILES IDX 6 13 11 14 7 15 10 16 8 17 9 18 19 20 16 22
REMARK H PARENT 9 19 19 21 16 23
REMARK Flexibility Score: inf
ROOT
ATOM      1  C   UNL     1     -30.889  17.666  58.274  1.00  0.00     0.131 C 
ATOM      2  C   UNL     1     -31.519  17.226  56.944  1.00  0.00     0.211 C 
ATOM      3  O   UNL     1     -30.569  17.330  55.880  1.00  0.00    -0.484 OA
ATOM      4  C   UNL     1     -29.658  18.391  55.778  1.00  0.00     0.138 A 
ATOM      5  C   UNL     1     -28.961  18.574  54.582  1.00  0.00     0.093 A 
ATOM      6  C   UNL     1     -28.057  19.628  54.446  1.00  0.00     0.123 A 
ATOM      7  C   UNL     1     -27.828  20.489  55.525  1.00  0.00     0.093 A 
ATOM      8  C   UNL     1     -28.486  20.301  56.747  1.00  0.00     0.133 A 
ATOM      9  C   UNL     1     -29.440  19.257  56.872  1.00  0.00     0.102 A 
ATOM     10  C   UNL     1     -30.246  19.008  58.093  1.00  0.00     0.174 C 
ATOM     11  O   UNL     1     -30.448  19.910  58.950  1.00  0.00    -0.294 OA
ENDROOT
BRANCH   2  12
ATOM     12  C   UNL     1     -32.036  15.813  57.040  1.00  0.00    -0.007 A 
ATOM     13  C   UNL     1     -31.869  14.915  55.971  1.00  0.00     0.011 A 
ATOM     14  C   UNL     1     -32.644  15.360  58.224  1.00  0.00     0.011 A 
ATOM     15  C   UNL     1     -32.323  13.598  56.076  1.00  0.00     0.046 A 
ATOM     16  C   UNL     1     -33.098  14.042  58.327  1.00  0.00     0.046 A 
ATOM     17  C   UNL     1     -32.939  13.158  57.252  1.00  0.00     0.115 A 
BRANCH  17  18
ATOM     18  O   UNL     1     -33.388  11.842  57.342  1.00  0.00    -0.508 OA
ATOM     19  H   UNL     1     -33.505  11.383  58.238  1.00  0.00     0.293 HD
ENDBRANCH  17  18
ENDBRANCH   2  12
BRANCH   8  20
ATOM     20  O   UNL     1     -28.134  21.144  57.803  1.00  0.00    -0.507 OA
ATOM     21  H   UNL     1     -27.322  21.009  58.387  1.00  0.00     0.293 HD
ENDBRANCH   8  20
BRANCH   6  22
ATOM     22  O   UNL     1     -27.388  19.807  53.239  1.00  0.00    -0.508 OA
ATOM     23  H   UNL     1     -27.609  20.579  52.619  1.00  0.00     0.293 HD
ENDBRANCH   6  22
TORSDOF 4
ENDMDL
MODEL 4
REMARK VINA RESULT:    -8.201      1.990      7.126
REMARK INTER + INTRA:          -9.689
REMARK INTER:                  -9.406
REMARK INTRA:                  -0.283
REMARK UNBOUND:                -0.289
REMARK SMILES O=C1C[C@H](c2ccc(O)cc2)Oc2cc(O)cc(O)c21
REMARK SMILES IDX 3 1 4 2 12 3 13 4 14 5 15 6 17 7 18 8 20 9 2 10 1 11 5 12
REMARK SMILES IDX 6 13 11 14 7 15 10 16 8 17 9 18 19 20 16 22
REMARK H PARENT 9 19 19 21 16 23
REMARK Flexibility Score: inf
ROOT
ATOM      1  C   UNL     1     -32.048  16.317  58.217  1.00  0.00     0.131 C 
ATOM      2  C   UNL     1     -31.634  16.458  56.745  1.00  0.00     0.211 C 
ATOM      3  O   UNL     1     -32.782  16.408  55.894  1.00  0.00    -0.484 OA
ATOM      4  C   UNL     1     -33.859  15.540  56.124  1.00  0.00     0.138 A 
ATOM      5  C   UNL     1     -34.803  15.349  55.112  1.00  0.00     0.093 A 
ATOM      6  C   UNL     1     -35.877  14.481  55.306  1.00  0.00     0.123 A 
ATOM      7  C   UNL     1     -36.025  13.821  56.531  1.00  0.00     0.093 A 
ATOM      8  C   UNL     1     -35.113  14.028  57.573  1.00  0.00     0.133 A 
ATOM      9  C   UNL     1     -33.993  14.875  57.362  1.00  0.00     0.102 A 
ATOM     10  C   UNL     1     -32.928  15.113  58.367  1.00  0.00     0.174 C 
ATOM     11  O   UNL     1     -32.710  14.303  59.307  1.00  0.00    -0.294 OA
ENDROOT
BRANCH   2  12
ATOM     12  C   UNL     1     -30.880  17.745  56.524  1.00  0.00    -0.007 A 
ATOM     13  C   UNL     1     -30.923  18.774  57.483  1.00  0.00     0.011 A 
ATOM     14  C   UNL     1     -30.081  17.910  55.380  1.00  0.00     0.011 A 
ATOM     15  C   UNL     1     -30.199  19.953  57.287  1.00  0.00     0.046 A 
ATOM     16  C   UNL     1     -29.357  19.091  55.187  1.00  0.00     0.046 A 
ATOM     17  C   UNL     1     -29.416  20.116  56.141  1.00  0.00     0.115 A 
BRANCH  17  18
ATOM     18  O   UNL     1     -28.699  21.297  55.959  1.00  0.00    -0.508 OA
ATOM     19  H   UNL     1     -28.029  21.399  55.206  1.00  0.00     0.293 HD
ENDBRANCH  17  18
ENDBRANCH   2  12
BRANCH   8  20
ATOM     20  O   UNL     1     -35.381  13.407  58.795  1.00  0.00    -0.507 OA
ATOM     21  H   UNL     1     -35.992  12.611  58.902  1.00  0.00     0.293 HD
ENDBRANCH   8  20
BRANCH   6  22
ATOM     22  O   UNL     1     -36.796  14.286  54.278  1.00  0.00    -0.508 OA
ATOM     23  H   UNL     1     -37.093  13.356  54.001  1.00  0.00     0.293 HD
ENDBRANCH   6  22
TORSDOF 4
ENDMDL
MODEL 5
REMARK VINA RESULT:    -8.136      2.056      7.089
REMARK INTER + INTRA:          -9.615
REMARK INTER:                  -9.331
REMARK INTRA:                  -0.283
REMARK UNBOUND:                -0.289
REMARK SMILES O=C1C[C@H](c2ccc(O)cc2)Oc2cc(O)cc(O)c21
REMARK SMILES IDX 3 1 4 2 12 3 13 4 14 5 15 6 17 7 18 8 20 9 2 10 1 11 5 12
REMARK SMILES IDX 6 13 11 14 7 15 10 16 8 17 9 18 19 20 16 22
REMARK H PARENT 9 19 19 21 16 23
REMARK Flexibility Score: inf
ROOT
ATOM      1  C   UNL     1     -31.124  15.139  56.484  1.00  0.00     0.131 C 
ATOM      2  C   UNL     1     -31.790  16.369  57.117  1.00  0.00     0.211 C 
ATOM      3  O   UNL     1     -32.562  15.990  58.260  1.00  0.00    -0.484 OA
ATOM      4  C   UNL     1     -33.330  14.818  58.299  1.00  0.00     0.138 A 
ATOM      5  C   UNL     1     -34.266  14.655  59.323  1.00  0.00     0.093 A 
ATOM      6  C   UNL     1     -35.055  13.506  59.382  1.00  0.00     0.123 A 
ATOM      7  C   UNL     1     -34.886  12.499  58.426  1.00  0.00     0.093 A 
ATOM      8  C   UNL     1     -33.926  12.623  57.413  1.00  0.00     0.133 A 
ATOM      9  C   UNL     1     -33.156  13.812  57.324  1.00  0.00     0.102 A 
ATOM     10  C   UNL     1     -32.162  14.082  56.255  1.00  0.00     0.174 C 
ATOM     11  O   UNL     1     -32.204  13.487  55.146  1.00  0.00    -0.294 OA
ENDROOT
BRANCH   2  12
ATOM     12  C   UNL     1     -30.754  17.393  57.509  1.00  0.00    -0.007 A 
ATOM     13  C   UNL     1     -29.395  17.041  57.593  1.00  0.00     0.011 A 
ATOM     14  C   UNL     1     -31.130  18.727  57.742  1.00  0.00     0.011 A 
ATOM     15  C   UNL     1     -28.435  18.001  57.927  1.00  0.00     0.046 A 
ATOM     16  C   UNL     1     -30.168  19.685  58.077  1.00  0.00     0.046 A 
ATOM     17  C   UNL     1     -28.818  19.323  58.171  1.00  0.00     0.115 A 
BRANCH  17  18
ATOM     18  O   UNL     1     -27.850  20.269  58.504  1.00  0.00    -0.508 OA
ATOM     19  H   UNL     1     -26.976  20.000  58.942  1.00  0.00     0.293 HD
ENDBRANCH  17  18
ENDBRANCH   2  12
BRANCH   8  20
ATOM     20  O   UNL     1     -33.755  11.536  56.554  1.00  0.00    -0.507 OA
ATOM     21  H   UNL     1     -34.466  10.844  56.368  1.00  0.00     0.293 HD
ENDBRANCH   8  20
BRANCH   6  22
ATOM     22  O   UNL     1     -35.998  13.371  60.397  1.00  0.00    -0.508 OA
ATOM     23  H   UNL     1     -36.989  13.485  60.219  1.00  0.00     0.293 HD
ENDBRANCH   6  22
TORSDOF 4
ENDMDL
MODEL 6
REMARK VINA RESULT:    -8.111      1.852      7.515
REMARK INTER + INTRA:          -9.585
REMARK INTER:                  -9.300
REMARK INTRA:                  -0.286
REMARK UNBOUND:                -0.289
REMARK SMILES O=C1C[C@H](c2ccc(O)cc2)Oc2cc(O)cc(O)c21
REMARK SMILES IDX 3 1 4 2 12 3 13 4 14 5 15 6 17 7 18 8 20 9 2 10 1 11 5 12
REMARK SMILES IDX 6 13 11 14 7 15 10 16 8 17 9 18 19 20 16 22
REMARK H PARENT 9 19 19 21 16 23
REMARK Flexibility Score: inf
ROOT
ATOM      1  C   UNL     1     -33.122  15.917  55.782  1.00  0.00     0.131 C 
ATOM      2  C   UNL     1     -32.919  16.525  57.178  1.00  0.00     0.211 C 
ATOM      3  O   UNL     1     -33.231  15.567  58.193  1.00  0.00    -0.484 OA
ATOM      4  C   UNL     1     -34.309  14.677  58.089  1.00  0.00     0.138 A 
ATOM      5  C   UNL     1     -34.717  13.972  59.223  1.00  0.00     0.093 A 
ATOM      6  C   UNL     1     -35.795  13.089  59.155  1.00  0.00     0.123 A 
ATOM      7  C   UNL     1     -36.450  12.887  57.935  1.00  0.00     0.093 A 
ATOM      8  C   UNL     1     -36.032  13.552  56.776  1.00  0.00     0.133 A 
ATOM      9  C   UNL     1     -34.966  14.487  56.854  1.00  0.00     0.102 A 
ATOM     10  C   UNL     1     -34.486  15.299  55.709  1.00  0.00     0.174 C 
ATOM     11  O   UNL     1     -35.214  15.528  54.706  1.00  0.00    -0.294 OA
ENDROOT
BRANCH   2  12
ATOM     12  C   UNL     1     -31.502  17.015  57.345  1.00  0.00    -0.007 A 
ATOM     13  C   UNL     1     -30.414  16.180  57.030  1.00  0.00     0.011 A 
ATOM     14  C   UNL     1     -31.254  18.332  57.766  1.00  0.00     0.011 A 
ATOM     15  C   UNL     1     -29.104  16.649  57.159  1.00  0.00     0.046 A 
ATOM     16  C   UNL     1     -29.942  18.798  57.894  1.00  0.00     0.046 A 
ATOM     17  C   UNL     1     -28.863  17.956  57.591  1.00  0.00     0.115 A 
BRANCH  17  18
ATOM     18  O   UNL     1     -27.552  18.410  57.715  1.00  0.00    -0.508 OA
ATOM     19  H   UNL     1     -27.184  18.729  58.603  1.00  0.00     0.293 HD
ENDBRANCH  17  18
ENDBRANCH   2  12
BRANCH   8  20
ATOM     20  O   UNL     1     -36.677  13.227  55.581  1.00  0.00    -0.507 OA
ATOM     21  H   UNL     1     -37.530  12.691  55.526  1.00  0.00     0.293 HD
ENDBRANCH   8  20
BRANCH   6  22
ATOM     22  O   UNL     1     -36.202  12.412  60.301  1.00  0.00    -0.508 OA
ATOM     23  H   UNL     1     -35.592  11.753  60.773  1.00  0.00     0.293 HD
ENDBRANCH   6  22
TORSDOF 4
ENDMDL
MODEL 7
REMARK VINA RESULT:    -8.068      2.334      7.476
REMARK INTER + INTRA:          -9.536
REMARK INTER:                  -9.244
REMARK INTRA:                  -0.292
REMARK UNBOUND:                -0.289
REMARK SMILES O=C1C[C@H](c2ccc(O)cc2)Oc2cc(O)cc(O)c21
REMARK SMILES IDX 3 1 4 2 12 3 13 4 14 5 15 6 17 7 18 8 20 9 2 10 1 11 5 12
REMARK SMILES IDX 6 13 11 14 7 15 10 16 8 17 9 18 19 20 16 22
REMARK H PARENT 9 19 19 21 16 23
REMARK Flexibility Score: inf
ROOT
ATOM      1  C   UNL     1     -32.262  16.320  58.207  1.00  0.00     0.131 C 
ATOM      2  C   UNL     1     -31.090  15.701  57.431  1.00  0.00     0.211 C 
ATOM      3  O   UNL     1     -31.572  14.836  56.399  1.00  0.00    -0.484 OA
ATOM      4  C   UNL     1     -32.676  13.990  56.575  1.00  0.00     0.138 A 
ATOM      5  C   UNL     1     -32.915  12.984  55.636  1.00  0.00     0.093 A 
ATOM      6  C   UNL     1     -33.997  12.117  55.790  1.00  0.00     0.123 A 
ATOM      7  C   UNL     1     -34.864  12.276  56.877  1.00  0.00     0.093 A 
ATOM      8  C   UNL     1     -34.667  13.302  57.809  1.00  0.00     0.133 A 
ATOM      9  C   UNL     1     -33.540  14.156  57.680  1.00  0.00     0.102 A 
ATOM     10  C   UNL     1     -33.193  15.229  58.644  1.00  0.00     0.174 C 
ATOM     11  O   UNL     1     -33.615  15.216  59.831  1.00  0.00    -0.294 OA
ENDROOT
BRANCH   2  12
ATOM     12  C   UNL     1     -30.216  16.778  56.838  1.00  0.00    -0.007 A 
ATOM     13  C   UNL     1     -30.728  17.668  55.877  1.00  0.00     0.011 A 
ATOM     14  C   UNL     1     -28.892  16.938  57.281  1.00  0.00     0.011 A 
ATOM     15  C   UNL     1     -29.923  18.682  55.352  1.00  0.00     0.046 A 
ATOM     16  C   UNL     1     -28.088  17.954  56.754  1.00  0.00     0.046 A 
ATOM     17  C   UNL     1     -28.603  18.828  55.787  1.00  0.00     0.115 A 
BRANCH  17  18
ATOM     18  O   UNL     1     -27.811  19.843  55.255  1.00  0.00    -0.508 OA
ATOM     19  H   UNL     1     -27.579  19.872  54.269  1.00  0.00     0.293 HD
ENDBRANCH  17  18
ENDBRANCH   2  12
BRANCH   8  20
ATOM     20  O   UNL     1     -35.627  13.453  58.812  1.00  0.00    -0.507 OA
ATOM     21  H   UNL     1     -36.387  12.807  58.968  1.00  0.00     0.293 HD
ENDBRANCH   8  20
BRANCH   6  22
ATOM     22  O   UNL     1     -34.206  11.106  54.856  1.00  0.00    -0.508 OA
ATOM     23  H   UNL     1     -34.565  10.198  55.128  1.00  0.00     0.293 HD
ENDBRANCH   6  22
TORSDOF 4
ENDMDL
MODEL 8
REMARK VINA RESULT:    -7.673      2.104      6.993
REMARK INTER + INTRA:          -9.084
REMARK INTER:                  -8.798
REMARK INTRA:                  -0.285
REMARK UNBOUND:                -0.289
REMARK SMILES O=C1C[C@H](c2ccc(O)cc2)Oc2cc(O)cc(O)c21
REMARK SMILES IDX 3 1 4 2 12 3 13 4 14 5 15 6 17 7 18 8 20 9 2 10 1 11 5 12
REMARK SMILES IDX 6 13 11 14 7 15 10 16 8 17 9 18 19 20 16 22
REMARK H PARENT 9 19 19 21 16 23
REMARK Flexibility Score: inf
ROOT
ATOM      1  C   UNL     1     -30.806  15.239  56.819  1.00  0.00     0.131 C 
ATOM      2  C   UNL     1     -31.405  16.425  56.048  1.00  0.00     0.211 C 
ATOM      3  O   UNL     1     -32.832  16.417  56.144  1.00  0.00    -0.484 OA
ATOM      4  C   UNL     1     -33.588  15.237  56.092  1.00  0.00     0.138 A 
ATOM      5  C   UNL     1     -34.970  15.326  55.912  1.00  0.00     0.093 A 
ATOM      6  C   UNL     1     -35.747  14.170  55.843  1.00  0.00     0.123 A 
ATOM      7  C   UNL     1     -35.142  12.917  55.983  1.00  0.00     0.093 A 
ATOM      8  C   UNL     1     -33.764  12.805  56.205  1.00  0.00     0.133 A 
ATOM      9  C   UNL     1     -32.964  13.978  56.229  1.00  0.00     0.102 A 
ATOM     10  C   UNL     1     -31.488  13.976  56.385  1.00  0.00     0.174 C 
ATOM     11  O   UNL     1     -30.793  12.962  56.111  1.00  0.00    -0.294 OA
ENDROOT
BRANCH   2  12
ATOM     12  C   UNL     1     -30.858  17.730  56.569  1.00  0.00    -0.007 A 
ATOM     13  C   UNL     1     -30.364  18.704  55.682  1.00  0.00     0.011 A 
ATOM     14  C   UNL     1     -30.886  18.011  57.946  1.00  0.00     0.011 A 
ATOM     15  C   UNL     1     -29.886  19.924  56.168  1.00  0.00     0.046 A 
ATOM     16  C   UNL     1     -30.406  19.232  58.429  1.00  0.00     0.046 A 
ATOM     17  C   UNL     1     -29.904  20.192  57.540  1.00  0.00     0.115 A 
BRANCH  17  18
ATOM     18  O   UNL     1     -29.424  21.413  58.009  1.00  0.00    -0.508 OA
ATOM     19  H   UNL     1     -28.480  21.723  57.808  1.00  0.00     0.293 HD
ENDBRANCH  17  18
ENDBRANCH   2  12
BRANCH   8  20
ATOM     20  O   UNL     1     -33.250  11.526  56.428  1.00  0.00    -0.507 OA
ATOM     21  H   UNL     1     -33.567  10.698  55.947  1.00  0.00     0.293 HD
ENDBRANCH   8  20
BRANCH   6  22
ATOM     22  O   UNL     1     -37.121  14.277  55.640  1.00  0.00    -0.508 OA
ATOM     23  H   UNL     1     -37.588  15.177  55.635  1.00  0.00     0.293 HD
ENDBRANCH   6  22
TORSDOF 4
ENDMDL
