MODEL 1
REMARK VINA RESULT:    -3.527      0.000      0.000
REMARK INTER + INTRA:          -4.517
REMARK INTER:                  -4.352
REMARK INTRA:                  -0.166
REMARK UNBOUND:                -0.166
REMARK SMILES CCCCCC(=O)[O-]
REMARK SMILES IDX 4 1 5 2 6 3 7 4 8 5 3 6 2 7 1 8
REMARK H PARENT
REMARK Flexibility Score: inf
ROOT
ATOM      1  C   UNL     1      -6.182 -34.098  -9.212  1.00  0.00     0.006 C 
ENDROOT
BRANCH   1   2
ATOM      2  C   UNL     1      -6.461 -34.865 -10.511  1.00  0.00     0.053 C 
BRANCH   2   3
ATOM      3  C   UNL     1      -7.692 -35.712 -10.401  1.00  0.00     0.041 C 
ATOM      4  O   UNL     1      -8.825 -35.173 -10.288  1.00  0.00    -0.550 OA
ATOM      5  O   UNL     1      -7.591 -37.096 -10.456  1.00  0.00    -0.550 OA
ENDBRANCH   2   3
ENDBRANCH   1   2
BRANCH   1   6
ATOM      6  C   UNL     1      -5.411 -34.946  -8.189  1.00  0.00     0.000 C 
BRANCH   6   7
ATOM      7  C   UNL     1      -4.337 -35.795  -8.879  1.00  0.00    -0.003 C 
ATOM      8  C   UNL     1      -3.006 -35.709  -8.138  1.00  0.00     0.004 C 
ENDBRANCH   6   7
ENDBRANCH   1   6
TORSDOF 4
ENDMDL
MODEL 2
REMARK VINA RESULT:    -3.399      1.788      3.278
REMARK INTER + INTRA:          -4.359
REMARK INTER:                  -4.162
REMARK INTRA:                  -0.197
REMARK UNBOUND:                -0.166
REMARK SMILES CCCCCC(=O)[O-]
REMARK SMILES IDX 4 1 5 2 6 3 7 4 8 5 3 6 2 7 1 8
REMARK H PARENT
REMARK Flexibility Score: inf
ROOT
ATOM      1  C   UNL     1      -5.600 -35.442  -8.416  1.00  0.00     0.006 C 
ENDROOT
BRANCH   1   2
ATOM      2  C   UNL     1      -4.827 -36.401  -9.332  1.00  0.00     0.053 C 
BRANCH   2   3
ATOM      3  C   UNL     1      -5.524 -37.721  -9.468  1.00  0.00     0.041 C 
ATOM      4  O   UNL     1      -6.633 -37.913  -8.904  1.00  0.00    -0.550 OA
ATOM      5  O   UNL     1      -4.962 -38.726 -10.244  1.00  0.00    -0.550 OA
ENDBRANCH   2   3
ENDBRANCH   1   2
BRANCH   1   6
ATOM      6  C   UNL     1      -6.038 -34.165  -9.148  1.00  0.00     0.000 C 
BRANCH   6   7
ATOM      7  C   UNL     1      -6.703 -34.501 -10.488  1.00  0.00    -0.003 C 
ATOM      8  C   UNL     1      -8.141 -34.969 -10.289  1.00  0.00     0.004 C 
ENDBRANCH   6   7
ENDBRANCH   1   6
TORSDOF 4
ENDMDL
MODEL 3
REMARK VINA RESULT:    -3.390      1.474      1.775
REMARK INTER + INTRA:          -4.348
REMARK INTER:                  -4.228
REMARK INTRA:                  -0.120
REMARK UNBOUND:                -0.166
REMARK SMILES CCCCCC(=O)[O-]
REMARK SMILES IDX 4 1 5 2 6 3 7 4 8 5 3 6 2 7 1 8
REMARK H PARENT
REMARK Flexibility Score: inf
ROOT
ATOM      1  C   UNL     1      -6.500 -36.695  -9.031  1.00  0.00     0.006 C 
ENDROOT
BRANCH   1   2
ATOM      2  C   UNL     1      -7.334 -36.588 -10.315  1.00  0.00     0.053 C 
BRANCH   2   3
ATOM      3  C   UNL     1      -8.017 -35.259 -10.424  1.00  0.00     0.041 C 
ATOM      4  O   UNL     1      -7.405 -34.204 -10.111  1.00  0.00    -0.550 OA
ATOM      5  O   UNL     1      -9.319 -35.184 -10.901  1.00  0.00    -0.550 OA
ENDBRANCH   2   3
ENDBRANCH   1   2
BRANCH   1   6
ATOM      6  C   UNL     1      -4.992 -36.607  -9.308  1.00  0.00     0.000 C 
BRANCH   6   7
ATOM      7  C   UNL     1      -4.373 -35.399  -8.595  1.00  0.00    -0.003 C 
ATOM      8  C   UNL     1      -2.965 -35.714  -8.099  1.00  0.00     0.004 C 
ENDBRANCH   6   7
ENDBRANCH   1   6
TORSDOF 4
ENDMDL
MODEL 4
REMARK VINA RESULT:    -3.346      2.776      3.495
REMARK INTER + INTRA:          -4.294
REMARK INTER:                  -4.193
REMARK INTRA:                  -0.101
REMARK UNBOUND:                -0.166
REMARK SMILES CCCCCC(=O)[O-]
REMARK SMILES IDX 4 1 5 2 6 3 7 4 8 5 3 6 2 7 1 8
REMARK H PARENT
REMARK Flexibility Score: inf
ROOT
ATOM      1  C   UNL     1      -5.800 -37.480  -9.391  1.00  0.00     0.006 C 
ENDROOT
BRANCH   1   2
ATOM      2  C   UNL     1      -5.060 -38.608 -10.121  1.00  0.00     0.053 C 
BRANCH   2   3
ATOM      3  C   UNL     1      -5.979 -39.740 -10.469  1.00  0.00     0.041 C 
ATOM      4  O   UNL     1      -6.323 -40.571  -9.588  1.00  0.00    -0.550 OA
ATOM      5  O   UNL     1      -6.480 -39.856 -11.759  1.00  0.00    -0.550 OA
ENDBRANCH   2   3
ENDBRANCH   1   2
BRANCH   1   6
ATOM      6  C   UNL     1      -5.271 -36.091  -9.779  1.00  0.00     0.000 C 
BRANCH   6   7
ATOM      7  C   UNL     1      -4.705 -35.358  -8.558  1.00  0.00    -0.003 C 
ATOM      8  C   UNL     1      -3.252 -35.749  -8.304  1.00  0.00     0.004 C 
ENDBRANCH   6   7
ENDBRANCH   1   6
TORSDOF 4
ENDMDL
MODEL 5
REMARK VINA RESULT:    -3.280      2.192      4.092
REMARK INTER + INTRA:          -4.212
REMARK INTER:                  -4.056
REMARK INTRA:                  -0.156
REMARK UNBOUND:                -0.166
REMARK SMILES CCCCCC(=O)[O-]
REMARK SMILES IDX 4 1 5 2 6 3 7 4 8 5 3 6 2 7 1 8
REMARK H PARENT
REMARK Flexibility Score: inf
ROOT
ATOM      1  C   UNL     1      -6.104 -33.991  -9.164  1.00  0.00     0.006 C 
ENDROOT
BRANCH   1   2
ATOM      2  C   UNL     1      -5.709 -35.142  -8.229  1.00  0.00     0.053 C 
BRANCH   2   3
ATOM      3  C   UNL     1      -4.568 -35.940  -8.783  1.00  0.00     0.041 C 
ATOM      4  O   UNL     1      -4.783 -37.033  -9.369  1.00  0.00    -0.550 OA
ATOM      5  O   UNL     1      -3.269 -35.458  -8.681  1.00  0.00    -0.550 OA
ENDBRANCH   2   3
ENDBRANCH   1   2
BRANCH   1   6
ATOM      6  C   UNL     1      -7.080 -34.441 -10.260  1.00  0.00     0.000 C 
BRANCH   6   7
ATOM      7  C   UNL     1      -8.263 -35.210  -9.660  1.00  0.00    -0.003 C 
ATOM      8  C   UNL     1      -9.344 -35.463 -10.706  1.00  0.00     0.004 C 
ENDBRANCH   6   7
ENDBRANCH   1   6
TORSDOF 4
ENDMDL
MODEL 6
REMARK VINA RESULT:    -3.273      0.986      1.728
REMARK INTER + INTRA:          -4.204
REMARK INTER:                  -3.974
REMARK INTRA:                  -0.230
REMARK UNBOUND:                -0.166
REMARK SMILES CCCCCC(=O)[O-]
REMARK SMILES IDX 4 1 5 2 6 3 7 4 8 5 3 6 2 7 1 8
REMARK H PARENT
REMARK Flexibility Score: inf
ROOT
ATOM      1  C   UNL     1      -6.559 -34.792 -10.441  1.00  0.00     0.006 C 
ENDROOT
BRANCH   1   2
ATOM      2  C   UNL     1      -8.031 -35.197 -10.287  1.00  0.00     0.053 C 
BRANCH   2   3
ATOM      3  C   UNL     1      -8.205 -36.684 -10.334  1.00  0.00     0.041 C 
ATOM      4  O   UNL     1      -7.200 -37.438 -10.423  1.00  0.00    -0.550 OA
ATOM      5  O   UNL     1      -9.475 -37.238 -10.246  1.00  0.00    -0.550 OA
ENDBRANCH   2   3
ENDBRANCH   1   2
BRANCH   1   6
ATOM      6  C   UNL     1      -6.021 -34.070  -9.198  1.00  0.00     0.000 C 
BRANCH   6   7
ATOM      7  C   UNL     1      -5.358 -35.059  -8.232  1.00  0.00    -0.003 C 
ATOM      8  C   UNL     1      -4.297 -35.895  -8.941  1.00  0.00     0.004 C 
ENDBRANCH   6   7
ENDBRANCH   1   6
TORSDOF 4
ENDMDL
MODEL 7
REMARK VINA RESULT:    -3.269      2.625      3.531
REMARK INTER + INTRA:          -4.198
REMARK INTER:                  -4.144
REMARK INTRA:                  -0.054
REMARK UNBOUND:                -0.166
REMARK SMILES CCCCCC(=O)[O-]
REMARK SMILES IDX 4 1 5 2 6 3 7 4 8 5 3 6 2 7 1 8
REMARK H PARENT
REMARK Flexibility Score: inf
ROOT
ATOM      1  C   UNL     1      -4.824 -36.600  -9.452  1.00  0.00     0.006 C 
ENDROOT
BRANCH   1   2
ATOM      2  C   UNL     1      -5.377 -35.445  -8.607  1.00  0.00     0.053 C 
BRANCH   2   3
ATOM      3  C   UNL     1      -6.158 -34.474  -9.439  1.00  0.00     0.041 C 
ATOM      4  O   UNL     1      -6.249 -34.635 -10.685  1.00  0.00    -0.550 OA
ATOM      5  O   UNL     1      -6.810 -33.407  -8.834  1.00  0.00    -0.550 OA
ENDBRANCH   2   3
ENDBRANCH   1   2
BRANCH   1   6
ATOM      6  C   UNL     1      -5.756 -37.821  -9.448  1.00  0.00     0.000 C 
BRANCH   6   7
ATOM      7  C   UNL     1      -5.185 -38.949 -10.315  1.00  0.00    -0.003 C 
ATOM      8  C   UNL     1      -6.277 -39.607 -11.154  1.00  0.00     0.004 C 
ENDBRANCH   6   7
ENDBRANCH   1   6
TORSDOF 4
ENDMDL
MODEL 8
REMARK VINA RESULT:    -3.251      2.547      3.381
REMARK INTER + INTRA:          -4.176
REMARK INTER:                  -4.077
REMARK INTRA:                  -0.099
REMARK UNBOUND:                -0.166
REMARK SMILES CCCCCC(=O)[O-]
REMARK SMILES IDX 4 1 5 2 6 3 7 4 8 5 3 6 2 7 1 8
REMARK H PARENT
REMARK Flexibility Score: inf
ROOT
ATOM      1  C   UNL     1      -4.911 -36.429  -9.570  1.00  0.00     0.006 C 
ENDROOT
BRANCH   1   2
ATOM      2  C   UNL     1      -6.099 -37.342  -9.240  1.00  0.00     0.053 C 
BRANCH   2   3
ATOM      3  C   UNL     1      -5.855 -38.752  -9.686  1.00  0.00     0.041 C 
ATOM      4  O   UNL     1      -4.914 -39.012 -10.480  1.00  0.00    -0.550 OA
ATOM      5  O   UNL     1      -6.649 -39.782  -9.197  1.00  0.00    -0.550 OA
ENDBRANCH   2   3
ENDBRANCH   1   2
BRANCH   1   6
ATOM      6  C   UNL     1      -4.739 -35.303  -8.540  1.00  0.00     0.000 C 
BRANCH   6   7
ATOM      7  C   UNL     1      -6.100 -34.800  -8.045  1.00  0.00    -0.003 C 
ATOM      8  C   UNL     1      -6.664 -33.728  -8.974  1.00  0.00     0.004 C 
ENDBRANCH   6   7
ENDBRANCH   1   6
TORSDOF 4
ENDMDL
MODEL 9
REMARK VINA RESULT:    -3.174      3.526      4.331
REMARK INTER + INTRA:          -4.082
REMARK INTER:                  -3.966
REMARK INTRA:                  -0.116
REMARK UNBOUND:                -0.166
REMARK SMILES CCCCCC(=O)[O-]
REMARK SMILES IDX 4 1 5 2 6 3 7 4 8 5 3 6 2 7 1 8
REMARK H PARENT
REMARK Flexibility Score: inf
ROOT
ATOM      1  C   UNL     1      -6.277 -37.201  -9.138  1.00  0.00     0.006 C 
ENDROOT
BRANCH   1   2
ATOM      2  C   UNL     1      -4.803 -36.895  -9.436  1.00  0.00     0.053 C 
BRANCH   2   3
ATOM      3  C   UNL     1      -4.325 -35.687  -8.688  1.00  0.00     0.041 C 
ATOM      4  O   UNL     1      -5.122 -34.750  -8.422  1.00  0.00    -0.550 OA
ATOM      5  O   UNL     1      -3.007 -35.613  -8.258  1.00  0.00    -0.550 OA
ENDBRANCH   2   3
ENDBRANCH   1   2
BRANCH   1   6
ATOM      6  C   UNL     1      -6.619 -38.682  -9.356  1.00  0.00     0.000 C 
BRANCH   6   7
ATOM      7  C   UNL     1      -5.599 -39.350 -10.285  1.00  0.00    -0.003 C 
ATOM      8  C   UNL     1      -6.270 -39.893 -11.543  1.00  0.00     0.004 C 
ENDBRANCH   6   7
ENDBRANCH   1   6
TORSDOF 4
ENDMDL
