MODEL 1
REMARK VINA RESULT:    -3.736      0.000      0.000
REMARK INTER + INTRA:          -4.425
REMARK INTER:                  -4.610
REMARK INTRA:                   0.185
REMARK UNBOUND:                 0.185
REMARK SMILES COC(=O)c1ccccc1C(=O)OC
REMARK SMILES IDX 5 1 6 2 7 3 8 4 9 5 10 6 3 7 4 8 2 9 1 10 11 11 12 12 13 13
REMARK SMILES IDX 14 14
REMARK H PARENT
REMARK Flexibility Score: inf
ROOT
ATOM      1  C   UNL     1     157.668 138.269 160.324  1.00  0.00     0.074 A 
ATOM      2  C   UNL     1     157.890 139.643 160.522  1.00  0.00     0.016 A 
ATOM      3  C   UNL     1     158.068 140.502 159.437  1.00  0.00     0.001 A 
ATOM      4  C   UNL     1     158.031 140.003 158.138  1.00  0.00     0.001 A 
ATOM      5  C   UNL     1     157.791 138.646 157.916  1.00  0.00     0.016 A 
ATOM      6  C   UNL     1     157.584 137.766 158.995  1.00  0.00     0.074 A 
ENDROOT
BRANCH   1   7
ATOM      7  C   UNL     1     157.601 137.400 161.520  1.00  0.00     0.338 C 
ATOM      8  O   UNL     1     157.096 137.830 162.594  1.00  0.00    -0.246 OA
BRANCH   7   9
ATOM      9  O   UNL     1     158.049 136.077 161.437  1.00  0.00    -0.465 OA
ATOM     10  C   UNL     1     157.474 135.023 162.199  1.00  0.00     0.282 C 
ENDBRANCH   7   9
ENDBRANCH   1   7
BRANCH   6  11
ATOM     11  C   UNL     1     157.223 136.365 158.683  1.00  0.00     0.338 C 
ATOM     12  O   UNL     1     158.125 135.498 158.510  1.00  0.00    -0.246 OA
BRANCH  11  13
ATOM     13  O   UNL     1     155.875 135.993 158.640  1.00  0.00    -0.465 OA
ATOM     14  C   UNL     1     155.365 134.875 159.356  1.00  0.00     0.282 C 
ENDBRANCH  11  13
ENDBRANCH   6  11
TORSDOF 4
ENDMDL
MODEL 2
REMARK VINA RESULT:    -3.250      1.705      3.687
REMARK INTER + INTRA:          -3.825
REMARK INTER:                  -3.924
REMARK INTRA:                   0.099
REMARK UNBOUND:                 0.185
REMARK SMILES COC(=O)c1ccccc1C(=O)OC
REMARK SMILES IDX 5 1 6 2 7 3 8 4 9 5 10 6 3 7 4 8 2 9 1 10 11 11 12 12 13 13
REMARK SMILES IDX 14 14
REMARK H PARENT
REMARK Flexibility Score: inf
ROOT
ATOM      1  C   UNL     1     157.480 138.545 160.253  1.00  0.00     0.074 A 
ATOM      2  C   UNL     1     157.772 139.707 160.990  1.00  0.00     0.016 A 
ATOM      3  C   UNL     1     157.916 139.656 162.377  1.00  0.00     0.001 A 
ATOM      4  C   UNL     1     157.770 138.446 163.050  1.00  0.00     0.001 A 
ATOM      5  C   UNL     1     157.502 137.276 162.338  1.00  0.00     0.016 A 
ATOM      6  C   UNL     1     157.376 137.301 160.936  1.00  0.00     0.074 A 
ENDROOT
BRANCH   1   7
ATOM      7  C   UNL     1     157.228 138.692 158.802  1.00  0.00     0.338 C 
ATOM      8  O   UNL     1     156.185 138.206 158.283  1.00  0.00    -0.246 OA
BRANCH   7   9
ATOM      9  O   UNL     1     158.125 139.425 158.018  1.00  0.00    -0.465 OA
ATOM     10  C   UNL     1     157.950 140.809 157.741  1.00  0.00     0.282 C 
ENDBRANCH   7   9
ENDBRANCH   1   7
BRANCH   6  11
ATOM     11  C   UNL     1     157.204 136.008 160.236  1.00  0.00     0.338 C 
ATOM     12  O   UNL     1     156.205 135.276 160.484  1.00  0.00    -0.246 OA
BRANCH  11  13
ATOM     13  O   UNL     1     158.124 135.628 159.253  1.00  0.00    -0.465 OA
ATOM     14  C   UNL     1     157.729 135.086 157.999  1.00  0.00     0.282 C 
ENDBRANCH  11  13
ENDBRANCH   6  11
TORSDOF 4
ENDMDL
MODEL 3
REMARK VINA RESULT:    -2.853     18.874     20.590
REMARK INTER + INTRA:          -3.335
REMARK INTER:                  -3.807
REMARK INTRA:                   0.472
REMARK UNBOUND:                 0.185
REMARK SMILES COC(=O)c1ccccc1C(=O)OC
REMARK SMILES IDX 5 1 6 2 7 3 8 4 9 5 10 6 3 7 4 8 2 9 1 10 11 11 12 12 13 13
REMARK SMILES IDX 14 14
REMARK H PARENT
REMARK Flexibility Score: inf
ROOT
ATOM      1  C   UNL     1     147.677 146.409 145.053  1.00  0.00     0.074 A 
ATOM      2  C   UNL     1     148.748 145.599 144.634  1.00  0.00     0.016 A 
ATOM      3  C   UNL     1     148.604 144.728 143.553  1.00  0.00     0.001 A 
ATOM      4  C   UNL     1     147.390 144.651 142.875  1.00  0.00     0.001 A 
ATOM      5  C   UNL     1     146.321 145.461 143.259  1.00  0.00     0.016 A 
ATOM      6  C   UNL     1     146.451 146.364 144.331  1.00  0.00     0.074 A 
ENDROOT
BRANCH   1   7
ATOM      7  C   UNL     1     147.864 147.224 146.275  1.00  0.00     0.338 C 
ATOM      8  O   UNL     1     146.944 147.990 146.677  1.00  0.00    -0.246 OA
BRANCH   7   9
ATOM      9  O   UNL     1     149.044 147.096 147.015  1.00  0.00    -0.465 OA
ATOM     10  C   UNL     1     149.388 147.985 148.070  1.00  0.00     0.282 C 
ENDBRANCH   7   9
ENDBRANCH   1   7
BRANCH   6  11
ATOM     11  C   UNL     1     145.316 147.271 144.611  1.00  0.00     0.338 C 
ATOM     12  O   UNL     1     145.219 148.376 144.007  1.00  0.00    -0.246 OA
BRANCH  11  13
ATOM     13  O   UNL     1     144.318 146.872 145.507  1.00  0.00    -0.465 OA
ATOM     14  C   UNL     1     143.543 147.800 146.255  1.00  0.00     0.282 C 
ENDBRANCH  11  13
ENDBRANCH   6  11
TORSDOF 4
ENDMDL
MODEL 4
REMARK VINA RESULT:    -2.829     18.861     20.755
REMARK INTER + INTRA:          -3.305
REMARK INTER:                  -3.781
REMARK INTRA:                   0.476
REMARK UNBOUND:                 0.185
REMARK SMILES COC(=O)c1ccccc1C(=O)OC
REMARK SMILES IDX 5 1 6 2 7 3 8 4 9 5 10 6 3 7 4 8 2 9 1 10 11 11 12 12 13 13
REMARK SMILES IDX 14 14
REMARK H PARENT
REMARK Flexibility Score: inf
ROOT
ATOM      1  C   UNL     1     146.456 146.346 144.330  1.00  0.00     0.074 A 
ATOM      2  C   UNL     1     146.328 145.448 143.255  1.00  0.00     0.016 A 
ATOM      3  C   UNL     1     147.392 144.630 142.876  1.00  0.00     0.001 A 
ATOM      4  C   UNL     1     148.602 144.695 143.562  1.00  0.00     0.001 A 
ATOM      5  C   UNL     1     148.746 145.562 144.646  1.00  0.00     0.016 A 
ATOM      6  C   UNL     1     147.678 146.380 145.060  1.00  0.00     0.074 A 
ENDROOT
BRANCH   1   7
ATOM      7  C   UNL     1     145.327 147.263 144.604  1.00  0.00     0.338 C 
ATOM      8  O   UNL     1     145.246 148.371 144.005  1.00  0.00    -0.246 OA
BRANCH   7   9
ATOM      9  O   UNL     1     144.319 146.869 145.490  1.00  0.00    -0.465 OA
ATOM     10  C   UNL     1     143.536 147.801 146.226  1.00  0.00     0.282 C 
ENDBRANCH   7   9
ENDBRANCH   1   7
BRANCH   6  11
ATOM     11  C   UNL     1     147.864 147.190 146.285  1.00  0.00     0.338 C 
ATOM     12  O   UNL     1     146.956 147.979 146.670  1.00  0.00    -0.246 OA
BRANCH  11  13
ATOM     13  O   UNL     1     149.027 147.034 147.046  1.00  0.00    -0.465 OA
ATOM     14  C   UNL     1     149.369 147.910 148.113  1.00  0.00     0.282 C 
ENDBRANCH  11  13
ENDBRANCH   6  11
TORSDOF 4
ENDMDL
MODEL 5
REMARK VINA RESULT:    -2.558     18.812     20.701
REMARK INTER + INTRA:          -2.970
REMARK INTER:                  -2.760
REMARK INTRA:                  -0.210
REMARK UNBOUND:                 0.185
REMARK SMILES COC(=O)c1ccccc1C(=O)OC
REMARK SMILES IDX 5 1 6 2 7 3 8 4 9 5 10 6 3 7 4 8 2 9 1 10 11 11 12 12 13 13
REMARK SMILES IDX 14 14
REMARK H PARENT
REMARK Flexibility Score: inf
ROOT
ATOM      1  C   UNL     1     147.165 147.115 144.099  1.00  0.00     0.074 A 
ATOM      2  C   UNL     1     145.981 147.449 143.418  1.00  0.00     0.016 A 
ATOM      3  C   UNL     1     144.798 147.688 144.116  1.00  0.00     0.001 A 
ATOM      4  C   UNL     1     144.776 147.595 145.505  1.00  0.00     0.001 A 
ATOM      5  C   UNL     1     145.943 147.288 146.205  1.00  0.00     0.016 A 
ATOM      6  C   UNL     1     147.154 147.066 145.522  1.00  0.00     0.074 A 
ENDROOT
BRANCH   1   7
ATOM      7  C   UNL     1     148.354 146.765 143.290  1.00  0.00     0.338 C 
ATOM      8  O   UNL     1     149.133 147.668 142.876  1.00  0.00    -0.246 OA
BRANCH   7   9
ATOM      9  O   UNL     1     148.641 145.420 143.035  1.00  0.00    -0.465 OA
ATOM     10  C   UNL     1     147.628 144.434 142.878  1.00  0.00     0.282 C 
ENDBRANCH   7   9
ENDBRANCH   1   7
BRANCH   6  11
ATOM     11  C   UNL     1     148.375 146.856 146.332  1.00  0.00     0.338 C 
ATOM     12  O   UNL     1     148.935 145.725 146.359  1.00  0.00    -0.246 OA
BRANCH  11  13
ATOM     13  O   UNL     1     148.940 147.935 147.021  1.00  0.00    -0.465 OA
ATOM     14  C   UNL     1     148.828 148.088 148.430  1.00  0.00     0.282 C 
ENDBRANCH  11  13
ENDBRANCH   6  11
TORSDOF 4
ENDMDL
MODEL 6
REMARK VINA RESULT:    -2.516     18.781     20.469
REMARK INTER + INTRA:          -2.919
REMARK INTER:                  -2.713
REMARK INTRA:                  -0.206
REMARK UNBOUND:                 0.185
REMARK SMILES COC(=O)c1ccccc1C(=O)OC
REMARK SMILES IDX 5 1 6 2 7 3 8 4 9 5 10 6 3 7 4 8 2 9 1 10 11 11 12 12 13 13
REMARK SMILES IDX 14 14
REMARK H PARENT
REMARK Flexibility Score: inf
ROOT
ATOM      1  C   UNL     1     147.210 146.932 145.468  1.00  0.00     0.074 A 
ATOM      2  C   UNL     1     146.011 147.177 146.161  1.00  0.00     0.016 A 
ATOM      3  C   UNL     1     144.893 147.685 145.498  1.00  0.00     0.001 A 
ATOM      4  C   UNL     1     144.955 147.958 144.133  1.00  0.00     0.001 A 
ATOM      5  C   UNL     1     146.127 147.702 143.421  1.00  0.00     0.016 A 
ATOM      6  C   UNL     1     147.259 147.167 144.065  1.00  0.00     0.074 A 
ENDROOT
BRANCH   1   7
ATOM      7  C   UNL     1     148.387 146.501 146.255  1.00  0.00     0.338 C 
ATOM      8  O   UNL     1     148.753 145.293 146.246  1.00  0.00    -0.246 OA
BRANCH   7   9
ATOM      9  O   UNL     1     149.128 147.453 146.963  1.00  0.00    -0.465 OA
ATOM     10  C   UNL     1     148.730 147.942 148.239  1.00  0.00     0.282 C 
ENDBRANCH   7   9
ENDBRANCH   1   7
BRANCH   6  11
ATOM     11  C   UNL     1     148.428 146.815 143.228  1.00  0.00     0.338 C 
ATOM     12  O   UNL     1     149.250 147.706 142.875  1.00  0.00    -0.246 OA
BRANCH  11  13
ATOM     13  O   UNL     1     148.649 145.479 142.879  1.00  0.00    -0.465 OA
ATOM     14  C   UNL     1     147.627 144.492 142.935  1.00  0.00     0.282 C 
ENDBRANCH  11  13
ENDBRANCH   6  11
TORSDOF 4
ENDMDL
MODEL 7
REMARK VINA RESULT:    -2.351      1.420      2.701
REMARK INTER + INTRA:          -2.715
REMARK INTER:                  -3.693
REMARK INTRA:                   0.978
REMARK UNBOUND:                 0.185
REMARK SMILES COC(=O)c1ccccc1C(=O)OC
REMARK SMILES IDX 5 1 6 2 7 3 8 4 9 5 10 6 3 7 4 8 2 9 1 10 11 11 12 12 13 13
REMARK SMILES IDX 14 14
REMARK H PARENT
REMARK Flexibility Score: inf
ROOT
ATOM      1  C   UNL     1     157.127 138.540 160.566  1.00  0.00     0.074 A 
ATOM      2  C   UNL     1     157.142 139.522 159.560  1.00  0.00     0.016 A 
ATOM      3  C   UNL     1     157.433 139.185 158.237  1.00  0.00     0.001 A 
ATOM      4  C   UNL     1     157.716 137.864 157.899  1.00  0.00     0.001 A 
ATOM      5  C   UNL     1     157.686 136.870 158.877  1.00  0.00     0.016 A 
ATOM      6  C   UNL     1     157.371 137.182 160.212  1.00  0.00     0.074 A 
ENDROOT
BRANCH   1   7
ATOM      7  C   UNL     1     156.923 138.984 161.963  1.00  0.00     0.338 C 
ATOM      8  O   UNL     1     155.887 138.639 162.597  1.00  0.00    -0.246 OA
BRANCH   7   9
ATOM      9  O   UNL     1     157.913 139.742 162.597  1.00  0.00    -0.465 OA
ATOM     10  C   UNL     1     158.124 141.120 162.315  1.00  0.00     0.282 C 
ENDBRANCH   7   9
ENDBRANCH   1   7
BRANCH   6  11
ATOM     11  C   UNL     1     157.246 136.063 161.173  1.00  0.00     0.338 C 
ATOM     12  O   UNL     1     157.688 136.181 162.350  1.00  0.00    -0.246 OA
BRANCH  11  13
ATOM     13  O   UNL     1     156.583 134.893 160.787  1.00  0.00    -0.465 OA
ATOM     14  C   UNL     1     155.578 134.877 159.781  1.00  0.00     0.282 C 
ENDBRANCH  11  13
ENDBRANCH   6  11
TORSDOF 4
ENDMDL
MODEL 8
REMARK VINA RESULT:    -1.716     18.815     20.582
REMARK INTER + INTRA:          -1.931
REMARK INTER:                  -2.392
REMARK INTRA:                   0.461
REMARK UNBOUND:                 0.185
REMARK SMILES COC(=O)c1ccccc1C(=O)OC
REMARK SMILES IDX 5 1 6 2 7 3 8 4 9 5 10 6 3 7 4 8 2 9 1 10 11 11 12 12 13 13
REMARK SMILES IDX 14 14
REMARK H PARENT
REMARK Flexibility Score: inf
ROOT
ATOM      1  C   UNL     1     146.948 147.119 145.304  1.00  0.00     0.074 A 
ATOM      2  C   UNL     1     147.465 147.897 146.355  1.00  0.00     0.016 A 
ATOM      3  C   UNL     1     148.545 147.444 147.113  1.00  0.00     0.001 A 
ATOM      4  C   UNL     1     149.125 146.209 146.837  1.00  0.00     0.001 A 
ATOM      5  C   UNL     1     148.642 145.430 145.784  1.00  0.00     0.016 A 
ATOM      6  C   UNL     1     147.569 145.877 144.991  1.00  0.00     0.074 A 
ENDROOT
BRANCH   1   7
ATOM      7  C   UNL     1     145.731 147.607 144.616  1.00  0.00     0.338 C 
ATOM      8  O   UNL     1     145.828 148.299 143.565  1.00  0.00    -0.246 OA
BRANCH   7   9
ATOM      9  O   UNL     1     144.472 147.249 145.106  1.00  0.00    -0.465 OA
ATOM     10  C   UNL     1     143.874 147.886 146.229  1.00  0.00     0.282 C 
ENDBRANCH   7   9
ENDBRANCH   1   7
BRANCH   6  11
ATOM     11  C   UNL     1     147.183 145.053 143.823  1.00  0.00     0.338 C 
ATOM     12  O   UNL     1     145.979 144.713 143.653  1.00  0.00    -0.246 OA
BRANCH  11  13
ATOM     13  O   UNL     1     148.151 144.701 142.877  1.00  0.00    -0.465 OA
ATOM     14  C   UNL     1     149.463 145.251 142.880  1.00  0.00     0.282 C 
ENDBRANCH  11  13
ENDBRANCH   6  11
TORSDOF 4
ENDMDL
