MODEL 1
REMARK VINA RESULT:    -3.351      0.000      0.000
REMARK INTER + INTRA:          -4.087
REMARK INTER:                  -3.939
REMARK INTRA:                  -0.148
REMARK UNBOUND:                -0.148
REMARK SMILES O=C([O-])CCC(=O)[O-]
REMARK SMILES IDX 4 1 2 2 1 3 3 4 5 5 6 6 7 7 8 8
REMARK H PARENT
REMARK Flexibility Score: inf
ROOT
ATOM      1  C   UNL     1      11.304  -8.424 -44.465  1.00  0.00     0.059 C 
ENDROOT
BRANCH   1   2
ATOM      2  C   UNL     1      10.404  -7.985 -43.350  1.00  0.00     0.042 C 
ATOM      3  O   UNL     1       9.393  -7.276 -43.595  1.00  0.00    -0.550 OA
ATOM      4  O   UNL     1      10.705  -8.326 -42.037  1.00  0.00    -0.550 OA
ENDBRANCH   1   2
BRANCH   1   5
ATOM      5  C   UNL     1      11.810  -9.854 -44.253  1.00  0.00     0.059 C 
BRANCH   5   6
ATOM      6  C   UNL     1      10.707 -10.857 -44.397  1.00  0.00     0.042 C 
ATOM      7  O   UNL     1      10.548 -11.754 -43.528  1.00  0.00    -0.550 OA
ATOM      8  O   UNL     1       9.831 -10.777 -45.472  1.00  0.00    -0.550 OA
ENDBRANCH   5   6
ENDBRANCH   1   5
TORSDOF 3
ENDMDL
MODEL 2
REMARK VINA RESULT:    -3.351      1.059      3.634
REMARK INTER + INTRA:          -4.087
REMARK INTER:                  -4.004
REMARK INTRA:                  -0.083
REMARK UNBOUND:                -0.148
REMARK SMILES O=C([O-])CCC(=O)[O-]
REMARK SMILES IDX 4 1 2 2 1 3 3 4 5 5 6 6 7 7 8 8
REMARK H PARENT
REMARK Flexibility Score: inf
ROOT
ATOM      1  C   UNL     1      11.956  -9.332 -44.256  1.00  0.00     0.059 C 
ENDROOT
BRANCH   1   2
ATOM      2  C   UNL     1      11.870 -10.824 -44.140  1.00  0.00     0.042 C 
ATOM      3  O   UNL     1      11.116 -11.476 -44.909  1.00  0.00    -0.550 OA
ATOM      4  O   UNL     1      12.593 -11.488 -43.157  1.00  0.00    -0.550 OA
ENDBRANCH   1   2
BRANCH   1   5
ATOM      5  C   UNL     1      10.568  -8.696 -44.385  1.00  0.00     0.059 C 
BRANCH   5   6
ATOM      6  C   UNL     1      10.176  -7.970 -43.135  1.00  0.00     0.042 C 
ATOM      7  O   UNL     1       9.441  -6.949 -43.199  1.00  0.00    -0.550 OA
ATOM      8  O   UNL     1      10.590  -8.443 -41.897  1.00  0.00    -0.550 OA
ENDBRANCH   5   6
ENDBRANCH   1   5
TORSDOF 3
ENDMDL
MODEL 3
REMARK VINA RESULT:    -3.327      0.192      3.642
REMARK INTER + INTRA:          -4.058
REMARK INTER:                  -3.928
REMARK INTRA:                  -0.130
REMARK UNBOUND:                -0.148
REMARK SMILES O=C([O-])CCC(=O)[O-]
REMARK SMILES IDX 4 1 2 2 1 3 3 4 5 5 6 6 7 7 8 8
REMARK H PARENT
REMARK Flexibility Score: inf
ROOT
ATOM      1  C   UNL     1      11.672  -9.973 -44.146  1.00  0.00     0.059 C 
ENDROOT
BRANCH   1   2
ATOM      2  C   UNL     1      10.569 -10.942 -44.443  1.00  0.00     0.042 C 
ATOM      3  O   UNL     1      10.466 -12.007 -43.779  1.00  0.00    -0.550 OA
ATOM      4  O   UNL     1       9.678 -10.688 -45.479  1.00  0.00    -0.550 OA
ENDBRANCH   1   2
BRANCH   1   5
ATOM      5  C   UNL     1      11.232  -8.525 -44.387  1.00  0.00     0.059 C 
BRANCH   5   6
ATOM      6  C   UNL     1      10.359  -8.022 -43.279  1.00  0.00     0.042 C 
ATOM      7  O   UNL     1       9.382  -7.269 -43.534  1.00  0.00    -0.550 OA
ATOM      8  O   UNL     1      10.601  -8.416 -41.970  1.00  0.00    -0.550 OA
ENDBRANCH   5   6
ENDBRANCH   1   5
TORSDOF 3
ENDMDL
MODEL 4
REMARK VINA RESULT:    -3.313      1.147      1.449
REMARK INTER + INTRA:          -4.042
REMARK INTER:                  -3.944
REMARK INTRA:                  -0.098
REMARK UNBOUND:                -0.148
REMARK SMILES O=C([O-])CCC(=O)[O-]
REMARK SMILES IDX 4 1 2 2 1 3 3 4 5 5 6 6 7 7 8 8
REMARK H PARENT
REMARK Flexibility Score: inf
ROOT
ATOM      1  C   UNL     1      10.954  -8.379 -44.297  1.00  0.00     0.059 C 
ENDROOT
BRANCH   1   2
ATOM      2  C   UNL     1      10.221  -7.810 -43.121  1.00  0.00     0.042 C 
ATOM      3  O   UNL     1       9.313  -6.955 -43.294  1.00  0.00    -0.550 OA
ATOM      4  O   UNL     1      10.569  -8.193 -41.832  1.00  0.00    -0.550 OA
ENDBRANCH   1   2
BRANCH   1   5
ATOM      5  C   UNL     1      10.519  -9.818 -44.591  1.00  0.00     0.059 C 
BRANCH   5   6
ATOM      6  C   UNL     1      11.439 -10.814 -43.954  1.00  0.00     0.042 C 
ATOM      7  O   UNL     1      12.681 -10.740 -44.143  1.00  0.00    -0.550 OA
ATOM      8  O   UNL     1      10.926 -11.799 -43.119  1.00  0.00    -0.550 OA
ENDBRANCH   5   6
ENDBRANCH   1   5
TORSDOF 3
ENDMDL
MODEL 5
REMARK VINA RESULT:    -3.229      1.810      2.311
REMARK INTER + INTRA:          -3.943
REMARK INTER:                  -3.910
REMARK INTRA:                  -0.034
REMARK UNBOUND:                -0.148
REMARK SMILES O=C([O-])CCC(=O)[O-]
REMARK SMILES IDX 4 1 2 2 1 3 3 4 5 5 6 6 7 7 8 8
REMARK H PARENT
REMARK Flexibility Score: inf
ROOT
ATOM      1  C   UNL     1      10.973  -9.673 -43.372  1.00  0.00     0.059 C 
ENDROOT
BRANCH   1   2
ATOM      2  C   UNL     1      10.720  -8.356 -44.041  1.00  0.00     0.042 C 
ATOM      3  O   UNL     1      11.415  -8.006 -45.030  1.00  0.00    -0.550 OA
ATOM      4  O   UNL     1       9.744  -7.500 -43.547  1.00  0.00    -0.550 OA
ENDBRANCH   1   2
BRANCH   1   5
ATOM      5  C   UNL     1      11.988 -10.516 -44.150  1.00  0.00     0.059 C 
BRANCH   5   6
ATOM      6  C   UNL     1      12.463 -11.688 -43.349  1.00  0.00     0.042 C 
ATOM      7  O   UNL     1      13.689 -11.826 -43.092  1.00  0.00    -0.550 OA
ATOM      8  O   UNL     1      11.548 -12.607 -42.852  1.00  0.00    -0.550 OA
ENDBRANCH   5   6
ENDBRANCH   1   5
TORSDOF 3
ENDMDL
MODEL 6
REMARK VINA RESULT:    -3.227      0.167      1.627
REMARK INTER + INTRA:          -3.941
REMARK INTER:                  -3.835
REMARK INTRA:                  -0.107
REMARK UNBOUND:                -0.148
REMARK SMILES O=C([O-])CCC(=O)[O-]
REMARK SMILES IDX 4 1 2 2 1 3 3 4 5 5 6 6 7 7 8 8
REMARK H PARENT
REMARK Flexibility Score: inf
ROOT
ATOM      1  C   UNL     1      11.384  -8.518 -44.423  1.00  0.00     0.059 C 
ENDROOT
BRANCH   1   2
ATOM      2  C   UNL     1      10.485  -8.107 -43.297  1.00  0.00     0.042 C 
ATOM      3  O   UNL     1      10.739  -8.475 -42.119  1.00  0.00    -0.550 OA
ATOM      4  O   UNL     1       9.347  -7.353 -43.553  1.00  0.00    -0.550 OA
ENDBRANCH   1   2
BRANCH   1   5
ATOM      5  C   UNL     1      11.890  -9.953 -44.247  1.00  0.00     0.059 C 
BRANCH   5   6
ATOM      6  C   UNL     1      10.785 -10.951 -44.407  1.00  0.00     0.042 C 
ATOM      7  O   UNL     1      10.035 -10.910 -45.418  1.00  0.00    -0.550 OA
ATOM      8  O   UNL     1      10.608 -11.951 -43.459  1.00  0.00    -0.550 OA
ENDBRANCH   5   6
ENDBRANCH   1   5
TORSDOF 3
ENDMDL
MODEL 7
REMARK VINA RESULT:    -3.165      1.900      3.779
REMARK INTER + INTRA:          -3.868
REMARK INTER:                  -3.758
REMARK INTRA:                  -0.110
REMARK UNBOUND:                -0.148
REMARK SMILES O=C([O-])CCC(=O)[O-]
REMARK SMILES IDX 4 1 2 2 1 3 3 4 5 5 6 6 7 7 8 8
REMARK H PARENT
REMARK Flexibility Score: inf
ROOT
ATOM      1  C   UNL     1      11.181 -10.692 -43.073  1.00  0.00     0.059 C 
ENDROOT
BRANCH   1   2
ATOM      2  C   UNL     1      12.380 -11.496 -43.473  1.00  0.00     0.042 C 
ATOM      3  O   UNL     1      13.316 -10.958 -44.120  1.00  0.00    -0.550 OA
ATOM      4  O   UNL     1      12.444 -12.850 -43.166  1.00  0.00    -0.550 OA
ENDBRANCH   1   2
BRANCH   1   5
ATOM      5  C   UNL     1      10.515 -10.030 -44.284  1.00  0.00     0.059 C 
BRANCH   5   6
ATOM      6  C   UNL     1      10.780  -8.557 -44.323  1.00  0.00     0.042 C 
ATOM      7  O   UNL     1      11.730  -8.101 -45.012  1.00  0.00    -0.550 OA
ATOM      8  O   UNL     1       9.952  -7.683 -43.629  1.00  0.00    -0.550 OA
ENDBRANCH   5   6
ENDBRANCH   1   5
TORSDOF 3
ENDMDL
MODEL 8
REMARK VINA RESULT:    -3.029      1.797      3.668
REMARK INTER + INTRA:          -3.708
REMARK INTER:                  -3.607
REMARK INTRA:                  -0.101
REMARK UNBOUND:                -0.148
REMARK SMILES O=C([O-])CCC(=O)[O-]
REMARK SMILES IDX 4 1 2 2 1 3 3 4 5 5 6 6 7 7 8 8
REMARK H PARENT
REMARK Flexibility Score: inf
ROOT
ATOM      1  C   UNL     1      10.450 -11.108 -45.111  1.00  0.00     0.059 C 
ENDROOT
BRANCH   1   2
ATOM      2  C   UNL     1       8.986 -11.323 -45.346  1.00  0.00     0.042 C 
ATOM      3  O   UNL     1       8.213 -10.337 -45.467  1.00  0.00    -0.550 OA
ATOM      4  O   UNL     1       8.470 -12.612 -45.391  1.00  0.00    -0.550 OA
ENDBRANCH   1   2
BRANCH   1   5
ATOM      5  C   UNL     1      10.700 -10.209 -43.896  1.00  0.00     0.059 C 
BRANCH   5   6
ATOM      6  C   UNL     1      11.139  -8.837 -44.306  1.00  0.00     0.042 C 
ATOM      7  O   UNL     1      10.353  -7.859 -44.193  1.00  0.00    -0.550 OA
ATOM      8  O   UNL     1      12.431  -8.631 -44.775  1.00  0.00    -0.550 OA
ENDBRANCH   5   6
ENDBRANCH   1   5
TORSDOF 3
ENDMDL
MODEL 9
REMARK VINA RESULT:    -2.952      1.949      2.364
REMARK INTER + INTRA:          -3.617
REMARK INTER:                  -3.588
REMARK INTRA:                  -0.029
REMARK UNBOUND:                -0.148
REMARK SMILES O=C([O-])CCC(=O)[O-]
REMARK SMILES IDX 4 1 2 2 1 3 3 4 5 5 6 6 7 7 8 8
REMARK H PARENT
REMARK Flexibility Score: inf
ROOT
ATOM      1  C   UNL     1      10.591 -10.328 -44.430  1.00  0.00     0.059 C 
ENDROOT
BRANCH   1   2
ATOM      2  C   UNL     1      11.310  -9.075 -44.032  1.00  0.00     0.042 C 
ATOM      3  O   UNL     1      12.285  -8.662 -44.714  1.00  0.00    -0.550 OA
ATOM      4  O   UNL     1      10.929  -8.387 -42.887  1.00  0.00    -0.550 OA
ENDBRANCH   1   2
BRANCH   1   5
ATOM      5  C   UNL     1       9.226 -10.021 -45.053  1.00  0.00     0.059 C 
BRANCH   5   6
ATOM      6  C   UNL     1       8.656 -11.217 -45.752  1.00  0.00     0.042 C 
ATOM      7  O   UNL     1       8.849 -12.372 -45.291  1.00  0.00    -0.550 OA
ATOM      8  O   UNL     1       7.879 -11.051 -46.892  1.00  0.00    -0.550 OA
ENDBRANCH   5   6
ENDBRANCH   1   5
TORSDOF 3
ENDMDL
