MODEL 1
REMARK VINA RESULT:    -2.243      0.000      0.000
REMARK INTER + INTRA:          -2.243
REMARK INTER:                  -2.243
REMARK INTRA:                   0.000
REMARK UNBOUND:                 0.000
REMARK SMILES CC(=O)[O-]
REMARK SMILES IDX 1 1 2 2 3 3 4 4
REMARK H PARENT
REMARK Flexibility Score: inf
ROOT
ATOM      1  C   UNL     1      27.547 -44.963   2.903  1.00  0.00     0.063 C 
ATOM      2  C   UNL     1      27.268 -46.268   3.568  1.00  0.00     0.038 C 
ATOM      3  O   UNL     1      26.875 -46.297   4.764  1.00  0.00    -0.550 OA
ATOM      4  O   UNL     1      27.492 -47.458   2.887  1.00  0.00    -0.550 OA
ENDROOT
TORSDOF 0
ENDMDL
MODEL 2
REMARK VINA RESULT:    -2.043     18.502     18.536
REMARK INTER + INTRA:          -2.043
REMARK INTER:                  -2.043
REMARK INTRA:                   0.000
REMARK UNBOUND:                 0.000
REMARK SMILES CC(=O)[O-]
REMARK SMILES IDX 1 1 2 2 3 3 4 4
REMARK H PARENT
REMARK Flexibility Score: inf
ROOT
ATOM      1  C   UNL     1      35.466 -53.849 -11.431  1.00  0.00     0.063 C 
ATOM      2  C   UNL     1      35.332 -55.082 -10.602  1.00  0.00     0.038 C 
ATOM      3  O   UNL     1      34.300 -55.797 -10.696  1.00  0.00    -0.550 OA
ATOM      4  O   UNL     1      36.320 -55.414  -9.685  1.00  0.00    -0.550 OA
ENDROOT
TORSDOF 0
ENDMDL
MODEL 3
REMARK VINA RESULT:    -2.021     18.468     18.909
REMARK INTER + INTRA:          -2.021
REMARK INTER:                  -2.021
REMARK INTRA:                   0.000
REMARK UNBOUND:                 0.000
REMARK SMILES CC(=O)[O-]
REMARK SMILES IDX 1 1 2 2 3 3 4 4
REMARK H PARENT
REMARK Flexibility Score: inf
ROOT
ATOM      1  C   UNL     1      34.682 -55.395 -10.612  1.00  0.00     0.063 C 
ATOM      2  C   UNL     1      35.695 -54.448 -11.160  1.00  0.00     0.038 C 
ATOM      3  O   UNL     1      35.375 -53.256 -11.411  1.00  0.00    -0.550 OA
ATOM      4  O   UNL     1      36.979 -54.892 -11.446  1.00  0.00    -0.550 OA
ENDROOT
TORSDOF 0
ENDMDL
MODEL 4
REMARK VINA RESULT:    -2.011      7.462      7.802
REMARK INTER + INTRA:          -2.011
REMARK INTER:                  -2.011
REMARK INTRA:                   0.000
REMARK UNBOUND:                 0.000
REMARK SMILES CC(=O)[O-]
REMARK SMILES IDX 1 1 2 2 3 3 4 4
REMARK H PARENT
REMARK Flexibility Score: inf
ROOT
ATOM      1  C   UNL     1      34.490 -50.232   2.343  1.00  0.00     0.063 C 
ATOM      2  C   UNL     1      33.193 -50.889   2.010  1.00  0.00     0.038 C 
ATOM      3  O   UNL     1      32.866 -51.964   2.578  1.00  0.00    -0.550 OA
ATOM      4  O   UNL     1      32.368 -50.347   1.033  1.00  0.00    -0.550 OA
ENDROOT
TORSDOF 0
ENDMDL
MODEL 5
REMARK VINA RESULT:    -1.949      7.545      7.851
REMARK INTER + INTRA:          -1.949
REMARK INTER:                  -1.949
REMARK INTRA:                   0.000
REMARK UNBOUND:                 0.000
REMARK SMILES CC(=O)[O-]
REMARK SMILES IDX 1 1 2 2 3 3 4 4
REMARK H PARENT
REMARK Flexibility Score: inf
ROOT
ATOM      1  C   UNL     1      32.965 -49.820   0.940  1.00  0.00     0.063 C 
ATOM      2  C   UNL     1      33.528 -50.645   2.047  1.00  0.00     0.038 C 
ATOM      3  O   UNL     1      34.633 -50.338   2.565  1.00  0.00    -0.550 OA
ATOM      4  O   UNL     1      32.861 -51.787   2.473  1.00  0.00    -0.550 OA
ENDROOT
TORSDOF 0
ENDMDL
MODEL 6
REMARK VINA RESULT:    -1.844     10.480     10.651
REMARK INTER + INTRA:          -1.844
REMARK INTER:                  -1.844
REMARK INTRA:                   0.000
REMARK UNBOUND:                 0.000
REMARK SMILES CC(=O)[O-]
REMARK SMILES IDX 1 1 2 2 3 3 4 4
REMARK H PARENT
REMARK Flexibility Score: inf
ROOT
ATOM      1  C   UNL     1      36.721 -50.643   5.370  1.00  0.00     0.063 C 
ATOM      2  C   UNL     1      36.224 -51.826   4.610  1.00  0.00     0.038 C 
ATOM      3  O   UNL     1      36.068 -52.931   5.192  1.00  0.00    -0.550 OA
ATOM      4  O   UNL     1      35.982 -51.724   3.246  1.00  0.00    -0.550 OA
ENDROOT
TORSDOF 0
ENDMDL
MODEL 7
REMARK VINA RESULT:    -1.819      7.902      8.320
REMARK INTER + INTRA:          -1.819
REMARK INTER:                  -1.819
REMARK INTRA:                   0.000
REMARK UNBOUND:                 0.000
REMARK SMILES CC(=O)[O-]
REMARK SMILES IDX 1 1 2 2 3 3 4 4
REMARK H PARENT
REMARK Flexibility Score: inf
ROOT
ATOM      1  C   UNL     1      34.620 -48.771   2.485  1.00  0.00     0.063 C 
ATOM      2  C   UNL     1      34.389 -50.239   2.349  1.00  0.00     0.038 C 
ATOM      3  O   UNL     1      33.329 -50.665   1.821  1.00  0.00    -0.550 OA
ATOM      4  O   UNL     1      35.319 -51.139   2.853  1.00  0.00    -0.550 OA
ENDROOT
TORSDOF 0
ENDMDL
MODEL 8
REMARK VINA RESULT:    -1.735     13.065     13.502
REMARK INTER + INTRA:          -1.735
REMARK INTER:                  -1.735
REMARK INTRA:                   0.000
REMARK UNBOUND:                 0.000
REMARK SMILES CC(=O)[O-]
REMARK SMILES IDX 1 1 2 2 3 3 4 4
REMARK H PARENT
REMARK Flexibility Score: inf
ROOT
ATOM      1  C   UNL     1      32.001 -42.431  -9.985  1.00  0.00     0.063 C 
ATOM      2  C   UNL     1      31.493 -42.439  -8.583  1.00  0.00     0.038 C 
ATOM      3  O   UNL     1      32.219 -42.874  -7.651  1.00  0.00    -0.550 OA
ATOM      4  O   UNL     1      30.198 -42.018  -8.309  1.00  0.00    -0.550 OA
ENDROOT
TORSDOF 0
ENDMDL
MODEL 9
REMARK VINA RESULT:    -1.705      7.112      7.527
REMARK INTER + INTRA:          -1.705
REMARK INTER:                  -1.705
REMARK INTRA:                   0.000
REMARK UNBOUND:                 0.000
REMARK SMILES CC(=O)[O-]
REMARK SMILES IDX 1 1 2 2 3 3 4 4
REMARK H PARENT
REMARK Flexibility Score: inf
ROOT
ATOM      1  C   UNL     1      34.327 -49.895   1.943  1.00  0.00     0.063 C 
ATOM      2  C   UNL     1      33.211 -49.634   0.988  1.00  0.00     0.038 C 
ATOM      3  O   UNL     1      32.160 -50.324   1.040  1.00  0.00    -0.550 OA
ATOM      4  O   UNL     1      33.351 -48.664   0.004  1.00  0.00    -0.550 OA
ENDROOT
TORSDOF 0
ENDMDL
