MODEL 1
REMARK VINA RESULT:    -5.550      0.000      0.000
REMARK INTER + INTRA:          -6.084
REMARK INTER:                  -5.875
REMARK INTRA:                  -0.209
REMARK UNBOUND:                -0.209
REMARK SMILES C=C(C)[C@H]1CC=C(C)C(=O)C1
REMARK SMILES IDX 8 1 7 2 6 3 5 4 4 5 11 6 9 7 10 8 2 9 1 10 3 11
REMARK H PARENT
REMARK Flexibility Score: inf
ROOT
ATOM      1  C   UNL     1     -11.201  75.963  32.502  1.00  0.00     0.048 C 
ATOM      2  C   UNL     1     -10.558  74.729  31.933  1.00  0.00    -0.012 C 
ATOM      3  C   UNL     1      -9.561  74.848  31.043  1.00  0.00    -0.019 C 
ATOM      4  C   UNL     1      -8.852  73.657  30.457  1.00  0.00     0.036 C 
ATOM      5  C   UNL     1      -9.738  72.396  30.365  1.00  0.00     0.025 C 
ATOM      6  C   UNL     1     -10.515  72.144  31.674  1.00  0.00     0.089 C 
ATOM      7  C   UNL     1     -11.127  73.395  32.238  1.00  0.00     0.158 C 
ATOM      8  O   UNL     1     -12.116  73.294  33.013  1.00  0.00    -0.295 OA
ENDROOT
BRANCH   5   9
ATOM      9  C   UNL     1     -10.635  72.390  29.125  1.00  0.00    -0.077 C 
ATOM     10  C   UNL     1     -11.875  71.873  29.138  1.00  0.00     0.008 C 
ATOM     11  C   UNL     1     -10.128  72.980  27.832  1.00  0.00     0.039 C 
ENDBRANCH   5   9
TORSDOF 1
ENDMDL
MODEL 2
REMARK VINA RESULT:    -5.545      2.043      4.090
REMARK INTER + INTRA:          -6.078
REMARK INTER:                  -5.908
REMARK INTRA:                  -0.170
REMARK UNBOUND:                -0.209
REMARK SMILES C=C(C)[C@H]1CC=C(C)C(=O)C1
REMARK SMILES IDX 8 1 7 2 6 3 5 4 4 5 11 6 9 7 10 8 2 9 1 10 3 11
REMARK H PARENT
REMARK Flexibility Score: inf
ROOT
ATOM      1  C   UNL     1     -12.415  73.568  27.567  1.00  0.00     0.048 C 
ATOM      2  C   UNL     1     -11.507  73.255  28.723  1.00  0.00    -0.012 C 
ATOM      3  C   UNL     1     -11.846  72.289  29.592  1.00  0.00    -0.019 C 
ATOM      4  C   UNL     1     -10.971  71.902  30.753  1.00  0.00     0.036 C 
ATOM      5  C   UNL     1     -10.102  73.062  31.286  1.00  0.00     0.025 C 
ATOM      6  C   UNL     1      -9.408  73.830  30.142  1.00  0.00     0.089 C 
ATOM      7  C   UNL     1     -10.326  74.110  28.986  1.00  0.00     0.158 C 
ATOM      8  O   UNL     1     -10.057  75.067  28.211  1.00  0.00    -0.295 OA
ENDROOT
BRANCH   5   9
ATOM      9  C   UNL     1     -10.862  73.978  32.247  1.00  0.00    -0.077 C 
ATOM     10  C   UNL     1     -10.779  75.318  32.181  1.00  0.00     0.008 C 
ATOM     11  C   UNL     1     -11.740  73.377  33.317  1.00  0.00     0.039 C 
ENDBRANCH   5   9
TORSDOF 1
ENDMDL
MODEL 3
REMARK VINA RESULT:    -5.531      1.971      4.045
REMARK INTER + INTRA:          -6.063
REMARK INTER:                  -6.131
REMARK INTRA:                   0.068
REMARK UNBOUND:                -0.209
REMARK SMILES C=C(C)[C@H]1CC=C(C)C(=O)C1
REMARK SMILES IDX 8 1 7 2 6 3 5 4 4 5 11 6 9 7 10 8 2 9 1 10 3 11
REMARK H PARENT
REMARK Flexibility Score: inf
ROOT
ATOM      1  C   UNL     1      -9.017  72.970  26.924  1.00  0.00     0.048 C 
ATOM      2  C   UNL     1      -9.919  72.976  28.127  1.00  0.00    -0.012 C 
ATOM      3  C   UNL     1     -10.971  73.808  28.166  1.00  0.00    -0.019 C 
ATOM      4  C   UNL     1     -11.931  73.844  29.323  1.00  0.00     0.036 C 
ATOM      5  C   UNL     1     -11.290  73.449  30.671  1.00  0.00     0.025 C 
ATOM      6  C   UNL     1     -10.431  72.174  30.545  1.00  0.00     0.089 C 
ATOM      7  C   UNL     1      -9.557  72.178  29.322  1.00  0.00     0.158 C 
ATOM      8  O   UNL     1      -8.523  71.458  29.310  1.00  0.00    -0.295 OA
ENDROOT
BRANCH   5   9
ATOM      9  C   UNL     1     -10.546  74.609  31.336  1.00  0.00    -0.077 C 
ATOM     10  C   UNL     1     -11.175  75.529  32.087  1.00  0.00     0.008 C 
ATOM     11  C   UNL     1      -9.054  74.744  31.154  1.00  0.00     0.039 C 
ENDBRANCH   5   9
TORSDOF 1
ENDMDL
MODEL 4
REMARK VINA RESULT:    -5.516      3.729      5.398
REMARK INTER + INTRA:          -6.048
REMARK INTER:                  -5.834
REMARK INTRA:                  -0.214
REMARK UNBOUND:                -0.209
REMARK SMILES C=C(C)[C@H]1CC=C(C)C(=O)C1
REMARK SMILES IDX 8 1 7 2 6 3 5 4 4 5 11 6 9 7 10 8 2 9 1 10 3 11
REMARK H PARENT
REMARK Flexibility Score: inf
ROOT
ATOM      1  C   UNL     1      -8.452  72.370  24.780  1.00  0.00     0.048 C 
ATOM      2  C   UNL     1      -8.984  73.149  25.951  1.00  0.00    -0.012 C 
ATOM      3  C   UNL     1      -8.708  72.743  27.200  1.00  0.00    -0.019 C 
ATOM      4  C   UNL     1      -9.182  73.491  28.417  1.00  0.00     0.036 C 
ATOM      5  C   UNL     1     -10.505  74.256  28.196  1.00  0.00     0.025 C 
ATOM      6  C   UNL     1     -10.492  75.052  26.875  1.00  0.00     0.089 C 
ATOM      7  C   UNL     1      -9.933  74.265  25.724  1.00  0.00     0.158 C 
ATOM      8  O   UNL     1     -10.252  74.591  24.549  1.00  0.00    -0.295 OA
ENDROOT
BRANCH   5   9
ATOM      9  C   UNL     1     -11.737  73.363  28.346  1.00  0.00    -0.077 C 
ATOM     10  C   UNL     1     -12.915  73.660  27.770  1.00  0.00     0.008 C 
ATOM     11  C   UNL     1     -11.651  72.099  29.165  1.00  0.00     0.039 C 
ENDBRANCH   5   9
TORSDOF 1
ENDMDL
MODEL 5
REMARK VINA RESULT:    -5.470      1.893      3.645
REMARK INTER + INTRA:          -5.999
REMARK INTER:                  -5.801
REMARK INTRA:                  -0.198
REMARK UNBOUND:                -0.209
REMARK SMILES C=C(C)[C@H]1CC=C(C)C(=O)C1
REMARK SMILES IDX 8 1 7 2 6 3 5 4 4 5 11 6 9 7 10 8 2 9 1 10 3 11
REMARK H PARENT
REMARK Flexibility Score: inf
ROOT
ATOM      1  C   UNL     1      -9.476  71.260  35.272  1.00  0.00     0.048 C 
ATOM      2  C   UNL     1     -10.331  71.804  34.161  1.00  0.00    -0.012 C 
ATOM      3  C   UNL     1     -10.031  71.510  32.886  1.00  0.00    -0.019 C 
ATOM      4  C   UNL     1     -10.860  71.994  31.728  1.00  0.00     0.036 C 
ATOM      5  C   UNL     1     -11.571  73.338  31.997  1.00  0.00     0.025 C 
ATOM      6  C   UNL     1     -12.262  73.355  33.376  1.00  0.00     0.089 C 
ATOM      7  C   UNL     1     -11.401  72.783  34.467  1.00  0.00     0.158 C 
ATOM      8  O   UNL     1     -11.625  73.118  35.660  1.00  0.00    -0.295 OA
ENDROOT
BRANCH   5   9
ATOM      9  C   UNL     1     -10.661  74.546  31.767  1.00  0.00    -0.077 C 
ATOM     10  C   UNL     1     -10.927  75.755  32.290  1.00  0.00     0.008 C 
ATOM     11  C   UNL     1      -9.418  74.397  30.926  1.00  0.00     0.039 C 
ENDBRANCH   5   9
TORSDOF 1
ENDMDL
MODEL 6
REMARK VINA RESULT:    -5.434      1.230      1.448
REMARK INTER + INTRA:          -5.960
REMARK INTER:                  -5.829
REMARK INTRA:                  -0.131
REMARK UNBOUND:                -0.209
REMARK SMILES C=C(C)[C@H]1CC=C(C)C(=O)C1
REMARK SMILES IDX 8 1 7 2 6 3 5 4 4 5 11 6 9 7 10 8 2 9 1 10 3 11
REMARK H PARENT
REMARK Flexibility Score: inf
ROOT
ATOM      1  C   UNL     1     -10.870  75.187  32.496  1.00  0.00     0.048 C 
ATOM      2  C   UNL     1     -10.524  74.279  31.349  1.00  0.00    -0.012 C 
ATOM      3  C   UNL     1      -9.603  74.663  30.452  1.00  0.00    -0.019 C 
ATOM      4  C   UNL     1      -9.185  73.791  29.298  1.00  0.00     0.036 C 
ATOM      5  C   UNL     1     -10.297  72.838  28.810  1.00  0.00     0.025 C 
ATOM      6  C   UNL     1     -10.992  72.118  29.984  1.00  0.00     0.089 C 
ATOM      7  C   UNL     1     -11.306  73.039  31.129  1.00  0.00     0.158 C 
ATOM      8  O   UNL     1     -12.224  72.723  31.932  1.00  0.00    -0.295 OA
ENDROOT
BRANCH   5   9
ATOM      9  C   UNL     1     -11.283  73.517  27.856  1.00  0.00    -0.077 C 
ATOM     10  C   UNL     1     -12.612  73.477  28.049  1.00  0.00     0.008 C 
ATOM     11  C   UNL     1     -10.765  74.261  26.650  1.00  0.00     0.039 C 
ENDBRANCH   5   9
TORSDOF 1
ENDMDL
MODEL 7
REMARK VINA RESULT:    -5.283      1.472      2.531
REMARK INTER + INTRA:          -5.800
REMARK INTER:                  -5.862
REMARK INTRA:                   0.062
REMARK UNBOUND:                -0.209
REMARK SMILES C=C(C)[C@H]1CC=C(C)C(=O)C1
REMARK SMILES IDX 8 1 7 2 6 3 5 4 4 5 11 6 9 7 10 8 2 9 1 10 3 11
REMARK H PARENT
REMARK Flexibility Score: inf
ROOT
ATOM      1  C   UNL     1     -10.656  72.988  33.561  1.00  0.00     0.048 C 
ATOM      2  C   UNL     1     -11.028  73.097  32.108  1.00  0.00    -0.012 C 
ATOM      3  C   UNL     1     -11.326  71.989  31.413  1.00  0.00    -0.019 C 
ATOM      4  C   UNL     1     -11.737  72.027  29.966  1.00  0.00     0.036 C 
ATOM      5  C   UNL     1     -11.134  73.214  29.184  1.00  0.00     0.025 C 
ATOM      6  C   UNL     1     -11.268  74.540  29.961  1.00  0.00     0.089 C 
ATOM      7  C   UNL     1     -10.916  74.402  31.415  1.00  0.00     0.158 C 
ATOM      8  O   UNL     1     -10.558  75.427  32.055  1.00  0.00    -0.295 OA
ENDROOT
BRANCH   5   9
ATOM      9  C   UNL     1      -9.707  72.942  28.704  1.00  0.00    -0.077 C 
ATOM     10  C   UNL     1      -8.921  72.014  29.276  1.00  0.00     0.008 C 
ATOM     11  C   UNL     1      -9.141  73.735  27.552  1.00  0.00     0.039 C 
ENDBRANCH   5   9
TORSDOF 1
ENDMDL
MODEL 8
REMARK VINA RESULT:    -5.093      3.134      4.507
REMARK INTER + INTRA:          -5.600
REMARK INTER:                  -5.399
REMARK INTRA:                  -0.201
REMARK UNBOUND:                -0.209
REMARK SMILES C=C(C)[C@H]1CC=C(C)C(=O)C1
REMARK SMILES IDX 8 1 7 2 6 3 5 4 4 5 11 6 9 7 10 8 2 9 1 10 3 11
REMARK H PARENT
REMARK Flexibility Score: inf
ROOT
ATOM      1  C   UNL     1     -11.852  71.995  29.316  1.00  0.00     0.048 C 
ATOM      2  C   UNL     1     -10.997  72.882  28.454  1.00  0.00    -0.012 C 
ATOM      3  C   UNL     1     -11.578  73.715  27.577  1.00  0.00    -0.019 C 
ATOM      4  C   UNL     1     -10.786  74.652  26.705  1.00  0.00     0.036 C 
ATOM      5  C   UNL     1      -9.375  74.129  26.359  1.00  0.00     0.025 C 
ATOM      6  C   UNL     1      -8.645  73.584  27.604  1.00  0.00     0.089 C 
ATOM      7  C   UNL     1      -9.524  72.722  28.465  1.00  0.00     0.158 C 
ATOM      8  O   UNL     1      -8.988  71.880  29.234  1.00  0.00    -0.295 OA
ENDROOT
BRANCH   5   9
ATOM      9  C   UNL     1      -9.378  73.145  25.188  1.00  0.00    -0.077 C 
ATOM     10  C   UNL     1      -8.370  72.283  24.971  1.00  0.00     0.008 C 
ATOM     11  C   UNL     1     -10.543  73.126  24.229  1.00  0.00     0.039 C 
ENDBRANCH   5   9
TORSDOF 1
ENDMDL
MODEL 9
REMARK VINA RESULT:    -5.032      1.861      3.834
REMARK INTER + INTRA:          -5.535
REMARK INTER:                  -5.505
REMARK INTRA:                  -0.030
REMARK UNBOUND:                -0.209
REMARK SMILES C=C(C)[C@H]1CC=C(C)C(=O)C1
REMARK SMILES IDX 8 1 7 2 6 3 5 4 4 5 11 6 9 7 10 8 2 9 1 10 3 11
REMARK H PARENT
REMARK Flexibility Score: inf
ROOT
ATOM      1  C   UNL     1      -9.122  73.590  29.090  1.00  0.00     0.048 C 
ATOM      2  C   UNL     1     -10.121  73.692  30.209  1.00  0.00    -0.012 C 
ATOM      3  C   UNL     1      -9.990  74.658  31.131  1.00  0.00    -0.019 C 
ATOM      4  C   UNL     1     -10.970  74.838  32.259  1.00  0.00     0.036 C 
ATOM      5  C   UNL     1     -11.653  73.525  32.700  1.00  0.00     0.025 C 
ATOM      6  C   UNL     1     -12.154  72.706  31.492  1.00  0.00     0.089 C 
ATOM      7  C   UNL     1     -11.151  72.639  30.375  1.00  0.00     0.158 C 
ATOM      8  O   UNL     1     -11.219  71.689  29.551  1.00  0.00    -0.295 OA
ENDROOT
BRANCH   5   9
ATOM      9  C   UNL     1     -10.793  72.704  33.663  1.00  0.00    -0.077 C 
ATOM     10  C   UNL     1     -10.201  71.555  33.297  1.00  0.00     0.008 C 
ATOM     11  C   UNL     1     -10.591  73.184  35.079  1.00  0.00     0.039 C 
ENDBRANCH   5   9
TORSDOF 1
ENDMDL
