MODEL 1
REMARK VINA RESULT:    -4.454      0.000      0.000
REMARK INTER + INTRA:          -5.137
REMARK INTER:                  -5.105
REMARK INTRA:                  -0.032
REMARK UNBOUND:                -0.032
REMARK SMILES CC(C)[C@@H]([NH3+])C(=O)[O-]
REMARK SMILES IDX 4 1 5 2 6 6 7 7 8 8 2 9 1 10 3 11
REMARK H PARENT 5 3 5 4 5 5
REMARK Flexibility Score: inf
ROOT
ATOM      1  C   UNL     1     -13.959 -32.458  -7.535  1.00  0.00     0.230 C 
ENDROOT
BRANCH   1   2
ATOM      2  N   UNL     1     -14.868 -31.888  -6.530  1.00  0.00    -0.350 N 
ATOM      3  H   UNL     1     -14.423 -31.057  -6.075  1.00  0.00     0.345 HD
ATOM      4  H   UNL     1     -15.058 -32.600  -5.787  1.00  0.00     0.345 HD
ATOM      5  H   UNL     1     -15.778 -31.600  -6.956  1.00  0.00     0.345 HD
ENDBRANCH   1   2
BRANCH   1   6
ATOM      6  C   UNL     1     -12.523 -32.135  -7.195  1.00  0.00     0.099 C 
ATOM      7  O   UNL     1     -12.210 -31.820  -6.016  1.00  0.00    -0.544 OA
ATOM      8  O   UNL     1     -11.540 -32.152  -8.178  1.00  0.00    -0.544 OA
ENDBRANCH   1   6
BRANCH   1   9
ATOM      9  C   UNL     1     -14.200 -33.984  -7.732  1.00  0.00     0.047 C 
ATOM     10  C   UNL     1     -13.292 -34.871  -6.863  1.00  0.00     0.014 C 
ATOM     11  C   UNL     1     -14.069 -34.384  -9.210  1.00  0.00     0.014 C 
ENDBRANCH   1   9
TORSDOF 3
ENDMDL
MODEL 2
REMARK VINA RESULT:    -4.387      2.289      2.920
REMARK INTER + INTRA:          -5.060
REMARK INTER:                  -4.985
REMARK INTRA:                  -0.076
REMARK UNBOUND:                -0.032
REMARK SMILES CC(C)[C@@H]([NH3+])C(=O)[O-]
REMARK SMILES IDX 4 1 5 2 6 6 7 7 8 8 2 9 1 10 3 11
REMARK H PARENT 5 3 5 4 5 5
REMARK Flexibility Score: inf
ROOT
ATOM      1  C   UNL     1     -11.895 -33.129  -7.644  1.00  0.00     0.230 C 
ENDROOT
BRANCH   1   2
ATOM      2  N   UNL     1     -11.281 -31.824  -7.360  1.00  0.00    -0.350 N 
ATOM      3  H   UNL     1     -11.826 -31.326  -6.617  1.00  0.00     0.345 HD
ATOM      4  H   UNL     1     -11.298 -31.233  -8.224  1.00  0.00     0.345 HD
ATOM      5  H   UNL     1     -10.289 -31.927  -7.047  1.00  0.00     0.345 HD
ENDBRANCH   1   2
BRANCH   1   6
ATOM      6  C   UNL     1     -12.618 -33.652  -6.425  1.00  0.00     0.099 C 
ATOM      7  O   UNL     1     -12.994 -34.854  -6.384  1.00  0.00    -0.544 OA
ATOM      8  O   UNL     1     -12.902 -32.813  -5.354  1.00  0.00    -0.544 OA
ENDBRANCH   1   6
BRANCH   1   9
ATOM      9  C   UNL     1     -12.806 -33.075  -8.906  1.00  0.00     0.047 C 
ATOM     10  C   UNL     1     -12.074 -32.610 -10.177  1.00  0.00     0.014 C 
ATOM     11  C   UNL     1     -14.046 -32.201  -8.664  1.00  0.00     0.014 C 
ENDBRANCH   1   9
TORSDOF 3
ENDMDL
MODEL 3
REMARK VINA RESULT:    -4.363      2.115      2.565
REMARK INTER + INTRA:          -5.032
REMARK INTER:                  -5.016
REMARK INTRA:                  -0.016
REMARK UNBOUND:                -0.032
REMARK SMILES CC(C)[C@@H]([NH3+])C(=O)[O-]
REMARK SMILES IDX 4 1 5 2 6 6 7 7 8 8 2 9 1 10 3 11
REMARK H PARENT 5 3 5 4 5 5
REMARK Flexibility Score: inf
ROOT
ATOM      1  C   UNL     1     -12.136 -32.868  -7.660  1.00  0.00     0.230 C 
ENDROOT
BRANCH   1   2
ATOM      2  N   UNL     1     -11.200 -31.816  -7.239  1.00  0.00    -0.350 N 
ATOM      3  H   UNL     1     -11.714 -31.068  -6.718  1.00  0.00     0.345 HD
ATOM      4  H   UNL     1     -10.762 -31.379  -8.083  1.00  0.00     0.345 HD
ATOM      5  H   UNL     1     -10.441 -32.199  -6.630  1.00  0.00     0.345 HD
ENDBRANCH   1   2
BRANCH   1   6
ATOM      6  C   UNL     1     -12.675 -33.610  -6.459  1.00  0.00     0.099 C 
ATOM      7  O   UNL     1     -12.695 -33.051  -5.330  1.00  0.00    -0.544 OA
ATOM      8  O   UNL     1     -13.125 -34.920  -6.578  1.00  0.00    -0.544 OA
ENDBRANCH   1   6
BRANCH   1   9
ATOM      9  C   UNL     1     -13.264 -32.306  -8.575  1.00  0.00     0.047 C 
ATOM     10  C   UNL     1     -14.505 -31.827  -7.801  1.00  0.00     0.014 C 
ATOM     11  C   UNL     1     -13.674 -33.326  -9.647  1.00  0.00     0.014 C 
ENDBRANCH   1   9
TORSDOF 3
ENDMDL
MODEL 4
REMARK VINA RESULT:    -4.360      1.915      2.372
REMARK INTER + INTRA:          -5.029
REMARK INTER:                  -4.960
REMARK INTRA:                  -0.069
REMARK UNBOUND:                -0.032
REMARK SMILES CC(C)[C@@H]([NH3+])C(=O)[O-]
REMARK SMILES IDX 4 1 5 2 6 6 7 7 8 8 2 9 1 10 3 11
REMARK H PARENT 5 3 5 4 5 5
REMARK Flexibility Score: inf
ROOT
ATOM      1  C   UNL     1     -13.977 -34.119  -6.916  1.00  0.00     0.230 C 
ENDROOT
BRANCH   1   2
ATOM      2  N   UNL     1     -12.986 -34.954  -6.222  1.00  0.00    -0.350 N 
ATOM      3  H   UNL     1     -13.413 -35.873  -5.960  1.00  0.00     0.345 HD
ATOM      4  H   UNL     1     -12.681 -34.477  -5.343  1.00  0.00     0.345 HD
ATOM      5  H   UNL     1     -12.144 -35.124  -6.818  1.00  0.00     0.345 HD
ENDBRANCH   1   2
BRANCH   1   6
ATOM      6  C   UNL     1     -13.958 -32.710  -6.372  1.00  0.00     0.099 C 
ATOM      7  O   UNL     1     -14.907 -31.922  -6.631  1.00  0.00    -0.544 OA
ATOM      8  O   UNL     1     -12.888 -32.258  -5.609  1.00  0.00    -0.544 OA
ENDBRANCH   1   6
BRANCH   1   9
ATOM      9  C   UNL     1     -13.792 -34.168  -8.462  1.00  0.00     0.047 C 
ATOM     10  C   UNL     1     -13.790 -35.594  -9.039  1.00  0.00     0.014 C 
ATOM     11  C   UNL     1     -12.520 -33.424  -8.896  1.00  0.00     0.014 C 
ENDBRANCH   1   9
TORSDOF 3
ENDMDL
MODEL 5
REMARK VINA RESULT:    -4.322      2.029      2.647
REMARK INTER + INTRA:          -4.986
REMARK INTER:                  -4.932
REMARK INTRA:                  -0.053
REMARK UNBOUND:                -0.032
REMARK SMILES CC(C)[C@@H]([NH3+])C(=O)[O-]
REMARK SMILES IDX 4 1 5 2 6 6 7 7 8 8 2 9 1 10 3 11
REMARK H PARENT 5 3 5 4 5 5
REMARK Flexibility Score: inf
ROOT
ATOM      1  C   UNL     1     -14.539 -32.909  -7.373  1.00  0.00     0.230 C 
ENDROOT
BRANCH   1   2
ATOM      2  N   UNL     1     -14.777 -31.735  -6.521  1.00  0.00    -0.350 N 
ATOM      3  H   UNL     1     -13.906 -31.493  -5.994  1.00  0.00     0.345 HD
ATOM      4  H   UNL     1     -15.527 -31.954  -5.825  1.00  0.00     0.345 HD
ATOM      5  H   UNL     1     -15.078 -30.907  -7.085  1.00  0.00     0.345 HD
ENDBRANCH   1   2
BRANCH   1   6
ATOM      6  C   UNL     1     -14.654 -32.537  -8.833  1.00  0.00     0.099 C 
ATOM      7  O   UNL     1     -15.788 -32.338  -9.345  1.00  0.00    -0.544 OA
ATOM      8  O   UNL     1     -13.520 -32.440  -9.632  1.00  0.00    -0.544 OA
ENDBRANCH   1   6
BRANCH   1   9
ATOM      9  C   UNL     1     -13.186 -33.603  -7.035  1.00  0.00     0.047 C 
ATOM     10  C   UNL     1     -13.287 -35.134  -6.931  1.00  0.00     0.014 C 
ATOM     11  C   UNL     1     -12.569 -33.027  -5.751  1.00  0.00     0.014 C 
ENDBRANCH   1   9
TORSDOF 3
ENDMDL
MODEL 6
REMARK VINA RESULT:    -4.269      1.949      2.334
REMARK INTER + INTRA:          -4.925
REMARK INTER:                  -4.896
REMARK INTRA:                  -0.029
REMARK UNBOUND:                -0.032
REMARK SMILES CC(C)[C@@H]([NH3+])C(=O)[O-]
REMARK SMILES IDX 4 1 5 2 6 6 7 7 8 8 2 9 1 10 3 11
REMARK H PARENT 5 3 5 4 5 5
REMARK Flexibility Score: inf
ROOT
ATOM      1  C   UNL     1     -13.891 -34.217  -6.986  1.00  0.00     0.230 C 
ENDROOT
BRANCH   1   2
ATOM      2  N   UNL     1     -13.074 -34.995  -6.044  1.00  0.00    -0.350 N 
ATOM      3  H   UNL     1     -12.928 -34.451  -5.162  1.00  0.00     0.345 HD
ATOM      4  H   UNL     1     -12.136 -35.183  -6.467  1.00  0.00     0.345 HD
ATOM      5  H   UNL     1     -13.524 -35.910  -5.812  1.00  0.00     0.345 HD
ENDBRANCH   1   2
BRANCH   1   6
ATOM      6  C   UNL     1     -13.993 -32.778  -6.537  1.00  0.00     0.099 C 
ATOM      7  O   UNL     1     -13.129 -32.301  -5.753  1.00  0.00    -0.544 OA
ATOM      8  O   UNL     1     -15.048 -31.977  -6.956  1.00  0.00    -0.544 OA
ENDBRANCH   1   6
BRANCH   1   9
ATOM      9  C   UNL     1     -13.374 -34.354  -8.449  1.00  0.00     0.047 C 
ATOM     10  C   UNL     1     -12.401 -33.238  -8.867  1.00  0.00     0.014 C 
ATOM     11  C   UNL     1     -14.538 -34.439  -9.447  1.00  0.00     0.014 C 
ENDBRANCH   1   9
TORSDOF 3
ENDMDL
MODEL 7
REMARK VINA RESULT:    -4.149      2.543      3.158
REMARK INTER + INTRA:          -4.787
REMARK INTER:                  -4.733
REMARK INTRA:                  -0.054
REMARK UNBOUND:                -0.032
REMARK SMILES CC(C)[C@@H]([NH3+])C(=O)[O-]
REMARK SMILES IDX 4 1 5 2 6 6 7 7 8 8 2 9 1 10 3 11
REMARK H PARENT 5 3 5 4 5 5
REMARK Flexibility Score: inf
ROOT
ATOM      1  C   UNL     1     -12.550 -32.205  -8.180  1.00  0.00     0.230 C 
ENDROOT
BRANCH   1   2
ATOM      2  N   UNL     1     -11.252 -32.187  -7.490  1.00  0.00    -0.350 N 
ATOM      3  H   UNL     1     -11.397 -32.082  -6.459  1.00  0.00     0.345 HD
ATOM      4  H   UNL     1     -10.691 -31.369  -7.822  1.00  0.00     0.345 HD
ATOM      5  H   UNL     1     -10.709 -33.061  -7.673  1.00  0.00     0.345 HD
ENDBRANCH   1   2
BRANCH   1   6
ATOM      6  C   UNL     1     -12.447 -32.957  -9.486  1.00  0.00     0.099 C 
ATOM      7  O   UNL     1     -11.860 -32.433 -10.470  1.00  0.00    -0.544 OA
ATOM      8  O   UNL     1     -13.018 -34.217  -9.626  1.00  0.00    -0.544 OA
ENDBRANCH   1   6
BRANCH   1   9
ATOM      9  C   UNL     1     -13.685 -32.749  -7.262  1.00  0.00     0.047 C 
ATOM     10  C   UNL     1     -14.992 -31.943  -7.352  1.00  0.00     0.014 C 
ATOM     11  C   UNL     1     -13.224 -32.841  -5.799  1.00  0.00     0.014 C 
ENDBRANCH   1   9
TORSDOF 3
ENDMDL
MODEL 8
REMARK VINA RESULT:    -4.139      2.530      3.505
REMARK INTER + INTRA:          -4.776
REMARK INTER:                  -4.722
REMARK INTRA:                  -0.054
REMARK UNBOUND:                -0.032
REMARK SMILES CC(C)[C@@H]([NH3+])C(=O)[O-]
REMARK SMILES IDX 4 1 5 2 6 6 7 7 8 8 2 9 1 10 3 11
REMARK H PARENT 5 3 5 4 5 5
REMARK Flexibility Score: inf
ROOT
ATOM      1  C   UNL     1     -13.121 -34.190  -7.653  1.00  0.00     0.230 C 
ENDROOT
BRANCH   1   2
ATOM      2  N   UNL     1     -13.433 -34.942  -6.430  1.00  0.00    -0.350 N 
ATOM      3  H   UNL     1     -14.248 -34.506  -5.940  1.00  0.00     0.345 HD
ATOM      4  H   UNL     1     -12.612 -34.912  -5.781  1.00  0.00     0.345 HD
ATOM      5  H   UNL     1     -13.655 -35.942  -6.641  1.00  0.00     0.345 HD
ENDBRANCH   1   2
BRANCH   1   6
ATOM      6  C   UNL     1     -14.261 -34.282  -8.639  1.00  0.00     0.099 C 
ATOM      7  O   UNL     1     -14.734 -35.408  -8.951  1.00  0.00    -0.544 OA
ATOM      8  O   UNL     1     -14.781 -33.137  -9.231  1.00  0.00    -0.544 OA
ENDBRANCH   1   6
BRANCH   1   9
ATOM      9  C   UNL     1     -12.716 -32.719  -7.339  1.00  0.00     0.047 C 
ATOM     10  C   UNL     1     -11.452 -32.254  -8.083  1.00  0.00     0.014 C 
ATOM     11  C   UNL     1     -12.548 -32.497  -5.828  1.00  0.00     0.014 C 
ENDBRANCH   1   9
TORSDOF 3
ENDMDL
MODEL 9
REMARK VINA RESULT:    -4.101      1.562      2.280
REMARK INTER + INTRA:          -4.732
REMARK INTER:                  -4.765
REMARK INTRA:                   0.033
REMARK UNBOUND:                -0.032
REMARK SMILES CC(C)[C@@H]([NH3+])C(=O)[O-]
REMARK SMILES IDX 4 1 5 2 6 6 7 7 8 8 2 9 1 10 3 11
REMARK H PARENT 5 3 5 4 5 5
REMARK Flexibility Score: inf
ROOT
ATOM      1  C   UNL     1     -14.359 -32.818  -7.774  1.00  0.00     0.230 C 
ENDROOT
BRANCH   1   2
ATOM      2  N   UNL     1     -14.667 -31.424  -7.424  1.00  0.00    -0.350 N 
ATOM      3  H   UNL     1     -13.830 -30.819  -7.596  1.00  0.00     0.345 HD
ATOM      4  H   UNL     1     -14.906 -31.363  -6.407  1.00  0.00     0.345 HD
ATOM      5  H   UNL     1     -15.474 -31.059  -7.979  1.00  0.00     0.345 HD
ENDBRANCH   1   2
BRANCH   1   6
ATOM      6  C   UNL     1     -13.445 -32.875  -8.975  1.00  0.00     0.099 C 
ATOM      7  O   UNL     1     -13.806 -33.493 -10.012  1.00  0.00    -0.544 OA
ATOM      8  O   UNL     1     -12.192 -32.275  -8.942  1.00  0.00    -0.544 OA
ENDBRANCH   1   6
BRANCH   1   9
ATOM      9  C   UNL     1     -13.798 -33.609  -6.555  1.00  0.00     0.047 C 
ATOM     10  C   UNL     1     -12.711 -32.850  -5.773  1.00  0.00     0.014 C 
ATOM     11  C   UNL     1     -13.274 -34.990  -6.978  1.00  0.00     0.014 C 
ENDBRANCH   1   9
TORSDOF 3
ENDMDL
