MODEL 1
REMARK VINA RESULT:    -3.932      0.000      0.000
REMARK INTER + INTRA:         -10.432
REMARK INTER:                  -7.379
REMARK INTRA:                  -3.053
REMARK UNBOUND:                -3.053
REMARK SMILES CCCCCCCCC=CCCCCCCCC(=O)[O-]
REMARK SMILES IDX 10 1 9 2 11 3 12 4 13 5 14 6 15 7 16 8 17 9 18 10 19 11
REMARK SMILES IDX 20 12 8 13 7 14 6 15 5 16 4 17 3 18 2 19 1 20
REMARK H PARENT
REMARK Flexibility Score: inf
ROOT
ATOM      1  C   UNL     1      -2.273   9.795  37.994  1.00  0.00    -0.031 C 
ATOM      2  C   UNL     1      -2.179   8.593  38.579  1.00  0.00    -0.031 C 
ENDROOT
BRANCH   1   3
ATOM      3  C   UNL     1      -1.500  10.125  36.747  1.00  0.00     0.027 C 
BRANCH   3   4
ATOM      4  C   UNL     1      -0.750   8.893  36.226  1.00  0.00     0.004 C 
BRANCH   4   5
ATOM      5  C   UNL     1       0.766   9.134  36.219  1.00  0.00     0.000 C 
BRANCH   5   6
ATOM      6  C   UNL     1       1.222  10.098  37.330  1.00  0.00     0.000 C 
BRANCH   6   7
ATOM      7  C   UNL     1       1.834   9.421  38.572  1.00  0.00     0.000 C 
BRANCH   7   8
ATOM      8  C   UNL     1       1.065   9.650  39.890  1.00  0.00     0.006 C 
BRANCH   8   9
ATOM      9  C   UNL     1       0.785   8.370  40.691  1.00  0.00     0.053 C 
BRANCH   9  10
ATOM     10  C   UNL     1       0.532   8.660  42.139  1.00  0.00     0.041 C 
ATOM     11  O   UNL     1      -0.604   9.051  42.517  1.00  0.00    -0.550 OA
ATOM     12  O   UNL     1       1.539   8.466  43.075  1.00  0.00    -0.550 OA
ENDBRANCH   9  10
ENDBRANCH   8   9
ENDBRANCH   7   8
ENDBRANCH   6   7
ENDBRANCH   5   6
ENDBRANCH   4   5
ENDBRANCH   3   4
ENDBRANCH   1   3
BRANCH   2  13
ATOM     13  C   UNL     1      -3.012   8.230  39.779  1.00  0.00     0.027 C 
BRANCH  13  14
ATOM     14  C   UNL     1      -2.575   6.885  40.376  1.00  0.00     0.004 C 
BRANCH  14  15
ATOM     15  C   UNL     1      -3.021   5.693  39.510  1.00  0.00     0.000 C 
BRANCH  15  16
ATOM     16  C   UNL     1      -1.837   4.877  38.967  1.00  0.00     0.000 C 
BRANCH  16  17
ATOM     17  C   UNL     1      -1.732   4.935  37.433  1.00  0.00    -0.000 C 
BRANCH  17  18
ATOM     18  C   UNL     1      -0.348   5.403  36.957  1.00  0.00    -0.000 C 
BRANCH  18  19
ATOM     19  C   UNL     1       0.528   5.930  38.103  1.00  0.00    -0.003 C 
ATOM     20  C   UNL     1       1.957   5.405  37.989  1.00  0.00     0.004 C 
ENDBRANCH  18  19
ENDBRANCH  17  18
ENDBRANCH  16  17
ENDBRANCH  15  16
ENDBRANCH  14  15
ENDBRANCH  13  14
ENDBRANCH   2  13
TORSDOF 15
ENDMDL
MODEL 2
REMARK VINA RESULT:    -3.752      3.122      5.768
REMARK INTER + INTRA:         -10.095
REMARK INTER:                  -7.185
REMARK INTRA:                  -2.909
REMARK UNBOUND:                -3.053
REMARK SMILES CCCCCCCCC=CCCCCCCCC(=O)[O-]
REMARK SMILES IDX 10 1 9 2 11 3 12 4 13 5 14 6 15 7 16 8 17 9 18 10 19 11
REMARK SMILES IDX 20 12 8 13 7 14 6 15 5 16 4 17 3 18 2 19 1 20
REMARK H PARENT
REMARK Flexibility Score: inf
ROOT
ATOM      1  C   UNL     1      -3.008   8.022  40.009  1.00  0.00    -0.031 C 
ATOM      2  C   UNL     1      -2.343   8.235  38.865  1.00  0.00    -0.031 C 
ENDROOT
BRANCH   1   3
ATOM      3  C   UNL     1      -3.026   6.670  40.668  1.00  0.00     0.027 C 
BRANCH   3   4
ATOM      4  C   UNL     1      -2.769   5.558  39.644  1.00  0.00     0.004 C 
BRANCH   4   5
ATOM      5  C   UNL     1      -1.799   4.508  40.202  1.00  0.00     0.000 C 
BRANCH   5   6
ATOM      6  C   UNL     1      -0.437   4.512  39.484  1.00  0.00     0.000 C 
BRANCH   6   7
ATOM      7  C   UNL     1      -0.444   3.903  38.067  1.00  0.00     0.000 C 
BRANCH   7   8
ATOM      8  C   UNL     1       0.017   4.854  36.943  1.00  0.00     0.006 C 
BRANCH   8   9
ATOM      9  C   UNL     1      -1.084   5.230  35.940  1.00  0.00     0.053 C 
BRANCH   9  10
ATOM     10  C   UNL     1      -0.535   5.462  34.566  1.00  0.00     0.041 C 
ATOM     11  O   UNL     1      -0.274   4.485  33.815  1.00  0.00    -0.550 OA
ATOM     12  O   UNL     1      -0.343   6.757  34.101  1.00  0.00    -0.550 OA
ENDBRANCH   9  10
ENDBRANCH   8   9
ENDBRANCH   7   8
ENDBRANCH   6   7
ENDBRANCH   5   6
ENDBRANCH   4   5
ENDBRANCH   3   4
ENDBRANCH   1   3
BRANCH   2  13
ATOM     13  C   UNL     1      -2.252   9.603  38.245  1.00  0.00     0.027 C 
BRANCH  13  14
ATOM     14  C   UNL     1      -1.373   9.590  36.987  1.00  0.00     0.004 C 
BRANCH  14  15
ATOM     15  C   UNL     1      -0.241   8.552  37.081  1.00  0.00     0.000 C 
BRANCH  15  16
ATOM     16  C   UNL     1       1.135   9.194  37.320  1.00  0.00     0.000 C 
BRANCH  16  17
ATOM     17  C   UNL     1       1.561   9.148  38.798  1.00  0.00    -0.000 C 
BRANCH  17  18
ATOM     18  C   UNL     1       1.338   7.765  39.431  1.00  0.00    -0.000 C 
BRANCH  18  19
ATOM     19  C   UNL     1       0.865   7.849  40.890  1.00  0.00    -0.003 C 
ATOM     20  C   UNL     1       0.309   9.234  41.210  1.00  0.00     0.004 C 
ENDBRANCH  18  19
ENDBRANCH  17  18
ENDBRANCH  16  17
ENDBRANCH  15  16
ENDBRANCH  14  15
ENDBRANCH  13  14
ENDBRANCH   2  13
TORSDOF 15
ENDMDL
MODEL 3
REMARK VINA RESULT:    -3.727      2.383      4.394
REMARK INTER + INTRA:         -10.047
REMARK INTER:                  -7.194
REMARK INTRA:                  -2.853
REMARK UNBOUND:                -3.053
REMARK SMILES CCCCCCCCC=CCCCCCCCC(=O)[O-]
REMARK SMILES IDX 10 1 9 2 11 3 12 4 13 5 14 6 15 7 16 8 17 9 18 10 19 11
REMARK SMILES IDX 20 12 8 13 7 14 6 15 5 16 4 17 3 18 2 19 1 20
REMARK H PARENT
REMARK Flexibility Score: inf
ROOT
ATOM      1  C   UNL     1      -2.276   8.436  38.692  1.00  0.00    -0.031 C 
ATOM      2  C   UNL     1      -2.973   8.126  39.794  1.00  0.00    -0.031 C 
ENDROOT
BRANCH   1   3
ATOM      3  C   UNL     1      -2.227   9.842  38.162  1.00  0.00     0.027 C 
BRANCH   3   4
ATOM      4  C   UNL     1      -1.397   9.914  36.875  1.00  0.00     0.004 C 
BRANCH   4   5
ATOM      5  C   UNL     1      -1.615   8.667  36.008  1.00  0.00     0.000 C 
BRANCH   5   6
ATOM      6  C   UNL     1      -0.296   7.975  35.616  1.00  0.00     0.000 C 
BRANCH   6   7
ATOM      7  C   UNL     1      -0.448   6.765  34.672  1.00  0.00     0.000 C 
BRANCH   7   8
ATOM      8  C   UNL     1      -0.219   5.388  35.329  1.00  0.00     0.006 C 
BRANCH   8   9
ATOM      9  C   UNL     1      -0.038   5.434  36.853  1.00  0.00     0.053 C 
BRANCH   9  10
ATOM     10  C   UNL     1      -1.243   4.917  37.577  1.00  0.00     0.041 C 
ATOM     11  O   UNL     1      -2.396   5.118  37.111  1.00  0.00    -0.550 OA
ATOM     12  O   UNL     1      -1.092   4.183  38.747  1.00  0.00    -0.550 OA
ENDBRANCH   9  10
ENDBRANCH   8   9
ENDBRANCH   7   8
ENDBRANCH   6   7
ENDBRANCH   5   6
ENDBRANCH   4   5
ENDBRANCH   3   4
ENDBRANCH   1   3
BRANCH   2  13
ATOM     13  C   UNL     1      -2.958   6.737  40.375  1.00  0.00     0.027 C 
BRANCH  13  14
ATOM     14  C   UNL     1      -2.037   6.653  41.600  1.00  0.00     0.004 C 
BRANCH  14  15
ATOM     15  C   UNL     1      -2.274   7.813  42.584  1.00  0.00     0.000 C 
BRANCH  15  16
ATOM     16  C   UNL     1      -0.983   8.573  42.928  1.00  0.00     0.000 C 
BRANCH  16  17
ATOM     17  C   UNL     1       0.140   8.327  41.905  1.00  0.00    -0.000 C 
BRANCH  17  18
ATOM     18  C   UNL     1       0.379   9.540  40.993  1.00  0.00    -0.000 C 
BRANCH  18  19
ATOM     19  C   UNL     1       1.113   9.172  39.695  1.00  0.00    -0.003 C 
ATOM     20  C   UNL     1       1.219   7.659  39.533  1.00  0.00     0.004 C 
ENDBRANCH  18  19
ENDBRANCH  17  18
ENDBRANCH  16  17
ENDBRANCH  15  16
ENDBRANCH  14  15
ENDBRANCH  13  14
ENDBRANCH   2  13
TORSDOF 15
ENDMDL
MODEL 4
REMARK VINA RESULT:    -3.725      2.326      3.703
REMARK INTER + INTRA:         -10.044
REMARK INTER:                  -7.122
REMARK INTRA:                  -2.922
REMARK UNBOUND:                -3.053
REMARK SMILES CCCCCCCCC=CCCCCCCCC(=O)[O-]
REMARK SMILES IDX 10 1 9 2 11 3 12 4 13 5 14 6 15 7 16 8 17 9 18 10 19 11
REMARK SMILES IDX 20 12 8 13 7 14 6 15 5 16 4 17 3 18 2 19 1 20
REMARK H PARENT
REMARK Flexibility Score: inf
ROOT
ATOM      1  C   UNL     1      -2.008   9.144  38.988  1.00  0.00    -0.031 C 
ATOM      2  C   UNL     1      -2.414   7.879  38.805  1.00  0.00    -0.031 C 
ENDROOT
BRANCH   1   3
ATOM      3  C   UNL     1      -1.956  10.125  37.850  1.00  0.00     0.027 C 
BRANCH   3   4
ATOM      4  C   UNL     1      -1.534   9.433  36.548  1.00  0.00     0.004 C 
BRANCH   4   5
ATOM      5  C   UNL     1      -0.304  10.116  35.935  1.00  0.00     0.000 C 
BRANCH   5   6
ATOM      6  C   UNL     1       0.989   9.301  36.127  1.00  0.00     0.000 C 
BRANCH   6   7
ATOM      7  C   UNL     1       1.812   9.665  37.379  1.00  0.00     0.000 C 
BRANCH   7   8
ATOM      8  C   UNL     1       1.714   8.658  38.544  1.00  0.00     0.006 C 
BRANCH   8   9
ATOM      9  C   UNL     1       1.163   7.280  38.146  1.00  0.00     0.053 C 
BRANCH   9  10
ATOM     10  C   UNL     1       2.258   6.285  37.912  1.00  0.00     0.041 C 
ATOM     11  O   UNL     1       2.779   5.677  38.885  1.00  0.00    -0.550 OA
ATOM     12  O   UNL     1       2.680   6.004  36.619  1.00  0.00    -0.550 OA
ENDBRANCH   9  10
ENDBRANCH   8   9
ENDBRANCH   7   8
ENDBRANCH   6   7
ENDBRANCH   5   6
ENDBRANCH   4   5
ENDBRANCH   3   4
ENDBRANCH   1   3
BRANCH   2  13
ATOM     13  C   UNL     1      -2.546   6.917  39.955  1.00  0.00     0.027 C 
BRANCH  13  14
ATOM     14  C   UNL     1      -2.983   7.635  41.239  1.00  0.00     0.004 C 
BRANCH  14  15
ATOM     15  C   UNL     1      -2.460   6.932  42.504  1.00  0.00     0.000 C 
BRANCH  15  16
ATOM     16  C   UNL     1      -1.529   5.751  42.185  1.00  0.00     0.000 C 
BRANCH  16  17
ATOM     17  C   UNL     1      -0.094   5.974  42.693  1.00  0.00    -0.000 C 
BRANCH  17  18
ATOM     18  C   UNL     1       0.717   6.898  41.772  1.00  0.00    -0.000 C 
BRANCH  18  19
ATOM     19  C   UNL     1       1.085   8.231  42.442  1.00  0.00    -0.003 C 
ATOM     20  C   UNL     1       0.300   9.389  41.831  1.00  0.00     0.004 C 
ENDBRANCH  18  19
ENDBRANCH  17  18
ENDBRANCH  16  17
ENDBRANCH  15  16
ENDBRANCH  14  15
ENDBRANCH  13  14
ENDBRANCH   2  13
TORSDOF 15
ENDMDL
MODEL 5
REMARK VINA RESULT:    -3.666      3.391      4.734
REMARK INTER + INTRA:          -9.934
REMARK INTER:                  -6.919
REMARK INTRA:                  -3.015
REMARK UNBOUND:                -3.053
REMARK SMILES CCCCCCCCC=CCCCCCCCC(=O)[O-]
REMARK SMILES IDX 10 1 9 2 11 3 12 4 13 5 14 6 15 7 16 8 17 9 18 10 19 11
REMARK SMILES IDX 20 12 8 13 7 14 6 15 5 16 4 17 3 18 2 19 1 20
REMARK H PARENT
REMARK Flexibility Score: inf
ROOT
ATOM      1  C   UNL     1      -2.005   8.735  38.658  1.00  0.00    -0.031 C 
ATOM      2  C   UNL     1      -2.984   8.348  39.488  1.00  0.00    -0.031 C 
ENDROOT
BRANCH   1   3
ATOM      3  C   UNL     1      -2.045  10.068  37.963  1.00  0.00     0.027 C 
BRANCH   3   4
ATOM      4  C   UNL     1      -1.015  10.125  36.828  1.00  0.00     0.004 C 
BRANCH   4   5
ATOM      5  C   UNL     1       0.379   9.727  37.329  1.00  0.00     0.000 C 
BRANCH   5   6
ATOM      6  C   UNL     1       1.128   8.809  36.345  1.00  0.00     0.000 C 
BRANCH   6   7
ATOM      7  C   UNL     1       0.992   7.299  36.627  1.00  0.00     0.000 C 
BRANCH   7   8
ATOM      8  C   UNL     1      -0.295   6.644  36.085  1.00  0.00     0.006 C 
BRANCH   8   9
ATOM      9  C   UNL     1      -0.509   6.820  34.574  1.00  0.00     0.053 C 
BRANCH   9  10
ATOM     10  C   UNL     1       0.655   6.309  33.780  1.00  0.00     0.041 C 
ATOM     11  O   UNL     1       0.898   5.074  33.737  1.00  0.00    -0.550 OA
ATOM     12  O   UNL     1       1.449   7.193  33.060  1.00  0.00    -0.550 OA
ENDBRANCH   9  10
ENDBRANCH   8   9
ENDBRANCH   7   8
ENDBRANCH   6   7
ENDBRANCH   5   6
ENDBRANCH   4   5
ENDBRANCH   3   4
ENDBRANCH   1   3
BRANCH   2  13
ATOM     13  C   UNL     1      -2.910   7.053  40.250  1.00  0.00     0.027 C 
BRANCH  13  14
ATOM     14  C   UNL     1      -2.919   5.845  39.303  1.00  0.00     0.004 C 
BRANCH  14  15
ATOM     15  C   UNL     1      -1.572   5.100  39.300  1.00  0.00     0.000 C 
BRANCH  15  16
ATOM     16  C   UNL     1      -0.660   5.515  40.466  1.00  0.00     0.000 C 
BRANCH  16  17
ATOM     17  C   UNL     1       0.752   5.911  40.001  1.00  0.00    -0.000 C 
BRANCH  17  18
ATOM     18  C   UNL     1       1.051   7.400  40.235  1.00  0.00    -0.000 C 
BRANCH  18  19
ATOM     19  C   UNL     1       0.561   7.897  41.604  1.00  0.00    -0.003 C 
ATOM     20  C   UNL     1       0.223   9.385  41.560  1.00  0.00     0.004 C 
ENDBRANCH  18  19
ENDBRANCH  17  18
ENDBRANCH  16  17
ENDBRANCH  15  16
ENDBRANCH  14  15
ENDBRANCH  13  14
ENDBRANCH   2  13
TORSDOF 15
ENDMDL
MODEL 6
REMARK VINA RESULT:    -3.650      2.716      4.248
REMARK INTER + INTRA:          -9.903
REMARK INTER:                  -7.156
REMARK INTRA:                  -2.747
REMARK UNBOUND:                -3.053
REMARK SMILES CCCCCCCCC=CCCCCCCCC(=O)[O-]
REMARK SMILES IDX 10 1 9 2 11 3 12 4 13 5 14 6 15 7 16 8 17 9 18 10 19 11
REMARK SMILES IDX 20 12 8 13 7 14 6 15 5 16 4 17 3 18 2 19 1 20
REMARK H PARENT
REMARK Flexibility Score: inf
ROOT
ATOM      1  C   UNL     1      -2.265   8.546  38.601  1.00  0.00    -0.031 C 
ATOM      2  C   UNL     1      -2.928   8.176  39.706  1.00  0.00    -0.031 C 
ENDROOT
BRANCH   1   3
ATOM      3  C   UNL     1      -2.153   9.989  38.197  1.00  0.00     0.027 C 
BRANCH   3   4
ATOM      4  C   UNL     1      -1.800  10.116  36.710  1.00  0.00     0.004 C 
BRANCH   4   5
ATOM      5  C   UNL     1      -0.281  10.064  36.498  1.00  0.00     0.000 C 
BRANCH   5   6
ATOM      6  C   UNL     1       0.112   9.421  35.155  1.00  0.00     0.000 C 
BRANCH   6   7
ATOM      7  C   UNL     1       0.570   7.951  35.244  1.00  0.00     0.000 C 
BRANCH   7   8
ATOM      8  C   UNL     1      -0.418   6.920  34.660  1.00  0.00     0.006 C 
BRANCH   8   9
ATOM      9  C   UNL     1      -1.633   6.630  35.553  1.00  0.00     0.053 C 
BRANCH   9  10
ATOM     10  C   UNL     1      -1.489   5.335  36.293  1.00  0.00     0.041 C 
ATOM     11  O   UNL     1      -2.503   4.631  36.540  1.00  0.00    -0.550 OA
ATOM     12  O   UNL     1      -0.231   4.890  36.678  1.00  0.00    -0.550 OA
ENDBRANCH   9  10
ENDBRANCH   8   9
ENDBRANCH   7   8
ENDBRANCH   6   7
ENDBRANCH   5   6
ENDBRANCH   4   5
ENDBRANCH   3   4
ENDBRANCH   1   3
BRANCH   2  13
ATOM     13  C   UNL     1      -2.974   6.742  40.160  1.00  0.00     0.027 C 
BRANCH  13  14
ATOM     14  C   UNL     1      -2.186   6.542  41.461  1.00  0.00     0.004 C 
BRANCH  14  15
ATOM     15  C   UNL     1      -1.138   5.421  41.338  1.00  0.00     0.000 C 
BRANCH  15  16
ATOM     16  C   UNL     1      -0.134   5.669  40.201  1.00  0.00     0.000 C 
BRANCH  16  17
ATOM     17  C   UNL     1       0.878   6.778  40.535  1.00  0.00    -0.000 C 
BRANCH  17  18
ATOM     18  C   UNL     1       1.119   7.729  39.352  1.00  0.00    -0.000 C 
BRANCH  18  19
ATOM     19  C   UNL     1       1.136   9.207  39.772  1.00  0.00    -0.003 C 
ATOM     20  C   UNL     1       0.387   9.415  41.085  1.00  0.00     0.004 C 
ENDBRANCH  18  19
ENDBRANCH  17  18
ENDBRANCH  16  17
ENDBRANCH  15  16
ENDBRANCH  14  15
ENDBRANCH  13  14
ENDBRANCH   2  13
TORSDOF 15
ENDMDL
MODEL 7
REMARK VINA RESULT:    -3.603      2.764      5.432
REMARK INTER + INTRA:          -9.815
REMARK INTER:                  -6.457
REMARK INTRA:                  -3.359
REMARK UNBOUND:                -3.053
REMARK SMILES CCCCCCCCC=CCCCCCCCC(=O)[O-]
REMARK SMILES IDX 10 1 9 2 11 3 12 4 13 5 14 6 15 7 16 8 17 9 18 10 19 11
REMARK SMILES IDX 20 12 8 13 7 14 6 15 5 16 4 17 3 18 2 19 1 20
REMARK H PARENT
REMARK Flexibility Score: inf
ROOT
ATOM      1  C   UNL     1       1.069   7.029  39.770  1.00  0.00    -0.031 C 
ATOM      2  C   UNL     1       0.543   7.753  38.772  1.00  0.00    -0.031 C 
ENDROOT
BRANCH   1   3
ATOM      3  C   UNL     1       1.246   5.540  39.653  1.00  0.00     0.027 C 
BRANCH   3   4
ATOM      4  C   UNL     1       1.613   5.143  38.218  1.00  0.00     0.004 C 
BRANCH   4   5
ATOM      5  C   UNL     1       0.643   4.085  37.674  1.00  0.00     0.000 C 
BRANCH   5   6
ATOM      6  C   UNL     1      -0.777   4.224  38.253  1.00  0.00     0.000 C 
BRANCH   6   7
ATOM      7  C   UNL     1      -1.753   5.056  37.396  1.00  0.00     0.000 C 
BRANCH   7   8
ATOM      8  C   UNL     1      -1.300   5.307  35.943  1.00  0.00     0.006 C 
BRANCH   8   9
ATOM      9  C   UNL     1      -1.544   6.738  35.441  1.00  0.00     0.053 C 
BRANCH   9  10
ATOM     10  C   UNL     1      -0.266   7.505  35.291  1.00  0.00     0.041 C 
ATOM     11  O   UNL     1      -0.275   8.764  35.324  1.00  0.00    -0.550 OA
ATOM     12  O   UNL     1       0.939   6.829  35.148  1.00  0.00    -0.550 OA
ENDBRANCH   9  10
ENDBRANCH   8   9
ENDBRANCH   7   8
ENDBRANCH   6   7
ENDBRANCH   5   6
ENDBRANCH   4   5
ENDBRANCH   3   4
ENDBRANCH   1   3
BRANCH   2  13
ATOM     13  C   UNL     1       0.440   9.252  38.851  1.00  0.00     0.027 C 
BRANCH  13  14
ATOM     14  C   UNL     1      -1.012   9.702  39.067  1.00  0.00     0.004 C 
BRANCH  14  15
ATOM     15  C   UNL     1      -2.023   8.622  38.641  1.00  0.00     0.000 C 
BRANCH  15  16
ATOM     16  C   UNL     1      -3.004   8.250  39.765  1.00  0.00     0.000 C 
BRANCH  16  17
ATOM     17  C   UNL     1      -2.859   6.787  40.216  1.00  0.00    -0.000 C 
BRANCH  17  18
ATOM     18  C   UNL     1      -2.113   6.655  41.553  1.00  0.00    -0.000 C 
BRANCH  18  19
ATOM     19  C   UNL     1      -2.179   7.936  42.399  1.00  0.00    -0.003 C 
ATOM     20  C   UNL     1      -0.782   8.475  42.691  1.00  0.00     0.004 C 
ENDBRANCH  18  19
ENDBRANCH  17  18
ENDBRANCH  16  17
ENDBRANCH  15  16
ENDBRANCH  14  15
ENDBRANCH  13  14
ENDBRANCH   2  13
TORSDOF 15
ENDMDL
MODEL 8
REMARK VINA RESULT:    -3.587      2.870      4.583
REMARK INTER + INTRA:          -9.785
REMARK INTER:                  -7.058
REMARK INTRA:                  -2.727
REMARK UNBOUND:                -3.053
REMARK SMILES CCCCCCCCC=CCCCCCCCC(=O)[O-]
REMARK SMILES IDX 10 1 9 2 11 3 12 4 13 5 14 6 15 7 16 8 17 9 18 10 19 11
REMARK SMILES IDX 20 12 8 13 7 14 6 15 5 16 4 17 3 18 2 19 1 20
REMARK H PARENT
REMARK Flexibility Score: inf
ROOT
ATOM      1  C   UNL     1      -2.250   8.530  38.545  1.00  0.00    -0.031 C 
ATOM      2  C   UNL     1      -2.850   8.234  39.707  1.00  0.00    -0.031 C 
ENDROOT
BRANCH   1   3
ATOM      3  C   UNL     1      -2.017   9.953  38.121  1.00  0.00     0.027 C 
BRANCH   3   4
ATOM      4  C   UNL     1      -1.331  10.011  36.751  1.00  0.00     0.004 C 
BRANCH   4   5
ATOM      5  C   UNL     1       0.192  10.124  36.902  1.00  0.00     0.000 C 
BRANCH   5   6
ATOM      6  C   UNL     1       0.935   8.864  36.420  1.00  0.00     0.000 C 
BRANCH   6   7
ATOM      7  C   UNL     1       0.035   7.766  35.818  1.00  0.00     0.000 C 
BRANCH   7   8
ATOM      8  C   UNL     1       0.007   6.437  36.601  1.00  0.00     0.006 C 
BRANCH   8   9
ATOM      9  C   UNL     1       0.651   5.253  35.866  1.00  0.00     0.053 C 
BRANCH   9  10
ATOM     10  C   UNL     1       2.111   5.475  35.615  1.00  0.00     0.041 C 
ATOM     11  O   UNL     1       2.536   5.627  34.439  1.00  0.00    -0.550 OA
ATOM     12  O   UNL     1       2.998   5.550  36.682  1.00  0.00    -0.550 OA
ENDBRANCH   9  10
ENDBRANCH   8   9
ENDBRANCH   7   8
ENDBRANCH   6   7
ENDBRANCH   5   6
ENDBRANCH   4   5
ENDBRANCH   3   4
ENDBRANCH   1   3
BRANCH   2  13
ATOM     13  C   UNL     1      -3.012   6.812  40.175  1.00  0.00     0.027 C 
BRANCH  13  14
ATOM     14  C   UNL     1      -2.538   6.644  41.625  1.00  0.00     0.004 C 
BRANCH  14  15
ATOM     15  C   UNL     1      -2.915   7.851  42.502  1.00  0.00     0.000 C 
BRANCH  15  16
ATOM     16  C   UNL     1      -1.687   8.561  43.094  1.00  0.00     0.000 C 
BRANCH  16  17
ATOM     17  C   UNL     1      -0.367   8.086  42.463  1.00  0.00    -0.000 C 
BRANCH  17  18
ATOM     18  C   UNL     1       0.374   9.216  41.730  1.00  0.00    -0.000 C 
BRANCH  18  19
ATOM     19  C   UNL     1       0.828   8.812  40.319  1.00  0.00    -0.003 C 
ATOM     20  C   UNL     1       0.995   7.299  40.207  1.00  0.00     0.004 C 
ENDBRANCH  18  19
ENDBRANCH  17  18
ENDBRANCH  16  17
ENDBRANCH  15  16
ENDBRANCH  14  15
ENDBRANCH  13  14
ENDBRANCH   2  13
TORSDOF 15
ENDMDL
