MODEL 1
REMARK VINA RESULT:    -3.638      0.000      0.000
REMARK INTER + INTRA:          -6.624
REMARK INTER:                  -5.551
REMARK INTRA:                  -1.072
REMARK UNBOUND:                -1.072
REMARK SMILES CCCCCCCCCCC(=O)[O-]
REMARK SMILES IDX 7 1 8 2 9 3 10 4 11 5 12 6 13 7 6 8 5 9 4 10 3 11 2 12 1 13
REMARK H PARENT
REMARK Flexibility Score: inf
ROOT
ATOM      1  C   UNL     1      22.622  34.239  13.064  1.00  0.00     0.000 C 
ENDROOT
BRANCH   1   2
ATOM      2  C   UNL     1      22.541  35.454  14.002  1.00  0.00     0.000 C 
BRANCH   2   3
ATOM      3  C   UNL     1      23.682  36.475  13.796  1.00  0.00     0.006 C 
BRANCH   3   4
ATOM      4  C   UNL     1      23.683  37.604  14.838  1.00  0.00     0.053 C 
BRANCH   4   5
ATOM      5  C   UNL     1      24.235  38.878  14.273  1.00  0.00     0.041 C 
ATOM      6  O   UNL     1      24.084  39.149  13.053  1.00  0.00    -0.550 OA
ATOM      7  O   UNL     1      24.897  39.776  15.100  1.00  0.00    -0.550 OA
ENDBRANCH   4   5
ENDBRANCH   3   4
ENDBRANCH   2   3
ENDBRANCH   1   2
BRANCH   1   8
ATOM      8  C   UNL     1      22.801  34.635  11.592  1.00  0.00     0.000 C 
BRANCH   8   9
ATOM      9  C   UNL     1      23.864  33.761  10.911  1.00  0.00    -0.000 C 
BRANCH   9  10
ATOM     10  C   UNL     1      24.786  33.047  11.916  1.00  0.00    -0.000 C 
BRANCH  10  11
ATOM     11  C   UNL     1      26.241  33.559  11.949  1.00  0.00    -0.000 C 
BRANCH  11  12
ATOM     12  C   UNL     1      26.621  34.355  13.210  1.00  0.00    -0.003 C 
ATOM     13  C   UNL     1      26.101  33.717  14.496  1.00  0.00     0.004 C 
ENDBRANCH  11  12
ENDBRANCH  10  11
ENDBRANCH   9  10
ENDBRANCH   8   9
ENDBRANCH   1   8
TORSDOF 9
ENDMDL
MODEL 2
REMARK VINA RESULT:    -3.548      0.765      2.575
REMARK INTER + INTRA:          -6.488
REMARK INTER:                  -5.552
REMARK INTRA:                  -0.936
REMARK UNBOUND:                -1.072
REMARK SMILES CCCCCCCCCCC(=O)[O-]
REMARK SMILES IDX 7 1 8 2 9 3 10 4 11 5 12 6 13 7 6 8 5 9 4 10 3 11 2 12 1 13
REMARK H PARENT
REMARK Flexibility Score: inf
ROOT
ATOM      1  C   UNL     1      25.694  34.135  14.539  1.00  0.00     0.000 C 
ENDROOT
BRANCH   1   2
ATOM      2  C   UNL     1      24.991  35.329  15.206  1.00  0.00     0.000 C 
BRANCH   2   3
ATOM      3  C   UNL     1      24.664  36.481  14.230  1.00  0.00     0.006 C 
BRANCH   3   4
ATOM      4  C   UNL     1      23.870  37.623  14.883  1.00  0.00     0.053 C 
BRANCH   4   5
ATOM      5  C   UNL     1      24.276  38.960  14.340  1.00  0.00     0.041 C 
ATOM      6  O   UNL     1      24.042  39.255  13.139  1.00  0.00    -0.550 OA
ATOM      7  O   UNL     1      24.893  39.888  15.169  1.00  0.00    -0.550 OA
ENDBRANCH   4   5
ENDBRANCH   3   4
ENDBRANCH   2   3
ENDBRANCH   1   2
BRANCH   1   8
ATOM      8  C   UNL     1      26.513  34.541  13.306  1.00  0.00     0.000 C 
BRANCH   8   9
ATOM      9  C   UNL     1      26.409  33.480  12.201  1.00  0.00    -0.000 C 
BRANCH   9  10
ATOM     10  C   UNL     1      24.974  32.959  12.006  1.00  0.00    -0.000 C 
BRANCH  10  11
ATOM     11  C   UNL     1      24.278  33.422  10.710  1.00  0.00    -0.000 C 
BRANCH  11  12
ATOM     12  C   UNL     1      23.095  34.384  10.916  1.00  0.00    -0.003 C 
ATOM     13  C   UNL     1      22.539  34.347  12.338  1.00  0.00     0.004 C 
ENDBRANCH  11  12
ENDBRANCH  10  11
ENDBRANCH   9  10
ENDBRANCH   8   9
ENDBRANCH   1   8
TORSDOF 9
ENDMDL
MODEL 3
REMARK VINA RESULT:    -3.500      0.994      1.299
REMARK INTER + INTRA:          -6.414
REMARK INTER:                  -5.408
REMARK INTRA:                  -1.006
REMARK UNBOUND:                -1.072
REMARK SMILES CCCCCCCCCCC(=O)[O-]
REMARK SMILES IDX 7 1 8 2 9 3 10 4 11 5 12 6 13 7 6 8 5 9 4 10 3 11 2 12 1 13
REMARK H PARENT
REMARK Flexibility Score: inf
ROOT
ATOM      1  C   UNL     1      22.995  35.498  12.978  1.00  0.00     0.000 C 
ENDROOT
BRANCH   1   2
ATOM      2  C   UNL     1      23.679  35.221  14.327  1.00  0.00     0.000 C 
BRANCH   2   3
ATOM      3  C   UNL     1      24.738  36.277  14.714  1.00  0.00     0.006 C 
BRANCH   3   4
ATOM      4  C   UNL     1      24.136  37.528  15.374  1.00  0.00     0.053 C 
BRANCH   4   5
ATOM      5  C   UNL     1      24.450  38.769  14.596  1.00  0.00     0.041 C 
ATOM      6  O   UNL     1      24.312  38.787  13.345  1.00  0.00    -0.550 OA
ATOM      7  O   UNL     1      24.874  39.915  15.257  1.00  0.00    -0.550 OA
ENDBRANCH   4   5
ENDBRANCH   3   4
ENDBRANCH   2   3
ENDBRANCH   1   2
BRANCH   1   8
ATOM      8  C   UNL     1      22.667  34.215  12.203  1.00  0.00     0.000 C 
BRANCH   8   9
ATOM      9  C   UNL     1      23.338  34.218  10.822  1.00  0.00    -0.000 C 
BRANCH   9  10
ATOM     10  C   UNL     1      24.478  33.190  10.709  1.00  0.00    -0.000 C 
BRANCH  10  11
ATOM     11  C   UNL     1      24.740  32.359  11.982  1.00  0.00    -0.000 C 
BRANCH  11  12
ATOM     12  C   UNL     1      26.121  32.577  12.627  1.00  0.00    -0.003 C 
ATOM     13  C   UNL     1      26.769  33.897  12.211  1.00  0.00     0.004 C 
ENDBRANCH  11  12
ENDBRANCH  10  11
ENDBRANCH   9  10
ENDBRANCH   8   9
ENDBRANCH   1   8
TORSDOF 9
ENDMDL
MODEL 4
REMARK VINA RESULT:    -3.453      1.842      3.299
REMARK INTER + INTRA:          -6.343
REMARK INTER:                  -5.243
REMARK INTRA:                  -1.100
REMARK UNBOUND:                -1.072
REMARK SMILES CCCCCCCCCCC(=O)[O-]
REMARK SMILES IDX 7 1 8 2 9 3 10 4 11 5 12 6 13 7 6 8 5 9 4 10 3 11 2 12 1 13
REMARK H PARENT
REMARK Flexibility Score: inf
ROOT
ATOM      1  C   UNL     1      26.393  34.668  13.651  1.00  0.00     0.000 C 
ENDROOT
BRANCH   1   2
ATOM      2  C   UNL     1      25.426  33.915  14.579  1.00  0.00     0.000 C 
BRANCH   2   3
ATOM      3  C   UNL     1      24.506  34.844  15.402  1.00  0.00     0.006 C 
BRANCH   3   4
ATOM      4  C   UNL     1      24.142  36.144  14.666  1.00  0.00     0.053 C 
BRANCH   4   5
ATOM      5  C   UNL     1      22.720  36.542  14.919  1.00  0.00     0.041 C 
ATOM      6  O   UNL     1      21.784  35.727  14.708  1.00  0.00    -0.550 OA
ATOM      7  O   UNL     1      22.430  37.809  15.411  1.00  0.00    -0.550 OA
ENDBRANCH   4   5
ENDBRANCH   3   4
ENDBRANCH   2   3
ENDBRANCH   1   2
BRANCH   1   8
ATOM      8  C   UNL     1      26.794  33.847  12.417  1.00  0.00     0.000 C 
BRANCH   8   9
ATOM      9  C   UNL     1      26.019  32.523  12.361  1.00  0.00    -0.000 C 
BRANCH   9  10
ATOM     10  C   UNL     1      25.463  32.215  10.959  1.00  0.00    -0.000 C 
BRANCH  10  11
ATOM     11  C   UNL     1      24.322  33.140  10.488  1.00  0.00    -0.000 C 
BRANCH  11  12
ATOM     12  C   UNL     1      23.349  33.585  11.594  1.00  0.00    -0.003 C 
ATOM     13  C   UNL     1      22.830  35.008  11.392  1.00  0.00     0.004 C 
ENDBRANCH  11  12
ENDBRANCH  10  11
ENDBRANCH   9  10
ENDBRANCH   8   9
ENDBRANCH   1   8
TORSDOF 9
ENDMDL
MODEL 5
REMARK VINA RESULT:    -3.411      3.077      5.864
REMARK INTER + INTRA:          -6.278
REMARK INTER:                  -5.592
REMARK INTRA:                  -0.685
REMARK UNBOUND:                -1.072
REMARK SMILES CCCCCCCCCCC(=O)[O-]
REMARK SMILES IDX 7 1 8 2 9 3 10 4 11 5 12 6 13 7 6 8 5 9 4 10 3 11 2 12 1 13
REMARK H PARENT
REMARK Flexibility Score: inf
ROOT
ATOM      1  C   UNL     1      25.155  35.343  13.877  1.00  0.00     0.000 C 
ENDROOT
BRANCH   1   2
ATOM      2  C   UNL     1      26.387  34.440  13.706  1.00  0.00     0.000 C 
BRANCH   2   3
ATOM      3  C   UNL     1      26.595  33.943  12.257  1.00  0.00     0.006 C 
BRANCH   3   4
ATOM      4  C   UNL     1      25.890  32.609  11.966  1.00  0.00     0.053 C 
BRANCH   4   5
ATOM      5  C   UNL     1      24.959  32.719  10.798  1.00  0.00     0.041 C 
ATOM      6  O   UNL     1      24.172  33.697  10.703  1.00  0.00    -0.550 OA
ATOM      7  O   UNL     1      24.977  31.751   9.801  1.00  0.00    -0.550 OA
ENDBRANCH   4   5
ENDBRANCH   3   4
ENDBRANCH   2   3
ENDBRANCH   1   2
BRANCH   1   8
ATOM      8  C   UNL     1      24.857  35.668  15.347  1.00  0.00     0.000 C 
BRANCH   8   9
ATOM      9  C   UNL     1      23.363  35.959  15.556  1.00  0.00    -0.000 C 
BRANCH   9  10
ATOM     10  C   UNL     1      23.008  37.443  15.356  1.00  0.00    -0.000 C 
BRANCH  10  11
ATOM     11  C   UNL     1      24.075  38.444  15.845  1.00  0.00    -0.000 C 
BRANCH  11  12
ATOM     12  C   UNL     1      24.640  39.374  14.757  1.00  0.00    -0.003 C 
ATOM     13  C   UNL     1      24.112  39.047  13.361  1.00  0.00     0.004 C 
ENDBRANCH  11  12
ENDBRANCH  10  11
ENDBRANCH   9  10
ENDBRANCH   8   9
ENDBRANCH   1   8
TORSDOF 9
ENDMDL
MODEL 6
REMARK VINA RESULT:    -3.369      2.702      4.907
REMARK INTER + INTRA:          -6.213
REMARK INTER:                  -5.242
REMARK INTRA:                  -0.971
REMARK UNBOUND:                -1.072
REMARK SMILES CCCCCCCCCCC(=O)[O-]
REMARK SMILES IDX 7 1 8 2 9 3 10 4 11 5 12 6 13 7 6 8 5 9 4 10 3 11 2 12 1 13
REMARK H PARENT
REMARK Flexibility Score: inf
ROOT
ATOM      1  C   UNL     1      22.951  35.301  12.476  1.00  0.00     0.000 C 
ENDROOT
BRANCH   1   2
ATOM      2  C   UNL     1      22.961  34.309  11.301  1.00  0.00     0.000 C 
BRANCH   2   3
ATOM      3  C   UNL     1      23.910  33.108  11.512  1.00  0.00     0.006 C 
BRANCH   3   4
ATOM      4  C   UNL     1      25.354  33.389  11.065  1.00  0.00     0.053 C 
BRANCH   4   5
ATOM      5  C   UNL     1      26.276  33.539  12.237  1.00  0.00     0.041 C 
ATOM      6  O   UNL     1      27.338  34.206  12.128  1.00  0.00    -0.550 OA
ATOM      7  O   UNL     1      25.950  32.960  13.457  1.00  0.00    -0.550 OA
ENDBRANCH   4   5
ENDBRANCH   3   4
ENDBRANCH   2   3
ENDBRANCH   1   2
BRANCH   1   8
ATOM      8  C   UNL     1      22.387  34.691  13.766  1.00  0.00     0.000 C 
BRANCH   8   9
ATOM      9  C   UNL     1      23.317  34.961  14.957  1.00  0.00    -0.000 C 
BRANCH   9  10
ATOM     10  C   UNL     1      24.462  35.931  14.614  1.00  0.00    -0.000 C 
BRANCH  10  11
ATOM     11  C   UNL     1      24.393  37.301  15.319  1.00  0.00    -0.000 C 
BRANCH  11  12
ATOM     12  C   UNL     1      23.500  38.345  14.625  1.00  0.00    -0.003 C 
ATOM     13  C   UNL     1      24.206  39.059  13.473  1.00  0.00     0.004 C 
ENDBRANCH  11  12
ENDBRANCH  10  11
ENDBRANCH   9  10
ENDBRANCH   8   9
ENDBRANCH   1   8
TORSDOF 9
ENDMDL
MODEL 7
REMARK VINA RESULT:    -3.322      2.247      3.074
REMARK INTER + INTRA:          -6.143
REMARK INTER:                  -5.128
REMARK INTRA:                  -1.015
REMARK UNBOUND:                -1.072
REMARK SMILES CCCCCCCCCCC(=O)[O-]
REMARK SMILES IDX 7 1 8 2 9 3 10 4 11 5 12 6 13 7 6 8 5 9 4 10 3 11 2 12 1 13
REMARK H PARENT
REMARK Flexibility Score: inf
ROOT
ATOM      1  C   UNL     1      24.128  33.775  10.898  1.00  0.00     0.000 C 
ENDROOT
BRANCH   1   2
ATOM      2  C   UNL     1      22.796  34.237  11.511  1.00  0.00     0.000 C 
BRANCH   2   3
ATOM      3  C   UNL     1      22.963  35.239  12.675  1.00  0.00     0.006 C 
BRANCH   3   4
ATOM      4  C   UNL     1      22.700  34.616  14.055  1.00  0.00     0.053 C 
BRANCH   4   5
ATOM      5  C   UNL     1      21.790  35.471  14.883  1.00  0.00     0.041 C 
ATOM      6  O   UNL     1      20.743  34.984  15.385  1.00  0.00    -0.550 OA
ATOM      7  O   UNL     1      22.110  36.802  15.119  1.00  0.00    -0.550 OA
ENDBRANCH   4   5
ENDBRANCH   3   4
ENDBRANCH   2   3
ENDBRANCH   1   2
BRANCH   1   8
ATOM      8  C   UNL     1      24.282  32.248  10.893  1.00  0.00     0.000 C 
BRANCH   8   9
ATOM      9  C   UNL     1      25.488  31.813  11.738  1.00  0.00    -0.000 C 
BRANCH   9  10
ATOM     10  C   UNL     1      26.307  33.003  12.269  1.00  0.00    -0.000 C 
BRANCH  10  11
ATOM     11  C   UNL     1      26.278  33.188  13.800  1.00  0.00    -0.000 C 
BRANCH  11  12
ATOM     12  C   UNL     1      26.394  34.645  14.281  1.00  0.00    -0.003 C 
ATOM     13  C   UNL     1      26.119  34.802  15.775  1.00  0.00     0.004 C 
ENDBRANCH  11  12
ENDBRANCH  10  11
ENDBRANCH   9  10
ENDBRANCH   8   9
ENDBRANCH   1   8
TORSDOF 9
ENDMDL
MODEL 8
REMARK VINA RESULT:    -3.262      2.544      5.111
REMARK INTER + INTRA:          -6.051
REMARK INTER:                  -5.091
REMARK INTRA:                  -0.960
REMARK UNBOUND:                -1.072
REMARK SMILES CCCCCCCCCCC(=O)[O-]
REMARK SMILES IDX 7 1 8 2 9 3 10 4 11 5 12 6 13 7 6 8 5 9 4 10 3 11 2 12 1 13
REMARK H PARENT
REMARK Flexibility Score: inf
ROOT
ATOM      1  C   UNL     1      26.653  34.588  13.600  1.00  0.00     0.000 C 
ENDROOT
BRANCH   1   2
ATOM      2  C   UNL     1      26.823  33.980  12.198  1.00  0.00     0.000 C 
BRANCH   2   3
ATOM      3  C   UNL     1      25.798  32.869  11.876  1.00  0.00     0.006 C 
BRANCH   3   4
ATOM      4  C   UNL     1      24.737  33.301  10.851  1.00  0.00     0.053 C 
BRANCH   4   5
ATOM      5  C   UNL     1      23.539  33.905  11.517  1.00  0.00     0.041 C 
ATOM      6  O   UNL     1      23.227  33.569  12.689  1.00  0.00    -0.550 OA
ATOM      7  O   UNL     1      22.779  34.857  10.850  1.00  0.00    -0.550 OA
ENDBRANCH   4   5
ENDBRANCH   3   4
ENDBRANCH   2   3
ENDBRANCH   1   2
BRANCH   1   8
ATOM      8  C   UNL     1      26.282  33.542  14.661  1.00  0.00     0.000 C 
BRANCH   8   9
ATOM      9  C   UNL     1      25.113  34.029  15.530  1.00  0.00    -0.000 C 
BRANCH   9  10
ATOM     10  C   UNL     1      25.165  35.541  15.810  1.00  0.00    -0.000 C 
BRANCH  10  11
ATOM     11  C   UNL     1      23.871  36.314  15.481  1.00  0.00    -0.000 C 
BRANCH  11  12
ATOM     12  C   UNL     1      23.773  36.830  14.034  1.00  0.00    -0.003 C 
ATOM     13  C   UNL     1      24.458  38.182  13.838  1.00  0.00     0.004 C 
ENDBRANCH  11  12
ENDBRANCH  10  11
ENDBRANCH   9  10
ENDBRANCH   8   9
ENDBRANCH   1   8
TORSDOF 9
ENDMDL
MODEL 9
REMARK VINA RESULT:    -3.200      3.373      5.997
REMARK INTER + INTRA:          -5.956
REMARK INTER:                  -5.105
REMARK INTRA:                  -0.851
REMARK UNBOUND:                -1.072
REMARK SMILES CCCCCCCCCCC(=O)[O-]
REMARK SMILES IDX 7 1 8 2 9 3 10 4 11 5 12 6 13 7 6 8 5 9 4 10 3 11 2 12 1 13
REMARK H PARENT
REMARK Flexibility Score: inf
ROOT
ATOM      1  C   UNL     1      26.474  34.596  13.133  1.00  0.00     0.000 C 
ENDROOT
BRANCH   1   2
ATOM      2  C   UNL     1      26.713  33.273  12.388  1.00  0.00     0.000 C 
BRANCH   2   3
ATOM      3  C   UNL     1      25.514  32.301  12.449  1.00  0.00     0.006 C 
BRANCH   3   4
ATOM      4  C   UNL     1      25.501  31.280  11.301  1.00  0.00     0.053 C 
BRANCH   4   5
ATOM      5  C   UNL     1      24.821  31.826  10.082  1.00  0.00     0.041 C 
ATOM      6  O   UNL     1      24.305  32.974  10.104  1.00  0.00    -0.550 OA
ATOM      7  O   UNL     1      24.778  31.075   8.914  1.00  0.00    -0.550 OA
ENDBRANCH   4   5
ENDBRANCH   3   4
ENDBRANCH   2   3
ENDBRANCH   1   2
BRANCH   1   8
ATOM      8  C   UNL     1      26.499  34.432  14.659  1.00  0.00     0.000 C 
BRANCH   8   9
ATOM      9  C   UNL     1      25.111  34.686  15.264  1.00  0.00    -0.000 C 
BRANCH   9  10
ATOM     10  C   UNL     1      24.658  36.151  15.129  1.00  0.00    -0.000 C 
BRANCH  10  11
ATOM     11  C   UNL     1      23.304  36.356  14.420  1.00  0.00    -0.000 C 
BRANCH  11  12
ATOM     12  C   UNL     1      22.671  35.076  13.846  1.00  0.00    -0.003 C 
ATOM     13  C   UNL     1      22.784  34.987  12.325  1.00  0.00     0.004 C 
ENDBRANCH  11  12
ENDBRANCH  10  11
ENDBRANCH   9  10
ENDBRANCH   8   9
ENDBRANCH   1   8
TORSDOF 9
ENDMDL
