MODEL 1
REMARK VINA RESULT:    -2.834      0.000      0.000
REMARK INTER + INTRA:          -3.970
REMARK INTER:                  -3.662
REMARK INTRA:                  -0.308
REMARK UNBOUND:                -0.308
REMARK SMILES CCCCCCC(=O)[O-]
REMARK SMILES IDX 5 1 6 2 7 3 8 4 9 5 4 6 3 7 2 8 1 9
REMARK H PARENT
REMARK Flexibility Score: inf
ROOT
ATOM      1  C   UNL     1      -1.901   8.636  37.570  1.00  0.00     0.006 C 
ENDROOT
BRANCH   1   2
ATOM      2  C   UNL     1      -0.916   7.508  37.893  1.00  0.00     0.053 C 
BRANCH   2   3
ATOM      3  C   UNL     1       0.475   7.900  37.504  1.00  0.00     0.041 C 
ATOM      4  O   UNL     1       0.810   9.113  37.489  1.00  0.00    -0.550 OA
ATOM      5  O   UNL     1       1.387   6.929  37.113  1.00  0.00    -0.550 OA
ENDBRANCH   2   3
ENDBRANCH   1   2
BRANCH   1   6
ATOM      6  C   UNL     1      -2.628   9.110  38.837  1.00  0.00     0.000 C 
BRANCH   6   7
ATOM      7  C   UNL     1      -2.377   8.192  40.043  1.00  0.00    -0.000 C 
BRANCH   7   8
ATOM      8  C   UNL     1      -3.674   7.599  40.615  1.00  0.00    -0.003 C 
ATOM      9  C   UNL     1      -3.830   6.134  40.217  1.00  0.00     0.004 C 
ENDBRANCH   7   8
ENDBRANCH   6   7
ENDBRANCH   1   6
TORSDOF 5
ENDMDL
MODEL 2
REMARK VINA RESULT:    -2.826      2.111      2.328
REMARK INTER + INTRA:          -3.960
REMARK INTER:                  -3.617
REMARK INTRA:                  -0.343
REMARK UNBOUND:                -0.308
REMARK SMILES CCCCCCC(=O)[O-]
REMARK SMILES IDX 5 1 6 2 7 3 8 4 9 5 4 6 3 7 2 8 1 9
REMARK H PARENT
REMARK Flexibility Score: inf
ROOT
ATOM      1  C   UNL     1      -1.967   8.443  37.605  1.00  0.00     0.006 C 
ENDROOT
BRANCH   1   2
ATOM      2  C   UNL     1      -1.294   7.086  37.838  1.00  0.00     0.053 C 
BRANCH   2   3
ATOM      3  C   UNL     1      -1.952   6.027  37.011  1.00  0.00     0.041 C 
ATOM      4  O   UNL     1      -2.239   6.250  35.807  1.00  0.00    -0.550 OA
ATOM      5  O   UNL     1      -2.292   4.809  37.586  1.00  0.00    -0.550 OA
ENDBRANCH   2   3
ENDBRANCH   1   2
BRANCH   1   6
ATOM      6  C   UNL     1      -2.405   9.075  38.935  1.00  0.00     0.000 C 
BRANCH   6   7
ATOM      7  C   UNL     1      -2.396   8.072  40.099  1.00  0.00    -0.000 C 
BRANCH   7   8
ATOM      8  C   UNL     1      -3.809   7.636  40.513  1.00  0.00    -0.003 C 
ATOM      9  C   UNL     1      -3.954   6.117  40.460  1.00  0.00     0.004 C 
ENDBRANCH   7   8
ENDBRANCH   6   7
ENDBRANCH   1   6
TORSDOF 5
ENDMDL
MODEL 3
REMARK VINA RESULT:    -2.821      1.554      2.743
REMARK INTER + INTRA:          -3.954
REMARK INTER:                  -3.593
REMARK INTRA:                  -0.361
REMARK UNBOUND:                -0.308
REMARK SMILES CCCCCCC(=O)[O-]
REMARK SMILES IDX 5 1 6 2 7 3 8 4 9 5 4 6 3 7 2 8 1 9
REMARK H PARENT
REMARK Flexibility Score: inf
ROOT
ATOM      1  C   UNL     1      -2.441   8.160  40.240  1.00  0.00     0.006 C 
ENDROOT
BRANCH   1   2
ATOM      2  C   UNL     1      -2.744   9.020  39.010  1.00  0.00     0.053 C 
BRANCH   2   3
ATOM      3  C   UNL     1      -1.815   8.675  37.888  1.00  0.00     0.041 C 
ATOM      4  O   UNL     1      -0.650   8.267  38.134  1.00  0.00    -0.550 OA
ATOM      5  O   UNL     1      -2.220   8.851  36.572  1.00  0.00    -0.550 OA
ENDBRANCH   2   3
ENDBRANCH   1   2
BRANCH   1   6
ATOM      6  C   UNL     1      -3.723   7.518  40.791  1.00  0.00     0.000 C 
BRANCH   6   7
ATOM      7  C   UNL     1      -3.972   6.111  40.227  1.00  0.00    -0.000 C 
BRANCH   7   8
ATOM      8  C   UNL     1      -2.682   5.432  39.743  1.00  0.00    -0.003 C 
ATOM      9  C   UNL     1      -2.765   5.088  38.259  1.00  0.00     0.004 C 
ENDBRANCH   7   8
ENDBRANCH   6   7
ENDBRANCH   1   6
TORSDOF 5
ENDMDL
MODEL 4
REMARK VINA RESULT:    -2.790      3.514      4.939
REMARK INTER + INTRA:          -3.914
REMARK INTER:                  -3.651
REMARK INTRA:                  -0.263
REMARK UNBOUND:                -0.308
REMARK SMILES CCCCCCC(=O)[O-]
REMARK SMILES IDX 5 1 6 2 7 3 8 4 9 5 4 6 3 7 2 8 1 9
REMARK H PARENT
REMARK Flexibility Score: inf
ROOT
ATOM      1  C   UNL     1      -2.990   6.611  40.162  1.00  0.00     0.006 C 
ENDROOT
BRANCH   1   2
ATOM      2  C   UNL     1      -3.915   7.617  40.853  1.00  0.00     0.053 C 
BRANCH   2   3
ATOM      3  C   UNL     1      -3.658   7.638  42.327  1.00  0.00     0.041 C 
ATOM      4  O   UNL     1      -4.565   7.995  43.123  1.00  0.00    -0.550 OA
ATOM      5  O   UNL     1      -2.401   7.310  42.818  1.00  0.00    -0.550 OA
ENDBRANCH   2   3
ENDBRANCH   1   2
BRANCH   1   6
ATOM      6  C   UNL     1      -1.927   7.331  39.318  1.00  0.00     0.000 C 
BRANCH   6   7
ATOM      7  C   UNL     1      -2.313   8.781  38.990  1.00  0.00    -0.000 C 
BRANCH   7   8
ATOM      8  C   UNL     1      -2.113   9.125  37.507  1.00  0.00    -0.003 C 
ATOM      9  C   UNL     1      -1.517   7.945  36.745  1.00  0.00     0.004 C 
ENDBRANCH   7   8
ENDBRANCH   6   7
ENDBRANCH   1   6
TORSDOF 5
ENDMDL
MODEL 5
REMARK VINA RESULT:    -2.783      1.329      1.752
REMARK INTER + INTRA:          -3.905
REMARK INTER:                  -3.541
REMARK INTRA:                  -0.364
REMARK UNBOUND:                -0.308
REMARK SMILES CCCCCCC(=O)[O-]
REMARK SMILES IDX 5 1 6 2 7 3 8 4 9 5 4 6 3 7 2 8 1 9
REMARK H PARENT
REMARK Flexibility Score: inf
ROOT
ATOM      1  C   UNL     1      -2.441   8.920  38.961  1.00  0.00     0.006 C 
ENDROOT
BRANCH   1   2
ATOM      2  C   UNL     1      -1.576   8.773  37.706  1.00  0.00     0.053 C 
BRANCH   2   3
ATOM      3  C   UNL     1      -1.037   7.381  37.601  1.00  0.00     0.041 C 
ATOM      4  O   UNL     1       0.202   7.187  37.506  1.00  0.00    -0.550 OA
ATOM      5  O   UNL     1      -1.909   6.300  37.561  1.00  0.00    -0.550 OA
ENDBRANCH   2   3
ENDBRANCH   1   2
BRANCH   1   6
ATOM      6  C   UNL     1      -1.679   8.460  40.212  1.00  0.00     0.000 C 
BRANCH   6   7
ATOM      7  C   UNL     1      -2.568   7.684  41.196  1.00  0.00    -0.000 C 
BRANCH   7   8
ATOM      8  C   UNL     1      -3.933   7.318  40.596  1.00  0.00    -0.003 C 
ATOM      9  C   UNL     1      -4.047   5.813  40.367  1.00  0.00     0.004 C 
ENDBRANCH   7   8
ENDBRANCH   6   7
ENDBRANCH   1   6
TORSDOF 5
ENDMDL
MODEL 6
REMARK VINA RESULT:    -2.739      3.322      4.640
REMARK INTER + INTRA:          -3.847
REMARK INTER:                  -3.586
REMARK INTRA:                  -0.262
REMARK UNBOUND:                -0.308
REMARK SMILES CCCCCCC(=O)[O-]
REMARK SMILES IDX 5 1 6 2 7 3 8 4 9 5 4 6 3 7 2 8 1 9
REMARK H PARENT
REMARK Flexibility Score: inf
ROOT
ATOM      1  C   UNL     1      -2.338   7.983  40.976  1.00  0.00     0.006 C 
ENDROOT
BRANCH   1   2
ATOM      2  C   UNL     1      -3.763   7.532  40.638  1.00  0.00     0.053 C 
BRANCH   2   3
ATOM      3  C   UNL     1      -3.898   6.052  40.809  1.00  0.00     0.041 C 
ATOM      4  O   UNL     1      -3.453   5.491  41.845  1.00  0.00    -0.550 OA
ATOM      5  O   UNL     1      -4.472   5.285  39.803  1.00  0.00    -0.550 OA
ENDBRANCH   2   3
ENDBRANCH   1   2
BRANCH   1   6
ATOM      6  C   UNL     1      -1.562   8.351  39.702  1.00  0.00     0.000 C 
BRANCH   6   7
ATOM      7  C   UNL     1      -2.419   9.125  38.688  1.00  0.00    -0.000 C 
BRANCH   7   8
ATOM      8  C   UNL     1      -1.992   8.866  37.236  1.00  0.00    -0.003 C 
ATOM      9  C   UNL     1      -1.555   7.417  37.041  1.00  0.00     0.004 C 
ENDBRANCH   7   8
ENDBRANCH   6   7
ENDBRANCH   1   6
TORSDOF 5
ENDMDL
MODEL 7
REMARK VINA RESULT:    -2.731      3.246      4.774
REMARK INTER + INTRA:          -3.838
REMARK INTER:                  -3.627
REMARK INTRA:                  -0.211
REMARK UNBOUND:                -0.308
REMARK SMILES CCCCCCC(=O)[O-]
REMARK SMILES IDX 5 1 6 2 7 3 8 4 9 5 4 6 3 7 2 8 1 9
REMARK H PARENT
REMARK Flexibility Score: inf
ROOT
ATOM      1  C   UNL     1      -2.336   7.719  39.630  1.00  0.00     0.006 C 
ENDROOT
BRANCH   1   2
ATOM      2  C   UNL     1      -3.626   7.570  40.443  1.00  0.00     0.053 C 
BRANCH   2   3
ATOM      3  C   UNL     1      -3.347   7.739  41.904  1.00  0.00     0.041 C 
ATOM      4  O   UNL     1      -4.296   7.878  42.718  1.00  0.00    -0.550 OA
ATOM      5  O   UNL     1      -2.036   7.792  42.359  1.00  0.00    -0.550 OA
ENDBRANCH   2   3
ENDBRANCH   1   2
BRANCH   1   6
ATOM      6  C   UNL     1      -2.231   9.124  39.019  1.00  0.00     0.000 C 
BRANCH   6   7
ATOM      7  C   UNL     1      -2.275   9.108  37.483  1.00  0.00    -0.000 C 
BRANCH   7   8
ATOM      8  C   UNL     1      -1.713   7.808  36.890  1.00  0.00    -0.003 C 
ATOM      9  C   UNL     1      -0.366   8.050  36.214  1.00  0.00     0.004 C 
ENDBRANCH   7   8
ENDBRANCH   6   7
ENDBRANCH   1   6
TORSDOF 5
ENDMDL
MODEL 8
REMARK VINA RESULT:    -2.703      3.373      4.413
REMARK INTER + INTRA:          -3.802
REMARK INTER:                  -3.441
REMARK INTRA:                  -0.361
REMARK UNBOUND:                -0.308
REMARK SMILES CCCCCCC(=O)[O-]
REMARK SMILES IDX 5 1 6 2 7 3 8 4 9 5 4 6 3 7 2 8 1 9
REMARK H PARENT
REMARK Flexibility Score: inf
ROOT
ATOM      1  C   UNL     1      -2.774   8.791  39.172  1.00  0.00     0.006 C 
ENDROOT
BRANCH   1   2
ATOM      2  C   UNL     1      -2.417   8.054  40.466  1.00  0.00     0.053 C 
BRANCH   2   3
ATOM      3  C   UNL     1      -3.646   7.478  41.097  1.00  0.00     0.041 C 
ATOM      4  O   UNL     1      -4.373   6.678  40.452  1.00  0.00    -0.550 OA
ATOM      5  O   UNL     1      -4.014   7.862  42.379  1.00  0.00    -0.550 OA
ENDBRANCH   2   3
ENDBRANCH   1   2
BRANCH   1   6
ATOM      6  C   UNL     1      -1.674   8.611  38.115  1.00  0.00     0.000 C 
BRANCH   6   7
ATOM      7  C   UNL     1      -1.048   7.208  38.144  1.00  0.00    -0.000 C 
BRANCH   7   8
ATOM      8  C   UNL     1      -1.754   6.227  37.196  1.00  0.00    -0.003 C 
ATOM      9  C   UNL     1      -2.436   5.105  37.974  1.00  0.00     0.004 C 
ENDBRANCH   7   8
ENDBRANCH   6   7
ENDBRANCH   1   6
TORSDOF 5
ENDMDL
MODEL 9
REMARK VINA RESULT:    -2.672      3.723      4.966
REMARK INTER + INTRA:          -3.762
REMARK INTER:                  -3.412
REMARK INTRA:                  -0.349
REMARK UNBOUND:                -0.308
REMARK SMILES CCCCCCC(=O)[O-]
REMARK SMILES IDX 5 1 6 2 7 3 8 4 9 5 4 6 3 7 2 8 1 9
REMARK H PARENT
REMARK Flexibility Score: inf
ROOT
ATOM      1  C   UNL     1      -2.890   6.610  40.174  1.00  0.00     0.006 C 
ENDROOT
BRANCH   1   2
ATOM      2  C   UNL     1      -3.900   7.545  40.848  1.00  0.00     0.053 C 
BRANCH   2   3
ATOM      3  C   UNL     1      -3.689   7.562  42.330  1.00  0.00     0.041 C 
ATOM      4  O   UNL     1      -4.588   8.002  43.092  1.00  0.00    -0.550 OA
ATOM      5  O   UNL     1      -2.480   7.136  42.865  1.00  0.00    -0.550 OA
ENDBRANCH   2   3
ENDBRANCH   1   2
BRANCH   1   6
ATOM      6  C   UNL     1      -2.160   7.325  39.028  1.00  0.00     0.000 C 
BRANCH   6   7
ATOM      7  C   UNL     1      -1.833   8.791  39.356  1.00  0.00    -0.000 C 
BRANCH   7   8
ATOM      8  C   UNL     1      -0.332   9.024  39.585  1.00  0.00    -0.003 C 
ATOM      9  C   UNL     1       0.032   8.851  41.057  1.00  0.00     0.004 C 
ENDBRANCH   7   8
ENDBRANCH   6   7
ENDBRANCH   1   6
TORSDOF 5
ENDMDL
