MODEL 1
REMARK VINA RESULT:    -4.427      0.000      0.000
REMARK INTER + INTRA:          -6.984
REMARK INTER:                  -5.463
REMARK INTRA:                  -1.521
REMARK UNBOUND:                -1.521
REMARK SMILES CC(C)=CCC[C@@H](C)c1ccc(C)cc1
REMARK SMILES IDX 6 1 7 2 8 3 9 4 13 5 12 6 11 7 14 8 10 9 15 10 5 11 4 12
REMARK SMILES IDX 2 13 1 14 3 15
REMARK H PARENT
REMARK Flexibility Score: inf
ROOT
ATOM      1  C   UNL     1      17.989  -6.244   2.291  1.00  0.00     0.012 C 
ENDROOT
BRANCH   1   2
ATOM      2  C   UNL     1      17.002  -7.394   2.611  1.00  0.00     0.016 C 
ATOM      3  C   UNL     1      17.210  -8.606   1.690  1.00  0.00     0.013 C 
BRANCH   2   4
ATOM      4  C   UNL     1      17.126  -7.816   4.065  1.00  0.00    -0.045 A 
ATOM      5  C   UNL     1      17.449  -8.980   8.212  1.00  0.00     0.044 C 
ATOM      6  C   UNL     1      17.366  -8.582   6.768  1.00  0.00    -0.051 A 
ATOM      7  C   UNL     1      17.031  -9.531   5.792  1.00  0.00     0.004 A 
ATOM      8  C   UNL     1      17.555  -7.246   6.391  1.00  0.00     0.004 A 
ATOM      9  C   UNL     1      16.918  -9.154   4.450  1.00  0.00     0.004 A 
ATOM     10  C   UNL     1      17.442  -6.866   5.051  1.00  0.00     0.004 A 
ENDBRANCH   2   4
ENDBRANCH   1   2
BRANCH   1  11
ATOM     11  C   UNL     1      19.385  -6.733   1.870  1.00  0.00     0.028 C 
BRANCH  11  12
ATOM     12  C   UNL     1      20.441  -6.297   2.860  1.00  0.00    -0.028 C 
ATOM     13  C   UNL     1      21.012  -7.097   3.787  1.00  0.00    -0.080 C 
ATOM     14  C   UNL     1      22.071  -6.510   4.686  1.00  0.00     0.039 C 
ATOM     15  C   UNL     1      20.626  -8.547   3.946  1.00  0.00     0.039 C 
ENDBRANCH  11  12
ENDBRANCH   1  11
TORSDOF 4
ENDMDL
MODEL 2
REMARK VINA RESULT:    -4.421      1.273      3.798
REMARK INTER + INTRA:          -6.975
REMARK INTER:                  -5.532
REMARK INTRA:                  -1.444
REMARK UNBOUND:                -1.521
REMARK SMILES CC(C)=CCC[C@@H](C)c1ccc(C)cc1
REMARK SMILES IDX 6 1 7 2 8 3 9 4 13 5 12 6 11 7 14 8 10 9 15 10 5 11 4 12
REMARK SMILES IDX 2 13 1 14 3 15
REMARK H PARENT
REMARK Flexibility Score: inf
ROOT
ATOM      1  C   UNL     1      19.777  -8.373   6.211  1.00  0.00     0.012 C 
ENDROOT
BRANCH   1   2
ATOM      2  C   UNL     1      18.336  -8.700   5.746  1.00  0.00     0.016 C 
ATOM      3  C   UNL     1      17.296  -8.392   6.834  1.00  0.00     0.013 C 
BRANCH   2   4
ATOM      4  C   UNL     1      18.000  -7.940   4.475  1.00  0.00    -0.045 A 
ATOM      5  C   UNL     1      17.091  -5.756   0.861  1.00  0.00     0.044 C 
ATOM      6  C   UNL     1      17.377  -6.511   2.125  1.00  0.00    -0.051 A 
ATOM      7  C   UNL     1      17.254  -7.907   2.156  1.00  0.00     0.004 A 
ATOM      8  C   UNL     1      17.837  -5.835   3.263  1.00  0.00     0.004 A 
ATOM      9  C   UNL     1      17.557  -8.616   3.323  1.00  0.00     0.004 A 
ATOM     10  C   UNL     1      18.141  -6.542   4.430  1.00  0.00     0.004 A 
ENDBRANCH   2   4
ENDBRANCH   1   2
BRANCH   1  11
ATOM     11  C   UNL     1      20.853  -8.732   5.173  1.00  0.00     0.028 C 
BRANCH  11  12
ATOM     12  C   UNL     1      21.759  -7.554   4.893  1.00  0.00    -0.028 C 
ATOM     13  C   UNL     1      21.898  -6.952   3.691  1.00  0.00    -0.080 C 
ATOM     14  C   UNL     1      22.829  -5.770   3.586  1.00  0.00     0.039 C 
ATOM     15  C   UNL     1      21.156  -7.423   2.465  1.00  0.00     0.039 C 
ENDBRANCH  11  12
ENDBRANCH   1  11
TORSDOF 4
ENDMDL
MODEL 3
REMARK VINA RESULT:    -4.411      0.069      1.252
REMARK INTER + INTRA:          -6.964
REMARK INTER:                  -5.456
REMARK INTRA:                  -1.507
REMARK UNBOUND:                -1.521
REMARK SMILES CC(C)=CCC[C@@H](C)c1ccc(C)cc1
REMARK SMILES IDX 6 1 7 2 8 3 9 4 13 5 12 6 11 7 14 8 10 9 15 10 5 11 4 12
REMARK SMILES IDX 2 13 1 14 3 15
REMARK H PARENT
REMARK Flexibility Score: inf
ROOT
ATOM      1  C   UNL     1      17.978  -6.247   2.327  1.00  0.00     0.012 C 
ENDROOT
BRANCH   1   2
ATOM      2  C   UNL     1      16.995  -7.395   2.668  1.00  0.00     0.016 C 
ATOM      3  C   UNL     1      17.198  -8.617   1.759  1.00  0.00     0.013 C 
BRANCH   2   4
ATOM      4  C   UNL     1      17.132  -7.800   4.125  1.00  0.00    -0.045 A 
ATOM      5  C   UNL     1      17.553  -8.990   8.256  1.00  0.00     0.044 C 
ATOM      6  C   UNL     1      17.378  -8.570   6.827  1.00  0.00    -0.051 A 
ATOM      7  C   UNL     1      17.621  -7.243   6.445  1.00  0.00     0.004 A 
ATOM      8  C   UNL     1      17.036  -9.515   5.849  1.00  0.00     0.004 A 
ATOM      9  C   UNL     1      17.494  -6.859   5.107  1.00  0.00     0.004 A 
ATOM     10  C   UNL     1      16.909  -9.133   4.511  1.00  0.00     0.004 A 
ENDBRANCH   2   4
ENDBRANCH   1   2
BRANCH   1  11
ATOM     11  C   UNL     1      19.365  -6.739   1.883  1.00  0.00     0.028 C 
BRANCH  11  12
ATOM     12  C   UNL     1      20.442  -6.275   2.838  1.00  0.00    -0.028 C 
ATOM     13  C   UNL     1      21.039  -7.052   3.770  1.00  0.00    -0.080 C 
ATOM     14  C   UNL     1      22.115  -6.439   4.630  1.00  0.00     0.039 C 
ATOM     15  C   UNL     1      20.663  -8.499   3.971  1.00  0.00     0.039 C 
ENDBRANCH  11  12
ENDBRANCH   1  11
TORSDOF 4
ENDMDL
MODEL 4
REMARK VINA RESULT:    -4.381      1.633      5.168
REMARK INTER + INTRA:          -6.926
REMARK INTER:                  -5.362
REMARK INTRA:                  -1.564
REMARK UNBOUND:                -1.521
REMARK SMILES CC(C)=CCC[C@@H](C)c1ccc(C)cc1
REMARK SMILES IDX 6 1 7 2 8 3 9 4 13 5 12 6 11 7 14 8 10 9 15 10 5 11 4 12
REMARK SMILES IDX 2 13 1 14 3 15
REMARK H PARENT
REMARK Flexibility Score: inf
ROOT
ATOM      1  C   UNL     1      18.487  -6.807   5.833  1.00  0.00     0.012 C 
ENDROOT
BRANCH   1   2
ATOM      2  C   UNL     1      19.819  -7.562   6.068  1.00  0.00     0.016 C 
ATOM      3  C   UNL     1      19.589  -9.037   6.431  1.00  0.00     0.013 C 
BRANCH   2   4
ATOM      4  C   UNL     1      20.714  -7.460   4.845  1.00  0.00    -0.045 A 
ATOM      5  C   UNL     1      23.231  -7.206   1.344  1.00  0.00     0.044 C 
ATOM      6  C   UNL     1      22.382  -7.289   2.577  1.00  0.00    -0.051 A 
ATOM      7  C   UNL     1      21.763  -6.139   3.088  1.00  0.00     0.004 A 
ATOM      8  C   UNL     1      22.142  -8.527   3.189  1.00  0.00     0.004 A 
ATOM      9  C   UNL     1      20.941  -6.222   4.215  1.00  0.00     0.004 A 
ATOM     10  C   UNL     1      21.320  -8.612   4.316  1.00  0.00     0.004 A 
ENDBRANCH   2   4
ENDBRANCH   1   2
BRANCH   1  11
ATOM     11  C   UNL     1      17.555  -7.504   4.828  1.00  0.00     0.028 C 
BRANCH  11  12
ATOM     12  C   UNL     1      17.283  -6.623   3.630  1.00  0.00    -0.028 C 
ATOM     13  C   UNL     1      17.671  -6.895   2.363  1.00  0.00    -0.080 C 
ATOM     14  C   UNL     1      17.297  -5.920   1.276  1.00  0.00     0.039 C 
ATOM     15  C   UNL     1      18.457  -8.134   2.012  1.00  0.00     0.039 C 
ENDBRANCH  11  12
ENDBRANCH   1  11
TORSDOF 4
ENDMDL
MODEL 5
REMARK VINA RESULT:    -4.290      1.339      5.055
REMARK INTER + INTRA:          -6.814
REMARK INTER:                  -5.642
REMARK INTRA:                  -1.172
REMARK UNBOUND:                -1.521
REMARK SMILES CC(C)=CCC[C@@H](C)c1ccc(C)cc1
REMARK SMILES IDX 6 1 7 2 8 3 9 4 13 5 12 6 11 7 14 8 10 9 15 10 5 11 4 12
REMARK SMILES IDX 2 13 1 14 3 15
REMARK H PARENT
REMARK Flexibility Score: inf
ROOT
ATOM      1  C   UNL     1      21.049  -9.041   5.202  1.00  0.00     0.012 C 
ENDROOT
BRANCH   1   2
ATOM      2  C   UNL     1      20.758  -7.525   5.335  1.00  0.00     0.016 C 
ATOM      3  C   UNL     1      22.046  -6.688   5.322  1.00  0.00     0.013 C 
BRANCH   2   4
ATOM      4  C   UNL     1      19.824  -7.062   4.230  1.00  0.00    -0.045 A 
ATOM      5  C   UNL     1      17.175  -5.790   1.065  1.00  0.00     0.044 C 
ATOM      6  C   UNL     1      18.106  -6.203   2.167  1.00  0.00    -0.051 A 
ATOM      7  C   UNL     1      17.677  -6.173   3.501  1.00  0.00     0.004 A 
ATOM      8  C   UNL     1      19.386  -6.688   1.866  1.00  0.00     0.004 A 
ATOM      9  C   UNL     1      18.531  -6.593   4.526  1.00  0.00     0.004 A 
ATOM     10  C   UNL     1      20.240  -7.109   2.889  1.00  0.00     0.004 A 
ENDBRANCH   2   4
ENDBRANCH   1   2
BRANCH   1  11
ATOM     11  C   UNL     1      19.880  -9.932   5.651  1.00  0.00     0.028 C 
BRANCH  11  12
ATOM     12  C   UNL     1      19.219  -9.384   6.895  1.00  0.00    -0.028 C 
ATOM     13  C   UNL     1      17.886  -9.225   7.060  1.00  0.00    -0.080 C 
ATOM     14  C   UNL     1      17.387  -8.686   8.376  1.00  0.00     0.039 C 
ATOM     15  C   UNL     1      16.896  -9.571   5.976  1.00  0.00     0.039 C 
ENDBRANCH  11  12
ENDBRANCH   1  11
TORSDOF 4
ENDMDL
MODEL 6
REMARK VINA RESULT:    -4.252      1.349      4.261
REMARK INTER + INTRA:          -6.767
REMARK INTER:                  -5.263
REMARK INTRA:                  -1.504
REMARK UNBOUND:                -1.521
REMARK SMILES CC(C)=CCC[C@@H](C)c1ccc(C)cc1
REMARK SMILES IDX 6 1 7 2 8 3 9 4 13 5 12 6 11 7 14 8 10 9 15 10 5 11 4 12
REMARK SMILES IDX 2 13 1 14 3 15
REMARK H PARENT
REMARK Flexibility Score: inf
ROOT
ATOM      1  C   UNL     1      17.965  -9.808   6.462  1.00  0.00     0.012 C 
ENDROOT
BRANCH   1   2
ATOM      2  C   UNL     1      17.231  -8.444   6.413  1.00  0.00     0.016 C 
ATOM      3  C   UNL     1      17.781  -7.456   7.452  1.00  0.00     0.013 C 
BRANCH   2   4
ATOM      4  C   UNL     1      17.318  -7.840   5.022  1.00  0.00    -0.045 A 
ATOM      5  C   UNL     1      17.518  -6.134   1.059  1.00  0.00     0.044 C 
ATOM      6  C   UNL     1      17.477  -6.738   2.431  1.00  0.00    -0.051 A 
ATOM      7  C   UNL     1      17.908  -5.999   3.541  1.00  0.00     0.004 A 
ATOM      8  C   UNL     1      16.943  -8.020   2.624  1.00  0.00     0.004 A 
ATOM      9  C   UNL     1      17.836  -6.546   4.826  1.00  0.00     0.004 A 
ATOM     10  C   UNL     1      16.869  -8.569   3.907  1.00  0.00     0.004 A 
ENDBRANCH   2   4
ENDBRANCH   1   2
BRANCH   1  11
ATOM     11  C   UNL     1      19.481  -9.681   6.678  1.00  0.00     0.028 C 
BRANCH  11  12
ATOM     12  C   UNL     1      20.215  -9.571   5.360  1.00  0.00    -0.028 C 
ATOM     13  C   UNL     1      21.006  -8.536   4.997  1.00  0.00    -0.080 C 
ATOM     14  C   UNL     1      21.686  -8.593   3.653  1.00  0.00     0.039 C 
ATOM     15  C   UNL     1      21.225  -7.340   5.890  1.00  0.00     0.039 C 
ENDBRANCH  11  12
ENDBRANCH   1  11
TORSDOF 4
ENDMDL
MODEL 7
REMARK VINA RESULT:    -4.220      1.564      5.001
REMARK INTER + INTRA:          -6.728
REMARK INTER:                  -5.185
REMARK INTRA:                  -1.544
REMARK UNBOUND:                -1.521
REMARK SMILES CC(C)=CCC[C@@H](C)c1ccc(C)cc1
REMARK SMILES IDX 6 1 7 2 8 3 9 4 13 5 12 6 11 7 14 8 10 9 15 10 5 11 4 12
REMARK SMILES IDX 2 13 1 14 3 15
REMARK H PARENT
REMARK Flexibility Score: inf
ROOT
ATOM      1  C   UNL     1      19.747  -7.371   6.148  1.00  0.00     0.012 C 
ENDROOT
BRANCH   1   2
ATOM      2  C   UNL     1      20.546  -6.711   4.997  1.00  0.00     0.016 C 
ATOM      3  C   UNL     1      21.835  -7.482   4.673  1.00  0.00     0.013 C 
BRANCH   2   4
ATOM      4  C   UNL     1      19.686  -6.588   3.751  1.00  0.00    -0.045 A 
ATOM      5  C   UNL     1      17.224  -6.193   0.224  1.00  0.00     0.044 C 
ATOM      6  C   UNL     1      18.071  -6.359   1.451  1.00  0.00    -0.051 A 
ATOM      7  C   UNL     1      19.420  -6.721   1.334  1.00  0.00     0.004 A 
ATOM      8  C   UNL     1      17.539  -6.088   2.719  1.00  0.00     0.004 A 
ATOM      9  C   UNL     1      20.220  -6.840   2.474  1.00  0.00     0.004 A 
ATOM     10  C   UNL     1      18.337  -6.206   3.860  1.00  0.00     0.004 A 
ENDBRANCH   2   4
ENDBRANCH   1   2
BRANCH   1  11
ATOM     11  C   UNL     1      19.610  -8.896   6.004  1.00  0.00     0.028 C 
BRANCH  11  12
ATOM     12  C   UNL     1      18.160  -9.306   5.875  1.00  0.00    -0.028 C 
ATOM     13  C   UNL     1      17.588  -9.787   4.748  1.00  0.00    -0.080 C 
ATOM     14  C   UNL     1      16.132 -10.174   4.794  1.00  0.00     0.039 C 
ATOM     15  C   UNL     1      18.358  -9.948   3.461  1.00  0.00     0.039 C 
ENDBRANCH  11  12
ENDBRANCH   1  11
TORSDOF 4
ENDMDL
MODEL 8
REMARK VINA RESULT:    -4.210      1.296      1.883
REMARK INTER + INTRA:          -6.715
REMARK INTER:                  -5.620
REMARK INTRA:                  -1.095
REMARK UNBOUND:                -1.521
REMARK SMILES CC(C)=CCC[C@@H](C)c1ccc(C)cc1
REMARK SMILES IDX 6 1 7 2 8 3 9 4 13 5 12 6 11 7 14 8 10 9 15 10 5 11 4 12
REMARK SMILES IDX 2 13 1 14 3 15
REMARK H PARENT
REMARK Flexibility Score: inf
ROOT
ATOM      1  C   UNL     1      19.439  -7.264   1.377  1.00  0.00     0.012 C 
ENDROOT
BRANCH   1   2
ATOM      2  C   UNL     1      18.534  -6.253   2.124  1.00  0.00     0.016 C 
ATOM      3  C   UNL     1      17.239  -5.959   1.352  1.00  0.00     0.013 C 
BRANCH   2   4
ATOM      4  C   UNL     1      18.206  -6.758   3.518  1.00  0.00    -0.045 A 
ATOM      5  C   UNL     1      17.270  -8.147   7.500  1.00  0.00     0.044 C 
ATOM      6  C   UNL     1      17.615  -7.688   6.114  1.00  0.00    -0.051 A 
ATOM      7  C   UNL     1      16.875  -8.145   5.014  1.00  0.00     0.004 A 
ATOM      8  C   UNL     1      18.633  -6.746   5.914  1.00  0.00     0.004 A 
ATOM      9  C   UNL     1      17.171  -7.689   3.726  1.00  0.00     0.004 A 
ATOM     10  C   UNL     1      18.930  -6.289   4.627  1.00  0.00     0.004 A 
ENDBRANCH   2   4
ENDBRANCH   1   2
BRANCH   1  11
ATOM     11  C   UNL     1      20.937  -6.931   1.468  1.00  0.00     0.028 C 
BRANCH  11  12
ATOM     12  C   UNL     1      21.615  -7.745   2.547  1.00  0.00    -0.028 C 
ATOM     13  C   UNL     1      22.358  -7.233   3.554  1.00  0.00    -0.080 C 
ATOM     14  C   UNL     1      22.947  -8.184   4.564  1.00  0.00     0.039 C 
ATOM     15  C   UNL     1      22.609  -5.752   3.694  1.00  0.00     0.039 C 
ENDBRANCH  11  12
ENDBRANCH   1  11
TORSDOF 4
ENDMDL
