MODEL 1
REMARK VINA RESULT:    -5.082      0.000      0.000
REMARK INTER + INTRA:          -5.740
REMARK INTER:                  -5.677
REMARK INTRA:                  -0.064
REMARK UNBOUND:                -0.064
REMARK SMILES COc1cc2ccc(=O)oc2c(O)c1O
REMARK SMILES IDX 3 1 14 2 12 3 11 4 5 5 4 6 6 7 7 8 8 9 9 10 10 11 2 12 1 13
REMARK SMILES IDX 15 14 13 16
REMARK H PARENT 15 15 13 17
REMARK Flexibility Score: inf
ROOT
ATOM      1  C   UNL     1      10.770  13.161  21.983  1.00  0.00     0.165 A 
ATOM      2  C   UNL     1      10.565  13.317  20.604  1.00  0.00     0.204 A 
ATOM      3  C   UNL     1      11.428  14.124  19.841  1.00  0.00     0.205 A 
ATOM      4  C   UNL     1      12.505  14.778  20.464  1.00  0.00     0.184 A 
ATOM      5  C   UNL     1      12.712  14.623  21.851  1.00  0.00     0.025 A 
ATOM      6  C   UNL     1      11.849  13.818  22.605  1.00  0.00     0.062 A 
ATOM      7  C   UNL     1      13.791  15.286  22.445  1.00  0.00     0.020 A 
ATOM      8  C   UNL     1      14.626  16.077  21.657  1.00  0.00     0.094 A 
ATOM      9  C   UNL     1      14.361  16.187  20.290  1.00  0.00     0.336 A 
ATOM     10  O   UNL     1      15.102  16.896  19.560  1.00  0.00    -0.246 OA
ATOM     11  O   UNL     1      13.328  15.545  19.750  1.00  0.00    -0.419 OA
ENDROOT
BRANCH   1  12
ATOM     12  O   UNL     1       9.881  12.345  22.701  1.00  0.00    -0.493 OA
ATOM     13  C   UNL     1       9.124  12.772  23.829  1.00  0.00     0.278 C 
ENDBRANCH   1  12
BRANCH   2  14
ATOM     14  O   UNL     1       9.490  12.659  20.002  1.00  0.00    -0.502 OA
ATOM     15  H   UNL     1       8.542  13.010  20.056  1.00  0.00     0.293 HD
ENDBRANCH   2  14
BRANCH   3  16
ATOM     16  O   UNL     1      11.207  14.267  18.471  1.00  0.00    -0.502 OA
ATOM     17  H   UNL     1      11.469  15.104  17.965  1.00  0.00     0.293 HD
ENDBRANCH   3  16
TORSDOF 3
ENDMDL
MODEL 2
REMARK VINA RESULT:    -4.845      1.000      4.647
REMARK INTER + INTRA:          -5.475
REMARK INTER:                  -5.423
REMARK INTRA:                  -0.052
REMARK UNBOUND:                -0.064
REMARK SMILES COc1cc2ccc(=O)oc2c(O)c1O
REMARK SMILES IDX 3 1 14 2 12 3 11 4 5 5 4 6 6 7 7 8 8 9 9 10 10 11 2 12 1 13
REMARK SMILES IDX 15 14 13 16
REMARK H PARENT 15 15 13 17
REMARK Flexibility Score: inf
ROOT
ATOM      1  C   UNL     1      13.126  14.990  20.222  1.00  0.00     0.165 A 
ATOM      2  C   UNL     1      12.050  14.542  19.441  1.00  0.00     0.204 A 
ATOM      3  C   UNL     1      10.984  13.839  20.032  1.00  0.00     0.205 A 
ATOM      4  C   UNL     1      10.994  13.586  21.414  1.00  0.00     0.184 A 
ATOM      5  C   UNL     1      12.076  14.035  22.201  1.00  0.00     0.025 A 
ATOM      6  C   UNL     1      13.135  14.734  21.607  1.00  0.00     0.062 A 
ATOM      7  C   UNL     1      12.060  13.768  23.574  1.00  0.00     0.020 A 
ATOM      8  C   UNL     1      10.986  13.070  24.123  1.00  0.00     0.094 A 
ATOM      9  C   UNL     1       9.950  12.654  23.285  1.00  0.00     0.336 A 
ATOM     10  O   UNL     1       8.971  12.021  23.760  1.00  0.00    -0.246 OA
ATOM     11  O   UNL     1       9.989  12.921  21.982  1.00  0.00    -0.419 OA
ENDROOT
BRANCH   1  12
ATOM     12  O   UNL     1      14.167  15.686  19.587  1.00  0.00    -0.493 OA
ATOM     13  C   UNL     1      15.098  16.532  20.254  1.00  0.00     0.278 C 
ENDBRANCH   1  12
BRANCH   2  14
ATOM     14  O   UNL     1      12.057  14.804  18.070  1.00  0.00    -0.502 OA
ATOM     15  H   UNL     1      12.282  14.093  17.384  1.00  0.00     0.293 HD
ENDBRANCH   2  14
BRANCH   3  16
ATOM     16  O   UNL     1       9.923  13.402  19.237  1.00  0.00    -0.502 OA
ATOM     17  H   UNL     1       9.913  12.485  18.807  1.00  0.00     0.293 HD
ENDBRANCH   3  16
TORSDOF 3
ENDMDL
MODEL 3
REMARK VINA RESULT:    -4.676      1.617      2.885
REMARK INTER + INTRA:          -5.286
REMARK INTER:                  -5.234
REMARK INTRA:                  -0.052
REMARK UNBOUND:                -0.064
REMARK SMILES COc1cc2ccc(=O)oc2c(O)c1O
REMARK SMILES IDX 3 1 14 2 12 3 11 4 5 5 4 6 6 7 7 8 8 9 9 10 10 11 2 12 1 13
REMARK SMILES IDX 15 14 13 16
REMARK H PARENT 15 15 13 17
REMARK Flexibility Score: inf
ROOT
ATOM      1  C   UNL     1      11.091  12.971  19.922  1.00  0.00     0.165 A 
ATOM      2  C   UNL     1      10.845  13.001  21.303  1.00  0.00     0.204 A 
ATOM      3  C   UNL     1      11.576  13.863  22.140  1.00  0.00     0.205 A 
ATOM      4  C   UNL     1      12.560  14.702  21.590  1.00  0.00     0.184 A 
ATOM      5  C   UNL     1      12.810  14.673  20.202  1.00  0.00     0.025 A 
ATOM      6  C   UNL     1      12.079  13.812  19.374  1.00  0.00     0.062 A 
ATOM      7  C   UNL     1      13.796  15.519  19.682  1.00  0.00     0.020 A 
ATOM      8  C   UNL     1      14.499  16.360  20.542  1.00  0.00     0.094 A 
ATOM      9  C   UNL     1      14.201  16.335  21.907  1.00  0.00     0.336 A 
ATOM     10  O   UNL     1      14.825  17.086  22.701  1.00  0.00    -0.246 OA
ATOM     11  O   UNL     1      13.258  15.521  22.375  1.00  0.00    -0.419 OA
ENDROOT
BRANCH   1  12
ATOM     12  O   UNL     1      10.336  12.094  19.128  1.00  0.00    -0.493 OA
ATOM     13  C   UNL     1       9.132  12.447  18.455  1.00  0.00     0.278 C 
ENDBRANCH   1  12
BRANCH   2  14
ATOM     14  O   UNL     1       9.863  12.160  21.831  1.00  0.00    -0.502 OA
ATOM     15  H   UNL     1       8.904  12.176  21.504  1.00  0.00     0.293 HD
ENDBRANCH   2  14
BRANCH   3  16
ATOM     16  O   UNL     1      11.315  13.877  23.511  1.00  0.00    -0.502 OA
ATOM     17  H   UNL     1      10.679  13.220  23.947  1.00  0.00     0.293 HD
ENDBRANCH   3  16
TORSDOF 3
ENDMDL
MODEL 4
REMARK VINA RESULT:    -4.594      1.837      3.119
REMARK INTER + INTRA:          -5.194
REMARK INTER:                  -5.131
REMARK INTRA:                  -0.063
REMARK UNBOUND:                -0.064
REMARK SMILES COc1cc2ccc(=O)oc2c(O)c1O
REMARK SMILES IDX 3 1 14 2 12 3 11 4 5 5 4 6 6 7 7 8 8 9 9 10 10 11 2 12 1 13
REMARK SMILES IDX 15 14 13 16
REMARK H PARENT 15 15 13 17
REMARK Flexibility Score: inf
ROOT
ATOM      1  C   UNL     1      11.526  13.282  19.773  1.00  0.00     0.165 A 
ATOM      2  C   UNL     1      12.405  14.201  19.181  1.00  0.00     0.204 A 
ATOM      3  C   UNL     1      13.146  15.094  19.976  1.00  0.00     0.205 A 
ATOM      4  C   UNL     1      13.006  15.066  21.374  1.00  0.00     0.184 A 
ATOM      5  C   UNL     1      12.121  14.143  21.971  1.00  0.00     0.025 A 
ATOM      6  C   UNL     1      11.386  13.256  21.174  1.00  0.00     0.062 A 
ATOM      7  C   UNL     1      12.001  14.138  23.365  1.00  0.00     0.020 A 
ATOM      8  C   UNL     1      12.752  15.037  24.120  1.00  0.00     0.094 A 
ATOM      9  C   UNL     1      13.607  15.924  23.462  1.00  0.00     0.336 A 
ATOM     10  O   UNL     1      14.293  16.746  24.125  1.00  0.00    -0.246 OA
ATOM     11  O   UNL     1      13.703  15.909  22.135  1.00  0.00    -0.419 OA
ENDROOT
BRANCH   1  12
ATOM     12  O   UNL     1      10.809  12.411  18.937  1.00  0.00    -0.493 OA
ATOM     13  C   UNL     1       9.470  12.628  18.502  1.00  0.00     0.278 C 
ENDBRANCH   1  12
BRANCH   2  14
ATOM     14  O   UNL     1      12.532  14.214  17.790  1.00  0.00    -0.502 OA
ATOM     15  H   UNL     1      13.340  14.609  17.324  1.00  0.00     0.293 HD
ENDBRANCH   2  14
BRANCH   3  16
ATOM     16  O   UNL     1      14.015  16.000  19.367  1.00  0.00    -0.502 OA
ATOM     17  H   UNL     1      14.949  15.740  19.074  1.00  0.00     0.293 HD
ENDBRANCH   3  16
TORSDOF 3
ENDMDL
MODEL 5
REMARK VINA RESULT:    -4.301      1.646      4.617
REMARK INTER + INTRA:          -4.867
REMARK INTER:                  -4.814
REMARK INTRA:                  -0.053
REMARK UNBOUND:                -0.064
REMARK SMILES COc1cc2ccc(=O)oc2c(O)c1O
REMARK SMILES IDX 3 1 14 2 12 3 11 4 5 5 4 6 6 7 7 8 8 9 9 10 10 11 2 12 1 13
REMARK SMILES IDX 15 14 13 16
REMARK H PARENT 15 15 13 17
REMARK Flexibility Score: inf
ROOT
ATOM      1  C   UNL     1      13.694  14.977  21.439  1.00  0.00     0.165 A 
ATOM      2  C   UNL     1      13.612  15.340  20.086  1.00  0.00     0.204 A 
ATOM      3  C   UNL     1      12.637  14.766  19.251  1.00  0.00     0.205 A 
ATOM      4  C   UNL     1      11.736  13.823  19.775  1.00  0.00     0.184 A 
ATOM      5  C   UNL     1      11.818  13.456  21.135  1.00  0.00     0.025 A 
ATOM      6  C   UNL     1      12.792  14.031  21.961  1.00  0.00     0.062 A 
ATOM      7  C   UNL     1      10.909  12.514  21.629  1.00  0.00     0.020 A 
ATOM      8  C   UNL     1       9.956  11.967  20.772  1.00  0.00     0.094 A 
ATOM      9  C   UNL     1       9.933  12.376  19.437  1.00  0.00     0.336 A 
ATOM     10  O   UNL     1       9.081  11.894  18.645  1.00  0.00    -0.246 OA
ATOM     11  O   UNL     1      10.809  13.273  18.992  1.00  0.00    -0.419 OA
ENDROOT
BRANCH   1  12
ATOM     12  O   UNL     1      14.686  15.577  22.232  1.00  0.00    -0.493 OA
ATOM     13  C   UNL     1      14.490  16.745  23.023  1.00  0.00     0.278 C 
ENDBRANCH   1  12
BRANCH   2  14
ATOM     14  O   UNL     1      14.515  16.279  19.584  1.00  0.00    -0.502 OA
ATOM     15  H   UNL     1      15.292  16.019  18.988  1.00  0.00     0.293 HD
ENDBRANCH   2  14
BRANCH   3  16
ATOM     16  O   UNL     1      12.572  15.141  17.909  1.00  0.00    -0.502 OA
ATOM     17  H   UNL     1      11.691  15.296  17.433  1.00  0.00     0.293 HD
ENDBRANCH   3  16
TORSDOF 3
ENDMDL
MODEL 6
REMARK VINA RESULT:    -3.778      2.038      4.839
REMARK INTER + INTRA:          -4.283
REMARK INTER:                  -4.213
REMARK INTRA:                  -0.070
REMARK UNBOUND:                -0.064
REMARK SMILES COc1cc2ccc(=O)oc2c(O)c1O
REMARK SMILES IDX 3 1 14 2 12 3 11 4 5 5 4 6 6 7 7 8 8 9 9 10 10 11 2 12 1 13
REMARK SMILES IDX 15 14 13 16
REMARK H PARENT 15 15 13 17
REMARK Flexibility Score: inf
ROOT
ATOM      1  C   UNL     1      13.989  15.159  22.217  1.00  0.00     0.165 A 
ATOM      2  C   UNL     1      13.643  14.001  22.929  1.00  0.00     0.204 A 
ATOM      3  C   UNL     1      12.643  13.138  22.444  1.00  0.00     0.205 A 
ATOM      4  C   UNL     1      11.987  13.437  21.238  1.00  0.00     0.184 A 
ATOM      5  C   UNL     1      12.333  14.602  20.521  1.00  0.00     0.025 A 
ATOM      6  C   UNL     1      13.329  15.457  21.009  1.00  0.00     0.062 A 
ATOM      7  C   UNL     1      11.663  14.874  19.324  1.00  0.00     0.020 A 
ATOM      8  C   UNL     1      10.679  13.996  18.875  1.00  0.00     0.094 A 
ATOM      9  C   UNL     1      10.386  12.861  19.636  1.00  0.00     0.336 A 
ATOM     10  O   UNL     1       9.500  12.055  19.250  1.00  0.00    -0.246 OA
ATOM     11  O   UNL     1      11.038  12.626  20.772  1.00  0.00    -0.419 OA
ENDROOT
BRANCH   1  12
ATOM     12  O   UNL     1      14.993  15.990  22.741  1.00  0.00    -0.493 OA
ATOM     13  C   UNL     1      14.756  17.242  23.377  1.00  0.00     0.278 C 
ENDBRANCH   1  12
BRANCH   2  14
ATOM     14  O   UNL     1      14.306  13.721  24.125  1.00  0.00    -0.502 OA
ATOM     15  H   UNL     1      13.885  13.165  24.860  1.00  0.00     0.293 HD
ENDBRANCH   2  14
BRANCH   3  16
ATOM     16  O   UNL     1      12.314  11.991  23.168  1.00  0.00    -0.502 OA
ATOM     17  H   UNL     1      11.494  11.435  22.955  1.00  0.00     0.293 HD
ENDBRANCH   3  16
TORSDOF 3
ENDMDL
MODEL 7
REMARK VINA RESULT:    -3.233      2.259      3.118
REMARK INTER + INTRA:          -3.675
REMARK INTER:                  -3.771
REMARK INTRA:                   0.097
REMARK UNBOUND:                -0.064
REMARK SMILES COc1cc2ccc(=O)oc2c(O)c1O
REMARK SMILES IDX 3 1 14 2 12 3 11 4 5 5 4 6 6 7 7 8 8 9 9 10 10 11 2 12 1 13
REMARK SMILES IDX 15 14 13 16
REMARK H PARENT 15 15 13 17
REMARK Flexibility Score: inf
ROOT
ATOM      1  C   UNL     1      10.417  12.774  22.243  1.00  0.00     0.165 A 
ATOM      2  C   UNL     1      11.636  12.402  22.830  1.00  0.00     0.204 A 
ATOM      3  C   UNL     1      12.844  12.558  22.127  1.00  0.00     0.205 A 
ATOM      4  C   UNL     1      12.831  13.091  20.826  1.00  0.00     0.184 A 
ATOM      5  C   UNL     1      11.606  13.465  20.234  1.00  0.00     0.025 A 
ATOM      6  C   UNL     1      10.407  13.307  20.939  1.00  0.00     0.062 A 
ATOM      7  C   UNL     1      11.624  13.992  18.938  1.00  0.00     0.020 A 
ATOM      8  C   UNL     1      12.840  14.132  18.272  1.00  0.00     0.094 A 
ATOM      9  C   UNL     1      14.015  13.740  18.919  1.00  0.00     0.336 A 
ATOM     10  O   UNL     1      15.124  13.858  18.336  1.00  0.00    -0.246 OA
ATOM     11  O   UNL     1      13.970  13.242  20.152  1.00  0.00    -0.419 OA
ENDROOT
BRANCH   1  12
ATOM     12  O   UNL     1       9.238  12.599  22.985  1.00  0.00    -0.493 OA
ATOM     13  C   UNL     1       8.848  13.414  24.086  1.00  0.00     0.278 C 
ENDBRANCH   1  12
BRANCH   2  14
ATOM     14  O   UNL     1      11.629  11.875  24.123  1.00  0.00    -0.502 OA
ATOM     15  H   UNL     1      11.034  12.245  24.855  1.00  0.00     0.293 HD
ENDBRANCH   2  14
BRANCH   3  16
ATOM     16  O   UNL     1      14.045  12.182  22.729  1.00  0.00    -0.502 OA
ATOM     17  H   UNL     1      14.690  11.534  22.292  1.00  0.00     0.293 HD
ENDBRANCH   3  16
TORSDOF 3
ENDMDL
MODEL 8
REMARK VINA RESULT:    -2.822     14.577     16.193
REMARK INTER + INTRA:          -3.215
REMARK INTER:                  -3.148
REMARK INTRA:                  -0.067
REMARK UNBOUND:                -0.064
REMARK SMILES COc1cc2ccc(=O)oc2c(O)c1O
REMARK SMILES IDX 3 1 14 2 12 3 11 4 5 5 4 6 6 7 7 8 8 9 9 10 10 11 2 12 1 13
REMARK SMILES IDX 15 14 13 16
REMARK H PARENT 15 15 13 17
REMARK Flexibility Score: inf
ROOT
ATOM      1  C   UNL     1      -4.342  13.601  22.239  1.00  0.00     0.165 A 
ATOM      2  C   UNL     1      -3.088  12.974  22.255  1.00  0.00     0.204 A 
ATOM      3  C   UNL     1      -2.513  12.497  21.062  1.00  0.00     0.205 A 
ATOM      4  C   UNL     1      -3.200  12.650  19.846  1.00  0.00     0.184 A 
ATOM      5  C   UNL     1      -4.462  13.281  19.828  1.00  0.00     0.025 A 
ATOM      6  C   UNL     1      -5.029  13.753  21.019  1.00  0.00     0.062 A 
ATOM      7  C   UNL     1      -5.123  13.419  18.603  1.00  0.00     0.020 A 
ATOM      8  C   UNL     1      -4.522  12.935  17.442  1.00  0.00     0.094 A 
ATOM      9  C   UNL     1      -3.271  12.321  17.534  1.00  0.00     0.336 A 
ATOM     10  O   UNL     1      -2.711  11.876  16.498  1.00  0.00    -0.246 OA
ATOM     11  O   UNL     1      -2.664  12.201  18.712  1.00  0.00    -0.419 OA
ENDROOT
BRANCH   1  12
ATOM     12  O   UNL     1      -4.874  14.060  23.454  1.00  0.00    -0.493 OA
ATOM     13  C   UNL     1      -5.122  15.428  23.763  1.00  0.00     0.278 C 
ENDBRANCH   1  12
BRANCH   2  14
ATOM     14  O   UNL     1      -2.420  12.831  23.473  1.00  0.00    -0.502 OA
ATOM     15  H   UNL     1      -2.913  12.724  24.351  1.00  0.00     0.293 HD
ENDBRANCH   2  14
BRANCH   3  16
ATOM     16  O   UNL     1      -1.264  11.875  21.100  1.00  0.00    -0.502 OA
ATOM     17  H   UNL     1      -0.682  11.882  21.929  1.00  0.00     0.293 HD
ENDBRANCH   3  16
TORSDOF 3
ENDMDL
MODEL 9
REMARK VINA RESULT:    -2.386     25.545     26.751
REMARK INTER + INTRA:          -2.729
REMARK INTER:                  -2.678
REMARK INTRA:                  -0.051
REMARK UNBOUND:                -0.064
REMARK SMILES COc1cc2ccc(=O)oc2c(O)c1O
REMARK SMILES IDX 3 1 14 2 12 3 11 4 5 5 4 6 6 7 7 8 8 9 9 10 10 11 2 12 1 13
REMARK SMILES IDX 15 14 13 16
REMARK H PARENT 15 15 13 17
REMARK Flexibility Score: inf
ROOT
ATOM      1  C   UNL     1      -1.163  32.122   9.208  1.00  0.00     0.165 A 
ATOM      2  C   UNL     1      -0.285  32.115   8.113  1.00  0.00     0.204 A 
ATOM      3  C   UNL     1      -0.785  32.112   6.798  1.00  0.00     0.205 A 
ATOM      4  C   UNL     1      -2.173  32.116   6.578  1.00  0.00     0.184 A 
ATOM      5  C   UNL     1      -3.057  32.122   7.678  1.00  0.00     0.025 A 
ATOM      6  C   UNL     1      -2.553  32.125   8.985  1.00  0.00     0.062 A 
ATOM      7  C   UNL     1      -4.434  32.125   7.429  1.00  0.00     0.020 A 
ATOM      8  C   UNL     1      -4.892  32.122   6.113  1.00  0.00     0.094 A 
ATOM      9  C   UNL     1      -3.960  32.115   5.073  1.00  0.00     0.336 A 
ATOM     10  O   UNL     1      -4.352  32.112   3.877  1.00  0.00    -0.246 OA
ATOM     11  O   UNL     1      -2.656  32.112   5.336  1.00  0.00    -0.419 OA
ENDROOT
BRANCH   1  12
ATOM     12  O   UNL     1      -0.616  32.124  10.501  1.00  0.00    -0.493 OA
ATOM     13  C   UNL     1      -1.381  32.124  11.702  1.00  0.00     0.278 C 
ENDBRANCH   1  12
BRANCH   2  14
ATOM     14  O   UNL     1       1.091  32.112   8.351  1.00  0.00    -0.502 OA
ATOM     15  H   UNL     1       1.647  31.268   8.295  1.00  0.00     0.293 HD
ENDBRANCH   2  14
BRANCH   3  16
ATOM     16  O   UNL     1       0.105  32.106   5.723  1.00  0.00    -0.502 OA
ATOM     17  H   UNL     1      -0.064  32.640   4.879  1.00  0.00     0.293 HD
ENDBRANCH   3  16
TORSDOF 3
ENDMDL
