MODEL 1
REMARK VINA RESULT:    -3.996      0.000      0.000
REMARK INTER + INTRA:          -5.889
REMARK INTER:                  -5.631
REMARK INTRA:                  -0.257
REMARK UNBOUND:                -0.257
REMARK SMILES CCCCCCCCC(=O)[O-]
REMARK SMILES IDX 6 1 7 2 8 3 9 4 10 5 11 6 5 7 4 8 3 9 2 10 1 11
REMARK H PARENT
REMARK Flexibility Score: inf
ROOT
ATOM      1  C   UNL     1     -16.318 -16.456  -2.755  1.00  0.00     0.000 C 
ENDROOT
BRANCH   1   2
ATOM      2  C   UNL     1     -16.766 -17.541  -3.742  1.00  0.00     0.006 C 
BRANCH   2   3
ATOM      3  C   UNL     1     -18.194 -18.003  -3.440  1.00  0.00     0.053 C 
BRANCH   3   4
ATOM      4  C   UNL     1     -18.635 -19.028  -4.437  1.00  0.00     0.041 C 
ATOM      5  O   UNL     1     -19.859 -19.289  -4.578  1.00  0.00    -0.550 OA
ATOM      6  O   UNL     1     -17.699 -19.658  -5.247  1.00  0.00    -0.550 OA
ENDBRANCH   3   4
ENDBRANCH   2   3
ENDBRANCH   1   2
BRANCH   1   7
ATOM      7  C   UNL     1     -15.394 -15.440  -3.435  1.00  0.00     0.000 C 
BRANCH   7   8
ATOM      8  C   UNL     1     -16.201 -14.294  -4.061  1.00  0.00    -0.000 C 
BRANCH   8   9
ATOM      9  C   UNL     1     -16.261 -14.434  -5.589  1.00  0.00    -0.000 C 
BRANCH   9  10
ATOM     10  C   UNL     1     -16.399 -13.080  -6.301  1.00  0.00    -0.003 C 
ATOM     11  C   UNL     1     -17.673 -12.980  -7.140  1.00  0.00     0.004 C 
ENDBRANCH   9  10
ENDBRANCH   8   9
ENDBRANCH   7   8
ENDBRANCH   1   7
TORSDOF 7
ENDMDL
MODEL 2
REMARK VINA RESULT:    -3.971      3.328      5.476
REMARK INTER + INTRA:          -5.853
REMARK INTER:                  -5.565
REMARK INTRA:                  -0.287
REMARK UNBOUND:                -0.257
REMARK SMILES CCCCCCCCC(=O)[O-]
REMARK SMILES IDX 6 1 7 2 8 3 9 4 10 5 11 6 5 7 4 8 3 9 2 10 1 11
REMARK H PARENT
REMARK Flexibility Score: inf
ROOT
ATOM      1  C   UNL     1     -16.132 -14.704  -3.770  1.00  0.00     0.000 C 
ENDROOT
BRANCH   1   2
ATOM      2  C   UNL     1     -16.389 -14.974  -5.257  1.00  0.00     0.006 C 
BRANCH   2   3
ATOM      3  C   UNL     1     -15.669 -13.948  -6.135  1.00  0.00     0.053 C 
BRANCH   3   4
ATOM      4  C   UNL     1     -16.576 -12.802  -6.456  1.00  0.00     0.041 C 
ATOM      5  O   UNL     1     -17.671 -13.006  -7.044  1.00  0.00    -0.550 OA
ATOM      6  O   UNL     1     -16.237 -11.514  -6.059  1.00  0.00    -0.550 OA
ENDBRANCH   3   4
ENDBRANCH   2   3
ENDBRANCH   1   2
BRANCH   1   7
ATOM      7  C   UNL     1     -15.618 -15.965  -3.063  1.00  0.00     0.000 C 
BRANCH   7   8
ATOM      8  C   UNL     1     -16.176 -17.232  -3.723  1.00  0.00    -0.000 C 
BRANCH   8   9
ATOM      9  C   UNL     1     -17.593 -17.538  -3.215  1.00  0.00    -0.000 C 
BRANCH   9  10
ATOM     10  C   UNL     1     -18.403 -18.393  -4.203  1.00  0.00    -0.003 C 
ATOM     11  C   UNL     1     -19.312 -19.403  -3.502  1.00  0.00     0.004 C 
ENDBRANCH   9  10
ENDBRANCH   8   9
ENDBRANCH   7   8
ENDBRANCH   1   7
TORSDOF 7
ENDMDL
MODEL 3
REMARK VINA RESULT:    -3.890     10.260     11.112
REMARK INTER + INTRA:          -5.739
REMARK INTER:                  -5.357
REMARK INTRA:                  -0.382
REMARK UNBOUND:                -0.257
REMARK SMILES CCCCCCCCC(=O)[O-]
REMARK SMILES IDX 6 1 7 2 8 3 9 4 10 5 11 6 5 7 4 8 3 9 2 10 1 11
REMARK H PARENT
REMARK Flexibility Score: inf
ROOT
ATOM      1  C   UNL     1     -24.455 -12.228   4.662  1.00  0.00     0.000 C 
ENDROOT
BRANCH   1   2
ATOM      2  C   UNL     1     -24.215 -13.736   4.799  1.00  0.00     0.006 C 
BRANCH   2   3
ATOM      3  C   UNL     1     -24.782 -14.493   3.595  1.00  0.00     0.053 C 
BRANCH   3   4
ATOM      4  C   UNL     1     -23.675 -15.046   2.754  1.00  0.00     0.041 C 
ATOM      5  O   UNL     1     -22.547 -14.486   2.743  1.00  0.00    -0.550 OA
ATOM      6  O   UNL     1     -23.872 -16.211   2.023  1.00  0.00    -0.550 OA
ENDBRANCH   3   4
ENDBRANCH   2   3
ENDBRANCH   1   2
BRANCH   1   7
ATOM      7  C   UNL     1     -23.320 -11.429   5.315  1.00  0.00     0.000 C 
BRANCH   7   8
ATOM      8  C   UNL     1     -22.995 -10.169   4.503  1.00  0.00    -0.000 C 
BRANCH   8   9
ATOM      9  C   UNL     1     -21.485 -10.052   4.251  1.00  0.00    -0.000 C 
BRANCH   9  10
ATOM     10  C   UNL     1     -20.768 -11.410   4.313  1.00  0.00    -0.003 C 
ATOM     11  C   UNL     1     -19.403 -11.389   3.626  1.00  0.00     0.004 C 
ENDBRANCH   9  10
ENDBRANCH   8   9
ENDBRANCH   7   8
ENDBRANCH   1   7
TORSDOF 7
ENDMDL
MODEL 4
REMARK VINA RESULT:    -3.787     10.419     11.922
REMARK INTER + INTRA:          -5.595
REMARK INTER:                  -5.284
REMARK INTRA:                  -0.311
REMARK UNBOUND:                -0.257
REMARK SMILES CCCCCCCCC(=O)[O-]
REMARK SMILES IDX 6 1 7 2 8 3 9 4 10 5 11 6 5 7 4 8 3 9 2 10 1 11
REMARK H PARENT
REMARK Flexibility Score: inf
ROOT
ATOM      1  C   UNL     1     -23.387 -13.215   4.221  1.00  0.00     0.000 C 
ENDROOT
BRANCH   1   2
ATOM      2  C   UNL     1     -22.322 -12.179   4.597  1.00  0.00     0.006 C 
BRANCH   2   3
ATOM      3  C   UNL     1     -21.006 -12.453   3.864  1.00  0.00     0.053 C 
BRANCH   3   4
ATOM      4  C   UNL     1     -20.138 -11.234   3.869  1.00  0.00     0.041 C 
ATOM      5  O   UNL     1     -20.577 -10.146   4.326  1.00  0.00    -0.550 OA
ATOM      6  O   UNL     1     -18.827 -11.312   3.416  1.00  0.00    -0.550 OA
ENDBRANCH   3   4
ENDBRANCH   2   3
ENDBRANCH   1   2
BRANCH   1   7
ATOM      7  C   UNL     1     -22.885 -14.141   3.107  1.00  0.00     0.000 C 
BRANCH   7   8
ATOM      8  C   UNL     1     -23.929 -15.214   2.770  1.00  0.00    -0.000 C 
BRANCH   8   9
ATOM      9  C   UNL     1     -25.257 -14.934   3.489  1.00  0.00    -0.000 C 
BRANCH   9  10
ATOM     10  C   UNL     1     -26.006 -16.222   3.868  1.00  0.00    -0.003 C 
ATOM     11  C   UNL     1     -27.423 -16.270   3.298  1.00  0.00     0.004 C 
ENDBRANCH   9  10
ENDBRANCH   8   9
ENDBRANCH   7   8
ENDBRANCH   1   7
TORSDOF 7
ENDMDL
MODEL 5
REMARK VINA RESULT:    -3.778     10.877     12.117
REMARK INTER + INTRA:          -5.581
REMARK INTER:                  -5.133
REMARK INTRA:                  -0.448
REMARK UNBOUND:                -0.257
REMARK SMILES CCCCCCCCC(=O)[O-]
REMARK SMILES IDX 6 1 7 2 8 3 9 4 10 5 11 6 5 7 4 8 3 9 2 10 1 11
REMARK H PARENT
REMARK Flexibility Score: inf
ROOT
ATOM      1  C   UNL     1     -23.311  -9.955   4.428  1.00  0.00     0.000 C 
ENDROOT
BRANCH   1   2
ATOM      2  C   UNL     1     -22.052 -10.506   5.109  1.00  0.00     0.006 C 
BRANCH   2   3
ATOM      3  C   UNL     1     -20.798 -10.170   4.299  1.00  0.00     0.053 C 
BRANCH   3   4
ATOM      4  C   UNL     1     -20.179 -11.416   3.748  1.00  0.00     0.041 C 
ATOM      5  O   UNL     1     -18.985 -11.408   3.349  1.00  0.00    -0.550 OA
ATOM      6  O   UNL     1     -20.905 -12.601   3.724  1.00  0.00    -0.550 OA
ENDBRANCH   3   4
ENDBRANCH   2   3
ENDBRANCH   1   2
BRANCH   1   7
ATOM      7  C   UNL     1     -24.537 -10.813   4.760  1.00  0.00     0.000 C 
BRANCH   7   8
ATOM      8  C   UNL     1     -24.129 -12.259   5.073  1.00  0.00    -0.000 C 
BRANCH   8   9
ATOM      9  C   UNL     1     -24.865 -13.248   4.158  1.00  0.00    -0.000 C 
BRANCH   9  10
ATOM     10  C   UNL     1     -24.132 -14.593   4.030  1.00  0.00    -0.003 C 
ATOM     11  C   UNL     1     -23.476 -14.779   2.662  1.00  0.00     0.004 C 
ENDBRANCH   9  10
ENDBRANCH   8   9
ENDBRANCH   7   8
ENDBRANCH   1   7
TORSDOF 7
ENDMDL
MODEL 6
REMARK VINA RESULT:    -3.626      2.692      5.908
REMARK INTER + INTRA:          -5.368
REMARK INTER:                  -5.043
REMARK INTRA:                  -0.324
REMARK UNBOUND:                -0.257
REMARK SMILES CCCCCCCCC(=O)[O-]
REMARK SMILES IDX 6 1 7 2 8 3 9 4 10 5 11 6 5 7 4 8 3 9 2 10 1 11
REMARK H PARENT
REMARK Flexibility Score: inf
ROOT
ATOM      1  C   UNL     1     -17.739 -17.649  -3.178  1.00  0.00     0.000 C 
ENDROOT
BRANCH   1   2
ATOM      2  C   UNL     1     -16.359 -16.993  -3.047  1.00  0.00     0.006 C 
BRANCH   2   3
ATOM      3  C   UNL     1     -16.443 -15.484  -3.287  1.00  0.00     0.053 C 
BRANCH   3   4
ATOM      4  C   UNL     1     -16.080 -15.156  -4.701  1.00  0.00     0.041 C 
ATOM      5  O   UNL     1     -15.430 -15.981  -5.395  1.00  0.00    -0.550 OA
ATOM      6  O   UNL     1     -16.504 -13.961  -5.268  1.00  0.00    -0.550 OA
ENDBRANCH   3   4
ENDBRANCH   2   3
ENDBRANCH   1   2
BRANCH   1   7
ATOM      7  C   UNL     1     -17.851 -18.437  -4.488  1.00  0.00     0.000 C 
BRANCH   7   8
ATOM      8  C   UNL     1     -19.021 -19.428  -4.436  1.00  0.00    -0.000 C 
BRANCH   8   9
ATOM      9  C   UNL     1     -18.625 -20.778  -5.053  1.00  0.00    -0.000 C 
BRANCH   9  10
ATOM     10  C   UNL     1     -19.299 -21.968  -4.351  1.00  0.00    -0.003 C 
ATOM     11  C   UNL     1     -20.159 -21.543  -3.161  1.00  0.00     0.004 C 
ENDBRANCH   9  10
ENDBRANCH   8   9
ENDBRANCH   7   8
ENDBRANCH   1   7
TORSDOF 7
ENDMDL
MODEL 7
REMARK VINA RESULT:    -3.613     10.378     11.288
REMARK INTER + INTRA:          -5.348
REMARK INTER:                  -4.993
REMARK INTRA:                  -0.355
REMARK UNBOUND:                -0.257
REMARK SMILES CCCCCCCCC(=O)[O-]
REMARK SMILES IDX 6 1 7 2 8 3 9 4 10 5 11 6 5 7 4 8 3 9 2 10 1 11
REMARK H PARENT
REMARK Flexibility Score: inf
ROOT
ATOM      1  C   UNL     1     -22.993 -13.870   3.459  1.00  0.00     0.000 C 
ENDROOT
BRANCH   1   2
ATOM      2  C   UNL     1     -24.158 -14.852   3.288  1.00  0.00     0.006 C 
BRANCH   2   3
ATOM      3  C   UNL     1     -25.443 -14.293   3.905  1.00  0.00     0.053 C 
BRANCH   3   4
ATOM      4  C   UNL     1     -26.588 -15.226   3.669  1.00  0.00     0.041 C 
ATOM      5  O   UNL     1     -27.758 -14.775   3.545  1.00  0.00    -0.550 OA
ATOM      6  O   UNL     1     -26.358 -16.589   3.534  1.00  0.00    -0.550 OA
ENDBRANCH   3   4
ENDBRANCH   2   3
ENDBRANCH   1   2
BRANCH   1   7
ATOM      7  C   UNL     1     -23.332 -12.788   4.491  1.00  0.00     0.000 C 
BRANCH   7   8
ATOM      8  C   UNL     1     -22.127 -11.873   4.745  1.00  0.00    -0.000 C 
BRANCH   8   9
ATOM      9  C   UNL     1     -20.879 -12.391   4.015  1.00  0.00    -0.000 C 
BRANCH   9  10
ATOM     10  C   UNL     1     -19.862 -11.277   3.721  1.00  0.00    -0.003 C 
ATOM     11  C   UNL     1     -20.407  -9.883   4.030  1.00  0.00     0.004 C 
ENDBRANCH   9  10
ENDBRANCH   8   9
ENDBRANCH   7   8
ENDBRANCH   1   7
TORSDOF 7
ENDMDL
MODEL 8
REMARK VINA RESULT:    -3.514      2.387      4.054
REMARK INTER + INTRA:          -5.209
REMARK INTER:                  -5.041
REMARK INTRA:                  -0.168
REMARK UNBOUND:                -0.257
REMARK SMILES CCCCCCCCC(=O)[O-]
REMARK SMILES IDX 6 1 7 2 8 3 9 4 10 5 11 6 5 7 4 8 3 9 2 10 1 11
REMARK H PARENT
REMARK Flexibility Score: inf
ROOT
ATOM      1  C   UNL     1     -18.868 -19.371  -4.205  1.00  0.00     0.000 C 
ENDROOT
BRANCH   1   2
ATOM      2  C   UNL     1     -20.399 -19.447  -4.202  1.00  0.00     0.006 C 
BRANCH   2   3
ATOM      3  C   UNL     1     -20.900 -20.458  -5.237  1.00  0.00     0.053 C 
BRANCH   3   4
ATOM      4  C   UNL     1     -22.085 -19.914  -5.971  1.00  0.00     0.041 C 
ATOM      5  O   UNL     1     -22.486 -20.472  -7.027  1.00  0.00    -0.550 OA
ATOM      6  O   UNL     1     -22.777 -18.823  -5.463  1.00  0.00    -0.550 OA
ENDBRANCH   3   4
ENDBRANCH   2   3
ENDBRANCH   1   2
BRANCH   1   7
ATOM      7  C   UNL     1     -18.376 -18.160  -3.404  1.00  0.00     0.000 C 
BRANCH   7   8
ATOM      8  C   UNL     1     -17.010 -17.680  -3.912  1.00  0.00    -0.000 C 
BRANCH   8   9
ATOM      9  C   UNL     1     -16.259 -16.904  -2.820  1.00  0.00    -0.000 C 
BRANCH   9  10
ATOM     10  C   UNL     1     -15.367 -15.792  -3.394  1.00  0.00    -0.003 C 
ATOM     11  C   UNL     1     -16.171 -14.618  -3.952  1.00  0.00     0.004 C 
ENDBRANCH   9  10
ENDBRANCH   8   9
ENDBRANCH   7   8
ENDBRANCH   1   7
TORSDOF 7
ENDMDL
MODEL 9
REMARK VINA RESULT:    -3.495      1.441      2.192
REMARK INTER + INTRA:          -5.182
REMARK INTER:                  -4.855
REMARK INTRA:                  -0.327
REMARK UNBOUND:                -0.257
REMARK SMILES CCCCCCCCC(=O)[O-]
REMARK SMILES IDX 6 1 7 2 8 3 9 4 10 5 11 6 5 7 4 8 3 9 2 10 1 11
REMARK H PARENT
REMARK Flexibility Score: inf
ROOT
ATOM      1  C   UNL     1     -16.595 -15.061  -3.407  1.00  0.00     0.000 C 
ENDROOT
BRANCH   1   2
ATOM      2  C   UNL     1     -16.331 -16.523  -3.028  1.00  0.00     0.006 C 
BRANCH   2   3
ATOM      3  C   UNL     1     -16.141 -17.388  -4.276  1.00  0.00     0.053 C 
BRANCH   3   4
ATOM      4  C   UNL     1     -17.364 -18.208  -4.538  1.00  0.00     0.041 C 
ATOM      5  O   UNL     1     -17.327 -19.155  -5.368  1.00  0.00    -0.550 OA
ATOM      6  O   UNL     1     -18.532 -17.961  -3.828  1.00  0.00    -0.550 OA
ENDBRANCH   3   4
ENDBRANCH   2   3
ENDBRANCH   1   2
BRANCH   1   7
ATOM      7  C   UNL     1     -15.740 -14.641  -4.609  1.00  0.00     0.000 C 
BRANCH   7   8
ATOM      8  C   UNL     1     -16.595 -13.944  -5.676  1.00  0.00    -0.000 C 
BRANCH   8   9
ATOM      9  C   UNL     1     -15.864 -12.724  -6.255  1.00  0.00    -0.000 C 
BRANCH   9  10
ATOM     10  C   UNL     1     -15.535 -11.670  -5.187  1.00  0.00    -0.003 C 
ATOM     11  C   UNL     1     -14.972 -10.380  -5.783  1.00  0.00     0.004 C 
ENDBRANCH   9  10
ENDBRANCH   8   9
ENDBRANCH   7   8
ENDBRANCH   1   7
TORSDOF 7
ENDMDL
