MODEL 1
REMARK VINA RESULT:    -7.108      0.000      0.000
REMARK INTER + INTRA:          -8.649
REMARK INTER:                  -8.355
REMARK INTRA:                  -0.294
REMARK UNBOUND:                -0.294
REMARK SMILES O=c1c(O)c(-c2ccc(O)cc2)oc2cc(O)cc(O)c12
REMARK SMILES IDX 5 1 3 2 2 3 1 4 21 5 19 6 18 7 16 8 15 9 14 10 13 11 6 12
REMARK SMILES IDX 7 13 8 14 9 15 12 16 11 17 10 18 4 20 20 22 17 24
REMARK H PARENT 10 19 4 21 20 23 17 25
REMARK Flexibility Score: inf
ROOT
ATOM      1  C   UNL     1      -0.872  -7.883  13.755  1.00  0.00     0.180 A 
ATOM      2  C   UNL     1       0.044  -7.490  12.764  1.00  0.00     0.208 A 
ATOM      3  C   UNL     1       1.341  -7.111  13.147  1.00  0.00     0.238 A 
ATOM      4  O   UNL     1       2.172  -6.813  12.252  1.00  0.00    -0.285 OA
ATOM      5  C   UNL     1       1.700  -7.113  14.517  1.00  0.00     0.111 A 
ATOM      6  C   UNL     1       2.972  -6.710  15.022  1.00  0.00     0.134 A 
ATOM      7  C   UNL     1       3.261  -6.877  16.382  1.00  0.00     0.093 A 
ATOM      8  C   UNL     1       2.299  -7.373  17.267  1.00  0.00     0.123 A 
ATOM      9  C   UNL     1       1.034  -7.714  16.794  1.00  0.00     0.094 A 
ATOM     10  C   UNL     1       0.729  -7.592  15.435  1.00  0.00     0.146 A 
ATOM     11  O   UNL     1      -0.486  -7.938  15.025  1.00  0.00    -0.452 OA
ENDROOT
BRANCH   1  12
ATOM     12  C   UNL     1      -2.264  -8.272  13.433  1.00  0.00     0.021 A 
ATOM     13  C   UNL     1      -3.310  -7.331  13.445  1.00  0.00     0.016 A 
ATOM     14  C   UNL     1      -4.620  -7.727  13.160  1.00  0.00     0.047 A 
ATOM     15  C   UNL     1      -4.904  -9.068  12.872  1.00  0.00     0.115 A 
ATOM     16  C   UNL     1      -2.562  -9.618  13.163  1.00  0.00     0.016 A 
ATOM     17  C   UNL     1      -3.873 -10.011  12.878  1.00  0.00     0.047 A 
BRANCH  15  18
ATOM     18  O   UNL     1      -6.206  -9.473  12.585  1.00  0.00    -0.508 OA
ATOM     19  H   UNL     1      -6.996  -8.851  12.721  1.00  0.00     0.293 HD
ENDBRANCH  15  18
ENDBRANCH   1  12
BRANCH   2  20
ATOM     20  O   UNL     1      -0.324  -7.516  11.417  1.00  0.00    -0.502 OA
ATOM     21  H   UNL     1      -0.819  -6.751  10.973  1.00  0.00     0.293 HD
ENDBRANCH   2  20
BRANCH   6  22
ATOM     22  O   UNL     1       3.970  -6.118  14.241  1.00  0.00    -0.507 OA
ATOM     23  H   UNL     1       4.919  -5.961  14.543  1.00  0.00     0.293 HD
ENDBRANCH   6  22
BRANCH   8  24
ATOM     24  O   UNL     1       2.589  -7.522  18.621  1.00  0.00    -0.508 OA
ATOM     25  H   UNL     1       2.214  -8.291  19.162  1.00  0.00     0.293 HD
ENDBRANCH   8  24
TORSDOF 5
ENDMDL
MODEL 2
REMARK VINA RESULT:    -6.941      1.736      2.117
REMARK INTER + INTRA:          -8.452
REMARK INTER:                  -8.246
REMARK INTRA:                  -0.206
REMARK UNBOUND:                -0.294
REMARK SMILES O=c1c(O)c(-c2ccc(O)cc2)oc2cc(O)cc(O)c12
REMARK SMILES IDX 5 1 3 2 2 3 1 4 21 5 19 6 18 7 16 8 15 9 14 10 13 11 6 12
REMARK SMILES IDX 7 13 8 14 9 15 12 16 11 17 10 18 4 20 20 22 17 24
REMARK H PARENT 10 19 4 21 20 23 17 25
REMARK Flexibility Score: inf
ROOT
ATOM      1  C   UNL     1       0.035  -7.816  14.717  1.00  0.00     0.180 A 
ATOM      2  C   UNL     1       0.898  -6.732  14.478  1.00  0.00     0.208 A 
ATOM      3  C   UNL     1       2.137  -6.691  15.136  1.00  0.00     0.238 A 
ATOM      4  O   UNL     1       2.928  -5.747  14.876  1.00  0.00    -0.285 OA
ATOM      5  C   UNL     1       2.491  -7.723  16.039  1.00  0.00     0.111 A 
ATOM      6  C   UNL     1       3.703  -7.762  16.791  1.00  0.00     0.134 A 
ATOM      7  C   UNL     1       4.007  -8.896  17.554  1.00  0.00     0.093 A 
ATOM      8  C   UNL     1       3.112  -9.965  17.643  1.00  0.00     0.123 A 
ATOM      9  C   UNL     1       1.899  -9.911  16.960  1.00  0.00     0.094 A 
ATOM     10  C   UNL     1       1.584  -8.808  16.162  1.00  0.00     0.146 A 
ATOM     11  O   UNL     1       0.422  -8.802  15.518  1.00  0.00    -0.452 OA
ENDROOT
BRANCH   1  12
ATOM     12  C   UNL     1      -1.298  -7.918  14.081  1.00  0.00     0.021 A 
ATOM     13  C   UNL     1      -2.346  -7.047  14.431  1.00  0.00     0.016 A 
ATOM     14  C   UNL     1      -3.603  -7.178  13.833  1.00  0.00     0.047 A 
ATOM     15  C   UNL     1      -3.833  -8.187  12.889  1.00  0.00     0.115 A 
ATOM     16  C   UNL     1      -1.543  -8.939  13.148  1.00  0.00     0.016 A 
ATOM     17  C   UNL     1      -2.801  -9.068  12.551  1.00  0.00     0.047 A 
BRANCH  15  18
ATOM     18  O   UNL     1      -5.081  -8.326  12.286  1.00  0.00    -0.508 OA
ATOM     19  H   UNL     1      -5.172  -8.604  11.315  1.00  0.00     0.293 HD
ENDBRANCH  15  18
ENDBRANCH   1  12
BRANCH   2  20
ATOM     20  O   UNL     1       0.538  -5.736  13.567  1.00  0.00    -0.502 OA
ATOM     21  H   UNL     1      -0.419  -5.590  13.271  1.00  0.00     0.293 HD
ENDBRANCH   2  20
BRANCH   6  22
ATOM     22  O   UNL     1       4.622  -6.709  16.845  1.00  0.00    -0.507 OA
ATOM     23  H   UNL     1       5.074  -6.299  16.042  1.00  0.00     0.293 HD
ENDBRANCH   6  22
BRANCH   8  24
ATOM     24  O   UNL     1       3.415 -11.083  18.417  1.00  0.00    -0.508 OA
ATOM     25  H   UNL     1       2.744 -11.829  18.558  1.00  0.00     0.293 HD
ENDBRANCH   8  24
TORSDOF 5
ENDMDL
MODEL 3
REMARK VINA RESULT:    -6.834      1.694      6.686
REMARK INTER + INTRA:          -8.326
REMARK INTER:                  -8.072
REMARK INTRA:                  -0.254
REMARK UNBOUND:                -0.294
REMARK SMILES O=c1c(O)c(-c2ccc(O)cc2)oc2cc(O)cc(O)c12
REMARK SMILES IDX 5 1 3 2 2 3 1 4 21 5 19 6 18 7 16 8 15 9 14 10 13 11 6 12
REMARK SMILES IDX 7 13 8 14 9 15 12 16 11 17 10 18 4 20 20 22 17 24
REMARK H PARENT 10 19 4 21 20 23 17 25
REMARK Flexibility Score: inf
ROOT
ATOM      1  C   UNL     1      -0.453  -8.028  14.732  1.00  0.00     0.180 A 
ATOM      2  C   UNL     1      -1.185  -7.038  14.052  1.00  0.00     0.208 A 
ATOM      3  C   UNL     1      -2.414  -7.380  13.468  1.00  0.00     0.238 A 
ATOM      4  O   UNL     1      -3.089  -6.478  12.909  1.00  0.00    -0.285 OA
ATOM      5  C   UNL     1      -2.890  -8.712  13.556  1.00  0.00     0.111 A 
ATOM      6  C   UNL     1      -4.103  -9.179  12.967  1.00  0.00     0.134 A 
ATOM      7  C   UNL     1      -4.540 -10.483  13.229  1.00  0.00     0.093 A 
ATOM      8  C   UNL     1      -3.774 -11.358  14.004  1.00  0.00     0.123 A 
ATOM      9  C   UNL     1      -2.560 -10.929  14.534  1.00  0.00     0.094 A 
ATOM     10  C   UNL     1      -2.115  -9.622  14.321  1.00  0.00     0.146 A 
ATOM     11  O   UNL     1      -0.957  -9.251  14.854  1.00  0.00    -0.452 OA
ENDROOT
BRANCH   1  12
ATOM     12  C   UNL     1       0.863  -7.751  15.351  1.00  0.00     0.021 A 
ATOM     13  C   UNL     1       0.989  -7.520  16.733  1.00  0.00     0.016 A 
ATOM     14  C   UNL     1       2.240  -7.236  17.290  1.00  0.00     0.047 A 
ATOM     15  C   UNL     1       3.376  -7.167  16.474  1.00  0.00     0.115 A 
ATOM     16  C   UNL     1       2.005  -7.659  14.537  1.00  0.00     0.016 A 
ATOM     17  C   UNL     1       3.254  -7.376  15.098  1.00  0.00     0.047 A 
BRANCH  15  18
ATOM     18  O   UNL     1       4.627  -6.887  17.019  1.00  0.00    -0.508 OA
ATOM     19  H   UNL     1       5.301  -7.621  17.203  1.00  0.00     0.293 HD
ENDBRANCH  15  18
ENDBRANCH   1  12
BRANCH   2  20
ATOM     20  O   UNL     1      -0.707  -5.727  13.996  1.00  0.00    -0.502 OA
ATOM     21  H   UNL     1      -1.322  -4.922  14.028  1.00  0.00     0.293 HD
ENDBRANCH   2  20
BRANCH   6  22
ATOM     22  O   UNL     1      -4.895  -8.417  12.102  1.00  0.00    -0.507 OA
ATOM     23  H   UNL     1      -5.457  -7.629  12.383  1.00  0.00     0.293 HD
ENDBRANCH   6  22
BRANCH   8  24
ATOM     24  O   UNL     1      -4.209 -12.659  14.247  1.00  0.00    -0.508 OA
ATOM     25  H   UNL     1      -4.224 -13.048  15.182  1.00  0.00     0.293 HD
ENDBRANCH   8  24
TORSDOF 5
ENDMDL
MODEL 4
REMARK VINA RESULT:    -6.759      3.751      7.801
REMARK INTER + INTRA:          -8.238
REMARK INTER:                  -8.012
REMARK INTRA:                  -0.226
REMARK UNBOUND:                -0.294
REMARK SMILES O=c1c(O)c(-c2ccc(O)cc2)oc2cc(O)cc(O)c12
REMARK SMILES IDX 5 1 3 2 2 3 1 4 21 5 19 6 18 7 16 8 15 9 14 10 13 11 6 12
REMARK SMILES IDX 7 13 8 14 9 15 12 16 11 17 10 18 4 20 20 22 17 24
REMARK H PARENT 10 19 4 21 20 23 17 25
REMARK Flexibility Score: inf
ROOT
ATOM      1  C   UNL     1      -4.110 -10.123  13.772  1.00  0.00     0.180 A 
ATOM      2  C   UNL     1      -4.914  -9.273  12.993  1.00  0.00     0.208 A 
ATOM      3  C   UNL     1      -6.263  -9.102  13.342  1.00  0.00     0.238 A 
ATOM      4  O   UNL     1      -6.962  -8.298  12.674  1.00  0.00    -0.285 OA
ATOM      5  C   UNL     1      -6.797  -9.798  14.454  1.00  0.00     0.111 A 
ATOM      6  C   UNL     1      -8.159  -9.731  14.874  1.00  0.00     0.134 A 
ATOM      7  C   UNL     1      -8.547 -10.357  16.065  1.00  0.00     0.093 A 
ATOM      8  C   UNL     1      -7.634 -11.102  16.817  1.00  0.00     0.123 A 
ATOM      9  C   UNL     1      -6.316 -11.222  16.384  1.00  0.00     0.094 A 
ATOM     10  C   UNL     1      -5.891 -10.578  15.219  1.00  0.00     0.146 A 
ATOM     11  O   UNL     1      -4.623 -10.710  14.848  1.00  0.00    -0.452 OA
ENDROOT
BRANCH   1  12
ATOM     12  C   UNL     1      -2.686 -10.374  13.453  1.00  0.00     0.021 A 
ATOM     13  C   UNL     1      -1.696  -9.408  13.710  1.00  0.00     0.016 A 
ATOM     14  C   UNL     1      -0.361  -9.658  13.378  1.00  0.00     0.047 A 
ATOM     15  C   UNL     1      -0.001 -10.869  12.774  1.00  0.00     0.115 A 
ATOM     16  C   UNL     1      -2.318 -11.578  12.829  1.00  0.00     0.016 A 
ATOM     17  C   UNL     1      -0.982 -11.825  12.499  1.00  0.00     0.047 A 
BRANCH  15  18
ATOM     18  O   UNL     1       1.326 -11.130  12.440  1.00  0.00    -0.508 OA
ATOM     19  H   UNL     1       1.786 -11.987  12.726  1.00  0.00     0.293 HD
ENDBRANCH  15  18
ENDBRANCH   1  12
BRANCH   2  20
ATOM     20  O   UNL     1      -4.361  -8.580  11.913  1.00  0.00    -0.502 OA
ATOM     21  H   UNL     1      -3.379  -8.642  11.672  1.00  0.00     0.293 HD
ENDBRANCH   2  20
BRANCH   6  22
ATOM     22  O   UNL     1      -9.169  -9.092  14.147  1.00  0.00    -0.507 OA
ATOM     23  H   UNL     1     -10.124  -8.993  14.455  1.00  0.00     0.293 HD
ENDBRANCH   6  22
BRANCH   8  24
ATOM     24  O   UNL     1      -8.032 -11.734  17.993  1.00  0.00    -0.508 OA
ATOM     25  H   UNL     1      -7.631 -11.487  18.890  1.00  0.00     0.293 HD
ENDBRANCH   8  24
TORSDOF 5
ENDMDL
MODEL 5
REMARK VINA RESULT:    -6.711      2.414      3.516
REMARK INTER + INTRA:          -8.181
REMARK INTER:                  -8.455
REMARK INTRA:                   0.274
REMARK UNBOUND:                -0.294
REMARK SMILES O=c1c(O)c(-c2ccc(O)cc2)oc2cc(O)cc(O)c12
REMARK SMILES IDX 5 1 3 2 2 3 1 4 21 5 19 6 18 7 16 8 15 9 14 10 13 11 6 12
REMARK SMILES IDX 7 13 8 14 9 15 12 16 11 17 10 18 4 20 20 22 17 24
REMARK H PARENT 10 19 4 21 20 23 17 25
REMARK Flexibility Score: inf
ROOT
ATOM      1  C   UNL     1      -2.087  -7.869  13.044  1.00  0.00     0.180 A 
ATOM      2  C   UNL     1      -1.452  -6.768  13.644  1.00  0.00     0.208 A 
ATOM      3  C   UNL     1      -0.064  -6.619  13.498  1.00  0.00     0.238 A 
ATOM      4  O   UNL     1       0.490  -5.603  13.992  1.00  0.00    -0.285 OA
ATOM      5  C   UNL     1       0.676  -7.581  12.769  1.00  0.00     0.111 A 
ATOM      6  C   UNL     1       2.091  -7.552  12.591  1.00  0.00     0.134 A 
ATOM      7  C   UNL     1       2.701  -8.482  11.741  1.00  0.00     0.093 A 
ATOM      8  C   UNL     1       1.953  -9.482  11.114  1.00  0.00     0.123 A 
ATOM      9  C   UNL     1       0.579  -9.556  11.328  1.00  0.00     0.094 A 
ATOM     10  C   UNL     1      -0.063  -8.619  12.142  1.00  0.00     0.146 A 
ATOM     11  O   UNL     1      -1.376  -8.719  12.311  1.00  0.00    -0.452 OA
ENDROOT
BRANCH   1  12
ATOM     12  C   UNL     1      -3.542  -8.109  13.174  1.00  0.00     0.021 A 
ATOM     13  C   UNL     1      -4.456  -7.042  13.259  1.00  0.00     0.016 A 
ATOM     14  C   UNL     1      -5.823  -7.294  13.406  1.00  0.00     0.047 A 
ATOM     15  C   UNL     1      -6.293  -8.611  13.484  1.00  0.00     0.115 A 
ATOM     16  C   UNL     1      -4.020  -9.426  13.273  1.00  0.00     0.016 A 
ATOM     17  C   UNL     1      -5.389  -9.674  13.420  1.00  0.00     0.047 A 
BRANCH  15  18
ATOM     18  O   UNL     1      -7.654  -8.872  13.628  1.00  0.00    -0.508 OA
ATOM     19  H   UNL     1      -8.337  -8.124  13.660  1.00  0.00     0.293 HD
ENDBRANCH  15  18
ENDBRANCH   1  12
BRANCH   2  20
ATOM     20  O   UNL     1      -2.204  -5.819  14.342  1.00  0.00    -0.502 OA
ATOM     21  H   UNL     1      -3.098  -6.037  14.765  1.00  0.00     0.293 HD
ENDBRANCH   2  20
BRANCH   6  22
ATOM     22  O   UNL     1       2.941  -6.653  13.244  1.00  0.00    -0.507 OA
ATOM     23  H   UNL     1       3.449  -6.854  14.091  1.00  0.00     0.293 HD
ENDBRANCH   6  22
BRANCH   8  24
ATOM     24  O   UNL     1       2.570 -10.414  10.281  1.00  0.00    -0.508 OA
ATOM     25  H   UNL     1       2.375 -10.449   9.288  1.00  0.00     0.293 HD
ENDBRANCH   8  24
TORSDOF 5
ENDMDL
MODEL 6
REMARK VINA RESULT:    -6.670      3.929      9.023
REMARK INTER + INTRA:          -8.133
REMARK INTER:                  -7.846
REMARK INTRA:                  -0.287
REMARK UNBOUND:                -0.294
REMARK SMILES O=c1c(O)c(-c2ccc(O)cc2)oc2cc(O)cc(O)c12
REMARK SMILES IDX 5 1 3 2 2 3 1 4 21 5 19 6 18 7 16 8 15 9 14 10 13 11 6 12
REMARK SMILES IDX 7 13 8 14 9 15 12 16 11 17 10 18 4 20 20 22 17 24
REMARK H PARENT 10 19 4 21 20 23 17 25
REMARK Flexibility Score: inf
ROOT
ATOM      1  C   UNL     1      -6.389  -7.838  13.577  1.00  0.00     0.180 A 
ATOM      2  C   UNL     1      -7.233  -7.245  12.621  1.00  0.00     0.208 A 
ATOM      3  C   UNL     1      -8.617  -7.227  12.852  1.00  0.00     0.238 A 
ATOM      4  O   UNL     1      -9.361  -6.647  12.019  1.00  0.00    -0.285 OA
ATOM      5  C   UNL     1      -9.144  -7.818  14.026  1.00  0.00     0.111 A 
ATOM      6  C   UNL     1     -10.533  -7.893  14.343  1.00  0.00     0.134 A 
ATOM      7  C   UNL     1     -10.932  -8.382  15.593  1.00  0.00     0.093 A 
ATOM      8  C   UNL     1      -9.994  -8.860  16.512  1.00  0.00     0.123 A 
ATOM      9  C   UNL     1      -8.639  -8.845  16.188  1.00  0.00     0.094 A 
ATOM     10  C   UNL     1      -8.209  -8.330  14.963  1.00  0.00     0.146 A 
ATOM     11  O   UNL     1      -6.907  -8.325  14.699  1.00  0.00    -0.452 OA
ENDROOT
BRANCH   1  12
ATOM     12  C   UNL     1      -4.922  -7.918  13.393  1.00  0.00     0.021 A 
ATOM     13  C   UNL     1      -4.074  -6.872  13.799  1.00  0.00     0.016 A 
ATOM     14  C   UNL     1      -2.694  -6.961  13.593  1.00  0.00     0.047 A 
ATOM     15  C   UNL     1      -2.146  -8.088  12.969  1.00  0.00     0.115 A 
ATOM     16  C   UNL     1      -4.366  -9.037  12.750  1.00  0.00     0.016 A 
ATOM     17  C   UNL     1      -2.985  -9.123  12.546  1.00  0.00     0.047 A 
BRANCH  15  18
ATOM     18  O   UNL     1      -0.772  -8.188  12.760  1.00  0.00    -0.508 OA
ATOM     19  H   UNL     1      -0.232  -7.405  12.407  1.00  0.00     0.293 HD
ENDBRANCH  15  18
ENDBRANCH   1  12
BRANCH   2  20
ATOM     20  O   UNL     1      -6.690  -6.649  11.480  1.00  0.00    -0.502 OA
ATOM     21  H   UNL     1      -6.151  -7.170  10.798  1.00  0.00     0.293 HD
ENDBRANCH   2  20
BRANCH   6  22
ATOM     22  O   UNL     1     -11.555  -7.529  13.460  1.00  0.00    -0.507 OA
ATOM     23  H   UNL     1     -11.410  -7.160  12.533  1.00  0.00     0.293 HD
ENDBRANCH   6  22
BRANCH   8  24
ATOM     24  O   UNL     1     -10.400  -9.358  17.747  1.00  0.00    -0.508 OA
ATOM     25  H   UNL     1     -11.102  -8.887  18.305  1.00  0.00     0.293 HD
ENDBRANCH   8  24
TORSDOF 5
ENDMDL
MODEL 7
REMARK VINA RESULT:    -6.647      7.977     10.032
REMARK INTER + INTRA:          -8.107
REMARK INTER:                  -7.807
REMARK INTRA:                  -0.299
REMARK UNBOUND:                -0.294
REMARK SMILES O=c1c(O)c(-c2ccc(O)cc2)oc2cc(O)cc(O)c12
REMARK SMILES IDX 5 1 3 2 2 3 1 4 21 5 19 6 18 7 16 8 15 9 14 10 13 11 6 12
REMARK SMILES IDX 7 13 8 14 9 15 12 16 11 17 10 18 4 20 20 22 17 24
REMARK H PARENT 10 19 4 21 20 23 17 25
REMARK Flexibility Score: inf
ROOT
ATOM      1  C   UNL     1      -9.029  -6.254  13.024  1.00  0.00     0.180 A 
ATOM      2  C   UNL     1      -7.904  -7.064  12.785  1.00  0.00     0.208 A 
ATOM      3  C   UNL     1      -7.704  -8.204  13.579  1.00  0.00     0.238 A 
ATOM      4  O   UNL     1      -6.727  -8.954  13.325  1.00  0.00    -0.285 OA
ATOM      5  C   UNL     1      -8.621  -8.511  14.614  1.00  0.00     0.111 A 
ATOM      6  C   UNL     1      -8.495  -9.618  15.506  1.00  0.00     0.134 A 
ATOM      7  C   UNL     1      -9.528  -9.901  16.407  1.00  0.00     0.093 A 
ATOM      8  C   UNL     1     -10.654  -9.077  16.493  1.00  0.00     0.123 A 
ATOM      9  C   UNL     1     -10.759  -7.960  15.668  1.00  0.00     0.094 A 
ATOM     10  C   UNL     1      -9.760  -7.673  14.733  1.00  0.00     0.146 A 
ATOM     11  O   UNL     1      -9.905  -6.605  13.958  1.00  0.00    -0.452 OA
ENDROOT
BRANCH   1  12
ATOM     12  C   UNL     1      -9.294  -5.023  12.245  1.00  0.00     0.021 A 
ATOM     13  C   UNL     1      -8.755  -3.782  12.630  1.00  0.00     0.016 A 
ATOM     14  C   UNL     1      -9.040  -2.629  11.892  1.00  0.00     0.047 A 
ATOM     15  C   UNL     1      -9.875  -2.699  10.770  1.00  0.00     0.115 A 
ATOM     16  C   UNL     1     -10.146  -5.080  11.129  1.00  0.00     0.016 A 
ATOM     17  C   UNL     1     -10.428  -3.925  10.393  1.00  0.00     0.047 A 
BRANCH  15  18
ATOM     18  O   UNL     1     -10.163  -1.556  10.026  1.00  0.00    -0.508 OA
ATOM     19  H   UNL     1      -9.996  -1.519   9.027  1.00  0.00     0.293 HD
ENDBRANCH  15  18
ENDBRANCH   1  12
BRANCH   2  20
ATOM     20  O   UNL     1      -7.025  -6.754  11.744  1.00  0.00    -0.502 OA
ATOM     21  H   UNL     1      -6.041  -6.997  11.772  1.00  0.00     0.293 HD
ENDBRANCH   2  20
BRANCH   6  22
ATOM     22  O   UNL     1      -7.370 -10.447  15.566  1.00  0.00    -0.507 OA
ATOM     23  H   UNL     1      -6.715 -10.473  16.333  1.00  0.00     0.293 HD
ENDBRANCH   6  22
BRANCH   8  24
ATOM     24  O   UNL     1     -11.671  -9.357  17.403  1.00  0.00    -0.508 OA
ATOM     25  H   UNL     1     -11.933 -10.309  17.629  1.00  0.00     0.293 HD
ENDBRANCH   8  24
TORSDOF 5
ENDMDL
MODEL 8
REMARK VINA RESULT:    -6.624      2.694      6.807
REMARK INTER + INTRA:          -8.079
REMARK INTER:                  -7.790
REMARK INTRA:                  -0.290
REMARK UNBOUND:                -0.294
REMARK SMILES O=c1c(O)c(-c2ccc(O)cc2)oc2cc(O)cc(O)c12
REMARK SMILES IDX 5 1 3 2 2 3 1 4 21 5 19 6 18 7 16 8 15 9 14 10 13 11 6 12
REMARK SMILES IDX 7 13 8 14 9 15 12 16 11 17 10 18 4 20 20 22 17 24
REMARK H PARENT 10 19 4 21 20 23 17 25
REMARK Flexibility Score: inf
ROOT
ATOM      1  C   UNL     1      -1.097  -9.315  12.855  1.00  0.00     0.180 A 
ATOM      2  C   UNL     1      -2.103  -8.402  12.492  1.00  0.00     0.208 A 
ATOM      3  C   UNL     1      -3.443  -8.723  12.762  1.00  0.00     0.238 A 
ATOM      4  O   UNL     1      -4.333  -7.879  12.485  1.00  0.00    -0.285 OA
ATOM      5  C   UNL     1      -3.762  -9.959  13.375  1.00  0.00     0.111 A 
ATOM      6  C   UNL     1      -5.088 -10.405  13.659  1.00  0.00     0.134 A 
ATOM      7  C   UNL     1      -5.279 -11.586  14.386  1.00  0.00     0.093 A 
ATOM      8  C   UNL     1      -4.193 -12.371  14.783  1.00  0.00     0.123 A 
ATOM      9  C   UNL     1      -2.898 -11.974  14.459  1.00  0.00     0.094 A 
ATOM     10  C   UNL     1      -2.674 -10.782  13.766  1.00  0.00     0.146 A 
ATOM     11  O   UNL     1      -1.422 -10.436  13.487  1.00  0.00    -0.452 OA
ENDROOT
BRANCH   1  12
ATOM     12  C   UNL     1       0.336  -9.059  12.580  1.00  0.00     0.021 A 
ATOM     13  C   UNL     1       1.146  -8.367  13.498  1.00  0.00     0.016 A 
ATOM     14  C   UNL     1       2.491  -8.117  13.205  1.00  0.00     0.047 A 
ATOM     15  C   UNL     1       3.038  -8.543  11.988  1.00  0.00     0.115 A 
ATOM     16  C   UNL     1       0.888  -9.465  11.353  1.00  0.00     0.016 A 
ATOM     17  C   UNL     1       2.233  -9.214  11.064  1.00  0.00     0.047 A 
BRANCH  15  18
ATOM     18  O   UNL     1       4.376  -8.301  11.687  1.00  0.00    -0.508 OA
ATOM     19  H   UNL     1       4.772  -8.557  10.790  1.00  0.00     0.293 HD
ENDBRANCH  15  18
ENDBRANCH   1  12
BRANCH   2  20
ATOM     20  O   UNL     1      -1.764  -7.179  11.908  1.00  0.00    -0.502 OA
ATOM     21  H   UNL     1      -1.127  -7.109  11.123  1.00  0.00     0.293 HD
ENDBRANCH   2  20
BRANCH   6  22
ATOM     22  O   UNL     1      -6.242  -9.743  13.227  1.00  0.00    -0.507 OA
ATOM     23  H   UNL     1      -6.671  -9.867  12.323  1.00  0.00     0.293 HD
ENDBRANCH   6  22
BRANCH   8  24
ATOM     24  O   UNL     1      -4.393 -13.552  15.493  1.00  0.00    -0.508 OA
ATOM     25  H   UNL     1      -4.133 -14.453  15.108  1.00  0.00     0.293 HD
ENDBRANCH   8  24
TORSDOF 5
ENDMDL
MODEL 9
REMARK VINA RESULT:    -6.594     10.246     12.277
REMARK INTER + INTRA:          -8.044
REMARK INTER:                  -7.768
REMARK INTRA:                  -0.276
REMARK UNBOUND:                -0.294
REMARK SMILES O=c1c(O)c(-c2ccc(O)cc2)oc2cc(O)cc(O)c12
REMARK SMILES IDX 5 1 3 2 2 3 1 4 21 5 19 6 18 7 16 8 15 9 14 10 13 11 6 12
REMARK SMILES IDX 7 13 8 14 9 15 12 16 11 17 10 18 4 20 20 22 17 24
REMARK H PARENT 10 19 4 21 20 23 17 25
REMARK Flexibility Score: inf
ROOT
ATOM      1  C   UNL     1     -11.468  -6.323  11.320  1.00  0.00     0.180 A 
ATOM      2  C   UNL     1     -10.361  -7.123  11.655  1.00  0.00     0.208 A 
ATOM      3  C   UNL     1     -10.173  -7.500  12.994  1.00  0.00     0.238 A 
ATOM      4  O   UNL     1      -9.213  -8.260  13.279  1.00  0.00    -0.285 OA
ATOM      5  C   UNL     1     -11.085  -7.059  13.985  1.00  0.00     0.111 A 
ATOM      6  C   UNL     1     -10.970  -7.347  15.378  1.00  0.00     0.134 A 
ATOM      7  C   UNL     1     -12.000  -6.971  16.249  1.00  0.00     0.093 A 
ATOM      8  C   UNL     1     -13.110  -6.258  15.786  1.00  0.00     0.123 A 
ATOM      9  C   UNL     1     -13.202  -5.921  14.438  1.00  0.00     0.094 A 
ATOM     10  C   UNL     1     -12.208  -6.314  13.539  1.00  0.00     0.146 A 
ATOM     11  O   UNL     1     -12.341  -5.981  12.260  1.00  0.00    -0.452 OA
ENDROOT
BRANCH   1  12
ATOM     12  C   UNL     1     -11.718  -5.864   9.935  1.00  0.00     0.021 A 
ATOM     13  C   UNL     1     -11.026  -4.768   9.390  1.00  0.00     0.016 A 
ATOM     14  C   UNL     1     -11.297  -4.338   8.087  1.00  0.00     0.047 A 
ATOM     15  C   UNL     1     -12.270  -4.989   7.318  1.00  0.00     0.115 A 
ATOM     16  C   UNL     1     -12.706  -6.499   9.164  1.00  0.00     0.016 A 
ATOM     17  C   UNL     1     -12.975  -6.067   7.861  1.00  0.00     0.047 A 
BRANCH  15  18
ATOM     18  O   UNL     1     -12.547  -4.570   6.019  1.00  0.00    -0.508 OA
ATOM     19  H   UNL     1     -13.181  -5.087   5.420  1.00  0.00     0.293 HD
ENDBRANCH  15  18
ENDBRANCH   1  12
BRANCH   2  20
ATOM     20  O   UNL     1      -9.486  -7.564  10.659  1.00  0.00    -0.502 OA
ATOM     21  H   UNL     1      -9.600  -7.313   9.684  1.00  0.00     0.293 HD
ENDBRANCH   2  20
BRANCH   6  22
ATOM     22  O   UNL     1      -9.861  -7.972  15.957  1.00  0.00    -0.507 OA
ATOM     23  H   UNL     1      -9.564  -7.846  16.912  1.00  0.00     0.293 HD
ENDBRANCH   6  22
BRANCH   8  24
ATOM     24  O   UNL     1     -14.122  -5.874  16.662  1.00  0.00    -0.508 OA
ATOM     25  H   UNL     1     -14.137  -4.954  17.085  1.00  0.00     0.293 HD
ENDBRANCH   8  24
TORSDOF 5
ENDMDL
