MODEL 1
REMARK VINA RESULT:    -4.602      0.000      0.000
REMARK INTER + INTRA:          -6.656
REMARK INTER:                  -6.216
REMARK INTRA:                  -0.440
REMARK UNBOUND:                -0.440
REMARK SMILES CCCCCCC=CC(=O)[O-]
REMARK SMILES IDX 5 1 6 2 7 3 8 4 9 5 10 6 11 7 4 8 3 9 2 10 1 11
REMARK H PARENT
REMARK Flexibility Score: inf
ROOT
ATOM      1  C   UNL     1      29.078  -6.186 -13.442  1.00  0.00     0.004 C 
ENDROOT
BRANCH   1   2
ATOM      2  C   UNL     1      29.563  -7.593 -13.063  1.00  0.00     0.027 C 
BRANCH   2   3
ATOM      3  C   UNL     1      29.548  -8.513 -14.251  1.00  0.00    -0.025 C 
ATOM      4  C   UNL     1      29.551  -8.039 -15.502  1.00  0.00     0.020 C 
BRANCH   4   5
ATOM      5  C   UNL     1      29.551  -8.927 -16.673  1.00  0.00     0.064 C 
ATOM      6  O   UNL     1      30.574  -9.611 -16.933  1.00  0.00    -0.545 OA
ATOM      7  O   UNL     1      28.438  -9.022 -17.500  1.00  0.00    -0.545 OA
ENDBRANCH   4   5
ENDBRANCH   2   3
ENDBRANCH   1   2
BRANCH   1   8
ATOM      8  C   UNL     1      30.074  -5.088 -13.009  1.00  0.00     0.000 C 
BRANCH   8   9
ATOM      9  C   UNL     1      31.472  -5.628 -12.648  1.00  0.00    -0.000 C 
BRANCH   9  10
ATOM     10  C   UNL     1      31.868  -5.450 -11.173  1.00  0.00    -0.003 C 
ATOM     11  C   UNL     1      32.758  -6.580 -10.658  1.00  0.00     0.004 C 
ENDBRANCH   9  10
ENDBRANCH   8   9
ENDBRANCH   1   8
TORSDOF 6
ENDMDL
MODEL 2
REMARK VINA RESULT:    -4.487      3.355      5.575
REMARK INTER + INTRA:          -6.500
REMARK INTER:                  -6.177
REMARK INTRA:                  -0.324
REMARK UNBOUND:                -0.440
REMARK SMILES CCCCCCC=CC(=O)[O-]
REMARK SMILES IDX 5 1 6 2 7 3 8 4 9 5 10 6 11 7 4 8 3 9 2 10 1 11
REMARK H PARENT
REMARK Flexibility Score: inf
ROOT
ATOM      1  C   UNL     1      29.069  -6.118 -13.902  1.00  0.00     0.004 C 
ENDROOT
BRANCH   1   2
ATOM      2  C   UNL     1      30.136  -5.116 -13.433  1.00  0.00     0.027 C 
BRANCH   2   3
ATOM      3  C   UNL     1      31.251  -5.810 -12.705  1.00  0.00    -0.025 C 
ATOM      4  C   UNL     1      31.538  -5.523 -11.430  1.00  0.00     0.020 C 
BRANCH   4   5
ATOM      5  C   UNL     1      32.617  -6.204 -10.701  1.00  0.00     0.064 C 
ATOM      6  O   UNL     1      33.289  -7.098 -11.278  1.00  0.00    -0.545 OA
ATOM      7  O   UNL     1      32.907  -5.878  -9.381  1.00  0.00    -0.545 OA
ENDBRANCH   4   5
ENDBRANCH   2   3
ENDBRANCH   1   2
BRANCH   1   8
ATOM      8  C   UNL     1      29.254  -7.511 -13.262  1.00  0.00     0.000 C 
BRANCH   8   9
ATOM      9  C   UNL     1      29.674  -8.602 -14.266  1.00  0.00    -0.000 C 
BRANCH   9  10
ATOM     10  C   UNL     1      30.037  -8.082 -15.666  1.00  0.00    -0.003 C 
ATOM     11  C   UNL     1      30.190  -9.202 -16.695  1.00  0.00     0.004 C 
ENDBRANCH   9  10
ENDBRANCH   8   9
ENDBRANCH   1   8
TORSDOF 6
ENDMDL
MODEL 3
REMARK VINA RESULT:    -4.242      3.359      6.189
REMARK INTER + INTRA:          -6.169
REMARK INTER:                  -5.945
REMARK INTRA:                  -0.225
REMARK UNBOUND:                -0.440
REMARK SMILES CCCCCCC=CC(=O)[O-]
REMARK SMILES IDX 5 1 6 2 7 3 8 4 9 5 10 6 11 7 4 8 3 9 2 10 1 11
REMARK H PARENT
REMARK Flexibility Score: inf
ROOT
ATOM      1  C   UNL     1      29.735  -8.443 -14.623  1.00  0.00     0.004 C 
ENDROOT
BRANCH   1   2
ATOM      2  C   UNL     1      29.637  -6.911 -14.707  1.00  0.00     0.027 C 
BRANCH   2   3
ATOM      3  C   UNL     1      30.250  -6.260 -13.501  1.00  0.00    -0.025 C 
ATOM      4  C   UNL     1      31.280  -6.815 -12.854  1.00  0.00     0.020 C 
BRANCH   4   5
ATOM      5  C   UNL     1      31.899  -6.181 -11.682  1.00  0.00     0.064 C 
ATOM      6  O   UNL     1      32.786  -6.799 -11.037  1.00  0.00    -0.545 OA
ATOM      7  O   UNL     1      31.517  -4.909 -11.270  1.00  0.00    -0.545 OA
ENDBRANCH   4   5
ENDBRANCH   2   3
ENDBRANCH   1   2
BRANCH   1   8
ATOM      8  C   UNL     1      29.856  -9.098 -16.016  1.00  0.00     0.000 C 
BRANCH   8   9
ATOM      9  C   UNL     1      28.814  -8.591 -17.032  1.00  0.00    -0.000 C 
BRANCH   9  10
ATOM     10  C   UNL     1      28.815  -9.335 -18.377  1.00  0.00    -0.003 C 
ATOM     11  C   UNL     1      27.453  -9.310 -19.070  1.00  0.00     0.004 C 
ENDBRANCH   9  10
ENDBRANCH   8   9
ENDBRANCH   1   8
TORSDOF 6
ENDMDL
MODEL 4
REMARK VINA RESULT:    -4.210      4.379      5.571
REMARK INTER + INTRA:          -6.127
REMARK INTER:                  -5.807
REMARK INTRA:                  -0.320
REMARK UNBOUND:                -0.440
REMARK SMILES CCCCCCC=CC(=O)[O-]
REMARK SMILES IDX 5 1 6 2 7 3 8 4 9 5 10 6 11 7 4 8 3 9 2 10 1 11
REMARK H PARENT
REMARK Flexibility Score: inf
ROOT
ATOM      1  C   UNL     1      31.088  -5.442 -15.070  1.00  0.00     0.004 C 
ENDROOT
BRANCH   1   2
ATOM      2  C   UNL     1      31.705  -5.450 -16.476  1.00  0.00     0.027 C 
BRANCH   2   3
ATOM      3  C   UNL     1      33.206  -5.474 -16.412  1.00  0.00    -0.025 C 
ATOM      4  C   UNL     1      33.955  -5.234 -17.493  1.00  0.00     0.020 C 
BRANCH   4   5
ATOM      5  C   UNL     1      35.424  -5.240 -17.442  1.00  0.00     0.064 C 
ATOM      6  O   UNL     1      36.036  -6.328 -17.284  1.00  0.00    -0.545 OA
ATOM      7  O   UNL     1      36.150  -4.060 -17.561  1.00  0.00    -0.545 OA
ENDBRANCH   4   5
ENDBRANCH   2   3
ENDBRANCH   1   2
BRANCH   1   8
ATOM      8  C   UNL     1      29.767  -6.239 -15.007  1.00  0.00     0.000 C 
BRANCH   8   9
ATOM      9  C   UNL     1      29.750  -7.325 -13.913  1.00  0.00    -0.000 C 
BRANCH   9  10
ATOM     10  C   UNL     1      29.713  -8.768 -14.443  1.00  0.00    -0.003 C 
ATOM     11  C   UNL     1      29.794  -8.843 -15.967  1.00  0.00     0.004 C 
ENDBRANCH   9  10
ENDBRANCH   8   9
ENDBRANCH   1   8
TORSDOF 6
ENDMDL
MODEL 5
REMARK VINA RESULT:    -4.154      4.756      5.256
REMARK INTER + INTRA:          -6.051
REMARK INTER:                  -5.848
REMARK INTRA:                  -0.204
REMARK UNBOUND:                -0.440
REMARK SMILES CCCCCCC=CC(=O)[O-]
REMARK SMILES IDX 5 1 6 2 7 3 8 4 9 5 10 6 11 7 4 8 3 9 2 10 1 11
REMARK H PARENT
REMARK Flexibility Score: inf
ROOT
ATOM      1  C   UNL     1      33.304  -5.509 -16.492  1.00  0.00     0.004 C 
ENDROOT
BRANCH   1   2
ATOM      2  C   UNL     1      31.823  -5.104 -16.527  1.00  0.00     0.027 C 
BRANCH   2   3
ATOM      3  C   UNL     1      31.116  -5.515 -15.268  1.00  0.00    -0.025 C 
ATOM      4  C   UNL     1      30.180  -6.472 -15.272  1.00  0.00     0.020 C 
BRANCH   4   5
ATOM      5  C   UNL     1      29.491  -6.894 -14.045  1.00  0.00     0.064 C 
ATOM      6  O   UNL     1      29.522  -8.104 -13.700  1.00  0.00    -0.545 OA
ATOM      7  O   UNL     1      28.801  -5.978 -13.259  1.00  0.00    -0.545 OA
ENDBRANCH   4   5
ENDBRANCH   2   3
ENDBRANCH   1   2
BRANCH   1   8
ATOM      8  C   UNL     1      34.034  -5.172 -17.810  1.00  0.00     0.000 C 
BRANCH   8   9
ATOM      9  C   UNL     1      35.520  -4.809 -17.620  1.00  0.00    -0.000 C 
BRANCH   9  10
ATOM     10  C   UNL     1      36.178  -5.428 -16.376  1.00  0.00    -0.003 C 
ATOM     11  C   UNL     1      37.517  -6.097 -16.684  1.00  0.00     0.004 C 
ENDBRANCH   9  10
ENDBRANCH   8   9
ENDBRANCH   1   8
TORSDOF 6
ENDMDL
MODEL 6
REMARK VINA RESULT:    -3.919      3.690      4.169
REMARK INTER + INTRA:          -5.734
REMARK INTER:                  -5.254
REMARK INTRA:                  -0.480
REMARK UNBOUND:                -0.440
REMARK SMILES CCCCCCC=CC(=O)[O-]
REMARK SMILES IDX 5 1 6 2 7 3 8 4 9 5 10 6 11 7 4 8 3 9 2 10 1 11
REMARK H PARENT
REMARK Flexibility Score: inf
ROOT
ATOM      1  C   UNL     1      30.099  -6.614 -15.070  1.00  0.00     0.004 C 
ENDROOT
BRANCH   1   2
ATOM      2  C   UNL     1      30.903  -5.401 -15.561  1.00  0.00     0.027 C 
BRANCH   2   3
ATOM      3  C   UNL     1      32.259  -5.811 -16.059  1.00  0.00    -0.025 C 
ATOM      4  C   UNL     1      32.912  -5.093 -16.979  1.00  0.00     0.020 C 
BRANCH   4   5
ATOM      5  C   UNL     1      34.245  -5.475 -17.465  1.00  0.00     0.064 C 
ATOM      6  O   UNL     1      34.388  -5.854 -18.657  1.00  0.00    -0.545 OA
ATOM      7  O   UNL     1      35.354  -5.427 -16.628  1.00  0.00    -0.545 OA
ENDBRANCH   4   5
ENDBRANCH   2   3
ENDBRANCH   1   2
BRANCH   1   8
ATOM      8  C   UNL     1      30.032  -6.686 -13.529  1.00  0.00     0.000 C 
BRANCH   8   9
ATOM      9  C   UNL     1      30.278  -5.332 -12.835  1.00  0.00    -0.000 C 
BRANCH   9  10
ATOM     10  C   UNL     1      31.378  -5.352 -11.761  1.00  0.00    -0.003 C 
ATOM     11  C   UNL     1      32.292  -6.573 -11.871  1.00  0.00     0.004 C 
ENDBRANCH   9  10
ENDBRANCH   8   9
ENDBRANCH   1   8
TORSDOF 6
ENDMDL
MODEL 7
REMARK VINA RESULT:    -3.744      4.497      5.274
REMARK INTER + INTRA:          -5.497
REMARK INTER:                  -5.435
REMARK INTRA:                  -0.062
REMARK UNBOUND:                -0.440
REMARK SMILES CCCCCCC=CC(=O)[O-]
REMARK SMILES IDX 5 1 6 2 7 3 8 4 9 5 10 6 11 7 4 8 3 9 2 10 1 11
REMARK H PARENT
REMARK Flexibility Score: inf
ROOT
ATOM      1  C   UNL     1      31.105  -5.422 -15.320  1.00  0.00     0.004 C 
ENDROOT
BRANCH   1   2
ATOM      2  C   UNL     1      31.793  -5.387 -16.694  1.00  0.00     0.027 C 
BRANCH   2   3
ATOM      3  C   UNL     1      33.288  -5.359 -16.553  1.00  0.00    -0.025 C 
ATOM      4  C   UNL     1      34.087  -5.204 -17.614  1.00  0.00     0.020 C 
BRANCH   4   5
ATOM      5  C   UNL     1      35.551  -5.160 -17.489  1.00  0.00     0.064 C 
ATOM      6  O   UNL     1      36.137  -4.047 -17.442  1.00  0.00    -0.545 OA
ATOM      7  O   UNL     1      36.300  -6.329 -17.425  1.00  0.00    -0.545 OA
ENDBRANCH   4   5
ENDBRANCH   2   3
ENDBRANCH   1   2
BRANCH   1   8
ATOM      8  C   UNL     1      29.880  -6.362 -15.304  1.00  0.00     0.000 C 
BRANCH   8   9
ATOM      9  C   UNL     1      30.044  -7.577 -14.370  1.00  0.00    -0.000 C 
BRANCH   9  10
ATOM     10  C   UNL     1      29.966  -7.248 -12.870  1.00  0.00    -0.003 C 
ATOM     11  C   UNL     1      31.303  -6.782 -12.295  1.00  0.00     0.004 C 
ENDBRANCH   9  10
ENDBRANCH   8   9
ENDBRANCH   1   8
TORSDOF 6
ENDMDL
MODEL 8
REMARK VINA RESULT:    -3.521      4.083      5.223
REMARK INTER + INTRA:          -5.196
REMARK INTER:                  -5.105
REMARK INTRA:                  -0.091
REMARK UNBOUND:                -0.440
REMARK SMILES CCCCCCC=CC(=O)[O-]
REMARK SMILES IDX 5 1 6 2 7 3 8 4 9 5 10 6 11 7 4 8 3 9 2 10 1 11
REMARK H PARENT
REMARK Flexibility Score: inf
ROOT
ATOM      1  C   UNL     1      30.073  -7.006 -15.367  1.00  0.00     0.004 C 
ENDROOT
BRANCH   1   2
ATOM      2  C   UNL     1      29.818  -7.694 -14.017  1.00  0.00     0.027 C 
BRANCH   2   3
ATOM      3  C   UNL     1      30.342  -6.868 -12.877  1.00  0.00    -0.025 C 
ATOM      4  C   UNL     1      31.587  -7.025 -12.415  1.00  0.00     0.020 C 
BRANCH   4   5
ATOM      5  C   UNL     1      32.117  -6.214 -11.310  1.00  0.00     0.064 C 
ATOM      6  O   UNL     1      31.692  -5.042 -11.140  1.00  0.00    -0.545 OA
ATOM      7  O   UNL     1      33.085  -6.721 -10.449  1.00  0.00    -0.545 OA
ENDBRANCH   4   5
ENDBRANCH   2   3
ENDBRANCH   1   2
BRANCH   1   8
ATOM      8  C   UNL     1      30.765  -5.636 -15.203  1.00  0.00     0.000 C 
BRANCH   8   9
ATOM      9  C   UNL     1      31.606  -5.217 -16.424  1.00  0.00    -0.000 C 
BRANCH   9  10
ATOM     10  C   UNL     1      33.114  -5.487 -16.288  1.00  0.00    -0.003 C 
ATOM     11  C   UNL     1      33.871  -5.303 -17.603  1.00  0.00     0.004 C 
ENDBRANCH   9  10
ENDBRANCH   8   9
ENDBRANCH   1   8
TORSDOF 6
ENDMDL
MODEL 9
REMARK VINA RESULT:    -3.219      3.650      5.346
REMARK INTER + INTRA:          -4.788
REMARK INTER:                  -4.734
REMARK INTRA:                  -0.054
REMARK UNBOUND:                -0.440
REMARK SMILES CCCCCCC=CC(=O)[O-]
REMARK SMILES IDX 5 1 6 2 7 3 8 4 9 5 10 6 11 7 4 8 3 9 2 10 1 11
REMARK H PARENT
REMARK Flexibility Score: inf
ROOT
ATOM      1  C   UNL     1      28.915  -5.940 -13.720  1.00  0.00     0.004 C 
ENDROOT
BRANCH   1   2
ATOM      2  C   UNL     1      29.803  -5.086 -12.802  1.00  0.00     0.027 C 
BRANCH   2   3
ATOM      3  C   UNL     1      30.979  -5.872 -12.297  1.00  0.00    -0.025 C 
ATOM      4  C   UNL     1      31.591  -5.554 -11.151  1.00  0.00     0.020 C 
BRANCH   4   5
ATOM      5  C   UNL     1      32.734  -6.322 -10.637  1.00  0.00     0.064 C 
ATOM      6  O   UNL     1      33.117  -6.149  -9.451  1.00  0.00    -0.545 OA
ATOM      7  O   UNL     1      33.401  -7.238 -11.442  1.00  0.00    -0.545 OA
ENDBRANCH   4   5
ENDBRANCH   2   3
ENDBRANCH   1   2
BRANCH   1   8
ATOM      8  C   UNL     1      29.695  -7.105 -14.369  1.00  0.00     0.000 C 
BRANCH   8   9
ATOM      9  C   UNL     1      30.343  -6.740 -15.718  1.00  0.00    -0.000 C 
BRANCH   9  10
ATOM     10  C   UNL     1      31.027  -5.363 -15.751  1.00  0.00    -0.003 C 
ATOM     11  C   UNL     1      32.435  -5.414 -16.343  1.00  0.00     0.004 C 
ENDBRANCH   9  10
ENDBRANCH   8   9
ENDBRANCH   1   8
TORSDOF 6
ENDMDL
