MODEL 1
REMARK VINA RESULT:    -2.392      0.000      0.000
REMARK INTER + INTRA:          -4.970
REMARK INTER:                  -4.489
REMARK INTRA:                  -0.482
REMARK UNBOUND:                -0.482
REMARK SMILES CCCCCCCCC=CCCCCCCCC(=O)[O-]
REMARK SMILES IDX 10 1 9 2 11 3 12 4 13 5 14 6 15 7 16 8 17 9 18 10 19 11
REMARK SMILES IDX 20 12 8 13 7 14 6 15 5 16 4 17 3 18 2 19 1 20
REMARK H PARENT
REMARK Flexibility Score: inf
ROOT
ATOM      1  C   UNL     1      45.386 -26.470   1.484  1.00  0.00    -0.031 C 
ATOM      2  C   UNL     1      45.810 -26.166   2.719  1.00  0.00    -0.031 C 
ENDROOT
BRANCH   1   3
ATOM      3  C   UNL     1      46.032 -25.848   0.277  1.00  0.00     0.027 C 
BRANCH   3   4
ATOM      4  C   UNL     1      45.588 -24.391   0.099  1.00  0.00     0.004 C 
BRANCH   4   5
ATOM      5  C   UNL     1      45.889 -23.897  -1.323  1.00  0.00     0.000 C 
BRANCH   5   6
ATOM      6  C   UNL     1      45.669 -24.986  -2.385  1.00  0.00     0.000 C 
BRANCH   6   7
ATOM      7  C   UNL     1      46.125 -24.540  -3.785  1.00  0.00     0.000 C 
BRANCH   7   8
ATOM      8  C   UNL     1      45.150 -24.975  -4.892  1.00  0.00     0.006 C 
BRANCH   8   9
ATOM      9  C   UNL     1      45.857 -25.286  -6.218  1.00  0.00     0.053 C 
BRANCH   9  10
ATOM     10  C   UNL     1      45.805 -24.101  -7.131  1.00  0.00     0.041 C 
ATOM     11  O   UNL     1      45.964 -24.250  -8.371  1.00  0.00    -0.550 OA
ATOM     12  O   UNL     1      45.610 -22.827  -6.610  1.00  0.00    -0.550 OA
ENDBRANCH   9  10
ENDBRANCH   8   9
ENDBRANCH   7   8
ENDBRANCH   6   7
ENDBRANCH   5   6
ENDBRANCH   4   5
ENDBRANCH   3   4
ENDBRANCH   1   3
BRANCH   2  13
ATOM     13  C   UNL     1      45.121 -26.696   3.950  1.00  0.00     0.027 C 
BRANCH  13  14
ATOM     14  C   UNL     1      46.122 -27.229   4.986  1.00  0.00     0.004 C 
BRANCH  14  15
ATOM     15  C   UNL     1      45.950 -28.742   5.248  1.00  0.00     0.000 C 
BRANCH  15  16
ATOM     16  C   UNL     1      46.096 -29.114   6.735  1.00  0.00     0.000 C 
BRANCH  16  17
ATOM     17  C   UNL     1      44.937 -29.962   7.297  1.00  0.00    -0.000 C 
BRANCH  17  18
ATOM     18  C   UNL     1      45.417 -31.190   8.092  1.00  0.00    -0.000 C 
BRANCH  18  19
ATOM     19  C   UNL     1      46.107 -30.801   9.410  1.00  0.00    -0.003 C 
ATOM     20  C   UNL     1      45.529 -31.534  10.620  1.00  0.00     0.004 C 
ENDBRANCH  18  19
ENDBRANCH  17  18
ENDBRANCH  16  17
ENDBRANCH  15  16
ENDBRANCH  14  15
ENDBRANCH  13  14
ENDBRANCH   2  13
TORSDOF 15
ENDMDL
