MODEL 1
REMARK VINA RESULT:    -2.939      0.000      0.000
REMARK INTER + INTRA:          -6.232
REMARK INTER:                  -5.516
REMARK INTRA:                  -0.716
REMARK UNBOUND:                -0.716
REMARK SMILES O=C([O-])CCCCCCCCCCCCCCC(=O)[O-]
REMARK SMILES IDX 10 1 9 2 8 3 7 4 6 5 5 6 4 7 2 8 1 9 3 10 11 11 12 12 13 13
REMARK SMILES IDX 14 14 15 15 16 16 17 17 18 18 19 19 20 20
REMARK H PARENT
REMARK Flexibility Score: inf
ROOT
ATOM      1  C   UNL     1       6.114 -34.871  22.159  1.00  0.00     0.000 C 
ENDROOT
BRANCH   1   2
ATOM      2  C   UNL     1       5.715 -35.105  23.626  1.00  0.00     0.000 C 
BRANCH   2   3
ATOM      3  C   UNL     1       6.092 -36.510  24.123  1.00  0.00     0.000 C 
BRANCH   3   4
ATOM      4  C   UNL     1       5.386 -36.885  25.435  1.00  0.00     0.000 C 
BRANCH   4   5
ATOM      5  C   UNL     1       4.923 -38.350  25.407  1.00  0.00     0.000 C 
BRANCH   5   6
ATOM      6  C   UNL     1       5.270 -39.057  24.087  1.00  0.00     0.006 C 
BRANCH   6   7
ATOM      7  C   UNL     1       5.403 -40.577  24.248  1.00  0.00     0.053 C 
BRANCH   7   8
ATOM      8  C   UNL     1       5.663 -41.221  22.922  1.00  0.00     0.041 C 
ATOM      9  O   UNL     1       5.911 -42.454  22.856  1.00  0.00    -0.550 OA
ATOM     10  O   UNL     1       5.681 -40.451  21.767  1.00  0.00    -0.550 OA
ENDBRANCH   7   8
ENDBRANCH   6   7
ENDBRANCH   5   6
ENDBRANCH   4   5
ENDBRANCH   3   4
ENDBRANCH   2   3
ENDBRANCH   1   2
BRANCH   1  11
ATOM     11  C   UNL     1       5.754 -36.059  21.252  1.00  0.00     0.000 C 
BRANCH  11  12
ATOM     12  C   UNL     1       4.316 -35.981  20.714  1.00  0.00     0.000 C 
BRANCH  12  13
ATOM     13  C   UNL     1       4.283 -36.209  19.198  1.00  0.00     0.000 C 
BRANCH  13  14
ATOM     14  C   UNL     1       3.757 -37.612  18.864  1.00  0.00     0.000 C 
BRANCH  14  15
ATOM     15  C   UNL     1       2.312 -37.593  18.341  1.00  0.00     0.000 C 
BRANCH  15  16
ATOM     16  C   UNL     1       2.192 -36.933  16.956  1.00  0.00     0.006 C 
BRANCH  16  17
ATOM     17  C   UNL     1       3.446 -37.154  16.100  1.00  0.00     0.053 C 
BRANCH  17  18
ATOM     18  C   UNL     1       3.109 -37.296  14.647  1.00  0.00     0.041 C 
ATOM     19  O   UNL     1       3.878 -37.929  13.877  1.00  0.00    -0.550 OA
ATOM     20  O   UNL     1       1.963 -36.697  14.137  1.00  0.00    -0.550 OA
ENDBRANCH  17  18
ENDBRANCH  16  17
ENDBRANCH  15  16
ENDBRANCH  14  15
ENDBRANCH  13  14
ENDBRANCH  12  13
ENDBRANCH  11  12
ENDBRANCH   1  11
TORSDOF 15
ENDMDL
MODEL 2
REMARK VINA RESULT:    -2.872      0.595      7.568
REMARK INTER + INTRA:          -6.107
REMARK INTER:                  -5.168
REMARK INTRA:                  -0.939
REMARK UNBOUND:                -0.716
REMARK SMILES O=C([O-])CCCCCCCCCCCCCCC(=O)[O-]
REMARK SMILES IDX 10 1 9 2 8 3 7 4 6 5 5 6 4 7 2 8 1 9 3 10 11 11 12 12 13 13
REMARK SMILES IDX 14 14 15 15 16 16 17 17 18 18 19 19 20 20
REMARK H PARENT
REMARK Flexibility Score: inf
ROOT
ATOM      1  C   UNL     1       6.125 -36.143  22.165  1.00  0.00     0.000 C 
ENDROOT
BRANCH   1   2
ATOM      2  C   UNL     1       5.698 -36.083  20.688  1.00  0.00     0.000 C 
BRANCH   2   3
ATOM      3  C   UNL     1       4.296 -36.668  20.455  1.00  0.00     0.000 C 
BRANCH   3   4
ATOM      4  C   UNL     1       3.829 -36.529  18.998  1.00  0.00     0.000 C 
BRANCH   4   5
ATOM      5  C   UNL     1       2.657 -37.479  18.706  1.00  0.00     0.000 C 
BRANCH   5   6
ATOM      6  C   UNL     1       2.188 -37.412  17.244  1.00  0.00     0.006 C 
BRANCH   6   7
ATOM      7  C   UNL     1       3.141 -36.600  16.356  1.00  0.00     0.053 C 
BRANCH   7   8
ATOM      8  C   UNL     1       3.000 -37.015  14.925  1.00  0.00     0.041 C 
ATOM      9  O   UNL     1       2.033 -36.595  14.237  1.00  0.00    -0.550 OA
ATOM     10  O   UNL     1       3.909 -37.903  14.366  1.00  0.00    -0.550 OA
ENDBRANCH   7   8
ENDBRANCH   6   7
ENDBRANCH   5   6
ENDBRANCH   4   5
ENDBRANCH   3   4
ENDBRANCH   2   3
ENDBRANCH   1   2
BRANCH   1  11
ATOM     11  C   UNL     1       5.416 -35.086  23.027  1.00  0.00     0.000 C 
BRANCH  11  12
ATOM     12  C   UNL     1       5.876 -35.110  24.494  1.00  0.00     0.000 C 
BRANCH  12  13
ATOM     13  C   UNL     1       6.116 -36.548  24.970  1.00  0.00     0.000 C 
BRANCH  13  14
ATOM     14  C   UNL     1       4.838 -37.148  25.574  1.00  0.00     0.000 C 
BRANCH  14  15
ATOM     15  C   UNL     1       4.852 -38.685  25.581  1.00  0.00     0.000 C 
BRANCH  15  16
ATOM     16  C   UNL     1       5.360 -39.278  24.255  1.00  0.00     0.006 C 
BRANCH  16  17
ATOM     17  C   UNL     1       5.380 -40.812  24.277  1.00  0.00     0.053 C 
BRANCH  17  18
ATOM     18  C   UNL     1       5.696 -41.383  22.929  1.00  0.00     0.041 C 
ATOM     19  O   UNL     1       5.955 -42.610  22.805  1.00  0.00    -0.550 OA
ATOM     20  O   UNL     1       5.739 -40.555  21.815  1.00  0.00    -0.550 OA
ENDBRANCH  17  18
ENDBRANCH  16  17
ENDBRANCH  15  16
ENDBRANCH  14  15
ENDBRANCH  13  14
ENDBRANCH  12  13
ENDBRANCH  11  12
ENDBRANCH   1  11
TORSDOF 15
ENDMDL
MODEL 3
REMARK VINA RESULT:    -2.002      1.965      3.513
REMARK INTER + INTRA:          -4.473
REMARK INTER:                  -4.424
REMARK INTRA:                  -0.049
REMARK UNBOUND:                -0.716
REMARK SMILES O=C([O-])CCCCCCCCCCCCCCC(=O)[O-]
REMARK SMILES IDX 10 1 9 2 8 3 7 4 6 5 5 6 4 7 2 8 1 9 3 10 11 11 12 12 13 13
REMARK SMILES IDX 14 14 15 15 16 16 17 17 18 18 19 19 20 20
REMARK H PARENT
REMARK Flexibility Score: inf
ROOT
ATOM      1  C   UNL     1       3.954 -37.386  19.074  1.00  0.00     0.000 C 
ENDROOT
BRANCH   1   2
ATOM      2  C   UNL     1       4.975 -36.293  19.432  1.00  0.00     0.000 C 
BRANCH   2   3
ATOM      3  C   UNL     1       5.401 -36.343  20.908  1.00  0.00     0.000 C 
BRANCH   3   4
ATOM      4  C   UNL     1       4.616 -35.357  21.787  1.00  0.00     0.000 C 
BRANCH   4   5
ATOM      5  C   UNL     1       5.376 -35.060  23.089  1.00  0.00     0.000 C 
BRANCH   5   6
ATOM      6  C   UNL     1       6.124 -36.288  23.631  1.00  0.00     0.006 C 
BRANCH   6   7
ATOM      7  C   UNL     1       5.981 -36.443  25.151  1.00  0.00     0.053 C 
BRANCH   7   8
ATOM      8  C   UNL     1       5.068 -37.583  25.476  1.00  0.00     0.041 C 
ATOM      9  O   UNL     1       5.284 -38.725  24.991  1.00  0.00    -0.550 OA
ATOM     10  O   UNL     1       3.950 -37.373  26.273  1.00  0.00    -0.550 OA
ENDBRANCH   7   8
ENDBRANCH   6   7
ENDBRANCH   5   6
ENDBRANCH   4   5
ENDBRANCH   3   4
ENDBRANCH   2   3
ENDBRANCH   1   2
BRANCH   1  11
ATOM     11  C   UNL     1       3.134 -37.849  20.290  1.00  0.00     0.000 C 
BRANCH  11  12
ATOM     12  C   UNL     1       1.626 -37.918  19.998  1.00  0.00     0.000 C 
BRANCH  12  13
ATOM     13  C   UNL     1       1.367 -38.199  18.513  1.00  0.00     0.000 C 
BRANCH  13  14
ATOM     14  C   UNL     1       0.684 -37.001  17.837  1.00  0.00     0.000 C 
BRANCH  14  15
ATOM     15  C   UNL     1       1.223 -36.732  16.423  1.00  0.00     0.000 C 
BRANCH  15  16
ATOM     16  C   UNL     1       2.591 -36.028  16.436  1.00  0.00     0.006 C 
BRANCH  16  17
ATOM     17  C   UNL     1       3.728 -36.968  16.013  1.00  0.00     0.053 C 
BRANCH  17  18
ATOM     18  C   UNL     1       3.495 -37.544  14.650  1.00  0.00     0.041 C 
ATOM     19  O   UNL     1       2.652 -37.019  13.876  1.00  0.00    -0.550 OA
ATOM     20  O   UNL     1       4.181 -38.683  14.248  1.00  0.00    -0.550 OA
ENDBRANCH  17  18
ENDBRANCH  16  17
ENDBRANCH  15  16
ENDBRANCH  14  15
ENDBRANCH  13  14
ENDBRANCH  12  13
ENDBRANCH  11  12
ENDBRANCH   1  11
TORSDOF 15
ENDMDL
MODEL 4
REMARK VINA RESULT:    -2.001      2.110      7.150
REMARK INTER + INTRA:          -4.472
REMARK INTER:                  -3.529
REMARK INTRA:                  -0.943
REMARK UNBOUND:                -0.716
REMARK SMILES O=C([O-])CCCCCCCCCCCCCCC(=O)[O-]
REMARK SMILES IDX 10 1 9 2 8 3 7 4 6 5 5 6 4 7 2 8 1 9 3 10 11 11 12 12 13 13
REMARK SMILES IDX 14 14 15 15 16 16 17 17 18 18 19 19 20 20
REMARK H PARENT
REMARK Flexibility Score: inf
ROOT
ATOM      1  C   UNL     1       5.155 -36.122  22.147  1.00  0.00     0.000 C 
ENDROOT
BRANCH   1   2
ATOM      2  C   UNL     1       5.363 -36.184  20.624  1.00  0.00     0.000 C 
BRANCH   2   3
ATOM      3  C   UNL     1       4.579 -35.093  19.877  1.00  0.00     0.000 C 
BRANCH   3   4
ATOM      4  C   UNL     1       5.045 -34.916  18.424  1.00  0.00     0.000 C 
BRANCH   4   5
ATOM      5  C   UNL     1       4.114 -35.664  17.456  1.00  0.00     0.000 C 
BRANCH   5   6
ATOM      6  C   UNL     1       3.730 -37.062  17.964  1.00  0.00     0.006 C 
BRANCH   6   7
ATOM      7  C   UNL     1       2.266 -37.415  17.669  1.00  0.00     0.053 C 
BRANCH   7   8
ATOM      8  C   UNL     1       1.557 -37.798  18.931  1.00  0.00     0.041 C 
ATOM      9  O   UNL     1       2.199 -38.304  19.889  1.00  0.00    -0.550 OA
ATOM     10  O   UNL     1       0.181 -37.642  19.030  1.00  0.00    -0.550 OA
ENDBRANCH   7   8
ENDBRANCH   6   7
ENDBRANCH   5   6
ENDBRANCH   4   5
ENDBRANCH   3   4
ENDBRANCH   2   3
ENDBRANCH   1   2
BRANCH   1  11
ATOM     11  C   UNL     1       5.944 -34.978  22.805  1.00  0.00     0.000 C 
BRANCH  11  12
ATOM     12  C   UNL     1       5.900 -35.033  24.340  1.00  0.00     0.000 C 
BRANCH  12  13
ATOM     13  C   UNL     1       6.125 -36.464  24.845  1.00  0.00     0.000 C 
BRANCH  13  14
ATOM     14  C   UNL     1       5.031 -36.874  25.842  1.00  0.00     0.000 C 
BRANCH  14  15
ATOM     15  C   UNL     1       4.640 -38.355  25.715  1.00  0.00     0.000 C 
BRANCH  15  16
ATOM     16  C   UNL     1       5.174 -39.000  24.423  1.00  0.00     0.006 C 
BRANCH  16  17
ATOM     17  C   UNL     1       5.325 -40.521  24.557  1.00  0.00     0.053 C 
BRANCH  17  18
ATOM     18  C   UNL     1       5.588 -41.171  23.232  1.00  0.00     0.041 C 
ATOM     19  O   UNL     1       5.470 -40.509  22.167  1.00  0.00    -0.550 OA
ATOM     20  O   UNL     1       5.927 -42.516  23.173  1.00  0.00    -0.550 OA
ENDBRANCH  17  18
ENDBRANCH  16  17
ENDBRANCH  15  16
ENDBRANCH  14  15
ENDBRANCH  13  14
ENDBRANCH  12  13
ENDBRANCH  11  12
ENDBRANCH   1  11
TORSDOF 15
ENDMDL
MODEL 5
REMARK VINA RESULT:    -1.984      1.625      2.215
REMARK INTER + INTRA:          -4.440
REMARK INTER:                  -3.261
REMARK INTRA:                  -1.179
REMARK UNBOUND:                -0.716
REMARK SMILES O=C([O-])CCCCCCCCCCCCCCC(=O)[O-]
REMARK SMILES IDX 10 1 9 2 8 3 7 4 6 5 5 6 4 7 2 8 1 9 3 10 11 11 12 12 13 13
REMARK SMILES IDX 14 14 15 15 16 16 17 17 18 18 19 19 20 20
REMARK H PARENT
REMARK Flexibility Score: inf
ROOT
ATOM      1  C   UNL     1       5.894 -34.930  23.046  1.00  0.00     0.000 C 
ENDROOT
BRANCH   1   2
ATOM      2  C   UNL     1       6.047 -35.135  24.562  1.00  0.00     0.000 C 
BRANCH   2   3
ATOM      3  C   UNL     1       6.125 -36.619  24.953  1.00  0.00     0.000 C 
BRANCH   3   4
ATOM      4  C   UNL     1       4.888 -37.096  25.729  1.00  0.00     0.000 C 
BRANCH   4   5
ATOM      5  C   UNL     1       4.740 -38.623  25.638  1.00  0.00     0.000 C 
BRANCH   5   6
ATOM      6  C   UNL     1       5.375 -39.205  24.365  1.00  0.00     0.006 C 
BRANCH   6   7
ATOM      7  C   UNL     1       5.082 -40.702  24.191  1.00  0.00     0.053 C 
BRANCH   7   8
ATOM      8  C   UNL     1       5.653 -41.198  22.900  1.00  0.00     0.041 C 
ATOM      9  O   UNL     1       6.107 -42.370  22.818  1.00  0.00    -0.550 OA
ATOM     10  O   UNL     1       5.729 -40.351  21.802  1.00  0.00    -0.550 OA
ENDBRANCH   7   8
ENDBRANCH   6   7
ENDBRANCH   5   6
ENDBRANCH   4   5
ENDBRANCH   3   4
ENDBRANCH   2   3
ENDBRANCH   1   2
BRANCH   1  11
ATOM     11  C   UNL     1       5.263 -36.146  22.346  1.00  0.00     0.000 C 
BRANCH  11  12
ATOM     12  C   UNL     1       5.787 -36.345  20.915  1.00  0.00     0.000 C 
BRANCH  12  13
ATOM     13  C   UNL     1       5.957 -34.999  20.200  1.00  0.00     0.000 C 
BRANCH  13  14
ATOM     14  C   UNL     1       5.879 -35.171  18.676  1.00  0.00     0.000 C 
BRANCH  14  15
ATOM     15  C   UNL     1       4.495 -34.811  18.110  1.00  0.00     0.000 C 
BRANCH  15  16
ATOM     16  C   UNL     1       3.886 -35.948  17.270  1.00  0.00     0.006 C 
BRANCH  16  17
ATOM     17  C   UNL     1       3.483 -37.152  18.133  1.00  0.00     0.053 C 
BRANCH  17  18
ATOM     18  C   UNL     1       2.024 -37.465  18.001  1.00  0.00     0.041 C 
ATOM     19  O   UNL     1       1.431 -37.275  16.906  1.00  0.00    -0.550 OA
ATOM     20  O   UNL     1       1.311 -37.933  19.097  1.00  0.00    -0.550 OA
ENDBRANCH  17  18
ENDBRANCH  16  17
ENDBRANCH  15  16
ENDBRANCH  14  15
ENDBRANCH  13  14
ENDBRANCH  12  13
ENDBRANCH  11  12
ENDBRANCH   1  11
TORSDOF 15
ENDMDL
MODEL 6
REMARK VINA RESULT:    -1.877      1.202      2.168
REMARK INTER + INTRA:          -4.238
REMARK INTER:                  -3.188
REMARK INTRA:                  -1.050
REMARK UNBOUND:                -0.716
REMARK SMILES O=C([O-])CCCCCCCCCCCCCCC(=O)[O-]
REMARK SMILES IDX 10 1 9 2 8 3 7 4 6 5 5 6 4 7 2 8 1 9 3 10 11 11 12 12 13 13
REMARK SMILES IDX 14 14 15 15 16 16 17 17 18 18 19 19 20 20
REMARK H PARENT
REMARK Flexibility Score: inf
ROOT
ATOM      1  C   UNL     1       5.458 -36.113  19.480  1.00  0.00     0.000 C 
ENDROOT
BRANCH   1   2
ATOM      2  C   UNL     1       5.313 -35.239  20.738  1.00  0.00     0.000 C 
BRANCH   2   3
ATOM      3  C   UNL     1       6.035 -35.835  21.957  1.00  0.00     0.000 C 
BRANCH   3   4
ATOM      4  C   UNL     1       5.645 -35.148  23.274  1.00  0.00     0.000 C 
BRANCH   4   5
ATOM      5  C   UNL     1       5.596 -36.162  24.427  1.00  0.00     0.000 C 
BRANCH   5   6
ATOM      6  C   UNL     1       6.064 -37.564  24.004  1.00  0.00     0.006 C 
BRANCH   6   7
ATOM      7  C   UNL     1       5.211 -38.682  24.620  1.00  0.00     0.053 C 
BRANCH   7   8
ATOM      8  C   UNL     1       5.340 -39.938  23.816  1.00  0.00     0.041 C 
ATOM      9  O   UNL     1       5.538 -41.040  24.392  1.00  0.00    -0.550 OA
ATOM     10  O   UNL     1       5.289 -39.884  22.429  1.00  0.00    -0.550 OA
ENDBRANCH   7   8
ENDBRANCH   6   7
ENDBRANCH   5   6
ENDBRANCH   4   5
ENDBRANCH   3   4
ENDBRANCH   2   3
ENDBRANCH   1   2
BRANCH   1  11
ATOM     11  C   UNL     1       4.452 -37.275  19.450  1.00  0.00     0.000 C 
BRANCH  11  12
ATOM     12  C   UNL     1       3.040 -36.850  19.881  1.00  0.00     0.000 C 
BRANCH  12  13
ATOM     13  C   UNL     1       1.997 -37.888  19.446  1.00  0.00     0.000 C 
BRANCH  13  14
ATOM     14  C   UNL     1       1.910 -37.970  17.915  1.00  0.00     0.000 C 
BRANCH  14  15
ATOM     15  C   UNL     1       1.869 -36.585  17.249  1.00  0.00     0.000 C 
BRANCH  15  16
ATOM     16  C   UNL     1       2.919 -36.434  16.134  1.00  0.00     0.006 C 
BRANCH  16  17
ATOM     17  C   UNL     1       2.673 -37.407  14.973  1.00  0.00     0.053 C 
BRANCH  17  18
ATOM     18  C   UNL     1       3.953 -37.991  14.458  1.00  0.00     0.041 C 
ATOM     19  O   UNL     1       4.796 -37.258  13.876  1.00  0.00    -0.550 OA
ATOM     20  O   UNL     1       4.199 -39.351  14.590  1.00  0.00    -0.550 OA
ENDBRANCH  17  18
ENDBRANCH  16  17
ENDBRANCH  15  16
ENDBRANCH  14  15
ENDBRANCH  13  14
ENDBRANCH  12  13
ENDBRANCH  11  12
ENDBRANCH   1  11
TORSDOF 15
ENDMDL
MODEL 7
REMARK VINA RESULT:    -1.777      2.599      3.810
REMARK INTER + INTRA:          -4.051
REMARK INTER:                  -2.956
REMARK INTRA:                  -1.096
REMARK UNBOUND:                -0.716
REMARK SMILES O=C([O-])CCCCCCCCCCCCCCC(=O)[O-]
REMARK SMILES IDX 10 1 9 2 8 3 7 4 6 5 5 6 4 7 2 8 1 9 3 10 11 11 12 12 13 13
REMARK SMILES IDX 14 14 15 15 16 16 17 17 18 18 19 19 20 20
REMARK H PARENT
REMARK Flexibility Score: inf
ROOT
ATOM      1  C   UNL     1       6.125 -34.913  20.083  1.00  0.00     0.000 C 
ENDROOT
BRANCH   1   2
ATOM      2  C   UNL     1       5.495 -35.992  20.980  1.00  0.00     0.000 C 
BRANCH   2   3
ATOM      3  C   UNL     1       4.257 -35.484  21.735  1.00  0.00     0.000 C 
BRANCH   3   4
ATOM      4  C   UNL     1       4.605 -34.463  22.829  1.00  0.00     0.000 C 
BRANCH   4   5
ATOM      5  C   UNL     1       5.970 -34.780  23.460  1.00  0.00     0.000 C 
BRANCH   5   6
ATOM      6  C   UNL     1       5.853 -35.650  24.721  1.00  0.00     0.006 C 
BRANCH   6   7
ATOM      7  C   UNL     1       6.124 -37.135  24.441  1.00  0.00     0.053 C 
BRANCH   7   8
ATOM      8  C   UNL     1       5.165 -37.993  25.206  1.00  0.00     0.041 C 
ATOM      9  O   UNL     1       4.485 -37.501  26.144  1.00  0.00    -0.550 OA
ATOM     10  O   UNL     1       5.060 -39.347  24.915  1.00  0.00    -0.550 OA
ENDBRANCH   7   8
ENDBRANCH   6   7
ENDBRANCH   5   6
ENDBRANCH   4   5
ENDBRANCH   3   4
ENDBRANCH   2   3
ENDBRANCH   1   2
BRANCH   1  11
ATOM     11  C   UNL     1       5.356 -34.718  18.765  1.00  0.00     0.000 C 
BRANCH  11  12
ATOM     12  C   UNL     1       4.747 -36.026  18.234  1.00  0.00     0.000 C 
BRANCH  12  13
ATOM     13  C   UNL     1       3.682 -35.742  17.168  1.00  0.00     0.000 C 
BRANCH  13  14
ATOM     14  C   UNL     1       3.493 -36.953  16.243  1.00  0.00     0.000 C 
BRANCH  14  15
ATOM     15  C   UNL     1       2.018 -37.196  15.880  1.00  0.00     0.000 C 
BRANCH  15  16
ATOM     16  C   UNL     1       1.057 -36.792  17.011  1.00  0.00     0.006 C 
BRANCH  16  17
ATOM     17  C   UNL     1       0.723 -37.970  17.936  1.00  0.00     0.053 C 
BRANCH  17  18
ATOM     18  C   UNL     1       1.226 -37.742  19.329  1.00  0.00     0.041 C 
ATOM     19  O   UNL     1       2.443 -37.915  19.600  1.00  0.00    -0.550 OA
ATOM     20  O   UNL     1       0.342 -37.373  20.336  1.00  0.00    -0.550 OA
ENDBRANCH  17  18
ENDBRANCH  16  17
ENDBRANCH  15  16
ENDBRANCH  14  15
ENDBRANCH  13  14
ENDBRANCH  12  13
ENDBRANCH  11  12
ENDBRANCH   1  11
TORSDOF 15
ENDMDL
MODEL 8
REMARK VINA RESULT:    -1.728      2.005      8.410
REMARK INTER + INTRA:          -3.959
REMARK INTER:                  -3.791
REMARK INTRA:                  -0.168
REMARK UNBOUND:                -0.716
REMARK SMILES O=C([O-])CCCCCCCCCCCCCCC(=O)[O-]
REMARK SMILES IDX 10 1 9 2 8 3 7 4 6 5 5 6 4 7 2 8 1 9 3 10 11 11 12 12 13 13
REMARK SMILES IDX 14 14 15 15 16 16 17 17 18 18 19 19 20 20
REMARK H PARENT
REMARK Flexibility Score: inf
ROOT
ATOM      1  C   UNL     1       2.585 -37.272  19.650  1.00  0.00     0.000 C 
ENDROOT
BRANCH   1   2
ATOM      2  C   UNL     1       2.541 -37.852  18.227  1.00  0.00     0.000 C 
BRANCH   2   3
ATOM      3  C   UNL     1       1.223 -37.537  17.501  1.00  0.00     0.000 C 
BRANCH   3   4
ATOM      4  C   UNL     1       1.304 -36.263  16.647  1.00  0.00     0.000 C 
BRANCH   4   5
ATOM      5  C   UNL     1       1.667 -36.602  15.192  1.00  0.00     0.000 C 
BRANCH   5   6
ATOM      6  C   UNL     1       3.138 -36.302  14.863  1.00  0.00     0.006 C 
BRANCH   6   7
ATOM      7  C   UNL     1       3.740 -37.311  13.876  1.00  0.00     0.053 C 
BRANCH   7   8
ATOM      8  C   UNL     1       4.054 -38.598  14.572  1.00  0.00     0.041 C 
ATOM      9  O   UNL     1       3.791 -38.736  15.796  1.00  0.00    -0.550 OA
ATOM     10  O   UNL     1       4.683 -39.625  13.882  1.00  0.00    -0.550 OA
ENDBRANCH   7   8
ENDBRANCH   6   7
ENDBRANCH   5   6
ENDBRANCH   4   5
ENDBRANCH   3   4
ENDBRANCH   2   3
ENDBRANCH   1   2
BRANCH   1  11
ATOM     11  C   UNL     1       4.021 -37.047  20.152  1.00  0.00     0.000 C 
BRANCH  11  12
ATOM     12  C   UNL     1       4.249 -35.621  20.680  1.00  0.00     0.000 C 
BRANCH  12  13
ATOM     13  C   UNL     1       5.731 -35.384  20.997  1.00  0.00     0.000 C 
BRANCH  13  14
ATOM     14  C   UNL     1       6.079 -35.882  22.407  1.00  0.00     0.000 C 
BRANCH  14  15
ATOM     15  C   UNL     1       5.390 -35.063  23.511  1.00  0.00     0.000 C 
BRANCH  15  16
ATOM     16  C   UNL     1       5.618 -35.651  24.914  1.00  0.00     0.006 C 
BRANCH  16  17
ATOM     17  C   UNL     1       6.076 -37.115  24.859  1.00  0.00     0.053 C 
BRANCH  17  18
ATOM     18  C   UNL     1       5.019 -38.047  25.367  1.00  0.00     0.041 C 
ATOM     19  O   UNL     1       4.893 -39.196  24.866  1.00  0.00    -0.550 OA
ATOM     20  O   UNL     1       4.149 -37.634  26.368  1.00  0.00    -0.550 OA
ENDBRANCH  17  18
ENDBRANCH  16  17
ENDBRANCH  15  16
ENDBRANCH  14  15
ENDBRANCH  13  14
ENDBRANCH  12  13
ENDBRANCH  11  12
ENDBRANCH   1  11
TORSDOF 15
ENDMDL
MODEL 9
REMARK VINA RESULT:    -1.113      2.128      2.774
REMARK INTER + INTRA:          -2.805
REMARK INTER:                  -1.949
REMARK INTRA:                  -0.856
REMARK UNBOUND:                -0.716
REMARK SMILES O=C([O-])CCCCCCCCCCCCCCC(=O)[O-]
REMARK SMILES IDX 10 1 9 2 8 3 7 4 6 5 5 6 4 7 2 8 1 9 3 10 11 11 12 12 13 13
REMARK SMILES IDX 14 14 15 15 16 16 17 17 18 18 19 19 20 20
REMARK H PARENT
REMARK Flexibility Score: inf
ROOT
ATOM      1  C   UNL     1       4.335 -35.773  21.667  1.00  0.00     0.000 C 
ENDROOT
BRANCH   1   2
ATOM      2  C   UNL     1       5.809 -35.668  22.095  1.00  0.00     0.000 C 
BRANCH   2   3
ATOM      3  C   UNL     1       6.125 -36.517  23.337  1.00  0.00     0.000 C 
BRANCH   3   4
ATOM      4  C   UNL     1       5.457 -35.978  24.611  1.00  0.00     0.000 C 
BRANCH   4   5
ATOM      5  C   UNL     1       4.994 -37.131  25.516  1.00  0.00     0.000 C 
BRANCH   5   6
ATOM      6  C   UNL     1       5.638 -38.475  25.140  1.00  0.00     0.006 C 
BRANCH   6   7
ATOM      7  C   UNL     1       4.626 -39.471  24.558  1.00  0.00     0.053 C 
BRANCH   7   8
ATOM      8  C   UNL     1       5.306 -40.411  23.612  1.00  0.00     0.041 C 
ATOM      9  O   UNL     1       5.436 -40.103  22.398  1.00  0.00    -0.550 OA
ATOM     10  O   UNL     1       5.750 -41.648  24.060  1.00  0.00    -0.550 OA
ENDBRANCH   7   8
ENDBRANCH   6   7
ENDBRANCH   5   6
ENDBRANCH   4   5
ENDBRANCH   3   4
ENDBRANCH   2   3
ENDBRANCH   1   2
BRANCH   1  11
ATOM     11  C   UNL     1       4.171 -35.910  20.144  1.00  0.00     0.000 C 
BRANCH  11  12
ATOM     12  C   UNL     1       5.061 -34.933  19.360  1.00  0.00     0.000 C 
BRANCH  12  13
ATOM     13  C   UNL     1       4.629 -34.856  17.891  1.00  0.00     0.000 C 
BRANCH  13  14
ATOM     14  C   UNL     1       4.088 -36.208  17.404  1.00  0.00     0.000 C 
BRANCH  14  15
ATOM     15  C   UNL     1       3.038 -36.060  16.291  1.00  0.00     0.000 C 
BRANCH  15  16
ATOM     16  C   UNL     1       1.637 -36.517  16.735  1.00  0.00     0.006 C 
BRANCH  16  17
ATOM     17  C   UNL     1       1.660 -37.910  17.378  1.00  0.00     0.053 C 
BRANCH  17  18
ATOM     18  C   UNL     1       1.259 -37.862  18.821  1.00  0.00     0.041 C 
ATOM     19  O   UNL     1       0.093 -37.513  19.143  1.00  0.00    -0.550 OA
ATOM     20  O   UNL     1       2.185 -38.168  19.811  1.00  0.00    -0.550 OA
ENDBRANCH  17  18
ENDBRANCH  16  17
ENDBRANCH  15  16
ENDBRANCH  14  15
ENDBRANCH  13  14
ENDBRANCH  12  13
ENDBRANCH  11  12
ENDBRANCH   1  11
TORSDOF 15
ENDMDL
