MODEL 1
REMARK VINA RESULT:     9.147      0.000      0.000
REMARK INTER + INTRA:          15.858
REMARK INTER:                  16.633
REMARK INTRA:                  -0.775
REMARK UNBOUND:                -0.775
REMARK SMILES CCCCCCCCCCCCCCCC(=O)[O-]
REMARK SMILES IDX 9 1 10 2 11 3 12 4 13 5 14 6 15 7 16 8 17 9 18 10 8 11 7 12
REMARK SMILES IDX 6 13 5 14 4 15 3 16 2 17 1 18
REMARK H PARENT
REMARK Flexibility Score: inf
ROOT
ATOM      1  C   UNL     1       4.853  41.188  12.950  1.00  0.00     0.000 C 
ENDROOT
BRANCH   1   2
ATOM      2  C   UNL     1       4.075  41.615  11.686  1.00  0.00     0.000 C 
BRANCH   2   3
ATOM      3  C   UNL     1       4.966  42.259  10.603  1.00  0.00     0.000 C 
BRANCH   3   4
ATOM      4  C   UNL     1       4.185  43.046   9.530  1.00  0.00     0.000 C 
BRANCH   4   5
ATOM      5  C   UNL     1       5.042  43.490   8.326  1.00  0.00     0.000 C 
BRANCH   5   6
ATOM      6  C   UNL     1       6.375  42.732   8.200  1.00  0.00     0.006 C 
BRANCH   6   7
ATOM      7  C   UNL     1       6.874  42.665   6.751  1.00  0.00     0.053 C 
BRANCH   7   8
ATOM      8  C   UNL     1       8.288  42.179   6.708  1.00  0.00     0.041 C 
ATOM      9  O   UNL     1       9.131  42.608   7.540  1.00  0.00    -0.550 OA
ATOM     10  O   UNL     1       8.664  41.214   5.783  1.00  0.00    -0.550 OA
ENDBRANCH   7   8
ENDBRANCH   6   7
ENDBRANCH   5   6
ENDBRANCH   4   5
ENDBRANCH   3   4
ENDBRANCH   2   3
ENDBRANCH   1   2
BRANCH   1  11
ATOM     11  C   UNL     1       3.965  41.030  14.198  1.00  0.00     0.000 C 
BRANCH  11  12
ATOM     12  C   UNL     1       3.840  39.569  14.657  1.00  0.00    -0.000 C 
BRANCH  12  13
ATOM     13  C   UNL     1       4.714  39.259  15.884  1.00  0.00    -0.000 C 
BRANCH  13  14
ATOM     14  C   UNL     1       5.525  37.961  15.720  1.00  0.00    -0.000 C 
BRANCH  14  15
ATOM     15  C   UNL     1       7.021  38.227  15.489  1.00  0.00    -0.000 C 
BRANCH  15  16
ATOM     16  C   UNL     1       7.326  39.717  15.258  1.00  0.00    -0.000 C 
BRANCH  16  17
ATOM     17  C   UNL     1       8.759  39.954  14.758  1.00  0.00    -0.003 C 
ATOM     18  C   UNL     1       9.628  38.700  14.846  1.00  0.00     0.004 C 
ENDBRANCH  16  17
ENDBRANCH  15  16
ENDBRANCH  14  15
ENDBRANCH  13  14
ENDBRANCH  12  13
ENDBRANCH  11  12
ENDBRANCH   1  11
TORSDOF 14
ENDMDL
MODEL 2
REMARK VINA RESULT:    10.188      1.133      1.892
REMARK INTER + INTRA:          17.751
REMARK INTER:                  18.353
REMARK INTRA:                  -0.602
REMARK UNBOUND:                -0.775
REMARK SMILES CCCCCCCCCCCCCCCC(=O)[O-]
REMARK SMILES IDX 9 1 10 2 11 3 12 4 13 5 14 6 15 7 16 8 17 9 18 10 8 11 7 12
REMARK SMILES IDX 6 13 5 14 4 15 3 16 2 17 1 18
REMARK H PARENT
REMARK Flexibility Score: inf
ROOT
ATOM      1  C   UNL     1       4.902  41.883  11.246  1.00  0.00     0.000 C 
ENDROOT
BRANCH   1   2
ATOM      2  C   UNL     1       4.134  42.908  10.382  1.00  0.00     0.000 C 
BRANCH   2   3
ATOM      3  C   UNL     1       4.757  43.126   8.988  1.00  0.00     0.000 C 
BRANCH   3   4
ATOM      4  C   UNL     1       6.251  42.750   8.899  1.00  0.00     0.000 C 
BRANCH   4   5
ATOM      5  C   UNL     1       6.815  42.746   7.462  1.00  0.00     0.000 C 
BRANCH   5   6
ATOM      6  C   UNL     1       8.203  42.092   7.343  1.00  0.00     0.006 C 
BRANCH   6   7
ATOM      7  C   UNL     1       8.854  42.346   5.977  1.00  0.00     0.053 C 
BRANCH   7   8
ATOM      8  C   UNL     1       8.869  41.091   5.164  1.00  0.00     0.041 C 
ATOM      9  O   UNL     1       8.158  40.108   5.502  1.00  0.00    -0.550 OA
ATOM     10  O   UNL     1       9.629  41.024   4.004  1.00  0.00    -0.550 OA
ENDBRANCH   7   8
ENDBRANCH   6   7
ENDBRANCH   5   6
ENDBRANCH   4   5
ENDBRANCH   3   4
ENDBRANCH   2   3
ENDBRANCH   1   2
BRANCH   1  11
ATOM     11  C   UNL     1       4.242  41.608  12.610  1.00  0.00     0.000 C 
BRANCH  11  12
ATOM     12  C   UNL     1       5.176  40.874  13.585  1.00  0.00    -0.000 C 
BRANCH  12  13
ATOM     13  C   UNL     1       4.409  40.165  14.714  1.00  0.00    -0.000 C 
BRANCH  13  14
ATOM     14  C   UNL     1       5.346  39.488  15.731  1.00  0.00    -0.000 C 
BRANCH  14  15
ATOM     15  C   UNL     1       6.054  38.254  15.148  1.00  0.00    -0.000 C 
BRANCH  15  16
ATOM     16  C   UNL     1       7.531  38.168  15.569  1.00  0.00    -0.000 C 
BRANCH  16  17
ATOM     17  C   UNL     1       8.373  39.323  15.005  1.00  0.00    -0.003 C 
ATOM     18  C   UNL     1       9.868  39.009  14.989  1.00  0.00     0.004 C 
ENDBRANCH  16  17
ENDBRANCH  15  16
ENDBRANCH  14  15
ENDBRANCH  13  14
ENDBRANCH  12  13
ENDBRANCH  11  12
ENDBRANCH   1  11
TORSDOF 14
ENDMDL
MODEL 3
REMARK VINA RESULT:    10.234      1.471      3.104
REMARK INTER + INTRA:          17.836
REMARK INTER:                  17.983
REMARK INTRA:                  -0.148
REMARK UNBOUND:                -0.775
REMARK SMILES CCCCCCCCCCCCCCCC(=O)[O-]
REMARK SMILES IDX 9 1 10 2 11 3 12 4 13 5 14 6 15 7 16 8 17 9 18 10 8 11 7 12
REMARK SMILES IDX 6 13 5 14 4 15 3 16 2 17 1 18
REMARK H PARENT
REMARK Flexibility Score: inf
ROOT
ATOM      1  C   UNL     1       7.574  40.694  12.608  1.00  0.00     0.000 C 
ENDROOT
BRANCH   1   2
ATOM      2  C   UNL     1       6.507  41.492  11.826  1.00  0.00     0.000 C 
BRANCH   2   3
ATOM      3  C   UNL     1       7.011  42.025  10.468  1.00  0.00     0.000 C 
BRANCH   3   4
ATOM      4  C   UNL     1       5.887  42.472   9.510  1.00  0.00     0.000 C 
BRANCH   4   5
ATOM      5  C   UNL     1       6.337  42.631   8.042  1.00  0.00     0.000 C 
BRANCH   5   6
ATOM      6  C   UNL     1       7.608  41.838   7.694  1.00  0.00     0.006 C 
BRANCH   6   7
ATOM      7  C   UNL     1       8.231  42.287   6.365  1.00  0.00     0.053 C 
BRANCH   7   8
ATOM      8  C   UNL     1       9.235  43.370   6.598  1.00  0.00     0.041 C 
ATOM      9  O   UNL     1       9.056  44.517   6.107  1.00  0.00    -0.550 OA
ATOM     10  O   UNL     1      10.343  43.130   7.401  1.00  0.00    -0.550 OA
ENDBRANCH   7   8
ENDBRANCH   6   7
ENDBRANCH   5   6
ENDBRANCH   4   5
ENDBRANCH   3   4
ENDBRANCH   2   3
ENDBRANCH   1   2
BRANCH   1  11
ATOM     11  C   UNL     1       7.191  40.425  14.075  1.00  0.00     0.000 C 
BRANCH  11  12
ATOM     12  C   UNL     1       8.401  40.061  14.948  1.00  0.00    -0.000 C 
BRANCH  12  13
ATOM     13  C   UNL     1       8.469  38.558  15.266  1.00  0.00    -0.000 C 
BRANCH  13  14
ATOM     14  C   UNL     1       7.089  37.877  15.206  1.00  0.00    -0.000 C 
BRANCH  14  15
ATOM     15  C   UNL     1       6.008  38.672  15.956  1.00  0.00    -0.000 C 
BRANCH  15  16
ATOM     16  C   UNL     1       4.702  37.876  16.124  1.00  0.00    -0.000 C 
BRANCH  16  17
ATOM     17  C   UNL     1       3.617  38.309  15.125  1.00  0.00    -0.003 C 
ATOM     18  C   UNL     1       3.690  39.797  14.785  1.00  0.00     0.004 C 
ENDBRANCH  16  17
ENDBRANCH  15  16
ENDBRANCH  14  15
ENDBRANCH  13  14
ENDBRANCH  12  13
ENDBRANCH  11  12
ENDBRANCH   1  11
TORSDOF 14
ENDMDL
MODEL 4
REMARK VINA RESULT:    10.636      2.991      7.782
REMARK INTER + INTRA:          18.566
REMARK INTER:                  19.053
REMARK INTRA:                  -0.487
REMARK UNBOUND:                -0.775
REMARK SMILES CCCCCCCCCCCCCCCC(=O)[O-]
REMARK SMILES IDX 9 1 10 2 11 3 12 4 13 5 14 6 15 7 16 8 17 9 18 10 8 11 7 12
REMARK SMILES IDX 6 13 5 14 4 15 3 16 2 17 1 18
REMARK H PARENT
REMARK Flexibility Score: inf
ROOT
ATOM      1  C   UNL     1       3.959  41.654  12.559  1.00  0.00     0.000 C 
ENDROOT
BRANCH   1   2
ATOM      2  C   UNL     1       4.746  40.858  13.623  1.00  0.00     0.000 C 
BRANCH   2   3
ATOM      3  C   UNL     1       3.864  39.901  14.452  1.00  0.00     0.000 C 
BRANCH   3   4
ATOM      4  C   UNL     1       4.440  39.557  15.841  1.00  0.00     0.000 C 
BRANCH   4   5
ATOM      5  C   UNL     1       5.258  38.247  15.878  1.00  0.00     0.000 C 
BRANCH   5   6
ATOM      6  C   UNL     1       6.764  38.463  16.104  1.00  0.00     0.006 C 
BRANCH   6   7
ATOM      7  C   UNL     1       7.455  39.084  14.883  1.00  0.00     0.053 C 
BRANCH   7   8
ATOM      8  C   UNL     1       8.719  39.771  15.292  1.00  0.00     0.041 C 
ATOM      9  O   UNL     1       9.829  39.370  14.852  1.00  0.00    -0.550 OA
ATOM     10  O   UNL     1       8.669  40.886  16.119  1.00  0.00    -0.550 OA
ENDBRANCH   7   8
ENDBRANCH   6   7
ENDBRANCH   5   6
ENDBRANCH   4   5
ENDBRANCH   3   4
ENDBRANCH   2   3
ENDBRANCH   1   2
BRANCH   1  11
ATOM     11  C   UNL     1       4.658  41.713  11.189  1.00  0.00     0.000 C 
BRANCH  11  12
ATOM     12  C   UNL     1       4.397  43.030  10.443  1.00  0.00    -0.000 C 
BRANCH  12  13
ATOM     13  C   UNL     1       4.859  42.980   8.977  1.00  0.00    -0.000 C 
BRANCH  13  14
ATOM     14  C   UNL     1       6.299  42.457   8.828  1.00  0.00    -0.000 C 
BRANCH  14  15
ATOM     15  C   UNL     1       6.868  42.696   7.420  1.00  0.00    -0.000 C 
BRANCH  15  16
ATOM     16  C   UNL     1       8.293  42.140   7.257  1.00  0.00    -0.000 C 
BRANCH  16  17
ATOM     17  C   UNL     1       8.848  42.346   5.839  1.00  0.00    -0.003 C 
ATOM     18  C   UNL     1       8.787  41.075   4.993  1.00  0.00     0.004 C 
ENDBRANCH  16  17
ENDBRANCH  15  16
ENDBRANCH  14  15
ENDBRANCH  13  14
ENDBRANCH  12  13
ENDBRANCH  11  12
ENDBRANCH   1  11
TORSDOF 14
ENDMDL
MODEL 5
REMARK VINA RESULT:    10.948      1.943      3.586
REMARK INTER + INTRA:          19.134
REMARK INTER:                  19.739
REMARK INTRA:                  -0.605
REMARK UNBOUND:                -0.775
REMARK SMILES CCCCCCCCCCCCCCCC(=O)[O-]
REMARK SMILES IDX 9 1 10 2 11 3 12 4 13 5 14 6 15 7 16 8 17 9 18 10 8 11 7 12
REMARK SMILES IDX 6 13 5 14 4 15 3 16 2 17 1 18
REMARK H PARENT
REMARK Flexibility Score: inf
ROOT
ATOM      1  C   UNL     1       6.921  41.068  12.744  1.00  0.00     0.000 C 
ENDROOT
BRANCH   1   2
ATOM      2  C   UNL     1       7.717  41.354  11.452  1.00  0.00     0.000 C 
BRANCH   2   3
ATOM      3  C   UNL     1       6.866  41.986  10.331  1.00  0.00     0.000 C 
BRANCH   3   4
ATOM      4  C   UNL     1       7.622  42.187   9.001  1.00  0.00     0.000 C 
BRANCH   4   5
ATOM      5  C   UNL     1       6.714  42.553   7.808  1.00  0.00     0.000 C 
BRANCH   5   6
ATOM      6  C   UNL     1       7.455  42.617   6.461  1.00  0.00     0.006 C 
BRANCH   6   7
ATOM      7  C   UNL     1       8.672  41.682   6.420  1.00  0.00     0.053 C 
BRANCH   7   8
ATOM      8  C   UNL     1       8.786  41.034   5.077  1.00  0.00     0.041 C 
ATOM      9  O   UNL     1       7.940  40.174   4.714  1.00  0.00    -0.550 OA
ATOM     10  O   UNL     1       9.796  41.416   4.204  1.00  0.00    -0.550 OA
ENDBRANCH   7   8
ENDBRANCH   6   7
ENDBRANCH   5   6
ENDBRANCH   4   5
ENDBRANCH   3   4
ENDBRANCH   2   3
ENDBRANCH   1   2
BRANCH   1  11
ATOM     11  C   UNL     1       7.628  40.094  13.703  1.00  0.00     0.000 C 
BRANCH  11  12
ATOM     12  C   UNL     1       7.545  40.538  15.171  1.00  0.00    -0.000 C 
BRANCH  12  13
ATOM     13  C   UNL     1       6.358  39.901  15.914  1.00  0.00    -0.000 C 
BRANCH  13  14
ATOM     14  C   UNL     1       6.174  38.412  15.568  1.00  0.00    -0.000 C 
BRANCH  14  15
ATOM     15  C   UNL     1       4.763  37.901  15.904  1.00  0.00    -0.000 C 
BRANCH  15  16
ATOM     16  C   UNL     1       3.681  38.973  15.689  1.00  0.00    -0.000 C 
BRANCH  16  17
ATOM     17  C   UNL     1       2.601  38.528  14.690  1.00  0.00    -0.003 C 
ATOM     18  C   UNL     1       1.400  37.875  15.374  1.00  0.00     0.004 C 
ENDBRANCH  16  17
ENDBRANCH  15  16
ENDBRANCH  14  15
ENDBRANCH  13  14
ENDBRANCH  12  13
ENDBRANCH  11  12
ENDBRANCH   1  11
TORSDOF 14
ENDMDL
MODEL 6
REMARK VINA RESULT:    11.067      2.840      7.756
REMARK INTER + INTRA:          19.350
REMARK INTER:                  19.993
REMARK INTRA:                  -0.643
REMARK UNBOUND:                -0.775
REMARK SMILES CCCCCCCCCCCCCCCC(=O)[O-]
REMARK SMILES IDX 9 1 10 2 11 3 12 4 13 5 14 6 15 7 16 8 17 9 18 10 8 11 7 12
REMARK SMILES IDX 6 13 5 14 4 15 3 16 2 17 1 18
REMARK H PARENT
REMARK Flexibility Score: inf
ROOT
ATOM      1  C   UNL     1       5.049  41.491  13.087  1.00  0.00     0.000 C 
ENDROOT
BRANCH   1   2
ATOM      2  C   UNL     1       4.254  41.097  14.352  1.00  0.00     0.000 C 
BRANCH   2   3
ATOM      3  C   UNL     1       3.972  39.584  14.456  1.00  0.00     0.000 C 
BRANCH   3   4
ATOM      4  C   UNL     1       4.014  39.032  15.896  1.00  0.00     0.000 C 
BRANCH   4   5
ATOM      5  C   UNL     1       5.043  37.900  16.108  1.00  0.00     0.000 C 
BRANCH   5   6
ATOM      6  C   UNL     1       6.433  38.210  15.526  1.00  0.00     0.006 C 
BRANCH   6   7
ATOM      7  C   UNL     1       7.032  39.500  16.100  1.00  0.00     0.053 C 
BRANCH   7   8
ATOM      8  C   UNL     1       8.376  39.764  15.499  1.00  0.00     0.041 C 
ATOM      9  O   UNL     1       8.572  40.802  14.813  1.00  0.00    -0.550 OA
ATOM     10  O   UNL     1       9.428  38.889  15.740  1.00  0.00    -0.550 OA
ENDBRANCH   7   8
ENDBRANCH   6   7
ENDBRANCH   5   6
ENDBRANCH   4   5
ENDBRANCH   3   4
ENDBRANCH   2   3
ENDBRANCH   1   2
BRANCH   1  11
ATOM     11  C   UNL     1       4.171  41.661  11.835  1.00  0.00     0.000 C 
BRANCH  11  12
ATOM     12  C   UNL     1       4.977  42.082  10.596  1.00  0.00    -0.000 C 
BRANCH  12  13
ATOM     13  C   UNL     1       4.107  42.774   9.533  1.00  0.00    -0.000 C 
BRANCH  13  14
ATOM     14  C   UNL     1       4.944  43.483   8.453  1.00  0.00    -0.000 C 
BRANCH  14  15
ATOM     15  C   UNL     1       6.263  42.750   8.156  1.00  0.00    -0.000 C 
BRANCH  15  16
ATOM     16  C   UNL     1       6.781  43.023   6.733  1.00  0.00    -0.000 C 
BRANCH  16  17
ATOM     17  C   UNL     1       7.849  42.010   6.291  1.00  0.00    -0.003 C 
ATOM     18  C   UNL     1       9.271  42.544   6.456  1.00  0.00     0.004 C 
ENDBRANCH  16  17
ENDBRANCH  15  16
ENDBRANCH  14  15
ENDBRANCH  13  14
ENDBRANCH  12  13
ENDBRANCH  11  12
ENDBRANCH   1  11
TORSDOF 14
ENDMDL
MODEL 7
REMARK VINA RESULT:    11.218      1.977      3.765
REMARK INTER + INTRA:          19.625
REMARK INTER:                  20.171
REMARK INTRA:                  -0.546
REMARK UNBOUND:                -0.775
REMARK SMILES CCCCCCCCCCCCCCCC(=O)[O-]
REMARK SMILES IDX 9 1 10 2 11 3 12 4 13 5 14 6 15 7 16 8 17 9 18 10 8 11 7 12
REMARK SMILES IDX 6 13 5 14 4 15 3 16 2 17 1 18
REMARK H PARENT
REMARK Flexibility Score: inf
ROOT
ATOM      1  C   UNL     1       5.395  42.173  10.504  1.00  0.00     0.000 C 
ENDROOT
BRANCH   1   2
ATOM      2  C   UNL     1       5.810  42.860   9.184  1.00  0.00     0.000 C 
BRANCH   2   3
ATOM      3  C   UNL     1       7.070  42.244   8.539  1.00  0.00     0.000 C 
BRANCH   3   4
ATOM      4  C   UNL     1       7.169  42.463   7.015  1.00  0.00     0.000 C 
BRANCH   4   5
ATOM      5  C   UNL     1       8.594  42.295   6.446  1.00  0.00     0.000 C 
BRANCH   5   6
ATOM      6  C   UNL     1       8.625  41.814   4.985  1.00  0.00     0.006 C 
BRANCH   6   7
ATOM      7  C   UNL     1       9.358  40.476   4.826  1.00  0.00     0.053 C 
BRANCH   7   8
ATOM      8  C   UNL     1       9.912  40.345   3.443  1.00  0.00     0.041 C 
ATOM      9  O   UNL     1       9.603  41.183   2.554  1.00  0.00    -0.550 OA
ATOM     10  O   UNL     1      10.811  39.328   3.147  1.00  0.00    -0.550 OA
ENDBRANCH   7   8
ENDBRANCH   6   7
ENDBRANCH   5   6
ENDBRANCH   4   5
ENDBRANCH   3   4
ENDBRANCH   2   3
ENDBRANCH   1   2
BRANCH   1  11
ATOM     11  C   UNL     1       6.573  41.537  11.265  1.00  0.00     0.000 C 
BRANCH  11  12
ATOM     12  C   UNL     1       6.147  40.908  12.601  1.00  0.00    -0.000 C 
BRANCH  12  13
ATOM     13  C   UNL     1       7.344  40.607  13.519  1.00  0.00    -0.000 C 
BRANCH  13  14
ATOM     14  C   UNL     1       6.918  40.301  14.966  1.00  0.00    -0.000 C 
BRANCH  14  15
ATOM     15  C   UNL     1       7.459  38.951  15.466  1.00  0.00    -0.000 C 
BRANCH  15  16
ATOM     16  C   UNL     1       6.347  38.027  15.990  1.00  0.00    -0.000 C 
BRANCH  16  17
ATOM     17  C   UNL     1       5.083  38.074  15.117  1.00  0.00    -0.003 C 
ATOM     18  C   UNL     1       3.894  38.710  15.836  1.00  0.00     0.004 C 
ENDBRANCH  16  17
ENDBRANCH  15  16
ENDBRANCH  14  15
ENDBRANCH  13  14
ENDBRANCH  12  13
ENDBRANCH  11  12
ENDBRANCH   1  11
TORSDOF 14
ENDMDL
MODEL 8
REMARK VINA RESULT:    11.361      2.845      7.876
REMARK INTER + INTRA:          19.885
REMARK INTER:                  20.430
REMARK INTRA:                  -0.545
REMARK UNBOUND:                -0.775
REMARK SMILES CCCCCCCCCCCCCCCC(=O)[O-]
REMARK SMILES IDX 9 1 10 2 11 3 12 4 13 5 14 6 15 7 16 8 17 9 18 10 8 11 7 12
REMARK SMILES IDX 6 13 5 14 4 15 3 16 2 17 1 18
REMARK H PARENT
REMARK Flexibility Score: inf
ROOT
ATOM      1  C   UNL     1       4.969  42.014  10.844  1.00  0.00     0.000 C 
ENDROOT
BRANCH   1   2
ATOM      2  C   UNL     1       4.259  41.742  12.188  1.00  0.00     0.000 C 
BRANCH   2   3
ATOM      3  C   UNL     1       5.136  40.980  13.204  1.00  0.00     0.000 C 
BRANCH   3   4
ATOM      4  C   UNL     1       4.457  40.741  14.569  1.00  0.00     0.000 C 
BRANCH   4   5
ATOM      5  C   UNL     1       4.465  39.267  15.028  1.00  0.00     0.000 C 
BRANCH   5   6
ATOM      6  C   UNL     1       5.873  38.712  15.304  1.00  0.00     0.006 C 
BRANCH   6   7
ATOM      7  C   UNL     1       6.801  39.759  15.934  1.00  0.00     0.053 C 
BRANCH   7   8
ATOM      8  C   UNL     1       8.081  39.852  15.167  1.00  0.00     0.041 C 
ATOM      9  O   UNL     1       8.462  40.959  14.701  1.00  0.00    -0.550 OA
ATOM     10  O   UNL     1       8.880  38.727  15.009  1.00  0.00    -0.550 OA
ENDBRANCH   7   8
ENDBRANCH   6   7
ENDBRANCH   5   6
ENDBRANCH   4   5
ENDBRANCH   3   4
ENDBRANCH   2   3
ENDBRANCH   1   2
BRANCH   1  11
ATOM     11  C   UNL     1       4.305  43.124  10.008  1.00  0.00     0.000 C 
BRANCH  11  12
ATOM     12  C   UNL     1       4.860  43.204   8.578  1.00  0.00    -0.000 C 
BRANCH  12  13
ATOM     13  C   UNL     1       6.338  42.791   8.494  1.00  0.00    -0.000 C 
BRANCH  13  14
ATOM     14  C   UNL     1       6.764  42.398   7.067  1.00  0.00    -0.000 C 
BRANCH  14  15
ATOM     15  C   UNL     1       8.071  43.082   6.634  1.00  0.00    -0.000 C 
BRANCH  15  16
ATOM     16  C   UNL     1       9.255  42.103   6.567  1.00  0.00    -0.000 C 
BRANCH  16  17
ATOM     17  C   UNL     1       8.939  40.854   5.731  1.00  0.00    -0.003 C 
ATOM     18  C   UNL     1       9.390  40.990   4.276  1.00  0.00     0.004 C 
ENDBRANCH  16  17
ENDBRANCH  15  16
ENDBRANCH  14  15
ENDBRANCH  13  14
ENDBRANCH  12  13
ENDBRANCH  11  12
ENDBRANCH   1  11
TORSDOF 14
ENDMDL
