MODEL 1
REMARK VINA RESULT:    -4.943      0.000      0.000
REMARK INTER + INTRA:         -11.589
REMARK INTER:                  -9.278
REMARK INTRA:                  -2.311
REMARK UNBOUND:                -2.311
REMARK SMILES CCCCCCCCC=CCCCCCCCC(=O)[O-]
REMARK SMILES IDX 10 1 9 2 11 3 12 4 13 5 14 6 15 7 16 8 17 9 18 10 19 11
REMARK SMILES IDX 20 12 8 13 7 14 6 15 5 16 4 17 3 18 2 19 1 20
REMARK H PARENT
REMARK Flexibility Score: inf
ROOT
ATOM      1  C   UNL     1      43.735  52.613  35.358  1.00  0.00    -0.031 C 
ATOM      2  C   UNL     1      42.750  51.812  35.809  1.00  0.00    -0.031 C 
ENDROOT
BRANCH   1   3
ATOM      3  C   UNL     1      43.861  53.134  33.944  1.00  0.00     0.027 C 
BRANCH   3   4
ATOM      4  C   UNL     1      43.550  54.635  33.863  1.00  0.00     0.004 C 
BRANCH   4   5
ATOM      5  C   UNL     1      42.116  54.963  34.305  1.00  0.00     0.000 C 
BRANCH   5   6
ATOM      6  C   UNL     1      42.113  56.013  35.426  1.00  0.00     0.000 C 
BRANCH   6   7
ATOM      7  C   UNL     1      42.158  55.370  36.829  1.00  0.00     0.000 C 
BRANCH   7   8
ATOM      8  C   UNL     1      43.195  56.010  37.768  1.00  0.00     0.006 C 
BRANCH   8   9
ATOM      9  C   UNL     1      44.637  55.812  37.286  1.00  0.00     0.053 C 
BRANCH   9  10
ATOM     10  C   UNL     1      45.403  57.093  37.394  1.00  0.00     0.041 C 
ATOM     11  O   UNL     1      44.808  58.165  37.680  1.00  0.00    -0.550 OA
ATOM     12  O   UNL     1      46.783  57.095  37.229  1.00  0.00    -0.550 OA
ENDBRANCH   9  10
ENDBRANCH   8   9
ENDBRANCH   7   8
ENDBRANCH   6   7
ENDBRANCH   5   6
ENDBRANCH   4   5
ENDBRANCH   3   4
ENDBRANCH   1   3
BRANCH   2  13
ATOM     13  C   UNL     1      41.584  51.322  34.987  1.00  0.00     0.027 C 
BRANCH  13  14
ATOM     14  C   UNL     1      40.248  51.838  35.544  1.00  0.00     0.004 C 
BRANCH  14  15
ATOM     15  C   UNL     1      39.313  52.356  34.441  1.00  0.00     0.000 C 
BRANCH  15  16
ATOM     16  C   UNL     1      39.945  52.261  33.041  1.00  0.00     0.000 C 
BRANCH  16  17
ATOM     17  C   UNL     1      39.369  51.104  32.204  1.00  0.00    -0.000 C 
BRANCH  17  18
ATOM     18  C   UNL     1      40.384  50.008  31.831  1.00  0.00    -0.000 C 
BRANCH  18  19
ATOM     19  C   UNL     1      39.897  48.595  32.182  1.00  0.00    -0.003 C 
ATOM     20  C   UNL     1      38.472  48.624  32.729  1.00  0.00     0.004 C 
ENDBRANCH  18  19
ENDBRANCH  17  18
ENDBRANCH  16  17
ENDBRANCH  15  16
ENDBRANCH  14  15
ENDBRANCH  13  14
ENDBRANCH   2  13
TORSDOF 15
ENDMDL
MODEL 2
REMARK VINA RESULT:    -4.865      9.067     12.632
REMARK INTER + INTRA:         -11.441
REMARK INTER:                 -10.407
REMARK INTRA:                  -1.034
REMARK UNBOUND:                -2.311
REMARK SMILES CCCCCCCCC=CCCCCCCCC(=O)[O-]
REMARK SMILES IDX 10 1 9 2 11 3 12 4 13 5 14 6 15 7 16 8 17 9 18 10 19 11
REMARK SMILES IDX 20 12 8 13 7 14 6 15 5 16 4 17 3 18 2 19 1 20
REMARK H PARENT
REMARK Flexibility Score: inf
ROOT
ATOM      1  C   UNL     1      46.613  44.200  31.830  1.00  0.00    -0.031 C 
ATOM      2  C   UNL     1      46.498  44.853  33.003  1.00  0.00    -0.031 C 
ENDROOT
BRANCH   1   3
ATOM      3  C   UNL     1      45.509  43.421  31.151  1.00  0.00     0.027 C 
BRANCH   3   4
ATOM      4  C   UNL     1      45.091  44.071  29.824  1.00  0.00     0.004 C 
BRANCH   4   5
ATOM      5  C   UNL     1      46.190  44.971  29.239  1.00  0.00     0.000 C 
BRANCH   5   6
ATOM      6  C   UNL     1      45.717  45.639  27.939  1.00  0.00     0.000 C 
BRANCH   6   7
ATOM      7  C   UNL     1      46.330  44.976  26.687  1.00  0.00     0.000 C 
BRANCH   7   8
ATOM      8  C   UNL     1      45.283  44.529  25.652  1.00  0.00     0.006 C 
BRANCH   8   9
ATOM      9  C   UNL     1      44.941  43.038  25.755  1.00  0.00     0.053 C 
BRANCH   9  10
ATOM     10  C   UNL     1      43.611  42.852  26.415  1.00  0.00     0.041 C 
ATOM     11  O   UNL     1      42.719  43.734  26.301  1.00  0.00    -0.550 OA
ATOM     12  O   UNL     1      43.338  41.683  27.114  1.00  0.00    -0.550 OA
ENDBRANCH   9  10
ENDBRANCH   8   9
ENDBRANCH   7   8
ENDBRANCH   6   7
ENDBRANCH   5   6
ENDBRANCH   4   5
ENDBRANCH   3   4
ENDBRANCH   1   3
BRANCH   2  13
ATOM     13  C   UNL     1      45.238  44.945  33.826  1.00  0.00     0.027 C 
BRANCH  13  14
ATOM     14  C   UNL     1      45.339  46.054  34.885  1.00  0.00     0.004 C 
BRANCH  14  15
ATOM     15  C   UNL     1      46.380  47.122  34.519  1.00  0.00     0.000 C 
BRANCH  15  16
ATOM     16  C   UNL     1      46.325  48.342  35.457  1.00  0.00     0.000 C 
BRANCH  16  17
ATOM     17  C   UNL     1      47.682  49.059  35.585  1.00  0.00    -0.000 C 
BRANCH  17  18
ATOM     18  C   UNL     1      47.820  50.338  34.739  1.00  0.00    -0.000 C 
BRANCH  18  19
ATOM     19  C   UNL     1      48.936  51.267  35.237  1.00  0.00    -0.003 C 
ATOM     20  C   UNL     1      49.968  50.499  36.058  1.00  0.00     0.004 C 
ENDBRANCH  18  19
ENDBRANCH  17  18
ENDBRANCH  16  17
ENDBRANCH  15  16
ENDBRANCH  14  15
ENDBRANCH  13  14
ENDBRANCH   2  13
TORSDOF 15
ENDMDL
MODEL 3
REMARK VINA RESULT:    -4.851      8.438     12.124
REMARK INTER + INTRA:         -11.416
REMARK INTER:                 -10.269
REMARK INTRA:                  -1.147
REMARK UNBOUND:                -2.311
REMARK SMILES CCCCCCCCC=CCCCCCCCC(=O)[O-]
REMARK SMILES IDX 10 1 9 2 11 3 12 4 13 5 14 6 15 7 16 8 17 9 18 10 19 11
REMARK SMILES IDX 20 12 8 13 7 14 6 15 5 16 4 17 3 18 2 19 1 20
REMARK H PARENT
REMARK Flexibility Score: inf
ROOT
ATOM      1  C   UNL     1      52.075  50.888  37.521  1.00  0.00    -0.031 C 
ATOM      2  C   UNL     1      52.508  50.813  38.794  1.00  0.00    -0.031 C 
ENDROOT
BRANCH   1   3
ATOM      3  C   UNL     1      50.738  51.443  37.083  1.00  0.00     0.027 C 
BRANCH   3   4
ATOM      4  C   UNL     1      50.018  50.490  36.118  1.00  0.00     0.004 C 
BRANCH   4   5
ATOM      5  C   UNL     1      48.971  51.210  35.253  1.00  0.00     0.000 C 
BRANCH   5   6
ATOM      6  C   UNL     1      47.866  50.240  34.808  1.00  0.00     0.000 C 
BRANCH   6   7
ATOM      7  C   UNL     1      48.436  48.891  34.318  1.00  0.00     0.000 C 
BRANCH   7   8
ATOM      8  C   UNL     1      47.383  47.774  34.226  1.00  0.00     0.006 C 
BRANCH   8   9
ATOM      9  C   UNL     1      46.813  47.379  35.594  1.00  0.00     0.053 C 
BRANCH   9  10
ATOM     10  C   UNL     1      45.317  47.410  35.564  1.00  0.00     0.041 C 
ATOM     11  O   UNL     1      44.698  48.441  35.936  1.00  0.00    -0.550 OA
ATOM     12  O   UNL     1      44.608  46.319  35.077  1.00  0.00    -0.550 OA
ENDBRANCH   9  10
ENDBRANCH   8   9
ENDBRANCH   7   8
ENDBRANCH   6   7
ENDBRANCH   5   6
ENDBRANCH   4   5
ENDBRANCH   3   4
ENDBRANCH   1   3
BRANCH   2  13
ATOM     13  C   UNL     1      51.747  51.299  40.001  1.00  0.00     0.027 C 
BRANCH  13  14
ATOM     14  C   UNL     1      50.987  50.151  40.685  1.00  0.00     0.004 C 
BRANCH  14  15
ATOM     15  C   UNL     1      50.308  50.592  41.991  1.00  0.00     0.000 C 
BRANCH  15  16
ATOM     16  C   UNL     1      51.324  50.934  43.096  1.00  0.00     0.000 C 
BRANCH  16  17
ATOM     17  C   UNL     1      51.100  52.332  43.701  1.00  0.00    -0.000 C 
BRANCH  17  18
ATOM     18  C   UNL     1      51.888  53.466  43.018  1.00  0.00    -0.000 C 
BRANCH  18  19
ATOM     19  C   UNL     1      53.360  53.515  43.449  1.00  0.00    -0.003 C 
ATOM     20  C   UNL     1      54.245  52.738  42.479  1.00  0.00     0.004 C 
ENDBRANCH  18  19
ENDBRANCH  17  18
ENDBRANCH  16  17
ENDBRANCH  15  16
ENDBRANCH  14  15
ENDBRANCH  13  14
ENDBRANCH   2  13
TORSDOF 15
ENDMDL
MODEL 4
REMARK VINA RESULT:    -4.817      8.635     10.539
REMARK INTER + INTRA:         -11.351
REMARK INTER:                 -10.032
REMARK INTRA:                  -1.319
REMARK UNBOUND:                -2.311
REMARK SMILES CCCCCCCCC=CCCCCCCCC(=O)[O-]
REMARK SMILES IDX 10 1 9 2 11 3 12 4 13 5 14 6 15 7 16 8 17 9 18 10 19 11
REMARK SMILES IDX 20 12 8 13 7 14 6 15 5 16 4 17 3 18 2 19 1 20
REMARK H PARENT
REMARK Flexibility Score: inf
ROOT
ATOM      1  C   UNL     1      51.506  50.570  40.160  1.00  0.00    -0.031 C 
ATOM      2  C   UNL     1      51.539  50.220  38.859  1.00  0.00    -0.031 C 
ENDROOT
BRANCH   1   3
ATOM      3  C   UNL     1      51.468  51.988  40.684  1.00  0.00     0.027 C 
BRANCH   3   4
ATOM      4  C   UNL     1      52.484  52.201  41.815  1.00  0.00     0.004 C 
BRANCH   4   5
ATOM      5  C   UNL     1      51.810  52.522  43.158  1.00  0.00     0.000 C 
BRANCH   5   6
ATOM      6  C   UNL     1      51.773  51.282  44.064  1.00  0.00     0.000 C 
BRANCH   6   7
ATOM      7  C   UNL     1      50.355  50.681  44.172  1.00  0.00     0.000 C 
BRANCH   7   8
ATOM      8  C   UNL     1      50.196  49.342  43.432  1.00  0.00     0.006 C 
BRANCH   8   9
ATOM      9  C   UNL     1      49.013  49.338  42.455  1.00  0.00     0.053 C 
BRANCH   9  10
ATOM     10  C   UNL     1      48.798  47.965  41.901  1.00  0.00     0.041 C 
ATOM     11  O   UNL     1      49.499  47.553  40.941  1.00  0.00    -0.550 OA
ATOM     12  O   UNL     1      47.858  47.121  42.479  1.00  0.00    -0.550 OA
ENDBRANCH   9  10
ENDBRANCH   8   9
ENDBRANCH   7   8
ENDBRANCH   6   7
ENDBRANCH   5   6
ENDBRANCH   4   5
ENDBRANCH   3   4
ENDBRANCH   1   3
BRANCH   2  13
ATOM     13  C   UNL     1      51.509  51.184  37.700  1.00  0.00     0.027 C 
BRANCH  13  14
ATOM     14  C   UNL     1      51.163  50.469  36.384  1.00  0.00     0.004 C 
BRANCH  14  15
ATOM     15  C   UNL     1      49.712  49.968  36.352  1.00  0.00     0.000 C 
BRANCH  15  16
ATOM     16  C   UNL     1      49.084  50.071  34.950  1.00  0.00     0.000 C 
BRANCH  16  17
ATOM     17  C   UNL     1      47.562  49.842  34.959  1.00  0.00    -0.000 C 
BRANCH  17  18
ATOM     18  C   UNL     1      47.126  48.379  34.761  1.00  0.00    -0.000 C 
BRANCH  18  19
ATOM     19  C   UNL     1      46.213  47.869  35.885  1.00  0.00    -0.003 C 
ATOM     20  C   UNL     1      45.102  46.981  35.332  1.00  0.00     0.004 C 
ENDBRANCH  18  19
ENDBRANCH  17  18
ENDBRANCH  16  17
ENDBRANCH  15  16
ENDBRANCH  14  15
ENDBRANCH  13  14
ENDBRANCH   2  13
TORSDOF 15
ENDMDL
MODEL 5
REMARK VINA RESULT:    -4.788      8.180      9.890
REMARK INTER + INTRA:         -11.298
REMARK INTER:                  -9.809
REMARK INTRA:                  -1.489
REMARK UNBOUND:                -2.311
REMARK SMILES CCCCCCCCC=CCCCCCCCC(=O)[O-]
REMARK SMILES IDX 10 1 9 2 11 3 12 4 13 5 14 6 15 7 16 8 17 9 18 10 19 11
REMARK SMILES IDX 20 12 8 13 7 14 6 15 5 16 4 17 3 18 2 19 1 20
REMARK H PARENT
REMARK Flexibility Score: inf
ROOT
ATOM      1  C   UNL     1      50.793  49.945  37.148  1.00  0.00    -0.031 C 
ATOM      2  C   UNL     1      49.868  49.769  36.184  1.00  0.00    -0.031 C 
ENDROOT
BRANCH   1   3
ATOM      3  C   UNL     1      51.285  51.282  37.655  1.00  0.00     0.027 C 
BRANCH   3   4
ATOM      4  C   UNL     1      52.066  51.137  38.969  1.00  0.00     0.004 C 
BRANCH   4   5
ATOM      5  C   UNL     1      51.264  51.625  40.186  1.00  0.00     0.000 C 
BRANCH   5   6
ATOM      6  C   UNL     1      51.586  50.780  41.429  1.00  0.00     0.000 C 
BRANCH   6   7
ATOM      7  C   UNL     1      50.329  50.493  42.279  1.00  0.00     0.000 C 
BRANCH   7   8
ATOM      8  C   UNL     1      49.966  49.000  42.355  1.00  0.00     0.006 C 
BRANCH   8   9
ATOM      9  C   UNL     1      48.456  48.749  42.258  1.00  0.00     0.053 C 
BRANCH   9  10
ATOM     10  C   UNL     1      48.187  47.322  41.897  1.00  0.00     0.041 C 
ATOM     11  O   UNL     1      48.494  46.889  40.756  1.00  0.00    -0.550 OA
ATOM     12  O   UNL     1      47.643  46.457  42.838  1.00  0.00    -0.550 OA
ENDBRANCH   9  10
ENDBRANCH   8   9
ENDBRANCH   7   8
ENDBRANCH   6   7
ENDBRANCH   5   6
ENDBRANCH   4   5
ENDBRANCH   3   4
ENDBRANCH   1   3
BRANCH   2  13
ATOM     13  C   UNL     1      49.141  50.878  35.466  1.00  0.00     0.027 C 
BRANCH  13  14
ATOM     14  C   UNL     1      48.052  50.323  34.535  1.00  0.00     0.004 C 
BRANCH  14  15
ATOM     15  C   UNL     1      48.438  48.969  33.920  1.00  0.00     0.000 C 
BRANCH  15  16
ATOM     16  C   UNL     1      47.381  47.881  34.181  1.00  0.00     0.000 C 
BRANCH  16  17
ATOM     17  C   UNL     1      46.378  48.275  35.280  1.00  0.00    -0.000 C 
BRANCH  17  18
ATOM     18  C   UNL     1      46.281  47.283  36.454  1.00  0.00    -0.000 C 
BRANCH  18  19
ATOM     19  C   UNL     1      47.599  47.142  37.229  1.00  0.00    -0.003 C 
ATOM     20  C   UNL     1      48.090  45.698  37.223  1.00  0.00     0.004 C 
ENDBRANCH  18  19
ENDBRANCH  17  18
ENDBRANCH  16  17
ENDBRANCH  15  16
ENDBRANCH  14  15
ENDBRANCH  13  14
ENDBRANCH   2  13
TORSDOF 15
ENDMDL
MODEL 6
REMARK VINA RESULT:    -4.772      4.330      8.538
REMARK INTER + INTRA:         -11.266
REMARK INTER:                  -9.817
REMARK INTRA:                  -1.449
REMARK UNBOUND:                -2.311
REMARK SMILES CCCCCCCCC=CCCCCCCCC(=O)[O-]
REMARK SMILES IDX 10 1 9 2 11 3 12 4 13 5 14 6 15 7 16 8 17 9 18 10 19 11
REMARK SMILES IDX 20 12 8 13 7 14 6 15 5 16 4 17 3 18 2 19 1 20
REMARK H PARENT
REMARK Flexibility Score: inf
ROOT
ATOM      1  C   UNL     1      41.737  51.625  36.112  1.00  0.00    -0.031 C 
ATOM      2  C   UNL     1      42.870  51.673  35.384  1.00  0.00    -0.031 C 
ENDROOT
BRANCH   1   3
ATOM      3  C   UNL     1      40.827  52.800  36.393  1.00  0.00     0.027 C 
BRANCH   3   4
ATOM      4  C   UNL     1      39.933  53.125  35.189  1.00  0.00     0.004 C 
BRANCH   4   5
ATOM      5  C   UNL     1      39.234  51.879  34.623  1.00  0.00     0.000 C 
BRANCH   5   6
ATOM      6  C   UNL     1      39.468  51.758  33.109  1.00  0.00     0.000 C 
BRANCH   6   7
ATOM      7  C   UNL     1      40.403  50.582  32.757  1.00  0.00     0.000 C 
BRANCH   7   8
ATOM      8  C   UNL     1      40.266  50.100  31.302  1.00  0.00     0.006 C 
BRANCH   8   9
ATOM      9  C   UNL     1      38.815  49.804  30.906  1.00  0.00     0.053 C 
BRANCH   9  10
ATOM     10  C   UNL     1      38.202  48.830  31.862  1.00  0.00     0.041 C 
ATOM     11  O   UNL     1      37.134  49.119  32.463  1.00  0.00    -0.550 OA
ATOM     12  O   UNL     1      38.782  47.582  32.052  1.00  0.00    -0.550 OA
ENDBRANCH   9  10
ENDBRANCH   8   9
ENDBRANCH   7   8
ENDBRANCH   6   7
ENDBRANCH   5   6
ENDBRANCH   4   5
ENDBRANCH   3   4
ENDBRANCH   1   3
BRANCH   2  13
ATOM     13  C   UNL     1      43.409  52.902  34.697  1.00  0.00     0.027 C 
BRANCH  13  14
ATOM     14  C   UNL     1      44.043  53.875  35.704  1.00  0.00     0.004 C 
BRANCH  14  15
ATOM     15  C   UNL     1      43.339  55.240  35.725  1.00  0.00     0.000 C 
BRANCH  15  16
ATOM     16  C   UNL     1      43.038  55.725  37.155  1.00  0.00     0.000 C 
BRANCH  16  17
ATOM     17  C   UNL     1      44.219  55.511  38.119  1.00  0.00    -0.000 C 
BRANCH  17  18
ATOM     18  C   UNL     1      44.677  56.775  38.870  1.00  0.00    -0.000 C 
BRANCH  18  19
ATOM     19  C   UNL     1      45.755  57.563  38.112  1.00  0.00    -0.003 C 
ATOM     20  C   UNL     1      46.560  58.447  39.061  1.00  0.00     0.004 C 
ENDBRANCH  18  19
ENDBRANCH  17  18
ENDBRANCH  16  17
ENDBRANCH  15  16
ENDBRANCH  14  15
ENDBRANCH  13  14
ENDBRANCH   2  13
TORSDOF 15
ENDMDL
MODEL 7
REMARK VINA RESULT:    -4.756      7.666      9.849
REMARK INTER + INTRA:         -11.238
REMARK INTER:                  -9.987
REMARK INTRA:                  -1.252
REMARK UNBOUND:                -2.311
REMARK SMILES CCCCCCCCC=CCCCCCCCC(=O)[O-]
REMARK SMILES IDX 10 1 9 2 11 3 12 4 13 5 14 6 15 7 16 8 17 9 18 10 19 11
REMARK SMILES IDX 20 12 8 13 7 14 6 15 5 16 4 17 3 18 2 19 1 20
REMARK H PARENT
REMARK Flexibility Score: inf
ROOT
ATOM      1  C   UNL     1      45.571  43.136  32.178  1.00  0.00    -0.031 C 
ATOM      2  C   UNL     1      45.695  43.147  30.836  1.00  0.00    -0.031 C 
ENDROOT
BRANCH   1   3
ATOM      3  C   UNL     1      44.859  44.187  32.999  1.00  0.00     0.027 C 
BRANCH   3   4
ATOM      4  C   UNL     1      45.730  44.682  34.163  1.00  0.00     0.004 C 
BRANCH   4   5
ATOM      5  C   UNL     1      45.310  46.074  34.661  1.00  0.00     0.000 C 
BRANCH   5   6
ATOM      6  C   UNL     1      46.524  46.862  35.175  1.00  0.00     0.000 C 
BRANCH   6   7
ATOM      7  C   UNL     1      46.167  48.324  35.518  1.00  0.00     0.000 C 
BRANCH   7   8
ATOM      8  C   UNL     1      47.171  49.350  34.966  1.00  0.00     0.006 C 
BRANCH   8   9
ATOM      9  C   UNL     1      48.186  48.729  33.998  1.00  0.00     0.053 C 
BRANCH   9  10
ATOM     10  C   UNL     1      49.582  48.977  34.477  1.00  0.00     0.041 C 
ATOM     11  O   UNL     1      49.781  49.506  35.602  1.00  0.00    -0.550 OA
ATOM     12  O   UNL     1      50.664  48.579  33.702  1.00  0.00    -0.550 OA
ENDBRANCH   9  10
ENDBRANCH   8   9
ENDBRANCH   7   8
ENDBRANCH   6   7
ENDBRANCH   5   6
ENDBRANCH   4   5
ENDBRANCH   3   4
ENDBRANCH   1   3
BRANCH   2  13
ATOM     13  C   UNL     1      45.119  44.196  29.920  1.00  0.00     0.027 C 
BRANCH  13  14
ATOM     14  C   UNL     1      46.226  44.987  29.205  1.00  0.00     0.004 C 
BRANCH  14  15
ATOM     15  C   UNL     1      45.750  45.592  27.875  1.00  0.00     0.000 C 
BRANCH  15  16
ATOM     16  C   UNL     1      46.354  44.876  26.654  1.00  0.00     0.000 C 
BRANCH  16  17
ATOM     17  C   UNL     1      45.283  44.340  25.686  1.00  0.00    -0.000 C 
BRANCH  17  18
ATOM     18  C   UNL     1      43.838  44.739  26.035  1.00  0.00    -0.000 C 
BRANCH  18  19
ATOM     19  C   UNL     1      42.933  43.529  26.308  1.00  0.00    -0.003 C 
ATOM     20  C   UNL     1      43.724  42.376  26.918  1.00  0.00     0.004 C 
ENDBRANCH  18  19
ENDBRANCH  17  18
ENDBRANCH  16  17
ENDBRANCH  15  16
ENDBRANCH  14  15
ENDBRANCH  13  14
ENDBRANCH   2  13
TORSDOF 15
ENDMDL
MODEL 8
REMARK VINA RESULT:    -4.719      8.096     10.934
REMARK INTER + INTRA:         -11.168
REMARK INTER:                  -9.210
REMARK INTRA:                  -1.958
REMARK UNBOUND:                -2.311
REMARK SMILES CCCCCCCCC=CCCCCCCCC(=O)[O-]
REMARK SMILES IDX 10 1 9 2 11 3 12 4 13 5 14 6 15 7 16 8 17 9 18 10 19 11
REMARK SMILES IDX 20 12 8 13 7 14 6 15 5 16 4 17 3 18 2 19 1 20
REMARK H PARENT
REMARK Flexibility Score: inf
ROOT
ATOM      1  C   UNL     1      46.361  44.334  34.163  1.00  0.00    -0.031 C 
ATOM      2  C   UNL     1      46.232  45.356  35.031  1.00  0.00    -0.031 C 
ENDROOT
BRANCH   1   3
ATOM      3  C   UNL     1      45.420  44.035  33.018  1.00  0.00     0.027 C 
BRANCH   3   4
ATOM      4  C   UNL     1      46.008  44.478  31.671  1.00  0.00     0.004 C 
BRANCH   4   5
ATOM      5  C   UNL     1      45.114  44.090  30.483  1.00  0.00     0.000 C 
BRANCH   5   6
ATOM      6  C   UNL     1      45.795  44.431  29.149  1.00  0.00     0.000 C 
BRANCH   6   7
ATOM      7  C   UNL     1      47.130  45.179  29.351  1.00  0.00     0.000 C 
BRANCH   7   8
ATOM      8  C   UNL     1      47.647  45.871  28.078  1.00  0.00     0.006 C 
BRANCH   8   9
ATOM      9  C   UNL     1      47.702  47.398  28.210  1.00  0.00     0.053 C 
BRANCH   9  10
ATOM     10  C   UNL     1      49.121  47.866  28.271  1.00  0.00     0.041 C 
ATOM     11  O   UNL     1      49.529  48.757  27.480  1.00  0.00    -0.550 OA
ATOM     12  O   UNL     1      49.982  47.355  29.235  1.00  0.00    -0.550 OA
ENDBRANCH   9  10
ENDBRANCH   8   9
ENDBRANCH   7   8
ENDBRANCH   6   7
ENDBRANCH   5   6
ENDBRANCH   4   5
ENDBRANCH   3   4
ENDBRANCH   1   3
BRANCH   2  13
ATOM     13  C   UNL     1      45.144  46.398  34.991  1.00  0.00     0.027 C 
BRANCH  13  14
ATOM     14  C   UNL     1      45.630  47.741  35.559  1.00  0.00     0.004 C 
BRANCH  14  15
ATOM     15  C   UNL     1      46.933  47.602  36.360  1.00  0.00     0.000 C 
BRANCH  15  16
ATOM     16  C   UNL     1      47.903  48.771  36.113  1.00  0.00     0.000 C 
BRANCH  16  17
ATOM     17  C   UNL     1      47.677  49.459  34.755  1.00  0.00    -0.000 C 
BRANCH  17  18
ATOM     18  C   UNL     1      48.857  49.354  33.772  1.00  0.00    -0.000 C 
BRANCH  18  19
ATOM     19  C   UNL     1      49.369  47.917  33.603  1.00  0.00    -0.003 C 
ATOM     20  C   UNL     1      48.492  47.130  32.633  1.00  0.00     0.004 C 
ENDBRANCH  18  19
ENDBRANCH  17  18
ENDBRANCH  16  17
ENDBRANCH  15  16
ENDBRANCH  14  15
ENDBRANCH  13  14
ENDBRANCH   2  13
TORSDOF 15
ENDMDL
MODEL 9
REMARK VINA RESULT:    -4.696      3.613      8.694
REMARK INTER + INTRA:         -11.124
REMARK INTER:                  -9.811
REMARK INTRA:                  -1.313
REMARK UNBOUND:                -2.311
REMARK SMILES CCCCCCCCC=CCCCCCCCC(=O)[O-]
REMARK SMILES IDX 10 1 9 2 11 3 12 4 13 5 14 6 15 7 16 8 17 9 18 10 19 11
REMARK SMILES IDX 20 12 8 13 7 14 6 15 5 16 4 17 3 18 2 19 1 20
REMARK H PARENT
REMARK Flexibility Score: inf
ROOT
ATOM      1  C   UNL     1      44.236  54.678  36.671  1.00  0.00    -0.031 C 
ATOM      2  C   UNL     1      44.631  55.409  37.732  1.00  0.00    -0.031 C 
ENDROOT
BRANCH   1   3
ATOM      3  C   UNL     1      43.375  55.181  35.534  1.00  0.00     0.027 C 
BRANCH   3   4
ATOM      4  C   UNL     1      43.234  54.130  34.423  1.00  0.00     0.004 C 
BRANCH   4   5
ATOM      5  C   UNL     1      43.822  52.769  34.824  1.00  0.00     0.000 C 
BRANCH   5   6
ATOM      6  C   UNL     1      42.751  51.877  35.470  1.00  0.00     0.000 C 
BRANCH   6   7
ATOM      7  C   UNL     1      41.596  51.555  34.497  1.00  0.00     0.000 C 
BRANCH   7   8
ATOM      8  C   UNL     1      40.207  51.920  35.047  1.00  0.00     0.006 C 
BRANCH   8   9
ATOM      9  C   UNL     1      40.136  51.854  36.578  1.00  0.00     0.053 C 
BRANCH   9  10
ATOM     10  C   UNL     1      38.761  52.204  37.052  1.00  0.00     0.041 C 
ATOM     11  O   UNL     1      38.470  52.112  38.273  1.00  0.00    -0.550 OA
ATOM     12  O   UNL     1      37.814  52.680  36.153  1.00  0.00    -0.550 OA
ENDBRANCH   9  10
ENDBRANCH   8   9
ENDBRANCH   7   8
ENDBRANCH   6   7
ENDBRANCH   5   6
ENDBRANCH   4   5
ENDBRANCH   3   4
ENDBRANCH   1   3
BRANCH   2  13
ATOM     13  C   UNL     1      44.307  56.865  37.952  1.00  0.00     0.027 C 
BRANCH  13  14
ATOM     14  C   UNL     1      45.427  57.775  37.424  1.00  0.00     0.004 C 
BRANCH  14  15
ATOM     15  C   UNL     1      46.519  58.033  38.474  1.00  0.00     0.000 C 
BRANCH  15  16
ATOM     16  C   UNL     1      46.117  59.123  39.484  1.00  0.00     0.000 C 
BRANCH  16  17
ATOM     17  C   UNL     1      46.505  58.768  40.931  1.00  0.00    -0.000 C 
BRANCH  17  18
ATOM     18  C   UNL     1      45.360  58.879  41.953  1.00  0.00    -0.000 C 
BRANCH  18  19
ATOM     19  C   UNL     1      43.975  58.955  41.295  1.00  0.00    -0.003 C 
ATOM     20  C   UNL     1      43.273  57.601  41.331  1.00  0.00     0.004 C 
ENDBRANCH  18  19
ENDBRANCH  17  18
ENDBRANCH  16  17
ENDBRANCH  15  16
ENDBRANCH  14  15
ENDBRANCH  13  14
ENDBRANCH   2  13
TORSDOF 15
ENDMDL
