MODEL 1
REMARK VINA RESULT:    -3.367      0.000      0.000
REMARK INTER + INTRA:          -4.382
REMARK INTER:                  -4.745
REMARK INTRA:                   0.364
REMARK UNBOUND:                 0.364
REMARK SMILES CC1=CCC(=C(C)C)C(=O)CC(C)=CCC1
REMARK SMILES IDX 12 1 14 2 13 3 15 4 16 5 2 6 1 7 3 8 11 10 9 11 10 12 5 13
REMARK SMILES IDX 6 14 7 15 8 16 4 17
REMARK H PARENT
REMARK Flexibility Score: 60.00
ROOT
ATOM      1  C   UNL     1      14.830  26.129  25.373  1.00  0.00    -0.070 C 
ATOM      2  C   UNL     1      13.585  26.033  24.857  1.00  0.00    -0.027 C 
ATOM      3  C   UNL     1      15.303  25.023  26.283  1.00  0.00     0.039 C 
ENDROOT
BRANCH   2   4
ATOM      4  C   UNL     1      12.968  26.985  23.855  1.00  0.00     0.032 C 
BRANCH   4   5
ATOM      5  C   UNL     1      12.300  28.231  24.471  1.00  0.00     0.034 C 
BRANCH   5   6
ATOM      6  C   UNL     1      12.860  29.536  23.934  1.00  0.00    -0.077 C 
ATOM      7  C   UNL     1      12.417  29.978  22.562  1.00  0.00     0.039 C 
ATOM      8  C   UNL     1      13.676  30.362  24.635  1.00  0.00    -0.023 CG0
ATOM      9  G   UNL     1      14.261  30.119  26.012  1.00  0.00     0.000 G0
ENDBRANCH   5   6
ENDBRANCH   4   5
ENDBRANCH   2   4
BRANCH   1  10
ATOM     10  C   UNL     1      15.797  27.236  25.011  1.00  0.00     0.111 C 
BRANCH  10  11
ATOM     11  C   UNL     1      15.974  28.213  26.143  1.00  0.00     0.163 C 
ATOM     12  O   UNL     1      16.420  27.778  27.239  1.00  0.00    -0.294 OA
BRANCH  11  13
ATOM     13  C   UNL     1      15.700  29.674  25.992  1.00  0.00    -0.002 C 
ATOM     14  C   UNL     1      16.718  30.556  25.760  1.00  0.00    -0.069 C 
ATOM     15  C   UNL     1      16.458  32.013  25.446  1.00  0.00     0.039 C 
ATOM     16  C   UNL     1      18.164  30.114  25.801  1.00  0.00     0.039 C 
BRANCH  13  17
ATOM     17  C   UNL     1      14.245  30.114  26.015  1.00  0.00     0.066 CG0
ATOM     18  G   UNL     1      13.694  30.357  24.624  1.00  0.00     0.000 G0
ENDBRANCH  13  17
ENDBRANCH  11  13
ENDBRANCH  10  11
ENDBRANCH   1  10
TORSDOF 0
ENDMDL
MODEL 2
REMARK VINA RESULT:    -3.090      2.966      4.757
REMARK INTER + INTRA:          -3.991
REMARK INTER:                  -4.184
REMARK INTRA:                   0.193
REMARK UNBOUND:                 0.364
REMARK SMILES CC1=CCC(=C(C)C)C(=O)CC(C)=CCC1
REMARK SMILES IDX 12 1 14 2 13 3 15 4 16 5 2 6 1 7 3 8 11 10 9 11 10 12 5 13
REMARK SMILES IDX 6 14 7 15 8 16 4 17
REMARK H PARENT
REMARK Flexibility Score: 60.00
ROOT
ATOM      1  C   UNL     1      14.215  26.556  26.299  1.00  0.00    -0.070 C 
ATOM      2  C   UNL     1      13.861  25.776  27.344  1.00  0.00    -0.027 C 
ATOM      3  C   UNL     1      13.694  26.184  24.934  1.00  0.00     0.039 C 
ENDROOT
BRANCH   2   4
ATOM      4  C   UNL     1      14.200  26.038  28.796  1.00  0.00     0.032 C 
BRANCH   4   5
ATOM      5  C   UNL     1      15.658  25.719  29.188  1.00  0.00     0.034 C 
BRANCH   5   6
ATOM      6  C   UNL     1      16.366  26.886  29.853  1.00  0.00    -0.077 C 
ATOM      7  C   UNL     1      15.872  27.327  31.208  1.00  0.00     0.039 C 
ATOM      8  C   UNL     1      17.455  27.510  29.341  1.00  0.00    -0.023 CG0
ATOM      9  G   UNL     1      18.112  27.251  27.999  1.00  0.00     0.000 G0
ENDBRANCH   5   6
ENDBRANCH   4   5
ENDBRANCH   2   4
BRANCH   1  10
ATOM     10  C   UNL     1      15.026  27.827  26.446  1.00  0.00     0.111 C 
BRANCH  10  11
ATOM     11  C   UNL     1      16.468  27.613  26.071  1.00  0.00     0.163 C 
ATOM     12  O   UNL     1      16.718  27.002  24.997  1.00  0.00    -0.294 OA
BRANCH  11  13
ATOM     13  C   UNL     1      17.597  28.148  26.889  1.00  0.00    -0.002 C 
ATOM     14  C   UNL     1      18.061  29.419  26.692  1.00  0.00    -0.069 C 
ATOM     15  C   UNL     1      19.093  30.045  27.606  1.00  0.00     0.039 C 
ATOM     16  C   UNL     1      17.560  30.269  25.546  1.00  0.00     0.039 C 
BRANCH  13  17
ATOM     17  C   UNL     1      18.135  27.259  27.998  1.00  0.00     0.066 CG0
ATOM     18  G   UNL     1      17.459  27.526  29.329  1.00  0.00     0.000 G0
ENDBRANCH  13  17
ENDBRANCH  11  13
ENDBRANCH  10  11
ENDBRANCH   1  10
TORSDOF 0
ENDMDL
MODEL 3
REMARK VINA RESULT:    -3.060      7.437      9.095
REMARK INTER + INTRA:          -3.949
REMARK INTER:                  -4.415
REMARK INTRA:                   0.466
REMARK UNBOUND:                 0.364
REMARK SMILES CC1=CCC(=C(C)C)C(=O)CC(C)=CCC1
REMARK SMILES IDX 12 1 14 2 13 3 15 4 16 5 2 6 1 7 3 8 11 10 9 11 10 12 5 13
REMARK SMILES IDX 6 14 7 15 8 16 4 17
REMARK H PARENT
REMARK Flexibility Score: 60.00
ROOT
ATOM      1  C   UNL     1      16.128  23.939  32.423  1.00  0.00    -0.070 C 
ATOM      2  C   UNL     1      17.095  24.499  31.663  1.00  0.00    -0.027 C 
ATOM      3  C   UNL     1      16.501  22.754  33.278  1.00  0.00     0.039 C 
ENDROOT
BRANCH   2   4
ATOM      4  C   UNL     1      16.943  25.745  30.817  1.00  0.00     0.032 C 
BRANCH   4   5
ATOM      5  C   UNL     1      17.816  26.937  31.260  1.00  0.00     0.034 C 
BRANCH   5   6
ATOM      6  C   UNL     1      17.771  27.187  32.757  1.00  0.00    -0.077 C 
ATOM      7  C   UNL     1      19.062  27.066  33.527  1.00  0.00     0.039 C 
ATOM      8  C   UNL     1      16.664  27.578  33.433  1.00  0.00    -0.023 CG0
ATOM      9  G   UNL     1      15.263  27.746  32.876  1.00  0.00     0.000 G0
ENDBRANCH   5   6
ENDBRANCH   4   5
ENDBRANCH   2   4
BRANCH   1  10
ATOM     10  C   UNL     1      14.724  24.497  32.526  1.00  0.00     0.111 C 
BRANCH  10  11
ATOM     11  C   UNL     1      14.568  25.396  33.724  1.00  0.00     0.163 C 
ATOM     12  O   UNL     1      14.779  24.904  34.866  1.00  0.00    -0.294 OA
BRANCH  11  13
ATOM     13  C   UNL     1      14.237  26.847  33.601  1.00  0.00    -0.002 C 
ATOM     14  C   UNL     1      13.114  27.359  34.188  1.00  0.00    -0.069 C 
ATOM     15  C   UNL     1      12.834  28.846  34.217  1.00  0.00     0.039 C 
ATOM     16  C   UNL     1      12.091  26.459  34.844  1.00  0.00     0.039 C 
BRANCH  13  17
ATOM     17  C   UNL     1      15.244  27.731  32.883  1.00  0.00     0.066 CG0
ATOM     18  G   UNL     1      16.646  27.579  33.442  1.00  0.00     0.000 G0
ENDBRANCH  13  17
ENDBRANCH  11  13
ENDBRANCH  10  11
ENDBRANCH   1  10
TORSDOF 0
ENDMDL
MODEL 4
REMARK VINA RESULT:    -2.989      2.911      4.739
REMARK INTER + INTRA:          -3.848
REMARK INTER:                  -4.298
REMARK INTRA:                   0.450
REMARK UNBOUND:                 0.364
REMARK SMILES CC1=CCC(=C(C)C)C(=O)CC(C)=CCC1
REMARK SMILES IDX 12 1 14 2 13 3 15 4 16 5 2 6 1 7 3 8 11 10 9 11 10 12 5 13
REMARK SMILES IDX 6 14 7 15 8 16 4 17
REMARK H PARENT
REMARK Flexibility Score: 60.00
ROOT
ATOM      1  C   UNL     1      15.229  26.115  25.792  1.00  0.00    -0.070 C 
ATOM      2  C   UNL     1      16.013  26.964  25.092  1.00  0.00    -0.027 C 
ATOM      3  C   UNL     1      13.887  25.750  25.207  1.00  0.00     0.039 C 
ENDROOT
BRANCH   2   4
ATOM      4  C   UNL     1      17.422  27.373  25.461  1.00  0.00     0.032 C 
BRANCH   4   5
ATOM      5  C   UNL     1      17.623  28.887  25.676  1.00  0.00     0.034 C 
BRANCH   5   6
ATOM      6  C   UNL     1      16.694  29.469  26.726  1.00  0.00    -0.077 C 
ATOM      7  C   UNL     1      15.749  30.564  26.297  1.00  0.00     0.039 C 
ATOM      8  C   UNL     1      16.609  29.023  28.003  1.00  0.00    -0.023 CG0
ATOM      9  G   UNL     1      17.464  27.955  28.658  1.00  0.00     0.000 G0
ENDBRANCH   5   6
ENDBRANCH   4   5
ENDBRANCH   2   4
BRANCH   1  10
ATOM     10  C   UNL     1      15.667  25.447  27.078  1.00  0.00     0.111 C 
BRANCH  10  11
ATOM     11  C   UNL     1      15.459  26.344  28.270  1.00  0.00     0.163 C 
ATOM     12  O   UNL     1      14.281  26.692  28.554  1.00  0.00    -0.294 OA
BRANCH  11  13
ATOM     13  C   UNL     1      16.584  26.780  29.151  1.00  0.00    -0.002 C 
ATOM     14  C   UNL     1      16.873  26.101  30.302  1.00  0.00    -0.069 C 
ATOM     15  C   UNL     1      18.099  26.418  31.131  1.00  0.00     0.039 C 
ATOM     16  C   UNL     1      15.979  24.989  30.803  1.00  0.00     0.039 C 
BRANCH  13  17
ATOM     17  C   UNL     1      17.438  27.940  28.666  1.00  0.00     0.066 CG0
ATOM     18  G   UNL     1      16.611  29.033  28.017  1.00  0.00     0.000 G0
ENDBRANCH  13  17
ENDBRANCH  11  13
ENDBRANCH  10  11
ENDBRANCH   1  10
TORSDOF 0
ENDMDL
MODEL 5
REMARK VINA RESULT:    -2.882      1.650      2.340
REMARK INTER + INTRA:          -3.698
REMARK INTER:                  -4.219
REMARK INTRA:                   0.521
REMARK UNBOUND:                 0.364
REMARK SMILES CC1=CCC(=C(C)C)C(=O)CC(C)=CCC1
REMARK SMILES IDX 12 1 14 2 13 3 15 4 16 5 2 6 1 7 3 8 11 10 9 11 10 12 5 13
REMARK SMILES IDX 6 14 7 15 8 16 4 17
REMARK H PARENT
REMARK Flexibility Score: 60.00
ROOT
ATOM      1  C   UNL     1      15.225  26.164  25.537  1.00  0.00    -0.070 C 
ATOM      2  C   UNL     1      13.932  26.359  25.195  1.00  0.00    -0.027 C 
ATOM      3  C   UNL     1      15.555  24.970  26.397  1.00  0.00     0.039 C 
ENDROOT
BRANCH   2   4
ATOM      4  C   UNL     1      13.417  27.437  24.266  1.00  0.00     0.032 C 
BRANCH   4   5
ATOM      5  C   UNL     1      12.705  28.611  24.968  1.00  0.00     0.034 C 
BRANCH   5   6
ATOM      6  C   UNL     1      13.622  29.790  25.240  1.00  0.00    -0.077 C 
ATOM      7  C   UNL     1      13.562  30.959  24.289  1.00  0.00     0.039 C 
ATOM      8  C   UNL     1      14.439  29.889  26.317  1.00  0.00    -0.023 CG0
ATOM      9  G   UNL     1      14.676  28.840  27.386  1.00  0.00     0.000 G0
ENDBRANCH   5   6
ENDBRANCH   4   5
ENDBRANCH   2   4
BRANCH   1  10
ATOM     10  C   UNL     1      16.359  27.028  25.027  1.00  0.00     0.111 C 
BRANCH  10  11
ATOM     11  C   UNL     1      16.714  28.116  26.006  1.00  0.00     0.163 C 
ATOM     12  O   UNL     1      17.553  28.987  25.648  1.00  0.00    -0.294 OA
BRANCH  11  13
ATOM     13  C   UNL     1      16.066  28.232  27.346  1.00  0.00    -0.002 C 
ATOM     14  C   UNL     1      16.743  27.885  28.482  1.00  0.00    -0.069 C 
ATOM     15  C   UNL     1      16.174  28.138  29.861  1.00  0.00     0.039 C 
ATOM     16  C   UNL     1      18.104  27.229  28.415  1.00  0.00     0.039 C 
BRANCH  13  17
ATOM     17  C   UNL     1      14.671  28.834  27.394  1.00  0.00     0.066 CG0
ATOM     18  G   UNL     1      14.455  29.874  26.312  1.00  0.00     0.000 G0
ENDBRANCH  13  17
ENDBRANCH  11  13
ENDBRANCH  10  11
ENDBRANCH   1  10
TORSDOF 0
ENDMDL
MODEL 6
REMARK VINA RESULT:    -2.876      2.868      3.837
REMARK INTER + INTRA:          -3.689
REMARK INTER:                  -3.847
REMARK INTRA:                   0.159
REMARK UNBOUND:                 0.364
REMARK SMILES CC1=CCC(=C(C)C)C(=O)CC(C)=CCC1
REMARK SMILES IDX 12 1 14 2 13 3 15 4 16 5 2 6 1 7 3 8 11 10 9 11 10 12 5 13
REMARK SMILES IDX 6 14 7 15 8 16 4 17
REMARK H PARENT
REMARK Flexibility Score: 60.00
ROOT
ATOM      1  C   UNL     1      14.454  25.724  26.145  1.00  0.00    -0.070 C 
ATOM      2  C   UNL     1      14.322  26.223  24.896  1.00  0.00    -0.027 C 
ATOM      3  C   UNL     1      15.771  25.088  26.513  1.00  0.00     0.039 C 
ENDROOT
BRANCH   2   4
ATOM      4  C   UNL     1      13.121  26.981  24.370  1.00  0.00     0.032 C 
BRANCH   4   5
ATOM      5  C   UNL     1      13.139  28.497  24.652  1.00  0.00     0.034 C 
BRANCH   5   6
ATOM      6  C   UNL     1      11.855  29.002  25.286  1.00  0.00    -0.077 C 
ATOM      7  C   UNL     1      10.633  29.108  24.409  1.00  0.00     0.039 C 
ATOM      8  C   UNL     1      11.718  29.296  26.602  1.00  0.00    -0.023 CG0
ATOM      9  G   UNL     1      12.803  29.281  27.661  1.00  0.00     0.000 G0
ENDBRANCH   5   6
ENDBRANCH   4   5
ENDBRANCH   2   4
BRANCH   1  10
ATOM     10  C   UNL     1      13.386  25.855  27.210  1.00  0.00     0.111 C 
BRANCH  10  11
ATOM     11  C   UNL     1      13.719  26.938  28.202  1.00  0.00     0.163 C 
ATOM     12  O   UNL     1      14.867  26.934  28.723  1.00  0.00    -0.294 OA
BRANCH  11  13
ATOM     13  C   UNL     1      12.766  28.038  28.539  1.00  0.00    -0.002 C 
ATOM     14  C   UNL     1      11.959  27.951  29.638  1.00  0.00    -0.069 C 
ATOM     15  C   UNL     1      11.101  29.111  30.094  1.00  0.00     0.039 C 
ATOM     16  C   UNL     1      11.886  26.684  30.460  1.00  0.00     0.039 C 
BRANCH  13  17
ATOM     17  C   UNL     1      12.806  29.282  27.666  1.00  0.00     0.066 CG0
ATOM     18  G   UNL     1      11.712  29.284  26.616  1.00  0.00     0.000 G0
ENDBRANCH  13  17
ENDBRANCH  11  13
ENDBRANCH  10  11
ENDBRANCH   1  10
TORSDOF 0
ENDMDL
MODEL 7
REMARK VINA RESULT:    -2.847      2.719      4.246
REMARK INTER + INTRA:          -3.649
REMARK INTER:                  -3.775
REMARK INTRA:                   0.127
REMARK UNBOUND:                 0.364
REMARK SMILES CC1=CCC(=C(C)C)C(=O)CC(C)=CCC1
REMARK SMILES IDX 12 1 14 2 13 3 15 4 16 5 2 6 1 7 3 8 11 10 9 11 10 12 5 13
REMARK SMILES IDX 6 14 7 15 8 16 4 17
REMARK H PARENT
REMARK Flexibility Score: 60.00
ROOT
ATOM      1  C   UNL     1      12.329  28.403  22.991  1.00  0.00    -0.070 C 
ATOM      2  C   UNL     1      11.301  29.274  23.084  1.00  0.00    -0.027 C 
ATOM      3  C   UNL     1      13.278  28.553  21.829  1.00  0.00     0.039 C 
ENDROOT
BRANCH   2   4
ATOM      4  C   UNL     1      10.304  29.346  24.221  1.00  0.00     0.032 C 
BRANCH   4   5
ATOM      5  C   UNL     1      10.742  30.226  25.409  1.00  0.00     0.034 C 
BRANCH   5   6
ATOM      6  C   UNL     1      10.543  29.553  26.756  1.00  0.00    -0.077 C 
ATOM      7  C   UNL     1       9.133  29.426  27.275  1.00  0.00     0.039 C 
ATOM      8  C   UNL     1      11.541  28.999  27.487  1.00  0.00    -0.023 CG0
ATOM      9  G   UNL     1      13.025  29.021  27.177  1.00  0.00     0.000 G0
ENDBRANCH   5   6
ENDBRANCH   4   5
ENDBRANCH   2   4
BRANCH   1  10
ATOM     10  C   UNL     1      12.624  27.350  24.039  1.00  0.00     0.111 C 
BRANCH  10  11
ATOM     11  C   UNL     1      13.689  27.806  25.002  1.00  0.00     0.163 C 
ATOM     12  O   UNL     1      14.747  28.301  24.527  1.00  0.00    -0.294 OA
BRANCH  11  13
ATOM     13  C   UNL     1      13.509  27.749  26.483  1.00  0.00    -0.002 C 
ATOM     14  C   UNL     1      13.841  26.624  27.185  1.00  0.00    -0.069 C 
ATOM     15  C   UNL     1      13.820  26.589  28.698  1.00  0.00     0.039 C 
ATOM     16  C   UNL     1      14.251  25.351  26.479  1.00  0.00     0.039 C 
BRANCH  13  17
ATOM     17  C   UNL     1      13.035  29.017  27.175  1.00  0.00     0.066 CG0
ATOM     18  G   UNL     1      11.550  28.985  27.483  1.00  0.00     0.000 G0
ENDBRANCH  13  17
ENDBRANCH  11  13
ENDBRANCH  10  11
ENDBRANCH   1  10
TORSDOF 0
ENDMDL
MODEL 8
REMARK VINA RESULT:    -2.767      5.468      6.672
REMARK INTER + INTRA:          -3.536
REMARK INTER:                  -3.797
REMARK INTRA:                   0.260
REMARK UNBOUND:                 0.364
REMARK SMILES CC1=CCC(=C(C)C)C(=O)CC(C)=CCC1
REMARK SMILES IDX 12 1 14 2 13 3 15 4 16 5 2 6 1 7 3 8 11 10 9 11 10 12 5 13
REMARK SMILES IDX 6 14 7 15 8 16 4 17
REMARK H PARENT
REMARK Flexibility Score: 60.00
ROOT
ATOM      1  C   UNL     1      12.491  25.592  32.140  1.00  0.00    -0.070 C 
ATOM      2  C   UNL     1      11.883  25.635  30.934  1.00  0.00    -0.027 C 
ATOM      3  C   UNL     1      11.988  24.588  33.147  1.00  0.00     0.039 C 
ENDROOT
BRANCH   2   4
ATOM      4  C   UNL     1      12.302  26.500  29.764  1.00  0.00     0.032 C 
BRANCH   4   5
ATOM      5  C   UNL     1      13.092  25.761  28.664  1.00  0.00     0.034 C 
BRANCH   5   6
ATOM      6  C   UNL     1      14.388  26.457  28.290  1.00  0.00    -0.077 C 
ATOM      7  C   UNL     1      14.337  27.496  27.198  1.00  0.00     0.039 C 
ATOM      8  C   UNL     1      15.572  26.256  28.920  1.00  0.00    -0.023 CG0
ATOM      9  G   UNL     1      15.864  25.257  30.022  1.00  0.00     0.000 G0
ENDBRANCH   5   6
ENDBRANCH   4   5
ENDBRANCH   2   4
BRANCH   1  10
ATOM     10  C   UNL     1      13.702  26.431  32.491  1.00  0.00     0.111 C 
BRANCH  10  11
ATOM     11  C   UNL     1      14.976  25.633  32.403  1.00  0.00     0.163 C 
ATOM     12  O   UNL     1      15.126  24.663  33.194  1.00  0.00    -0.294 OA
BRANCH  11  13
ATOM     13  C   UNL     1      16.028  25.913  31.381  1.00  0.00    -0.002 C 
ATOM     14  C   UNL     1      17.125  26.666  31.694  1.00  0.00    -0.069 C 
ATOM     15  C   UNL     1      18.282  26.835  30.733  1.00  0.00     0.039 C 
ATOM     16  C   UNL     1      17.239  27.369  33.029  1.00  0.00     0.039 C 
BRANCH  13  17
ATOM     17  C   UNL     1      15.870  25.251  30.022  1.00  0.00     0.066 CG0
ATOM     18  G   UNL     1      15.584  26.254  28.921  1.00  0.00     0.000 G0
ENDBRANCH  13  17
ENDBRANCH  11  13
ENDBRANCH  10  11
ENDBRANCH   1  10
TORSDOF 0
ENDMDL
MODEL 9
REMARK VINA RESULT:    -2.756      2.498      3.520
REMARK INTER + INTRA:          -3.520
REMARK INTER:                  -3.672
REMARK INTRA:                   0.152
REMARK UNBOUND:                 0.364
REMARK SMILES CC1=CCC(=C(C)C)C(=O)CC(C)=CCC1
REMARK SMILES IDX 12 1 14 2 13 3 15 4 16 5 2 6 1 7 3 8 11 10 9 11 10 12 5 13
REMARK SMILES IDX 6 14 7 15 8 16 4 17
REMARK H PARENT
REMARK Flexibility Score: 60.00
ROOT
ATOM      1  C   UNL     1      15.246  26.203  29.553  1.00  0.00    -0.070 C 
ATOM      2  C   UNL     1      14.333  25.540  28.810  1.00  0.00    -0.027 C 
ATOM      3  C   UNL     1      15.848  25.487  30.735  1.00  0.00     0.039 C 
ENDROOT
BRANCH   2   4
ATOM      4  C   UNL     1      13.692  26.049  27.537  1.00  0.00     0.032 C 
BRANCH   4   5
ATOM      5  C   UNL     1      14.460  25.707  26.243  1.00  0.00     0.034 C 
BRANCH   5   6
ATOM      6  C   UNL     1      14.682  26.910  25.345  1.00  0.00    -0.077 C 
ATOM      7  C   UNL     1      13.511  27.407  24.535  1.00  0.00     0.039 C 
ATOM      8  C   UNL     1      15.842  27.608  25.277  1.00  0.00    -0.023 CG0
ATOM      9  G   UNL     1      17.146  27.287  25.981  1.00  0.00     0.000 G0
ENDBRANCH   5   6
ENDBRANCH   4   5
ENDBRANCH   2   4
BRANCH   1  10
ATOM     10  C   UNL     1      15.757  27.586  29.203  1.00  0.00     0.111 C 
BRANCH  10  11
ATOM     11  C   UNL     1      17.109  27.529  28.544  1.00  0.00     0.163 C 
ATOM     12  O   UNL     1      18.026  26.885  29.122  1.00  0.00    -0.294 OA
BRANCH  11  13
ATOM     13  C   UNL     1      17.380  28.153  27.213  1.00  0.00    -0.002 C 
ATOM     14  C   UNL     1      17.886  29.419  27.125  1.00  0.00    -0.069 C 
ATOM     15  C   UNL     1      18.319  30.018  25.804  1.00  0.00     0.039 C 
ATOM     16  C   UNL     1      18.044  30.289  28.353  1.00  0.00     0.039 C 
BRANCH  13  17
ATOM     17  C   UNL     1      17.157  27.288  25.983  1.00  0.00     0.066 CG0
ATOM     18  G   UNL     1      15.850  27.607  25.283  1.00  0.00     0.000 G0
ENDBRANCH  13  17
ENDBRANCH  11  13
ENDBRANCH  10  11
ENDBRANCH   1  10
TORSDOF 0
ENDMDL
