MODEL 1
REMARK VINA RESULT:    -6.353      0.000      0.000
REMARK INTER + INTRA:          -6.539
REMARK INTER:                  -6.539
REMARK INTRA:                   0.000
REMARK UNBOUND:                 0.000
REMARK SMILES O=c1ccc2ccc(O)cc2o1
REMARK SMILES IDX 6 1 7 2 8 3 10 4 11 5 5 6 4 7 3 8 2 9 1 10 12 11 9 12
REMARK H PARENT 9 13
REMARK Flexibility Score: inf
ROOT
ATOM      1  C   UNL     1     -11.826   2.170  -8.978  1.00  0.00     0.016 A 
ATOM      2  C   UNL     1     -12.400   3.346  -8.483  1.00  0.00     0.047 A 
ATOM      3  C   UNL     1     -13.787   3.530  -8.532  1.00  0.00     0.119 A 
ATOM      4  C   UNL     1     -14.607   2.533  -9.081  1.00  0.00     0.094 A 
ATOM      5  C   UNL     1     -14.041   1.354  -9.578  1.00  0.00     0.142 A 
ATOM      6  C   UNL     1     -12.641   1.170  -9.527  1.00  0.00     0.018 A 
ATOM      7  C   UNL     1     -12.106  -0.018 -10.031  1.00  0.00     0.019 A 
ATOM      8  C   UNL     1     -12.960  -0.982 -10.566  1.00  0.00     0.094 A 
ATOM      9  C   UNL     1     -14.337  -0.732 -10.584  1.00  0.00     0.336 A 
ATOM     10  O   UNL     1     -15.125  -1.589 -11.062  1.00  0.00    -0.246 OA
ATOM     11  O   UNL     1     -14.822   0.408 -10.097  1.00  0.00    -0.423 OA
ENDROOT
BRANCH   3  12
ATOM     12  O   UNL     1     -14.340   4.708  -8.035  1.00  0.00    -0.508 OA
ATOM     13  H   UNL     1     -14.091   5.065  -7.120  1.00  0.00     0.293 HD
ENDBRANCH   3  12
TORSDOF 1
ENDMDL
MODEL 2
REMARK VINA RESULT:    -6.238      1.754      2.476
REMARK INTER + INTRA:          -6.420
REMARK INTER:                  -6.420
REMARK INTRA:                   0.000
REMARK UNBOUND:                 0.000
REMARK SMILES O=c1ccc2ccc(O)cc2o1
REMARK SMILES IDX 6 1 7 2 8 3 10 4 11 5 5 6 4 7 3 8 2 9 1 10 12 11 9 12
REMARK H PARENT 9 13
REMARK Flexibility Score: inf
ROOT
ATOM      1  C   UNL     1     -15.125   1.460  -9.625  1.00  0.00     0.016 A 
ATOM      2  C   UNL     1     -15.090   2.756  -9.098  1.00  0.00     0.047 A 
ATOM      3  C   UNL     1     -13.871   3.334  -8.722  1.00  0.00     0.119 A 
ATOM      4  C   UNL     1     -12.678   2.611  -8.873  1.00  0.00     0.094 A 
ATOM      5  C   UNL     1     -12.704   1.315  -9.399  1.00  0.00     0.142 A 
ATOM      6  C   UNL     1     -13.936   0.735  -9.778  1.00  0.00     0.018 A 
ATOM      7  C   UNL     1     -13.929  -0.561 -10.300  1.00  0.00     0.019 A 
ATOM      8  C   UNL     1     -12.718  -1.241 -10.432  1.00  0.00     0.094 A 
ATOM      9  C   UNL     1     -11.536  -0.603 -10.037  1.00  0.00     0.336 A 
ATOM     10  O   UNL     1     -10.434  -1.199 -10.148  1.00  0.00    -0.246 OA
ATOM     11  O   UNL     1     -11.570   0.632  -9.542  1.00  0.00    -0.423 OA
ENDROOT
BRANCH   3  12
ATOM     12  O   UNL     1     -13.857   4.624  -8.199  1.00  0.00    -0.508 OA
ATOM     13  H   UNL     1     -12.996   5.061  -7.889  1.00  0.00     0.293 HD
ENDBRANCH   3  12
TORSDOF 1
ENDMDL
MODEL 3
REMARK VINA RESULT:    -6.159      1.736      4.691
REMARK INTER + INTRA:          -6.339
REMARK INTER:                  -6.339
REMARK INTRA:                   0.000
REMARK UNBOUND:                 0.000
REMARK SMILES O=c1ccc2ccc(O)cc2o1
REMARK SMILES IDX 6 1 7 2 8 3 10 4 11 5 5 6 4 7 3 8 2 9 1 10 12 11 9 12
REMARK H PARENT 9 13
REMARK Flexibility Score: inf
ROOT
ATOM      1  C   UNL     1     -14.293  -0.348 -10.312  1.00  0.00     0.016 A 
ATOM      2  C   UNL     1     -13.301  -1.315 -10.506  1.00  0.00     0.047 A 
ATOM      3  C   UNL     1     -11.972  -1.045 -10.155  1.00  0.00     0.119 A 
ATOM      4  C   UNL     1     -11.633   0.200  -9.607  1.00  0.00     0.094 A 
ATOM      5  C   UNL     1     -12.618   1.173  -9.409  1.00  0.00     0.142 A 
ATOM      6  C   UNL     1     -13.958   0.898  -9.764  1.00  0.00     0.018 A 
ATOM      7  C   UNL     1     -14.920   1.890  -9.555  1.00  0.00     0.019 A 
ATOM      8  C   UNL     1     -14.534   3.113  -9.006  1.00  0.00     0.094 A 
ATOM      9  C   UNL     1     -13.189   3.315  -8.678  1.00  0.00     0.336 A 
ATOM     10  O   UNL     1     -12.821   4.411  -8.182  1.00  0.00    -0.246 OA
ATOM     11  O   UNL     1     -12.293   2.354  -8.888  1.00  0.00    -0.423 OA
ENDROOT
BRANCH   3  12
ATOM     12  O   UNL     1     -10.999  -2.021 -10.357  1.00  0.00    -0.508 OA
ATOM     13  H   UNL     1     -10.118  -1.804 -10.809  1.00  0.00     0.293 HD
ENDBRANCH   3  12
TORSDOF 1
ENDMDL
MODEL 4
REMARK VINA RESULT:    -5.996      1.589      2.372
REMARK INTER + INTRA:          -6.172
REMARK INTER:                  -6.172
REMARK INTRA:                   0.000
REMARK UNBOUND:                 0.000
REMARK SMILES O=c1ccc2ccc(O)cc2o1
REMARK SMILES IDX 6 1 7 2 8 3 10 4 11 5 5 6 4 7 3 8 2 9 1 10 12 11 9 12
REMARK H PARENT 9 13
REMARK Flexibility Score: inf
ROOT
ATOM      1  C   UNL     1     -13.973   3.515  -8.840  1.00  0.00     0.016 A 
ATOM      2  C   UNL     1     -12.781   4.144  -8.464  1.00  0.00     0.047 A 
ATOM      3  C   UNL     1     -11.568   3.445  -8.512  1.00  0.00     0.119 A 
ATOM      4  C   UNL     1     -11.546   2.109  -8.939  1.00  0.00     0.094 A 
ATOM      5  C   UNL     1     -12.734   1.473  -9.316  1.00  0.00     0.142 A 
ATOM      6  C   UNL     1     -13.956   2.180  -9.266  1.00  0.00     0.018 A 
ATOM      7  C   UNL     1     -15.125   1.518  -9.650  1.00  0.00     0.019 A 
ATOM      8  C   UNL     1     -15.054   0.189 -10.067  1.00  0.00     0.094 A 
ATOM      9  C   UNL     1     -13.809  -0.449 -10.091  1.00  0.00     0.336 A 
ATOM     10  O   UNL     1     -13.724  -1.647 -10.465  1.00  0.00    -0.246 OA
ATOM     11  O   UNL     1     -12.710   0.205  -9.721  1.00  0.00    -0.423 OA
ENDROOT
BRANCH   3  12
ATOM     12  O   UNL     1     -10.391   4.088  -8.134  1.00  0.00    -0.508 OA
ATOM     13  H   UNL     1     -10.407   4.947  -7.596  1.00  0.00     0.293 HD
ENDBRANCH   3  12
TORSDOF 1
ENDMDL
MODEL 5
REMARK VINA RESULT:    -5.834      0.766      4.227
REMARK INTER + INTRA:          -6.004
REMARK INTER:                  -6.004
REMARK INTRA:                   0.000
REMARK UNBOUND:                 0.000
REMARK SMILES O=c1ccc2ccc(O)cc2o1
REMARK SMILES IDX 6 1 7 2 8 3 10 4 11 5 5 6 4 7 3 8 2 9 1 10 12 11 9 12
REMARK H PARENT 9 13
REMARK Flexibility Score: inf
ROOT
ATOM      1  C   UNL     1     -12.020   0.083  -9.888  1.00  0.00     0.016 A 
ATOM      2  C   UNL     1     -12.888  -0.887 -10.401  1.00  0.00     0.047 A 
ATOM      3  C   UNL     1     -14.263  -0.633 -10.482  1.00  0.00     0.119 A 
ATOM      4  C   UNL     1     -14.774   0.599 -10.046  1.00  0.00     0.094 A 
ATOM      5  C   UNL     1     -13.912   1.574  -9.532  1.00  0.00     0.142 A 
ATOM      6  C   UNL     1     -12.526   1.314  -9.452  1.00  0.00     0.018 A 
ATOM      7  C   UNL     1     -11.691   2.308  -8.933  1.00  0.00     0.019 A 
ATOM      8  C   UNL     1     -12.244   3.518  -8.513  1.00  0.00     0.094 A 
ATOM      9  C   UNL     1     -13.627   3.705  -8.623  1.00  0.00     0.336 A 
ATOM     10  O   UNL     1     -14.145   4.789  -8.249  1.00  0.00    -0.246 OA
ATOM     11  O   UNL     1     -14.400   2.742  -9.120  1.00  0.00    -0.423 OA
ENDROOT
BRANCH   3  12
ATOM     12  O   UNL     1     -15.111  -1.611 -10.995  1.00  0.00    -0.508 OA
ATOM     13  H   UNL     1     -15.317  -1.667 -11.986  1.00  0.00     0.293 HD
ENDBRANCH   3  12
TORSDOF 1
ENDMDL
MODEL 6
REMARK VINA RESULT:    -5.776      5.537      7.086
REMARK INTER + INTRA:          -5.944
REMARK INTER:                  -5.944
REMARK INTRA:                   0.000
REMARK UNBOUND:                 0.000
REMARK SMILES O=c1ccc2ccc(O)cc2o1
REMARK SMILES IDX 6 1 7 2 8 3 10 4 11 5 5 6 4 7 3 8 2 9 1 10 12 11 9 12
REMARK H PARENT 9 13
REMARK Flexibility Score: inf
ROOT
ATOM      1  C   UNL     1     -10.588  -2.627  -7.684  1.00  0.00     0.016 A 
ATOM      2  C   UNL     1     -10.244  -1.867  -8.806  1.00  0.00     0.047 A 
ATOM      3  C   UNL     1      -9.933  -2.496 -10.018  1.00  0.00     0.119 A 
ATOM      4  C   UNL     1      -9.965  -3.896 -10.108  1.00  0.00     0.094 A 
ATOM      5  C   UNL     1     -10.308  -4.663  -8.990  1.00  0.00     0.142 A 
ATOM      6  C   UNL     1     -10.622  -4.025  -7.769  1.00  0.00     0.018 A 
ATOM      7  C   UNL     1     -10.961  -4.819  -6.671  1.00  0.00     0.019 A 
ATOM      8  C   UNL     1     -10.980  -6.207  -6.808  1.00  0.00     0.094 A 
ATOM      9  C   UNL     1     -10.659  -6.770  -8.048  1.00  0.00     0.336 A 
ATOM     10  O   UNL     1     -10.670  -8.020  -8.193  1.00  0.00    -0.246 OA
ATOM     11  O   UNL     1     -10.339  -5.992  -9.079  1.00  0.00    -0.423 OA
ENDROOT
BRANCH   3  12
ATOM     12  O   UNL     1      -9.592  -1.722 -11.125  1.00  0.00    -0.508 OA
ATOM     13  H   UNL     1      -9.007  -0.899 -11.035  1.00  0.00     0.293 HD
ENDBRANCH   3  12
TORSDOF 1
ENDMDL
MODEL 7
REMARK VINA RESULT:    -5.414      6.781      8.759
REMARK INTER + INTRA:          -5.573
REMARK INTER:                  -5.573
REMARK INTRA:                   0.000
REMARK UNBOUND:                 0.000
REMARK SMILES O=c1ccc2ccc(O)cc2o1
REMARK SMILES IDX 6 1 7 2 8 3 10 4 11 5 5 6 4 7 3 8 2 9 1 10 12 11 9 12
REMARK H PARENT 9 13
REMARK Flexibility Score: inf
ROOT
ATOM      1  C   UNL     1     -10.791  -7.514  -7.925  1.00  0.00     0.016 A 
ATOM      2  C   UNL     1     -11.257  -8.125  -6.756  1.00  0.00     0.047 A 
ATOM      3  C   UNL     1     -11.576  -7.351  -5.633  1.00  0.00     0.119 A 
ATOM      4  C   UNL     1     -11.428  -5.957  -5.679  1.00  0.00     0.094 A 
ATOM      5  C   UNL     1     -10.963  -5.338  -6.845  1.00  0.00     0.142 A 
ATOM      6  C   UNL     1     -10.642  -6.122  -7.976  1.00  0.00     0.018 A 
ATOM      7  C   UNL     1     -10.180  -5.475  -9.125  1.00  0.00     0.019 A 
ATOM      8  C   UNL     1     -10.049  -4.086  -9.124  1.00  0.00     0.094 A 
ATOM      9  C   UNL     1     -10.386  -3.374  -7.967  1.00  0.00     0.336 A 
ATOM     10  O   UNL     1     -10.276  -2.121  -7.946  1.00  0.00    -0.246 OA
ATOM     11  O   UNL     1     -10.824  -4.015  -6.886  1.00  0.00    -0.423 OA
ENDROOT
BRANCH   3  12
ATOM     12  O   UNL     1     -12.038  -7.977  -4.478  1.00  0.00    -0.508 OA
ATOM     13  H   UNL     1     -12.261  -8.966  -4.465  1.00  0.00     0.293 HD
ENDBRANCH   3  12
TORSDOF 1
ENDMDL
MODEL 8
REMARK VINA RESULT:    -5.364      6.580      8.016
REMARK INTER + INTRA:          -5.521
REMARK INTER:                  -5.521
REMARK INTRA:                   0.000
REMARK UNBOUND:                 0.000
REMARK SMILES O=c1ccc2ccc(O)cc2o1
REMARK SMILES IDX 6 1 7 2 8 3 10 4 11 5 5 6 4 7 3 8 2 9 1 10 12 11 9 12
REMARK H PARENT 9 13
REMARK Flexibility Score: inf
ROOT
ATOM      1  C   UNL     1     -10.243  -5.168  -9.500  1.00  0.00     0.016 A 
ATOM      2  C   UNL     1     -10.085  -3.788  -9.329  1.00  0.00     0.047 A 
ATOM      3  C   UNL     1     -10.281  -3.205  -8.071  1.00  0.00     0.119 A 
ATOM      4  C   UNL     1     -10.638  -4.006  -6.976  1.00  0.00     0.094 A 
ATOM      5  C   UNL     1     -10.798  -5.386  -7.139  1.00  0.00     0.142 A 
ATOM      6  C   UNL     1     -10.599  -5.972  -8.409  1.00  0.00     0.018 A 
ATOM      7  C   UNL     1     -10.766  -7.353  -8.539  1.00  0.00     0.019 A 
ATOM      8  C   UNL     1     -11.121  -8.109  -7.422  1.00  0.00     0.094 A 
ATOM      9  C   UNL     1     -11.301  -7.461  -6.195  1.00  0.00     0.336 A 
ATOM     10  O   UNL     1     -11.621  -8.125  -5.175  1.00  0.00    -0.246 OA
ATOM     11  O   UNL     1     -11.136  -6.144  -6.097  1.00  0.00    -0.423 OA
ENDROOT
BRANCH   3  12
ATOM     12  O   UNL     1     -10.120  -1.829  -7.921  1.00  0.00    -0.508 OA
ATOM     13  H   UNL     1     -10.581  -1.320  -7.174  1.00  0.00     0.293 HD
ENDBRANCH   3  12
TORSDOF 1
ENDMDL
MODEL 9
REMARK VINA RESULT:    -5.196      5.600      7.843
REMARK INTER + INTRA:          -5.348
REMARK INTER:                  -5.348
REMARK INTRA:                   0.000
REMARK UNBOUND:                 0.000
REMARK SMILES O=c1ccc2ccc(O)cc2o1
REMARK SMILES IDX 6 1 7 2 8 3 10 4 11 5 5 6 4 7 3 8 2 9 1 10 12 11 9 12
REMARK H PARENT 9 13
REMARK Flexibility Score: inf
ROOT
ATOM      1  C   UNL     1     -10.989  -4.638  -6.599  1.00  0.00     0.016 A 
ATOM      2  C   UNL     1     -11.016  -6.037  -6.624  1.00  0.00     0.047 A 
ATOM      3  C   UNL     1     -10.672  -6.730  -7.791  1.00  0.00     0.119 A 
ATOM      4  C   UNL     1     -10.300  -6.021  -8.942  1.00  0.00     0.094 A 
ATOM      5  C   UNL     1     -10.270  -4.622  -8.926  1.00  0.00     0.142 A 
ATOM      6  C   UNL     1     -10.617  -3.926  -7.747  1.00  0.00     0.018 A 
ATOM      7  C   UNL     1     -10.577  -2.529  -7.762  1.00  0.00     0.019 A 
ATOM      8  C   UNL     1     -10.200  -1.867  -8.931  1.00  0.00     0.094 A 
ATOM      9  C   UNL     1      -9.869  -2.622 -10.061  1.00  0.00     0.336 A 
ATOM     10  O   UNL     1      -9.526  -2.044 -11.125  1.00  0.00    -0.246 OA
ATOM     11  O   UNL     1      -9.915  -3.952 -10.021  1.00  0.00    -0.423 OA
ENDROOT
BRANCH   3  12
ATOM     12  O   UNL     1     -10.706  -8.123  -7.796  1.00  0.00    -0.508 OA
ATOM     13  H   UNL     1      -9.928  -8.670  -8.147  1.00  0.00     0.293 HD
ENDBRANCH   3  12
TORSDOF 1
ENDMDL
