MODEL 1
REMARK VINA RESULT:    -3.574      0.000      0.000
REMARK INTER + INTRA:          -5.041
REMARK INTER:                  -4.619
REMARK INTRA:                  -0.422
REMARK UNBOUND:                -0.422
REMARK SMILES CCO[C@H]1O[C@@H](CO)[C@H](O)[C@H](O)[C@@H]1O
REMARK SMILES IDX 4 1 13 2 11 3 9 4 6 5 5 6 3 7 2 8 1 9 14 10 12 12 7 14 8 15
REMARK SMILES IDX 10 17
REMARK H PARENT 14 11 12 13 8 16 10 18
REMARK Flexibility Score: inf
ROOT
ATOM      1  C   UNL     1       6.689   3.993   1.854  1.00  0.00     0.281 C 
ATOM      2  C   UNL     1       8.032   3.259   1.989  1.00  0.00     0.202 C 
ATOM      3  C   UNL     1       9.052   4.145   2.722  1.00  0.00     0.179 C 
ATOM      4  C   UNL     1       9.156   5.513   2.040  1.00  0.00     0.177 C 
ATOM      5  C   UNL     1       7.754   6.143   1.844  1.00  0.00     0.178 C 
ATOM      6  O   UNL     1       6.819   5.264   1.223  1.00  0.00    -0.341 OA
ENDROOT
BRANCH   1   7
ATOM      7  O   UNL     1       6.065   4.102   3.123  1.00  0.00    -0.350 OA
BRANCH   7   8
ATOM      8  C   UNL     1       4.690   3.773   3.050  1.00  0.00     0.160 C 
ATOM      9  C   UNL     1       4.440   2.799   1.904  1.00  0.00     0.035 C 
ENDBRANCH   7   8
ENDBRANCH   1   7
BRANCH   2  10
ATOM     10  O   UNL     1       8.500   2.911   0.709  1.00  0.00    -0.385 OA
ATOM     11  H   UNL     1       8.707   3.758   0.236  1.00  0.00     0.211 HD
ENDBRANCH   2  10
BRANCH   3  12
ATOM     12  O   UNL     1      10.316   3.531   2.746  1.00  0.00    -0.387 OA
ATOM     13  H   UNL     1      10.661   3.549   1.815  1.00  0.00     0.211 HD
ENDBRANCH   3  12
BRANCH   5  14
ATOM     14  C   UNL     1       7.206   6.802   3.125  1.00  0.00     0.191 C 
BRANCH  14  15
ATOM     15  O   UNL     1       5.867   7.168   2.934  1.00  0.00    -0.394 OA
ATOM     16  H   UNL     1       5.680   7.036   1.968  1.00  0.00     0.210 HD
ENDBRANCH  14  15
ENDBRANCH   5  14
BRANCH   4  17
ATOM     17  O   UNL     1       9.793   5.374   0.794  1.00  0.00    -0.387 OA
ATOM     18  H   UNL     1      10.562   6.002   0.790  1.00  0.00     0.211 HD
ENDBRANCH   4  17
TORSDOF 7
ENDMDL
MODEL 2
REMARK VINA RESULT:    -2.930      3.006      4.227
REMARK INTER + INTRA:          -4.208
REMARK INTER:                  -3.946
REMARK INTRA:                  -0.262
REMARK UNBOUND:                -0.422
REMARK SMILES CCO[C@H]1O[C@@H](CO)[C@H](O)[C@H](O)[C@@H]1O
REMARK SMILES IDX 4 1 13 2 11 3 9 4 6 5 5 6 3 7 2 8 1 9 14 10 12 12 7 14 8 15
REMARK SMILES IDX 10 17
REMARK H PARENT 14 11 12 13 8 16 10 18
REMARK Flexibility Score: inf
ROOT
ATOM      1  C   UNL     1       9.033   7.185   1.746  1.00  0.00     0.281 C 
ATOM      2  C   UNL     1       9.416   5.716   1.982  1.00  0.00     0.202 C 
ATOM      3  C   UNL     1      10.854   5.620   2.518  1.00  0.00     0.179 C 
ATOM      4  C   UNL     1      11.817   6.374   1.595  1.00  0.00     0.177 C 
ATOM      5  C   UNL     1      11.310   7.812   1.320  1.00  0.00     0.178 C 
ATOM      6  O   UNL     1       9.951   7.861   0.890  1.00  0.00    -0.341 OA
ENDROOT
BRANCH   1   7
ATOM      7  O   UNL     1       8.887   7.855   2.987  1.00  0.00    -0.350 OA
BRANCH   7   8
ATOM      8  C   UNL     1       7.901   8.869   2.911  1.00  0.00     0.160 C 
ATOM      9  C   UNL     1       6.676   8.358   2.162  1.00  0.00     0.035 C 
ENDBRANCH   7   8
ENDBRANCH   1   7
BRANCH   2  10
ATOM     10  O   UNL     1       9.283   5.003   0.778  1.00  0.00    -0.385 OA
ATOM     11  H   UNL     1       9.582   5.606   0.049  1.00  0.00     0.211 HD
ENDBRANCH   2  10
BRANCH   3  12
ATOM     12  O   UNL     1      11.255   4.277   2.625  1.00  0.00    -0.387 OA
ATOM     13  H   UNL     1      11.525   3.985   1.716  1.00  0.00     0.211 HD
ENDBRANCH   3  12
BRANCH   5  14
ATOM     14  C   UNL     1      11.617   8.790   2.470  1.00  0.00     0.191 C 
BRANCH  14  15
ATOM     15  O   UNL     1      12.889   8.522   2.994  1.00  0.00    -0.394 OA
ATOM     16  H   UNL     1      12.750   8.289   3.948  1.00  0.00     0.210 HD
ENDBRANCH  14  15
ENDBRANCH   5  14
BRANCH   4  17
ATOM     17  O   UNL     1      11.954   5.677   0.382  1.00  0.00    -0.387 OA
ATOM     18  H   UNL     1      12.509   6.243  -0.217  1.00  0.00     0.211 HD
ENDBRANCH   4  17
TORSDOF 7
ENDMDL
MODEL 3
REMARK VINA RESULT:    -2.826      2.425      5.230
REMARK INTER + INTRA:          -4.074
REMARK INTER:                  -3.622
REMARK INTRA:                  -0.452
REMARK UNBOUND:                -0.422
REMARK SMILES CCO[C@H]1O[C@@H](CO)[C@H](O)[C@H](O)[C@@H]1O
REMARK SMILES IDX 4 1 13 2 11 3 9 4 6 5 5 6 3 7 2 8 1 9 14 10 12 12 7 14 8 15
REMARK SMILES IDX 10 17
REMARK H PARENT 14 11 12 13 8 16 10 18
REMARK Flexibility Score: inf
ROOT
ATOM      1  C   UNL     1      10.557   6.644   1.144  1.00  0.00     0.281 C 
ATOM      2  C   UNL     1       9.890   7.961   1.569  1.00  0.00     0.202 C 
ATOM      3  C   UNL     1       8.993   7.732   2.797  1.00  0.00     0.179 C 
ATOM      4  C   UNL     1       8.005   6.591   2.528  1.00  0.00     0.177 C 
ATOM      5  C   UNL     1       8.741   5.332   2.004  1.00  0.00     0.178 C 
ATOM      6  O   UNL     1       9.614   5.601   0.909  1.00  0.00    -0.341 OA
ENDROOT
BRANCH   1   7
ATOM      7  O   UNL     1      11.531   6.261   2.102  1.00  0.00    -0.350 OA
BRANCH   7   8
ATOM      8  C   UNL     1      12.700   5.764   1.476  1.00  0.00     0.160 C 
ATOM      9  C   UNL     1      13.445   4.828   2.420  1.00  0.00     0.035 C 
ENDBRANCH   7   8
ENDBRANCH   1   7
BRANCH   2  10
ATOM     10  O   UNL     1       9.143   8.470   0.492  1.00  0.00    -0.385 OA
ATOM     11  H   UNL     1       8.840   9.379   0.753  1.00  0.00     0.211 HD
ENDBRANCH   2  10
BRANCH   3  12
ATOM     12  O   UNL     1       8.286   8.903   3.121  1.00  0.00    -0.387 OA
ATOM     13  H   UNL     1       7.916   8.771   4.032  1.00  0.00     0.211 HD
ENDBRANCH   3  12
BRANCH   5  14
ATOM     14  C   UNL     1       9.410   4.514   3.125  1.00  0.00     0.191 C 
BRANCH  14  15
ATOM     15  O   UNL     1      10.199   3.500   2.566  1.00  0.00    -0.394 OA
ATOM     16  H   UNL     1       9.739   3.221   1.733  1.00  0.00     0.210 HD
ENDBRANCH  14  15
ENDBRANCH   5  14
BRANCH   4  17
ATOM     17  O   UNL     1       7.045   7.007   1.589  1.00  0.00    -0.387 OA
ATOM     18  H   UNL     1       6.826   6.216   1.029  1.00  0.00     0.211 HD
ENDBRANCH   4  17
TORSDOF 7
ENDMDL
MODEL 4
REMARK VINA RESULT:    -2.791      1.677      4.017
REMARK INTER + INTRA:          -4.029
REMARK INTER:                  -3.627
REMARK INTRA:                  -0.403
REMARK UNBOUND:                -0.422
REMARK SMILES CCO[C@H]1O[C@@H](CO)[C@H](O)[C@H](O)[C@@H]1O
REMARK SMILES IDX 4 1 13 2 11 3 9 4 6 5 5 6 3 7 2 8 1 9 14 10 12 12 7 14 8 15
REMARK SMILES IDX 10 17
REMARK H PARENT 14 11 12 13 8 16 10 18
REMARK Flexibility Score: inf
ROOT
ATOM      1  C   UNL     1       9.191   5.027   1.850  1.00  0.00     0.281 C 
ATOM      2  C   UNL     1       8.379   4.007   1.037  1.00  0.00     0.202 C 
ATOM      3  C   UNL     1       6.926   4.486   0.882  1.00  0.00     0.179 C 
ATOM      4  C   UNL     1       6.323   4.811   2.253  1.00  0.00     0.177 C 
ATOM      5  C   UNL     1       7.249   5.760   3.054  1.00  0.00     0.178 C 
ATOM      6  O   UNL     1       8.602   5.314   3.116  1.00  0.00    -0.341 OA
ENDROOT
BRANCH   1   7
ATOM      7  O   UNL     1       9.392   6.206   1.089  1.00  0.00    -0.350 OA
BRANCH   7   8
ATOM      8  C   UNL     1      10.770   6.450   0.872  1.00  0.00     0.160 C 
ATOM      9  C   UNL     1      11.137   7.854   1.338  1.00  0.00     0.035 C 
ENDBRANCH   7   8
ENDBRANCH   1   7
BRANCH   2  10
ATOM     10  O   UNL     1       8.428   2.758   1.680  1.00  0.00    -0.385 OA
ATOM     11  H   UNL     1       8.578   2.075   0.975  1.00  0.00     0.211 HD
ENDBRANCH   2  10
BRANCH   3  12
ATOM     12  O   UNL     1       6.146   3.507   0.243  1.00  0.00    -0.387 OA
ATOM     13  H   UNL     1       5.215   3.626   0.564  1.00  0.00     0.211 HD
ENDBRANCH   3  12
BRANCH   5  14
ATOM     14  C   UNL     1       7.117   7.235   2.626  1.00  0.00     0.191 C 
BRANCH  14  15
ATOM     15  O   UNL     1       8.198   7.972   3.125  1.00  0.00    -0.394 OA
ATOM     16  H   UNL     1       8.139   8.868   2.702  1.00  0.00     0.210 HD
ENDBRANCH  14  15
ENDBRANCH   5  14
BRANCH   4  17
ATOM     17  O   UNL     1       6.121   3.622   2.975  1.00  0.00    -0.387 OA
ATOM     18  H   UNL     1       7.019   3.262   3.197  1.00  0.00     0.211 HD
ENDBRANCH   4  17
TORSDOF 7
ENDMDL
MODEL 5
REMARK VINA RESULT:    -2.719      1.587      2.268
REMARK INTER + INTRA:          -3.936
REMARK INTER:                  -3.603
REMARK INTRA:                  -0.333
REMARK UNBOUND:                -0.422
REMARK SMILES CCO[C@H]1O[C@@H](CO)[C@H](O)[C@H](O)[C@@H]1O
REMARK SMILES IDX 4 1 13 2 11 3 9 4 6 5 5 6 3 7 2 8 1 9 14 10 12 12 7 14 8 15
REMARK SMILES IDX 10 17
REMARK H PARENT 14 11 12 13 8 16 10 18
REMARK Flexibility Score: inf
ROOT
ATOM      1  C   UNL     1       8.184   4.839   1.746  1.00  0.00     0.281 C 
ATOM      2  C   UNL     1       9.623   5.379   1.750  1.00  0.00     0.202 C 
ATOM      3  C   UNL     1       9.678   6.744   2.456  1.00  0.00     0.179 C 
ATOM      4  C   UNL     1       8.654   7.704   1.840  1.00  0.00     0.177 C 
ATOM      5  C   UNL     1       7.250   7.050   1.775  1.00  0.00     0.178 C 
ATOM      6  O   UNL     1       7.255   5.756   1.175  1.00  0.00    -0.341 OA
ENDROOT
BRANCH   1   7
ATOM      7  O   UNL     1       7.804   4.461   3.059  1.00  0.00    -0.350 OA
BRANCH   7   8
ATOM      8  C   UNL     1       7.455   3.090   3.119  1.00  0.00     0.160 C 
ATOM      9  C   UNL     1       6.190   2.832   2.309  1.00  0.00     0.035 C 
ENDBRANCH   7   8
ENDBRANCH   1   7
BRANCH   2  10
ATOM     10  O   UNL     1      10.082   5.483   0.425  1.00  0.00    -0.385 OA
ATOM     11  H   UNL     1       9.296   5.345  -0.166  1.00  0.00     0.211 HD
ENDBRANCH   2  10
BRANCH   3  12
ATOM     12  O   UNL     1      10.965   7.301   2.361  1.00  0.00    -0.387 OA
ATOM     13  H   UNL     1      11.533   6.824   3.020  1.00  0.00     0.211 HD
ENDBRANCH   3  12
BRANCH   5  14
ATOM     14  C   UNL     1       6.504   7.089   3.122  1.00  0.00     0.191 C 
BRANCH  14  15
ATOM     15  O   UNL     1       5.479   6.134   3.125  1.00  0.00    -0.394 OA
ATOM     16  H   UNL     1       5.324   5.894   2.174  1.00  0.00     0.210 HD
ENDBRANCH  14  15
ENDBRANCH   5  14
BRANCH   4  17
ATOM     17  O   UNL     1       9.067   8.072   0.548  1.00  0.00    -0.387 OA
ATOM     18  H   UNL     1       8.287   7.944  -0.054  1.00  0.00     0.211 HD
ENDBRANCH   4  17
TORSDOF 7
ENDMDL
MODEL 6
REMARK VINA RESULT:    -2.695      1.530      3.564
REMARK INTER + INTRA:          -3.905
REMARK INTER:                  -3.695
REMARK INTRA:                  -0.209
REMARK UNBOUND:                -0.422
REMARK SMILES CCO[C@H]1O[C@@H](CO)[C@H](O)[C@H](O)[C@@H]1O
REMARK SMILES IDX 4 1 13 2 11 3 9 4 6 5 5 6 3 7 2 8 1 9 14 10 12 12 7 14 8 15
REMARK SMILES IDX 10 17
REMARK H PARENT 14 11 12 13 8 16 10 18
REMARK Flexibility Score: inf
ROOT
ATOM      1  C   UNL     1       7.663   5.411   2.344  1.00  0.00     0.281 C 
ATOM      2  C   UNL     1       8.531   5.007   1.142  1.00  0.00     0.202 C 
ATOM      3  C   UNL     1       7.799   3.964   0.282  1.00  0.00     0.179 C 
ATOM      4  C   UNL     1       7.347   2.783   1.148  1.00  0.00     0.177 C 
ATOM      5  C   UNL     1       6.569   3.276   2.395  1.00  0.00     0.178 C 
ATOM      6  O   UNL     1       7.253   4.291   3.125  1.00  0.00    -0.341 OA
ENDROOT
BRANCH   1   7
ATOM      7  O   UNL     1       6.553   6.177   1.907  1.00  0.00    -0.350 OA
BRANCH   7   8
ATOM      8  C   UNL     1       6.625   7.507   2.387  1.00  0.00     0.160 C 
ATOM      9  C   UNL     1       7.035   8.452   1.264  1.00  0.00     0.035 C 
ENDBRANCH   7   8
ENDBRANCH   1   7
BRANCH   2  10
ATOM     10  O   UNL     1       9.758   4.501   1.605  1.00  0.00    -0.385 OA
ATOM     11  H   UNL     1       9.764   3.528   1.408  1.00  0.00     0.211 HD
ENDBRANCH   2  10
BRANCH   3  12
ATOM     12  O   UNL     1       8.630   3.501  -0.752  1.00  0.00    -0.387 OA
ATOM     13  H   UNL     1       9.537   3.864  -0.576  1.00  0.00     0.211 HD
ENDBRANCH   3  12
BRANCH   5  14
ATOM     14  C   UNL     1       5.103   3.636   2.087  1.00  0.00     0.191 C 
BRANCH  14  15
ATOM     15  O   UNL     1       4.569   2.713   1.178  1.00  0.00    -0.394 OA
ATOM     16  H   UNL     1       4.467   1.861   1.678  1.00  0.00     0.210 HD
ENDBRANCH  14  15
ENDBRANCH   5  14
BRANCH   4  17
ATOM     17  O   UNL     1       8.467   2.035   1.551  1.00  0.00    -0.387 OA
ATOM     18  H   UNL     1       8.978   1.814   0.729  1.00  0.00     0.211 HD
ENDBRANCH   4  17
TORSDOF 7
ENDMDL
MODEL 7
REMARK VINA RESULT:    -2.689      2.795      5.817
REMARK INTER + INTRA:          -3.897
REMARK INTER:                  -3.467
REMARK INTRA:                  -0.430
REMARK UNBOUND:                -0.422
REMARK SMILES CCO[C@H]1O[C@@H](CO)[C@H](O)[C@H](O)[C@@H]1O
REMARK SMILES IDX 4 1 13 2 11 3 9 4 6 5 5 6 3 7 2 8 1 9 14 10 12 12 7 14 8 15
REMARK SMILES IDX 10 17
REMARK H PARENT 14 11 12 13 8 16 10 18
REMARK Flexibility Score: inf
ROOT
ATOM      1  C   UNL     1      10.998   7.467   1.209  1.00  0.00     0.281 C 
ATOM      2  C   UNL     1       9.722   8.216   1.624  1.00  0.00     0.202 C 
ATOM      3  C   UNL     1       8.993   7.449   2.739  1.00  0.00     0.179 C 
ATOM      4  C   UNL     1       8.752   5.996   2.316  1.00  0.00     0.177 C 
ATOM      5  C   UNL     1      10.063   5.341   1.812  1.00  0.00     0.178 C 
ATOM      6  O   UNL     1      10.743   6.117   0.828  1.00  0.00    -0.341 OA
ENDROOT
BRANCH   1   7
ATOM      7  O   UNL     1      11.965   7.543   2.243  1.00  0.00    -0.350 OA
BRANCH   7   8
ATOM      8  C   UNL     1      13.166   8.135   1.782  1.00  0.00     0.160 C 
ATOM      9  C   UNL     1      14.212   7.061   1.511  1.00  0.00     0.035 C 
ENDBRANCH   7   8
ENDBRANCH   1   7
BRANCH   2  10
ATOM     10  O   UNL     1       8.892   8.374   0.500  1.00  0.00    -0.385 OA
ATOM     11  H   UNL     1       8.763   9.350   0.369  1.00  0.00     0.211 HD
ENDBRANCH   2  10
BRANCH   3  12
ATOM     12  O   UNL     1       7.766   8.063   3.043  1.00  0.00    -0.387 OA
ATOM     13  H   UNL     1       7.869   9.028   2.836  1.00  0.00     0.211 HD
ENDBRANCH   3  12
BRANCH   5  14
ATOM     14  C   UNL     1      10.983   4.875   2.957  1.00  0.00     0.191 C 
BRANCH  14  15
ATOM     15  O   UNL     1      12.177   4.368   2.429  1.00  0.00    -0.394 OA
ATOM     16  H   UNL     1      12.773   4.201   3.205  1.00  0.00     0.210 HD
ENDBRANCH  14  15
ENDBRANCH   5  14
BRANCH   4  17
ATOM     17  O   UNL     1       7.779   5.953   1.303  1.00  0.00    -0.387 OA
ATOM     18  H   UNL     1       8.089   6.555   0.576  1.00  0.00     0.211 HD
ENDBRANCH   4  17
TORSDOF 7
ENDMDL
