MODEL 1
REMARK VINA RESULT:    -3.380      0.000      0.000
REMARK INTER + INTRA:          -3.999
REMARK INTER:                  -3.973
REMARK INTRA:                  -0.026
REMARK UNBOUND:                -0.026
REMARK SMILES CCCCC(=O)[O-]
REMARK SMILES IDX 4 1 5 2 6 3 7 4 3 5 2 6 1 7
REMARK H PARENT
REMARK Flexibility Score: inf
ROOT
ATOM      1  C   UNL     1      11.685  27.160  34.136  1.00  0.00     0.053 C 
ENDROOT
BRANCH   1   2
ATOM      2  C   UNL     1      11.488  27.899  35.421  1.00  0.00     0.041 C 
ATOM      3  O   UNL     1      11.140  29.109  35.409  1.00  0.00    -0.550 OA
ATOM      4  O   UNL     1      11.738  27.267  36.632  1.00  0.00    -0.550 OA
ENDBRANCH   1   2
BRANCH   1   5
ATOM      5  C   UNL     1      13.076  26.518  34.094  1.00  0.00     0.006 C 
BRANCH   5   6
ATOM      6  C   UNL     1      13.041  25.182  33.344  1.00  0.00    -0.003 C 
ATOM      7  C   UNL     1      14.413  24.514  33.343  1.00  0.00     0.004 C 
ENDBRANCH   5   6
ENDBRANCH   1   5
TORSDOF 3
ENDMDL
MODEL 2
REMARK VINA RESULT:    -3.291      1.747      2.406
REMARK INTER + INTRA:          -3.894
REMARK INTER:                  -3.846
REMARK INTRA:                  -0.048
REMARK UNBOUND:                -0.026
REMARK SMILES CCCCC(=O)[O-]
REMARK SMILES IDX 4 1 5 2 6 3 7 4 3 5 2 6 1 7
REMARK H PARENT
REMARK Flexibility Score: inf
ROOT
ATOM      1  C   UNL     1      12.854  25.335  33.461  1.00  0.00     0.053 C 
ENDROOT
BRANCH   1   2
ATOM      2  C   UNL     1      12.832  26.707  34.056  1.00  0.00     0.041 C 
ATOM      3  O   UNL     1      11.735  27.288  34.269  1.00  0.00    -0.550 OA
ATOM      4  O   UNL     1      14.023  27.366  34.330  1.00  0.00    -0.550 OA
ENDBRANCH   1   2
BRANCH   1   5
ATOM      5  C   UNL     1      14.274  24.963  33.023  1.00  0.00     0.006 C 
BRANCH   5   6
ATOM      6  C   UNL     1      14.876  23.904  33.953  1.00  0.00    -0.003 C 
ATOM      7  C   UNL     1      15.951  23.090  33.239  1.00  0.00     0.004 C 
ENDBRANCH   5   6
ENDBRANCH   1   5
TORSDOF 3
ENDMDL
MODEL 3
REMARK VINA RESULT:    -3.144      2.822      4.328
REMARK INTER + INTRA:          -3.721
REMARK INTER:                  -3.699
REMARK INTRA:                  -0.023
REMARK UNBOUND:                -0.026
REMARK SMILES CCCCC(=O)[O-]
REMARK SMILES IDX 4 1 5 2 6 3 7 4 3 5 2 6 1 7
REMARK H PARENT
REMARK Flexibility Score: inf
ROOT
ATOM      1  C   UNL     1      13.064  25.367  33.402  1.00  0.00     0.053 C 
ENDROOT
BRANCH   1   2
ATOM      2  C   UNL     1      14.306  24.618  33.766  1.00  0.00     0.041 C 
ATOM      3  O   UNL     1      14.684  24.562  34.966  1.00  0.00    -0.550 OA
ATOM      4  O   UNL     1      15.076  24.024  32.774  1.00  0.00    -0.550 OA
ENDBRANCH   1   2
BRANCH   1   5
ATOM      5  C   UNL     1      13.017  26.715  34.130  1.00  0.00     0.006 C 
BRANCH   5   6
ATOM      6  C   UNL     1      11.590  27.272  34.162  1.00  0.00    -0.003 C 
ATOM      7  C   UNL     1      11.392  28.214  35.346  1.00  0.00     0.004 C 
ENDBRANCH   5   6
ENDBRANCH   1   5
TORSDOF 3
ENDMDL
MODEL 4
REMARK VINA RESULT:    -3.081      2.547      3.185
REMARK INTER + INTRA:          -3.648
REMARK INTER:                  -3.569
REMARK INTRA:                  -0.078
REMARK UNBOUND:                -0.026
REMARK SMILES CCCCC(=O)[O-]
REMARK SMILES IDX 4 1 5 2 6 3 7 4 3 5 2 6 1 7
REMARK H PARENT
REMARK Flexibility Score: inf
ROOT
ATOM      1  C   UNL     1      14.614  26.163  33.346  1.00  0.00     0.053 C 
ENDROOT
BRANCH   1   2
ATOM      2  C   UNL     1      13.382  25.629  34.004  1.00  0.00     0.041 C 
ATOM      3  O   UNL     1      12.342  25.417  33.325  1.00  0.00    -0.550 OA
ATOM      4  O   UNL     1      13.363  25.414  35.376  1.00  0.00    -0.550 OA
ENDBRANCH   1   2
BRANCH   1   5
ATOM      5  C   UNL     1      15.757  25.146  33.443  1.00  0.00     0.006 C 
BRANCH   5   6
ATOM      6  C   UNL     1      15.311  23.770  32.938  1.00  0.00    -0.003 C 
ATOM      7  C   UNL     1      16.022  22.649  33.692  1.00  0.00     0.004 C 
ENDBRANCH   5   6
ENDBRANCH   1   5
TORSDOF 3
ENDMDL
MODEL 5
REMARK VINA RESULT:    -3.061      3.166      4.516
REMARK INTER + INTRA:          -3.624
REMARK INTER:                  -3.524
REMARK INTRA:                  -0.100
REMARK UNBOUND:                -0.026
REMARK SMILES CCCCC(=O)[O-]
REMARK SMILES IDX 4 1 5 2 6 3 7 4 3 5 2 6 1 7
REMARK H PARENT
REMARK Flexibility Score: inf
ROOT
ATOM      1  C   UNL     1      14.882  23.852  33.319  1.00  0.00     0.053 C 
ENDROOT
BRANCH   1   2
ATOM      2  C   UNL     1      15.298  23.768  34.753  1.00  0.00     0.041 C 
ATOM      3  O   UNL     1      15.749  24.785  35.343  1.00  0.00    -0.550 OA
ATOM      4  O   UNL     1      15.235  22.554  35.425  1.00  0.00    -0.550 OA
ENDBRANCH   1   2
BRANCH   1   5
ATOM      5  C   UNL     1      14.277  25.227  33.016  1.00  0.00     0.006 C 
BRANCH   5   6
ATOM      6  C   UNL     1      12.811  25.292  33.460  1.00  0.00    -0.003 C 
ATOM      7  C   UNL     1      12.506  26.611  34.165  1.00  0.00     0.004 C 
ENDBRANCH   5   6
ENDBRANCH   1   5
TORSDOF 3
ENDMDL
MODEL 6
REMARK VINA RESULT:    -2.884      2.516      3.953
REMARK INTER + INTRA:          -3.416
REMARK INTER:                  -3.324
REMARK INTRA:                  -0.092
REMARK UNBOUND:                -0.026
REMARK SMILES CCCCC(=O)[O-]
REMARK SMILES IDX 4 1 5 2 6 3 7 4 3 5 2 6 1 7
REMARK H PARENT
REMARK Flexibility Score: inf
ROOT
ATOM      1  C   UNL     1      12.330  26.538  34.038  1.00  0.00     0.053 C 
ENDROOT
BRANCH   1   2
ATOM      2  C   UNL     1      13.779  26.497  33.674  1.00  0.00     0.041 C 
ATOM      3  O   UNL     1      14.538  27.452  33.987  1.00  0.00    -0.550 OA
ATOM      4  O   UNL     1      14.284  25.428  32.945  1.00  0.00    -0.550 OA
ENDBRANCH   1   2
BRANCH   1   5
ATOM      5  C   UNL     1      12.149  27.079  35.460  1.00  0.00     0.006 C 
BRANCH   5   6
ATOM      6  C   UNL     1      11.295  28.351  35.459  1.00  0.00    -0.003 C 
ATOM      7  C   UNL     1      12.072  29.538  36.023  1.00  0.00     0.004 C 
ENDBRANCH   5   6
ENDBRANCH   1   5
TORSDOF 3
ENDMDL
MODEL 7
REMARK VINA RESULT:    -2.795      1.686      2.034
REMARK INTER + INTRA:          -3.311
REMARK INTER:                  -3.266
REMARK INTRA:                  -0.045
REMARK UNBOUND:                -0.026
REMARK SMILES CCCCC(=O)[O-]
REMARK SMILES IDX 4 1 5 2 6 3 7 4 3 5 2 6 1 7
REMARK H PARENT
REMARK Flexibility Score: inf
ROOT
ATOM      1  C   UNL     1      13.859  27.271  34.524  1.00  0.00     0.053 C 
ENDROOT
BRANCH   1   2
ATOM      2  C   UNL     1      13.681  28.276  35.617  1.00  0.00     0.041 C 
ATOM      3  O   UNL     1      12.842  28.073  36.534  1.00  0.00    -0.550 OA
ATOM      4  O   UNL     1      14.406  29.460  35.598  1.00  0.00    -0.550 OA
ENDBRANCH   1   2
BRANCH   1   5
ATOM      5  C   UNL     1      12.511  26.648  34.144  1.00  0.00     0.006 C 
BRANCH   5   6
ATOM      6  C   UNL     1      12.709  25.316  33.413  1.00  0.00    -0.003 C 
ATOM      7  C   UNL     1      14.188  25.041  33.157  1.00  0.00     0.004 C 
ENDBRANCH   5   6
ENDBRANCH   1   5
TORSDOF 3
ENDMDL
MODEL 8
REMARK VINA RESULT:    -2.779      1.861      2.493
REMARK INTER + INTRA:          -3.293
REMARK INTER:                  -3.240
REMARK INTRA:                  -0.053
REMARK UNBOUND:                -0.026
REMARK SMILES CCCCC(=O)[O-]
REMARK SMILES IDX 4 1 5 2 6 3 7 4 3 5 2 6 1 7
REMARK H PARENT
REMARK Flexibility Score: inf
ROOT
ATOM      1  C   UNL     1      12.757  25.826  33.591  1.00  0.00     0.053 C 
ENDROOT
BRANCH   1   2
ATOM      2  C   UNL     1      12.459  26.460  34.912  1.00  0.00     0.041 C 
ATOM      3  O   UNL     1      12.854  25.919  35.978  1.00  0.00    -0.550 OA
ATOM      4  O   UNL     1      11.701  27.622  34.971  1.00  0.00    -0.550 OA
ENDBRANCH   1   2
BRANCH   1   5
ATOM      5  C   UNL     1      14.270  25.746  33.363  1.00  0.00     0.006 C 
BRANCH   5   6
ATOM      6  C   UNL     1      14.926  27.120  33.544  1.00  0.00    -0.003 C 
ATOM      7  C   UNL     1      16.310  27.159  32.902  1.00  0.00     0.004 C 
ENDBRANCH   5   6
ENDBRANCH   1   5
TORSDOF 3
ENDMDL
MODEL 9
REMARK VINA RESULT:    -2.737      2.486      3.532
REMARK INTER + INTRA:          -3.243
REMARK INTER:                  -3.141
REMARK INTRA:                  -0.102
REMARK UNBOUND:                -0.026
REMARK SMILES CCCCC(=O)[O-]
REMARK SMILES IDX 4 1 5 2 6 3 7 4 3 5 2 6 1 7
REMARK H PARENT
REMARK Flexibility Score: inf
ROOT
ATOM      1  C   UNL     1      14.483  24.670  34.450  1.00  0.00     0.053 C 
ENDROOT
BRANCH   1   2
ATOM      2  C   UNL     1      13.387  25.624  34.099  1.00  0.00     0.041 C 
ATOM      3  O   UNL     1      12.509  25.298  33.257  1.00  0.00    -0.550 OA
ATOM      4  O   UNL     1      13.360  26.893  34.664  1.00  0.00    -0.550 OA
ENDBRANCH   1   2
BRANCH   1   5
ATOM      5  C   UNL     1      15.536  24.629  33.337  1.00  0.00     0.006 C 
BRANCH   5   6
ATOM      6  C   UNL     1      16.753  25.486  33.701  1.00  0.00    -0.003 C 
ATOM      7  C   UNL     1      16.705  26.840  32.999  1.00  0.00     0.004 C 
ENDBRANCH   5   6
ENDBRANCH   1   5
TORSDOF 3
ENDMDL
