MODEL 1
REMARK VINA RESULT:    -4.912      0.000      0.000
REMARK INTER + INTRA:          -4.912
REMARK INTER:                  -4.912
REMARK INTRA:                   0.000
REMARK UNBOUND:                 0.000
REMARK SMILES C=C1CCCC(C)(C)[C@@]12CC=C(C)CC2
REMARK SMILES IDX 13 1 12 2 11 3 10 4 9 5 15 6 14 7 2 8 1 9 3 10 4 11 5 12
REMARK SMILES IDX 6 13 7 14 8 15
REMARK H PARENT
REMARK Flexibility Score: inf
ROOT
ATOM      1  C   UNL     1      17.574   5.882  16.624  1.00  0.00     0.039 C 
ATOM      2  C   UNL     1      16.089   6.114  16.548  1.00  0.00    -0.077 C 
ATOM      3  C   UNL     1      15.588   7.288  16.966  1.00  0.00    -0.027 C 
ATOM      4  C   UNL     1      14.121   7.576  16.870  1.00  0.00     0.039 C 
ATOM      5  C   UNL     1      13.278   6.324  17.259  1.00  0.00    -0.000 C 
ATOM      6  C   UNL     1      13.671   5.218  16.210  1.00  0.00     0.017 C 
ATOM      7  C   UNL     1      15.197   5.031  15.972  1.00  0.00     0.031 C 
ATOM      8  C   UNL     1      13.622   5.926  18.721  1.00  0.00    -0.070 C 
ATOM      9  C   UNL     1      14.190   4.757  19.082  1.00  0.00     0.008 C 
ATOM     10  C   UNL     1      13.237   6.897  19.816  1.00  0.00     0.031 C 
ATOM     11  C   UNL     1      11.737   7.173  19.754  1.00  0.00     0.005 C 
ATOM     12  C   UNL     1      11.308   7.635  18.355  1.00  0.00     0.008 C 
ATOM     13  C   UNL     1      11.707   6.642  17.213  1.00  0.00    -0.026 C 
ATOM     14  C   UNL     1      11.250   7.303  15.882  1.00  0.00     0.012 C 
ATOM     15  C   UNL     1      10.876   5.340  17.379  1.00  0.00     0.012 C 
ENDROOT
TORSDOF 0
ENDMDL
MODEL 2
REMARK VINA RESULT:    -4.890      0.948      2.565
REMARK INTER + INTRA:          -4.890
REMARK INTER:                  -4.890
REMARK INTRA:                   0.000
REMARK UNBOUND:                 0.000
REMARK SMILES C=C1CCCC(C)(C)[C@@]12CC=C(C)CC2
REMARK SMILES IDX 13 1 12 2 11 3 10 4 9 5 15 6 14 7 2 8 1 9 3 10 4 11 5 12
REMARK SMILES IDX 6 13 7 14 8 15
REMARK H PARENT
REMARK Flexibility Score: inf
ROOT
ATOM      1  C   UNL     1      17.503   5.787  16.648  1.00  0.00     0.039 C 
ATOM      2  C   UNL     1      16.032   5.699  16.954  1.00  0.00    -0.077 C 
ATOM      3  C   UNL     1      15.156   5.625  15.938  1.00  0.00    -0.027 C 
ATOM      4  C   UNL     1      13.686   5.495  16.197  1.00  0.00     0.039 C 
ATOM      5  C   UNL     1      13.245   6.405  17.384  1.00  0.00    -0.000 C 
ATOM      6  C   UNL     1      14.052   5.881  18.629  1.00  0.00     0.017 C 
ATOM      7  C   UNL     1      15.575   5.662  18.399  1.00  0.00     0.031 C 
ATOM      8  C   UNL     1      13.567   7.882  17.026  1.00  0.00    -0.070 C 
ATOM      9  C   UNL     1      14.437   8.659  17.703  1.00  0.00     0.008 C 
ATOM     10  C   UNL     1      12.805   8.501  15.875  1.00  0.00     0.031 C 
ATOM     11  C   UNL     1      11.305   8.409  16.142  1.00  0.00     0.005 C 
ATOM     12  C   UNL     1      10.877   6.967  16.446  1.00  0.00     0.008 C 
ATOM     13  C   UNL     1      11.663   6.313  17.630  1.00  0.00    -0.026 C 
ATOM     14  C   UNL     1      11.140   4.853  17.745  1.00  0.00     0.012 C 
ATOM     15  C   UNL     1      11.268   7.038  18.947  1.00  0.00     0.012 C 
ENDROOT
TORSDOF 0
ENDMDL
MODEL 3
REMARK VINA RESULT:    -4.775      1.441      2.863
REMARK INTER + INTRA:          -4.775
REMARK INTER:                  -4.775
REMARK INTRA:                   0.000
REMARK UNBOUND:                 0.000
REMARK SMILES C=C1CCCC(C)(C)[C@@]12CC=C(C)CC2
REMARK SMILES IDX 13 1 12 2 11 3 10 4 9 5 15 6 14 7 2 8 1 9 3 10 4 11 5 12
REMARK SMILES IDX 6 13 7 14 8 15
REMARK H PARENT
REMARK Flexibility Score: inf
ROOT
ATOM      1  C   UNL     1      15.990   2.416  18.492  1.00  0.00     0.039 C 
ATOM      2  C   UNL     1      14.844   3.293  18.064  1.00  0.00    -0.077 C 
ATOM      3  C   UNL     1      14.845   3.812  16.826  1.00  0.00    -0.027 C 
ATOM      4  C   UNL     1      13.705   4.657  16.344  1.00  0.00     0.039 C 
ATOM      5  C   UNL     1      13.214   5.624  17.464  1.00  0.00    -0.000 C 
ATOM      6  C   UNL     1      12.726   4.690  18.633  1.00  0.00     0.017 C 
ATOM      7  C   UNL     1      13.701   3.544  19.029  1.00  0.00     0.031 C 
ATOM      8  C   UNL     1      14.393   6.549  17.875  1.00  0.00    -0.070 C 
ATOM      9  C   UNL     1      14.951   6.576  19.103  1.00  0.00     0.008 C 
ATOM     10  C   UNL     1      14.904   7.527  16.840  1.00  0.00     0.031 C 
ATOM     11  C   UNL     1      13.761   8.420  16.366  1.00  0.00     0.005 C 
ATOM     12  C   UNL     1      12.566   7.590  15.878  1.00  0.00     0.008 C 
ATOM     13  C   UNL     1      12.032   6.570  16.938  1.00  0.00    -0.026 C 
ATOM     14  C   UNL     1      10.877   5.790  16.248  1.00  0.00     0.012 C 
ATOM     15  C   UNL     1      11.399   7.366  18.114  1.00  0.00     0.012 C 
ENDROOT
TORSDOF 0
ENDMDL
MODEL 4
REMARK VINA RESULT:    -4.689      1.470      2.074
REMARK INTER + INTRA:          -4.689
REMARK INTER:                  -4.689
REMARK INTRA:                   0.000
REMARK UNBOUND:                 0.000
REMARK SMILES C=C1CCCC(C)(C)[C@@]12CC=C(C)CC2
REMARK SMILES IDX 13 1 12 2 11 3 10 4 9 5 15 6 14 7 2 8 1 9 3 10 4 11 5 12
REMARK SMILES IDX 6 13 7 14 8 15
REMARK H PARENT
REMARK Flexibility Score: inf
ROOT
ATOM      1  C   UNL     1      15.627   2.946  18.296  1.00  0.00     0.039 C 
ATOM      2  C   UNL     1      15.015   4.219  17.776  1.00  0.00    -0.077 C 
ATOM      3  C   UNL     1      15.072   5.328  18.531  1.00  0.00    -0.027 C 
ATOM      4  C   UNL     1      14.511   6.626  18.036  1.00  0.00     0.039 C 
ATOM      5  C   UNL     1      13.159   6.404  17.292  1.00  0.00    -0.000 C 
ATOM      6  C   UNL     1      13.507   5.475  16.070  1.00  0.00     0.017 C 
ATOM      7  C   UNL     1      14.377   4.228  16.400  1.00  0.00     0.031 C 
ATOM      8  C   UNL     1      12.148   5.758  18.280  1.00  0.00    -0.070 C 
ATOM      9  C   UNL     1      11.602   4.535  18.123  1.00  0.00     0.008 C 
ATOM     10  C   UNL     1      11.704   6.589  19.464  1.00  0.00     0.031 C 
ATOM     11  C   UNL     1      11.096   7.901  18.974  1.00  0.00     0.005 C 
ATOM     12  C   UNL     1      12.054   8.646  18.035  1.00  0.00     0.008 C 
ATOM     13  C   UNL     1      12.526   7.795  16.809  1.00  0.00    -0.026 C 
ATOM     14  C   UNL     1      13.524   8.687  16.019  1.00  0.00     0.012 C 
ATOM     15  C   UNL     1      11.305   7.551  15.878  1.00  0.00     0.012 C 
ENDROOT
TORSDOF 0
ENDMDL
MODEL 5
REMARK VINA RESULT:    -4.606      1.315      4.164
REMARK INTER + INTRA:          -4.606
REMARK INTER:                  -4.606
REMARK INTRA:                   0.000
REMARK UNBOUND:                 0.000
REMARK SMILES C=C1CCCC(C)(C)[C@@]12CC=C(C)CC2
REMARK SMILES IDX 13 1 12 2 11 3 10 4 9 5 15 6 14 7 2 8 1 9 3 10 4 11 5 12
REMARK SMILES IDX 6 13 7 14 8 15
REMARK H PARENT
REMARK Flexibility Score: inf
ROOT
ATOM      1  C   UNL     1      10.900   8.365  16.047  1.00  0.00     0.039 C 
ATOM      2  C   UNL     1      12.155   7.558  16.236  1.00  0.00    -0.077 C 
ATOM      3  C   UNL     1      12.150   6.255  15.911  1.00  0.00    -0.027 C 
ATOM      4  C   UNL     1      13.389   5.422  16.045  1.00  0.00     0.039 C 
ATOM      5  C   UNL     1      14.158   5.772  17.355  1.00  0.00    -0.000 C 
ATOM      6  C   UNL     1      14.551   7.289  17.212  1.00  0.00     0.017 C 
ATOM      7  C   UNL     1      13.405   8.240  16.757  1.00  0.00     0.031 C 
ATOM      8  C   UNL     1      13.228   5.495  18.568  1.00  0.00    -0.070 C 
ATOM      9  C   UNL     1      12.796   6.438  19.431  1.00  0.00     0.008 C 
ATOM     10  C   UNL     1      12.833   4.058  18.829  1.00  0.00     0.031 C 
ATOM     11  C   UNL     1      14.085   3.204  19.004  1.00  0.00     0.005 C 
ATOM     12  C   UNL     1      15.044   3.363  17.817  1.00  0.00     0.008 C 
ATOM     13  C   UNL     1      15.455   4.846  17.533  1.00  0.00    -0.026 C 
ATOM     14  C   UNL     1      16.366   4.811  16.273  1.00  0.00     0.012 C 
ATOM     15  C   UNL     1      16.334   5.350  18.711  1.00  0.00     0.012 C 
ENDROOT
TORSDOF 0
ENDMDL
MODEL 6
REMARK VINA RESULT:    -4.588      1.543      4.036
REMARK INTER + INTRA:          -4.588
REMARK INTER:                  -4.588
REMARK INTRA:                   0.000
REMARK UNBOUND:                 0.000
REMARK SMILES C=C1CCCC(C)(C)[C@@]12CC=C(C)CC2
REMARK SMILES IDX 13 1 12 2 11 3 10 4 9 5 15 6 14 7 2 8 1 9 3 10 4 11 5 12
REMARK SMILES IDX 6 13 7 14 8 15
REMARK H PARENT
REMARK Flexibility Score: inf
ROOT
ATOM      1  C   UNL     1      12.352   5.214  22.625  1.00  0.00     0.039 C 
ATOM      2  C   UNL     1      12.692   5.934  21.348  1.00  0.00    -0.077 C 
ATOM      3  C   UNL     1      11.758   6.698  20.759  1.00  0.00    -0.027 C 
ATOM      4  C   UNL     1      12.066   7.465  19.509  1.00  0.00     0.039 C 
ATOM      5  C   UNL     1      12.934   6.615  18.532  1.00  0.00    -0.000 C 
ATOM      6  C   UNL     1      14.267   6.317  19.314  1.00  0.00     0.017 C 
ATOM      7  C   UNL     1      14.090   5.805  20.773  1.00  0.00     0.031 C 
ATOM      8  C   UNL     1      12.147   5.329  18.157  1.00  0.00    -0.070 C 
ATOM      9  C   UNL     1      12.548   4.075  18.451  1.00  0.00     0.008 C 
ATOM     10  C   UNL     1      10.875   5.499  17.355  1.00  0.00     0.031 C 
ATOM     11  C   UNL     1      11.180   6.247  16.060  1.00  0.00     0.005 C 
ATOM     12  C   UNL     1      11.906   7.570  16.334  1.00  0.00     0.008 C 
ATOM     13  C   UNL     1      13.220   7.408  17.168  1.00  0.00    -0.026 C 
ATOM     14  C   UNL     1      13.773   8.844  17.393  1.00  0.00     0.012 C 
ATOM     15  C   UNL     1      14.266   6.653  16.301  1.00  0.00     0.012 C 
ENDROOT
TORSDOF 0
ENDMDL
MODEL 7
REMARK VINA RESULT:    -4.483      1.560      4.240
REMARK INTER + INTRA:          -4.483
REMARK INTER:                  -4.483
REMARK INTRA:                   0.000
REMARK UNBOUND:                 0.000
REMARK SMILES C=C1CCCC(C)(C)[C@@]12CC=C(C)CC2
REMARK SMILES IDX 13 1 12 2 11 3 10 4 9 5 15 6 14 7 2 8 1 9 3 10 4 11 5 12
REMARK SMILES IDX 6 13 7 14 8 15
REMARK H PARENT
REMARK Flexibility Score: inf
ROOT
ATOM      1  C   UNL     1      12.395   4.557  22.248  1.00  0.00     0.039 C 
ATOM      2  C   UNL     1      13.227   4.653  20.997  1.00  0.00    -0.077 C 
ATOM      3  C   UNL     1      13.632   5.861  20.573  1.00  0.00    -0.027 C 
ATOM      4  C   UNL     1      14.496   6.000  19.356  1.00  0.00     0.039 C 
ATOM      5  C   UNL     1      14.035   5.025  18.230  1.00  0.00    -0.000 C 
ATOM      6  C   UNL     1      14.201   3.583  18.837  1.00  0.00     0.017 C 
ATOM      7  C   UNL     1      13.615   3.384  20.265  1.00  0.00     0.031 C 
ATOM      8  C   UNL     1      12.566   5.362  17.850  1.00  0.00    -0.070 C 
ATOM      9  C   UNL     1      11.525   4.519  18.005  1.00  0.00     0.008 C 
ATOM     10  C   UNL     1      12.304   6.706  17.208  1.00  0.00     0.031 C 
ATOM     11  C   UNL     1      13.150   6.848  15.945  1.00  0.00     0.005 C 
ATOM     12  C   UNL     1      14.635   6.593  16.234  1.00  0.00     0.008 C 
ATOM     13  C   UNL     1      14.919   5.208  16.905  1.00  0.00    -0.026 C 
ATOM     14  C   UNL     1      16.450   5.160  17.173  1.00  0.00     0.012 C 
ATOM     15  C   UNL     1      14.606   4.087  15.875  1.00  0.00     0.012 C 
ENDROOT
TORSDOF 0
ENDMDL
MODEL 8
REMARK VINA RESULT:    -4.005      1.521      3.374
REMARK INTER + INTRA:          -4.005
REMARK INTER:                  -4.005
REMARK INTRA:                   0.000
REMARK UNBOUND:                 0.000
REMARK SMILES C=C1CCCC(C)(C)[C@@]12CC=C(C)CC2
REMARK SMILES IDX 13 1 12 2 11 3 10 4 9 5 15 6 14 7 2 8 1 9 3 10 4 11 5 12
REMARK SMILES IDX 6 13 7 14 8 15
REMARK H PARENT
REMARK Flexibility Score: inf
ROOT
ATOM      1  C   UNL     1      15.143   2.603  18.124  1.00  0.00     0.039 C 
ATOM      2  C   UNL     1      14.401   3.865  18.474  1.00  0.00    -0.077 C 
ATOM      3  C   UNL     1      13.065   3.897  18.338  1.00  0.00    -0.027 C 
ATOM      4  C   UNL     1      12.282   5.118  18.713  1.00  0.00     0.039 C 
ATOM      5  C   UNL     1      13.022   6.415  18.264  1.00  0.00    -0.000 C 
ATOM      6  C   UNL     1      14.389   6.402  19.042  1.00  0.00     0.017 C 
ATOM      7  C   UNL     1      15.173   5.059  19.000  1.00  0.00     0.031 C 
ATOM      8  C   UNL     1      13.198   6.380  16.721  1.00  0.00    -0.070 C 
ATOM      9  C   UNL     1      14.389   6.351  16.089  1.00  0.00     0.008 C 
ATOM     10  C   UNL     1      11.945   6.443  15.875  1.00  0.00     0.031 C 
ATOM     11  C   UNL     1      11.155   7.702  16.219  1.00  0.00     0.005 C 
ATOM     12  C   UNL     1      10.875   7.795  17.725  1.00  0.00     0.008 C 
ATOM     13  C   UNL     1      12.163   7.724  18.611  1.00  0.00    -0.026 C 
ATOM     14  C   UNL     1      11.678   7.770  20.088  1.00  0.00     0.012 C 
ATOM     15  C   UNL     1      12.999   9.011  18.371  1.00  0.00     0.012 C 
ENDROOT
TORSDOF 0
ENDMDL
