MODEL 1
REMARK VINA RESULT:     0.000      0.000      0.000
REMARK INTER + INTRA:          -0.318
REMARK INTER:                   0.000
REMARK INTRA:                  -0.318
REMARK UNBOUND:                -0.318
REMARK SMILES O=c1cc(-c2ccc(O)c(O)c2)oc2cc(O)cc(O)c12
REMARK SMILES IDX 4 1 3 2 2 3 1 4 21 5 19 6 18 7 16 8 15 9 14 10 13 11 5 12
REMARK SMILES IDX 6 13 7 14 8 15 12 16 10 17 9 18 11 20 20 22 17 24
REMARK H PARENT 9 19 11 21 20 23 17 25
REMARK Flexibility Score: inf
ROOT
ATOM      1  C   UNL     1       3.268  52.896  36.719  1.00  0.00     0.138 A 
ATOM      2  C   UNL     1       2.658  51.664  36.430  1.00  0.00     0.100 A 
ATOM      3  C   UNL     1       2.530  51.257  35.101  1.00  0.00     0.197 A 
ATOM      4  O   UNL     1       1.982  50.149  34.851  1.00  0.00    -0.289 OA
ATOM      5  C   UNL     1       3.017  52.084  34.070  1.00  0.00     0.107 A 
ATOM      6  C   UNL     1       2.927  51.747  32.698  1.00  0.00     0.134 A 
ATOM      7  C   UNL     1       3.441  52.624  31.732  1.00  0.00     0.093 A 
ATOM      8  C   UNL     1       4.044  53.826  32.109  1.00  0.00     0.123 A 
ATOM      9  C   UNL     1       4.137  54.165  33.463  1.00  0.00     0.094 A 
ATOM     10  C   UNL     1       3.629  53.306  34.442  1.00  0.00     0.146 A 
ATOM     11  O   UNL     1       3.727  53.650  35.722  1.00  0.00    -0.456 OA
ENDROOT
BRANCH   1  12
ATOM     12  C   UNL     1       3.433  53.381  38.113  1.00  0.00     0.021 A 
ATOM     13  C   UNL     1       2.977  52.588  39.180  1.00  0.00     0.016 A 
ATOM     14  C   UNL     1       3.127  53.018  40.500  1.00  0.00     0.051 A 
ATOM     15  C   UNL     1       3.745  54.244  40.779  1.00  0.00     0.157 A 
ATOM     16  C   UNL     1       4.066  54.607  38.400  1.00  0.00     0.062 A 
ATOM     17  C   UNL     1       4.219  55.039  39.723  1.00  0.00     0.158 A 
BRANCH  15  18
ATOM     18  O   UNL     1       3.893  54.671  42.098  1.00  0.00    -0.504 OA
ATOM     19  H   UNL     1       3.442  55.514  42.435  1.00  0.00     0.293 HD
ENDBRANCH  15  18
BRANCH  17  20
ATOM     20  O   UNL     1       4.850  56.259  39.967  1.00  0.00    -0.504 OA
ATOM     21  H   UNL     1       4.327  57.120  40.086  1.00  0.00     0.293 HD
ENDBRANCH  17  20
ENDBRANCH   1  12
BRANCH   6  22
ATOM     22  O   UNL     1       2.331  50.553  32.291  1.00  0.00    -0.507 OA
ATOM     23  H   UNL     1       2.245  50.307  31.311  1.00  0.00     0.293 HD
ENDBRANCH   6  22
BRANCH   8  24
ATOM     24  O   UNL     1       4.548  54.679  31.129  1.00  0.00    -0.508 OA
ATOM     25  H   UNL     1       4.138  55.589  30.957  1.00  0.00     0.293 HD
ENDBRANCH   8  24
TORSDOF 5
ENDMDL
MODEL 2
REMARK VINA RESULT:     0.000      6.408      9.781
REMARK INTER + INTRA:          -0.318
REMARK INTER:                   0.000
REMARK INTRA:                  -0.318
REMARK UNBOUND:                -0.318
REMARK SMILES O=c1cc(-c2ccc(O)c(O)c2)oc2cc(O)cc(O)c12
REMARK SMILES IDX 4 1 3 2 2 3 1 4 21 5 19 6 18 7 16 8 15 9 14 10 13 11 5 12
REMARK SMILES IDX 6 13 7 14 8 15 12 16 10 17 9 18 11 20 20 22 17 24
REMARK H PARENT 9 19 11 21 20 23 17 25
REMARK Flexibility Score: inf
ROOT
ATOM      1  C   UNL     1       9.167  51.173  31.352  1.00  0.00     0.138 A 
ATOM      2  C   UNL     1       9.101  52.575  31.318  1.00  0.00     0.100 A 
ATOM      3  C   UNL     1       8.062  53.230  31.980  1.00  0.00     0.197 A 
ATOM      4  O   UNL     1       8.012  54.490  31.944  1.00  0.00    -0.289 OA
ATOM      5  C   UNL     1       7.097  52.477  32.677  1.00  0.00     0.107 A 
ATOM      6  C   UNL     1       6.013  53.061  33.375  1.00  0.00     0.134 A 
ATOM      7  C   UNL     1       5.097  52.241  34.049  1.00  0.00     0.093 A 
ATOM      8  C   UNL     1       5.245  50.852  34.043  1.00  0.00     0.123 A 
ATOM      9  C   UNL     1       6.315  50.268  33.356  1.00  0.00     0.094 A 
ATOM     10  C   UNL     1       7.238  51.068  32.676  1.00  0.00     0.146 A 
ATOM     11  O   UNL     1       8.246  50.490  32.029  1.00  0.00    -0.456 OA
ENDROOT
BRANCH   1  12
ATOM     12  C   UNL     1      10.249  50.421  30.668  1.00  0.00     0.021 A 
ATOM     13  C   UNL     1      11.245  51.126  29.969  1.00  0.00     0.016 A 
ATOM     14  C   UNL     1      12.278  50.442  29.323  1.00  0.00     0.051 A 
ATOM     15  C   UNL     1      12.341  49.044  29.371  1.00  0.00     0.157 A 
ATOM     16  C   UNL     1      10.325  49.015  30.724  1.00  0.00     0.062 A 
ATOM     17  C   UNL     1      11.360  48.329  30.079  1.00  0.00     0.158 A 
BRANCH  15  18
ATOM     18  O   UNL     1      13.372  48.365  28.725  1.00  0.00    -0.504 OA
ATOM     19  H   UNL     1      13.228  47.448  28.316  1.00  0.00     0.293 HD
ENDBRANCH  15  18
BRANCH  17  20
ATOM     20  O   UNL     1      11.400  46.937  30.156  1.00  0.00    -0.504 OA
ATOM     21  H   UNL     1      12.008  46.382  29.564  1.00  0.00     0.293 HD
ENDBRANCH  17  20
ENDBRANCH   1  12
BRANCH   6  22
ATOM     22  O   UNL     1       5.840  54.446  33.400  1.00  0.00    -0.507 OA
ATOM     23  H   UNL     1       6.162  55.009  34.178  1.00  0.00     0.293 HD
ENDBRANCH   6  22
BRANCH   8  24
ATOM     24  O   UNL     1       4.322  50.059  34.721  1.00  0.00    -0.508 OA
ATOM     25  H   UNL     1       3.328  50.130  34.539  1.00  0.00     0.293 HD
ENDBRANCH   8  24
TORSDOF 5
ENDMDL
MODEL 3
REMARK VINA RESULT:     0.000      4.290      4.974
REMARK INTER + INTRA:          -0.318
REMARK INTER:                   0.000
REMARK INTRA:                  -0.318
REMARK UNBOUND:                -0.318
REMARK SMILES O=c1cc(-c2ccc(O)c(O)c2)oc2cc(O)cc(O)c12
REMARK SMILES IDX 4 1 3 2 2 3 1 4 21 5 19 6 18 7 16 8 15 9 14 10 13 11 5 12
REMARK SMILES IDX 6 13 7 14 8 15 12 16 10 17 9 18 11 20 20 22 17 24
REMARK H PARENT 9 19 11 21 20 23 17 25
REMARK Flexibility Score: inf
ROOT
ATOM      1  C   UNL     1       6.971  51.998  35.821  1.00  0.00     0.138 A 
ATOM      2  C   UNL     1       7.337  52.015  34.465  1.00  0.00     0.100 A 
ATOM      3  C   UNL     1       6.402  52.409  33.506  1.00  0.00     0.197 A 
ATOM      4  O   UNL     1       6.740  52.422  32.292  1.00  0.00    -0.289 OA
ATOM      5  C   UNL     1       5.107  52.788  33.912  1.00  0.00     0.107 A 
ATOM      6  C   UNL     1       4.100  53.199  33.007  1.00  0.00     0.134 A 
ATOM      7  C   UNL     1       2.837  53.566  33.491  1.00  0.00     0.093 A 
ATOM      8  C   UNL     1       2.561  53.532  34.860  1.00  0.00     0.123 A 
ATOM      9  C   UNL     1       3.552  53.127  35.761  1.00  0.00     0.094 A 
ATOM     10  C   UNL     1       4.818  52.755  35.298  1.00  0.00     0.146 A 
ATOM     11  O   UNL     1       5.743  52.372  36.173  1.00  0.00    -0.456 OA
ENDROOT
BRANCH   1  12
ATOM     12  C   UNL     1       7.923  51.590  36.885  1.00  0.00     0.021 A 
ATOM     13  C   UNL     1       9.232  51.216  36.535  1.00  0.00     0.016 A 
ATOM     14  C   UNL     1      10.148  50.835  37.518  1.00  0.00     0.051 A 
ATOM     15  C   UNL     1       9.777  50.831  38.869  1.00  0.00     0.157 A 
ATOM     16  C   UNL     1       7.559  51.597  38.247  1.00  0.00     0.062 A 
ATOM     17  C   UNL     1       8.477  51.217  39.233  1.00  0.00     0.158 A 
BRANCH  15  18
ATOM     18  O   UNL     1      10.693  50.449  39.847  1.00  0.00    -0.504 OA
ATOM     19  H   UNL     1      11.608  50.085  39.604  1.00  0.00     0.293 HD
ENDBRANCH  15  18
BRANCH  17  20
ATOM     20  O   UNL     1       8.078  51.234  40.569  1.00  0.00    -0.504 OA
ATOM     21  H   UNL     1       8.457  51.899  41.235  1.00  0.00     0.293 HD
ENDBRANCH  17  20
ENDBRANCH   1  12
BRANCH   6  22
ATOM     22  O   UNL     1       4.346  53.245  31.634  1.00  0.00    -0.507 OA
ATOM     23  H   UNL     1       4.564  52.409  31.103  1.00  0.00     0.293 HD
ENDBRANCH   6  22
BRANCH   8  24
ATOM     24  O   UNL     1       1.298  53.901  35.316  1.00  0.00    -0.508 OA
ATOM     25  H   UNL     1       0.514  53.261  35.282  1.00  0.00     0.293 HD
ENDBRANCH   8  24
TORSDOF 5
ENDMDL
MODEL 4
REMARK VINA RESULT:     0.000      6.801      8.029
REMARK INTER + INTRA:          -0.318
REMARK INTER:                   0.000
REMARK INTRA:                  -0.318
REMARK UNBOUND:                -0.318
REMARK SMILES O=c1cc(-c2ccc(O)c(O)c2)oc2cc(O)cc(O)c12
REMARK SMILES IDX 4 1 3 2 2 3 1 4 21 5 19 6 18 7 16 8 15 9 14 10 13 11 5 12
REMARK SMILES IDX 6 13 7 14 8 15 12 16 10 17 9 18 11 20 20 22 17 24
REMARK H PARENT 9 19 11 21 20 23 17 25
REMARK Flexibility Score: inf
ROOT
ATOM      1  C   UNL     1       6.668  46.568  35.072  1.00  0.00     0.138 A 
ATOM      2  C   UNL     1       5.332  46.404  35.475  1.00  0.00     0.100 A 
ATOM      3  C   UNL     1       4.311  46.963  34.705  1.00  0.00     0.197 A 
ATOM      4  O   UNL     1       3.115  46.811  35.074  1.00  0.00    -0.289 OA
ATOM      5  C   UNL     1       4.633  47.680  33.536  1.00  0.00     0.107 A 
ATOM      6  C   UNL     1       3.660  48.278  32.701  1.00  0.00     0.134 A 
ATOM      7  C   UNL     1       4.062  48.971  31.549  1.00  0.00     0.093 A 
ATOM      8  C   UNL     1       5.415  49.074  31.217  1.00  0.00     0.123 A 
ATOM      9  C   UNL     1       6.382  48.484  32.038  1.00  0.00     0.094 A 
ATOM     10  C   UNL     1       6.002  47.791  33.191  1.00  0.00     0.146 A 
ATOM     11  O   UNL     1       6.939  47.241  33.956  1.00  0.00    -0.456 OA
ENDROOT
BRANCH   1  12
ATOM     12  C   UNL     1       7.796  45.994  35.849  1.00  0.00     0.021 A 
ATOM     13  C   UNL     1       7.529  45.259  37.017  1.00  0.00     0.016 A 
ATOM     14  C   UNL     1       8.572  44.703  37.761  1.00  0.00     0.051 A 
ATOM     15  C   UNL     1       9.900  44.863  37.347  1.00  0.00     0.157 A 
ATOM     16  C   UNL     1       9.134  46.140  35.430  1.00  0.00     0.062 A 
ATOM     17  C   UNL     1      10.181  45.583  36.174  1.00  0.00     0.158 A 
BRANCH  15  18
ATOM     18  O   UNL     1      10.940  44.308  38.092  1.00  0.00    -0.504 OA
ATOM     19  H   UNL     1      11.903  44.366  37.782  1.00  0.00     0.293 HD
ENDBRANCH  15  18
BRANCH  17  20
ATOM     20  O   UNL     1      11.491  45.751  35.728  1.00  0.00    -0.504 OA
ATOM     21  H   UNL     1      12.277  45.784  36.367  1.00  0.00     0.293 HD
ENDBRANCH  17  20
ENDBRANCH   1  12
BRANCH   6  22
ATOM     22  O   UNL     1       2.301  48.191  33.007  1.00  0.00    -0.507 OA
ATOM     23  H   UNL     1       1.959  47.588  33.746  1.00  0.00     0.293 HD
ENDBRANCH   6  22
BRANCH   8  24
ATOM     24  O   UNL     1       5.789  49.767  30.068  1.00  0.00    -0.508 OA
ATOM     25  H   UNL     1       5.330  50.628  29.795  1.00  0.00     0.293 HD
ENDBRANCH   8  24
TORSDOF 5
ENDMDL
MODEL 5
REMARK VINA RESULT:     0.000      6.036      7.949
REMARK INTER + INTRA:          -0.318
REMARK INTER:                   0.000
REMARK INTRA:                  -0.318
REMARK UNBOUND:                -0.318
REMARK SMILES O=c1cc(-c2ccc(O)c(O)c2)oc2cc(O)cc(O)c12
REMARK SMILES IDX 4 1 3 2 2 3 1 4 21 5 19 6 18 7 16 8 15 9 14 10 13 11 5 12
REMARK SMILES IDX 6 13 7 14 8 15 12 16 10 17 9 18 11 20 20 22 17 24
REMARK H PARENT 9 19 11 21 20 23 17 25
REMARK Flexibility Score: inf
ROOT
ATOM      1  C   UNL     1       4.583  46.922  33.245  1.00  0.00     0.138 A 
ATOM      2  C   UNL     1       3.459  47.626  32.781  1.00  0.00     0.100 A 
ATOM      3  C   UNL     1       3.006  47.413  31.478  1.00  0.00     0.197 A 
ATOM      4  O   UNL     1       1.996  48.049  31.070  1.00  0.00    -0.289 OA
ATOM      5  C   UNL     1       3.678  46.494  30.649  1.00  0.00     0.107 A 
ATOM      6  C   UNL     1       3.286  46.220  29.317  1.00  0.00     0.134 A 
ATOM      7  C   UNL     1       4.005  45.286  28.558  1.00  0.00     0.093 A 
ATOM      8  C   UNL     1       5.105  44.621  29.104  1.00  0.00     0.123 A 
ATOM      9  C   UNL     1       5.499  44.886  30.420  1.00  0.00     0.094 A 
ATOM     10  C   UNL     1       4.796  45.815  31.193  1.00  0.00     0.146 A 
ATOM     11  O   UNL     1       5.189  46.052  32.440  1.00  0.00    -0.456 OA
ENDROOT
BRANCH   1  12
ATOM     12  C   UNL     1       5.109  47.106  34.621  1.00  0.00     0.021 A 
ATOM     13  C   UNL     1       4.467  48.001  35.493  1.00  0.00     0.016 A 
ATOM     14  C   UNL     1       4.939  48.186  36.795  1.00  0.00     0.051 A 
ATOM     15  C   UNL     1       6.053  47.473  37.252  1.00  0.00     0.157 A 
ATOM     16  C   UNL     1       6.223  46.381  35.091  1.00  0.00     0.062 A 
ATOM     17  C   UNL     1       6.696  46.564  36.396  1.00  0.00     0.158 A 
BRANCH  15  18
ATOM     18  O   UNL     1       6.523  47.660  38.552  1.00  0.00    -0.504 OA
ATOM     19  H   UNL     1       6.072  48.307  39.189  1.00  0.00     0.293 HD
ENDBRANCH  15  18
BRANCH  17  20
ATOM     20  O   UNL     1       7.801  45.829  36.823  1.00  0.00    -0.504 OA
ATOM     21  H   UNL     1       8.155  45.891  37.771  1.00  0.00     0.293 HD
ENDBRANCH  17  20
ENDBRANCH   1  12
BRANCH   6  22
ATOM     22  O   UNL     1       2.190  46.868  28.745  1.00  0.00    -0.507 OA
ATOM     23  H   UNL     1       1.673  47.582  29.245  1.00  0.00     0.293 HD
ENDBRANCH   6  22
BRANCH   8  24
ATOM     24  O   UNL     1       5.804  43.697  28.329  1.00  0.00    -0.508 OA
ATOM     25  H   UNL     1       5.376  42.831  28.023  1.00  0.00     0.293 HD
ENDBRANCH   8  24
TORSDOF 5
ENDMDL
MODEL 6
REMARK VINA RESULT:     0.000      7.176     10.106
REMARK INTER + INTRA:          -0.318
REMARK INTER:                   0.000
REMARK INTRA:                  -0.318
REMARK UNBOUND:                -0.318
REMARK SMILES O=c1cc(-c2ccc(O)c(O)c2)oc2cc(O)cc(O)c12
REMARK SMILES IDX 4 1 3 2 2 3 1 4 21 5 19 6 18 7 16 8 15 9 14 10 13 11 5 12
REMARK SMILES IDX 6 13 7 14 8 15 12 16 10 17 9 18 11 20 20 22 17 24
REMARK H PARENT 9 19 11 21 20 23 17 25
REMARK Flexibility Score: inf
ROOT
ATOM      1  C   UNL     1       5.818  45.944  34.153  1.00  0.00     0.138 A 
ATOM      2  C   UNL     1       6.738  45.111  34.811  1.00  0.00     0.100 A 
ATOM      3  C   UNL     1       6.425  44.606  36.074  1.00  0.00     0.197 A 
ATOM      4  O   UNL     1       7.257  43.859  36.657  1.00  0.00    -0.289 OA
ATOM      5  C   UNL     1       5.191  44.935  36.668  1.00  0.00     0.107 A 
ATOM      6  C   UNL     1       4.795  44.467  37.944  1.00  0.00     0.134 A 
ATOM      7  C   UNL     1       3.546  44.835  38.463  1.00  0.00     0.093 A 
ATOM      8  C   UNL     1       2.686  45.659  37.734  1.00  0.00     0.123 A 
ATOM      9  C   UNL     1       3.070  46.125  36.472  1.00  0.00     0.094 A 
ATOM     10  C   UNL     1       4.312  45.771  35.937  1.00  0.00     0.146 A 
ATOM     11  O   UNL     1       4.656  46.227  34.736  1.00  0.00    -0.456 OA
ENDROOT
BRANCH   1  12
ATOM     12  C   UNL     1       6.096  46.510  32.808  1.00  0.00     0.021 A 
ATOM     13  C   UNL     1       7.307  46.202  32.164  1.00  0.00     0.016 A 
ATOM     14  C   UNL     1       7.588  46.715  30.896  1.00  0.00     0.051 A 
ATOM     15  C   UNL     1       6.661  47.537  30.243  1.00  0.00     0.157 A 
ATOM     16  C   UNL     1       5.160  47.326  32.140  1.00  0.00     0.062 A 
ATOM     17  C   UNL     1       5.440  47.840  30.868  1.00  0.00     0.158 A 
BRANCH  15  18
ATOM     18  O   UNL     1       6.945  48.049  28.978  1.00  0.00    -0.504 OA
ATOM     19  H   UNL     1       7.822  48.517  28.781  1.00  0.00     0.293 HD
ENDBRANCH  15  18
BRANCH  17  20
ATOM     20  O   UNL     1       4.490  48.646  30.241  1.00  0.00    -0.504 OA
ATOM     21  H   UNL     1       4.250  48.532  29.263  1.00  0.00     0.293 HD
ENDBRANCH  17  20
ENDBRANCH   1  12
BRANCH   6  22
ATOM     22  O   UNL     1       5.633  43.641  38.695  1.00  0.00    -0.507 OA
ATOM     23  H   UNL     1       6.011  42.779  38.318  1.00  0.00     0.293 HD
ENDBRANCH   6  22
BRANCH   8  24
ATOM     24  O   UNL     1       1.450  46.011  38.273  1.00  0.00    -0.508 OA
ATOM     25  H   UNL     1       0.590  45.591  37.943  1.00  0.00     0.293 HD
ENDBRANCH   8  24
TORSDOF 5
ENDMDL
MODEL 7
REMARK VINA RESULT:     0.000      6.030      7.545
REMARK INTER + INTRA:          -0.318
REMARK INTER:                   0.000
REMARK INTRA:                  -0.318
REMARK UNBOUND:                -0.318
REMARK SMILES O=c1cc(-c2ccc(O)c(O)c2)oc2cc(O)cc(O)c12
REMARK SMILES IDX 4 1 3 2 2 3 1 4 21 5 19 6 18 7 16 8 15 9 14 10 13 11 5 12
REMARK SMILES IDX 6 13 7 14 8 15 12 16 10 17 9 18 11 20 20 22 17 24
REMARK H PARENT 9 19 11 21 20 23 17 25
REMARK Flexibility Score: inf
ROOT
ATOM      1  C   UNL     1       4.328  46.853  34.404  1.00  0.00     0.138 A 
ATOM      2  C   UNL     1       3.801  45.900  33.518  1.00  0.00     0.100 A 
ATOM      3  C   UNL     1       2.449  45.956  33.175  1.00  0.00     0.197 A 
ATOM      4  O   UNL     1       1.984  45.096  32.378  1.00  0.00    -0.289 OA
ATOM      5  C   UNL     1       1.635  46.969  33.718  1.00  0.00     0.107 A 
ATOM      6  C   UNL     1       0.256  47.097  33.424  1.00  0.00     0.134 A 
ATOM      7  C   UNL     1      -0.485  48.137  34.002  1.00  0.00     0.093 A 
ATOM      8  C   UNL     1       0.124  49.051  34.865  1.00  0.00     0.123 A 
ATOM      9  C   UNL     1       1.487  48.931  35.160  1.00  0.00     0.094 A 
ATOM     10  C   UNL     1       2.243  47.899  34.595  1.00  0.00     0.146 A 
ATOM     11  O   UNL     1       3.535  47.805  34.892  1.00  0.00    -0.456 OA
ENDROOT
BRANCH   1  12
ATOM     12  C   UNL     1       5.759  46.845  34.803  1.00  0.00     0.021 A 
ATOM     13  C   UNL     1       6.618  45.864  34.279  1.00  0.00     0.016 A 
ATOM     14  C   UNL     1       7.968  45.839  34.634  1.00  0.00     0.051 A 
ATOM     15  C   UNL     1       8.488  46.800  35.511  1.00  0.00     0.157 A 
ATOM     16  C   UNL     1       6.290  47.817  35.675  1.00  0.00     0.062 A 
ATOM     17  C   UNL     1       7.644  47.795  36.030  1.00  0.00     0.158 A 
BRANCH  15  18
ATOM     18  O   UNL     1       9.836  46.772  35.864  1.00  0.00    -0.504 OA
ATOM     19  H   UNL     1      10.561  46.611  35.174  1.00  0.00     0.293 HD
ENDBRANCH  15  18
BRANCH  17  20
ATOM     20  O   UNL     1       8.131  48.773  36.897  1.00  0.00    -0.504 OA
ATOM     21  H   UNL     1       9.086  49.109  36.845  1.00  0.00     0.293 HD
ENDBRANCH  17  20
ENDBRANCH   1  12
BRANCH   6  22
ATOM     22  O   UNL     1      -0.379  46.199  32.564  1.00  0.00    -0.507 OA
ATOM     23  H   UNL     1      -0.971  45.454  32.914  1.00  0.00     0.293 HD
ENDBRANCH   6  22
BRANCH   8  24
ATOM     24  O   UNL     1      -0.634  50.076  35.427  1.00  0.00    -0.508 OA
ATOM     25  H   UNL     1      -1.299  49.897  36.170  1.00  0.00     0.293 HD
ENDBRANCH   8  24
TORSDOF 5
ENDMDL
MODEL 8
REMARK VINA RESULT:     0.000      7.022      9.309
REMARK INTER + INTRA:          -0.318
REMARK INTER:                   0.000
REMARK INTRA:                  -0.318
REMARK UNBOUND:                -0.318
REMARK SMILES O=c1cc(-c2ccc(O)c(O)c2)oc2cc(O)cc(O)c12
REMARK SMILES IDX 4 1 3 2 2 3 1 4 21 5 19 6 18 7 16 8 15 9 14 10 13 11 5 12
REMARK SMILES IDX 6 13 7 14 8 15 12 16 10 17 9 18 11 20 20 22 17 24
REMARK H PARENT 9 19 11 21 20 23 17 25
REMARK Flexibility Score: inf
ROOT
ATOM      1  C   UNL     1       5.407  45.458  33.639  1.00  0.00     0.138 A 
ATOM      2  C   UNL     1       4.728  45.013  32.492  1.00  0.00     0.100 A 
ATOM      3  C   UNL     1       3.364  45.274  32.357  1.00  0.00     0.197 A 
ATOM      4  O   UNL     1       2.764  44.871  31.324  1.00  0.00    -0.289 OA
ATOM      5  C   UNL     1       2.688  45.983  33.370  1.00  0.00     0.107 A 
ATOM      6  C   UNL     1       1.307  46.289  33.312  1.00  0.00     0.134 A 
ATOM      7  C   UNL     1       0.709  47.004  34.360  1.00  0.00     0.093 A 
ATOM      8  C   UNL     1       1.463  47.419  35.460  1.00  0.00     0.123 A 
ATOM      9  C   UNL     1       2.828  47.121  35.523  1.00  0.00     0.094 A 
ATOM     10  C   UNL     1       3.443  46.408  34.490  1.00  0.00     0.146 A 
ATOM     11  O   UNL     1       4.742  46.135  34.573  1.00  0.00    -0.456 OA
ENDROOT
BRANCH   1  12
ATOM     12  C   UNL     1       6.858  45.212  33.836  1.00  0.00     0.021 A 
ATOM     13  C   UNL     1       7.582  44.521  32.850  1.00  0.00     0.016 A 
ATOM     14  C   UNL     1       8.949  44.283  33.009  1.00  0.00     0.051 A 
ATOM     15  C   UNL     1       9.620  44.739  34.151  1.00  0.00     0.157 A 
ATOM     16  C   UNL     1       7.540  45.680  34.977  1.00  0.00     0.062 A 
ATOM     17  C   UNL     1       8.910  45.444  35.138  1.00  0.00     0.158 A 
BRANCH  15  18
ATOM     18  O   UNL     1      10.984  44.499  34.308  1.00  0.00    -0.504 OA
ATOM     19  H   UNL     1      11.401  43.615  34.037  1.00  0.00     0.293 HD
ENDBRANCH  15  18
BRANCH  17  20
ATOM     20  O   UNL     1       9.549  45.921  36.282  1.00  0.00    -0.504 OA
ATOM     21  H   UNL     1      10.523  46.203  36.276  1.00  0.00     0.293 HD
ENDBRANCH  17  20
ENDBRANCH   1  12
BRANCH   6  22
ATOM     22  O   UNL     1       0.529  45.887  32.226  1.00  0.00    -0.507 OA
ATOM     23  H   UNL     1       0.411  44.909  31.987  1.00  0.00     0.293 HD
ENDBRANCH   6  22
BRANCH   8  24
ATOM     24  O   UNL     1       0.844  48.129  36.487  1.00  0.00    -0.508 OA
ATOM     25  H   UNL     1      -0.135  47.995  36.709  1.00  0.00     0.293 HD
ENDBRANCH   8  24
TORSDOF 5
ENDMDL
MODEL 9
REMARK VINA RESULT:     0.000     11.231     12.097
REMARK INTER + INTRA:          -0.318
REMARK INTER:                   0.000
REMARK INTRA:                  -0.318
REMARK UNBOUND:                -0.318
REMARK SMILES O=c1cc(-c2ccc(O)c(O)c2)oc2cc(O)cc(O)c12
REMARK SMILES IDX 4 1 3 2 2 3 1 4 21 5 19 6 18 7 16 8 15 9 14 10 13 11 5 12
REMARK SMILES IDX 6 13 7 14 8 15 12 16 10 17 9 18 11 20 20 22 17 24
REMARK H PARENT 9 19 11 21 20 23 17 25
REMARK Flexibility Score: inf
ROOT
ATOM      1  C   UNL     1      13.428  51.764  31.380  1.00  0.00     0.138 A 
ATOM      2  C   UNL     1      13.235  51.955  30.002  1.00  0.00     0.100 A 
ATOM      3  C   UNL     1      13.122  53.252  29.498  1.00  0.00     0.197 A 
ATOM      4  O   UNL     1      12.949  53.413  28.260  1.00  0.00    -0.289 OA
ATOM      5  C   UNL     1      13.206  54.350  30.377  1.00  0.00     0.107 A 
ATOM      6  C   UNL     1      13.100  55.695  29.949  1.00  0.00     0.134 A 
ATOM      7  C   UNL     1      13.200  56.732  30.887  1.00  0.00     0.093 A 
ATOM      8  C   UNL     1      13.405  56.452  32.240  1.00  0.00     0.123 A 
ATOM      9  C   UNL     1      13.511  55.125  32.670  1.00  0.00     0.094 A 
ATOM     10  C   UNL     1      13.412  54.076  31.751  1.00  0.00     0.146 A 
ATOM     11  O   UNL     1      13.514  52.823  32.183  1.00  0.00    -0.456 OA
ENDROOT
BRANCH   1  12
ATOM     12  C   UNL     1      13.558  50.409  31.973  1.00  0.00     0.021 A 
ATOM     13  C   UNL     1      13.494  49.280  31.139  1.00  0.00     0.016 A 
ATOM     14  C   UNL     1      13.621  47.995  31.671  1.00  0.00     0.051 A 
ATOM     15  C   UNL     1      13.823  47.814  33.045  1.00  0.00     0.157 A 
ATOM     16  C   UNL     1      13.775  50.222  33.353  1.00  0.00     0.062 A 
ATOM     17  C   UNL     1      13.903  48.935  33.888  1.00  0.00     0.158 A 
BRANCH  15  18
ATOM     18  O   UNL     1      13.948  46.531  33.574  1.00  0.00    -0.504 OA
ATOM     19  H   UNL     1      13.557  45.723  33.102  1.00  0.00     0.293 HD
ENDBRANCH  15  18
BRANCH  17  20
ATOM     20  O   UNL     1      14.115  48.791  35.259  1.00  0.00    -0.504 OA
ATOM     21  H   UNL     1      14.145  49.588  35.885  1.00  0.00     0.293 HD
ENDBRANCH  17  20
ENDBRANCH   1  12
BRANCH   6  22
ATOM     22  O   UNL     1      12.896  56.005  28.604  1.00  0.00    -0.507 OA
ATOM     23  H   UNL     1      13.472  55.606  27.872  1.00  0.00     0.293 HD
ENDBRANCH   6  22
BRANCH   8  24
ATOM     24  O   UNL     1      13.502  57.501  33.152  1.00  0.00    -0.508 OA
ATOM     25  H   UNL     1      12.757  58.179  33.260  1.00  0.00     0.293 HD
ENDBRANCH   8  24
TORSDOF 5
ENDMDL
