MODEL 1
REMARK VINA RESULT:    -4.744      0.000      0.000
REMARK INTER + INTRA:          -5.277
REMARK INTER:                  -5.160
REMARK INTRA:                  -0.117
REMARK UNBOUND:                -0.117
REMARK SMILES C=C(C)[C@@H]1CC[C@@H](C)C[C@H]1O
REMARK SMILES IDX 8 1 7 2 6 3 5 4 4 5 10 6 9 7 11 8 2 10 1 11 3 12
REMARK H PARENT 11 9
REMARK Flexibility Score: inf
ROOT
ATOM      1  C   UNL     1      10.056  -9.546  28.646  1.00  0.00     0.008 C 
ATOM      2  C   UNL     1      10.200  -8.209  27.908  1.00  0.00    -0.012 C 
ATOM      3  C   UNL     1       8.834  -7.726  27.406  1.00  0.00     0.004 C 
ATOM      4  C   UNL     1       8.968  -6.353  26.749  1.00  0.00     0.011 C 
ATOM      5  C   UNL     1      10.012  -6.307  25.597  1.00  0.00     0.043 C 
ATOM      6  C   UNL     1      10.920  -7.572  25.458  1.00  0.00     0.121 C 
ATOM      7  C   UNL     1      11.261  -8.308  26.780  1.00  0.00     0.035 C 
ENDROOT
BRANCH   6   8
ATOM      8  O   UNL     1      10.385  -8.473  24.517  1.00  0.00    -0.392 OA
ATOM      9  H   UNL     1      10.826  -8.309  23.646  1.00  0.00     0.210 HD
ENDBRANCH   6   8
BRANCH   5  10
ATOM     10  C   UNL     1      10.843  -5.025  25.661  1.00  0.00    -0.075 C 
ATOM     11  C   UNL     1      12.020  -4.973  26.304  1.00  0.00     0.008 C 
ATOM     12  C   UNL     1      10.363  -3.767  24.988  1.00  0.00     0.039 C 
ENDBRANCH   5  10
TORSDOF 2
ENDMDL
MODEL 2
REMARK VINA RESULT:    -4.627      2.305      3.967
REMARK INTER + INTRA:          -5.150
REMARK INTER:                  -4.981
REMARK INTRA:                  -0.169
REMARK UNBOUND:                -0.117
REMARK SMILES C=C(C)[C@@H]1CC[C@@H](C)C[C@H]1O
REMARK SMILES IDX 8 1 7 2 6 3 5 4 4 5 10 6 9 7 11 8 2 10 1 11 3 12
REMARK H PARENT 11 9
REMARK Flexibility Score: inf
ROOT
ATOM      1  C   UNL     1       7.190  -7.241  28.498  1.00  0.00     0.008 C 
ATOM      2  C   UNL     1       8.331  -8.061  27.882  1.00  0.00    -0.012 C 
ATOM      3  C   UNL     1       9.138  -8.762  28.982  1.00  0.00     0.004 C 
ATOM      4  C   UNL     1      10.218  -9.647  28.361  1.00  0.00     0.011 C 
ATOM      5  C   UNL     1      11.172  -8.890  27.394  1.00  0.00     0.043 C 
ATOM      6  C   UNL     1      10.738  -7.436  27.019  1.00  0.00     0.121 C 
ATOM      7  C   UNL     1       9.208  -7.183  26.952  1.00  0.00     0.035 C 
ENDROOT
BRANCH   6   8
ATOM      8  O   UNL     1      11.355  -6.494  27.864  1.00  0.00    -0.392 OA
ATOM      9  H   UNL     1      10.875  -5.633  27.770  1.00  0.00     0.210 HD
ENDBRANCH   6   8
BRANCH   5  10
ATOM     10  C   UNL     1      11.463  -9.727  26.146  1.00  0.00    -0.075 C 
ATOM     11  C   UNL     1      11.234  -9.261  24.910  1.00  0.00     0.008 C 
ATOM     12  C   UNL     1      12.035 -11.113  26.272  1.00  0.00     0.039 C 
ENDBRANCH   5  10
TORSDOF 2
ENDMDL
MODEL 3
REMARK VINA RESULT:    -4.570      1.751      4.027
REMARK INTER + INTRA:          -5.088
REMARK INTER:                  -4.958
REMARK INTRA:                  -0.130
REMARK UNBOUND:                -0.117
REMARK SMILES C=C(C)[C@@H]1CC[C@@H](C)C[C@H]1O
REMARK SMILES IDX 8 1 7 2 6 3 5 4 4 5 10 6 9 7 11 8 2 10 1 11 3 12
REMARK H PARENT 11 9
REMARK Flexibility Score: inf
ROOT
ATOM      1  C   UNL     1       8.993  -4.745  24.882  1.00  0.00     0.008 C 
ATOM      2  C   UNL     1       9.435  -6.096  25.460  1.00  0.00    -0.012 C 
ATOM      3  C   UNL     1       8.698  -6.380  26.775  1.00  0.00     0.004 C 
ATOM      4  C   UNL     1       9.074  -7.762  27.303  1.00  0.00     0.011 C 
ATOM      5  C   UNL     1      10.604  -7.970  27.489  1.00  0.00     0.043 C 
ATOM      6  C   UNL     1      11.514  -6.851  26.886  1.00  0.00     0.121 C 
ATOM      7  C   UNL     1      10.978  -6.161  25.604  1.00  0.00     0.035 C 
ENDROOT
BRANCH   6   8
ATOM      8  O   UNL     1      11.842  -5.890  27.862  1.00  0.00    -0.392 OA
ATOM      9  H   UNL     1      12.819  -5.930  28.019  1.00  0.00     0.210 HD
ENDBRANCH   6   8
BRANCH   5  10
ATOM     10  C   UNL     1      11.031  -9.359  27.011  1.00  0.00    -0.075 C 
ATOM     11  C   UNL     1      11.089 -10.409  27.843  1.00  0.00     0.008 C 
ATOM     12  C   UNL     1      11.395  -9.592  25.569  1.00  0.00     0.039 C 
ENDBRANCH   5  10
TORSDOF 2
ENDMDL
MODEL 4
REMARK VINA RESULT:    -4.561      1.367      4.101
REMARK INTER + INTRA:          -5.079
REMARK INTER:                  -4.926
REMARK INTRA:                  -0.152
REMARK UNBOUND:                -0.117
REMARK SMILES C=C(C)[C@@H]1CC[C@@H](C)C[C@H]1O
REMARK SMILES IDX 8 1 7 2 6 3 5 4 4 5 10 6 9 7 11 8 2 10 1 11 3 12
REMARK H PARENT 11 9
REMARK Flexibility Score: inf
ROOT
ATOM      1  C   UNL     1      11.707  -3.838  25.198  1.00  0.00     0.008 C 
ATOM      2  C   UNL     1      10.852  -4.823  26.007  1.00  0.00    -0.012 C 
ATOM      3  C   UNL     1      11.667  -6.074  26.358  1.00  0.00     0.004 C 
ATOM      4  C   UNL     1      10.842  -7.012  27.236  1.00  0.00     0.011 C 
ATOM      5  C   UNL     1       9.477  -7.419  26.613  1.00  0.00     0.043 C 
ATOM      6  C   UNL     1       9.058  -6.627  25.332  1.00  0.00     0.121 C 
ATOM      7  C   UNL     1       9.529  -5.150  25.265  1.00  0.00     0.035 C 
ENDROOT
BRANCH   6   8
ATOM      8  O   UNL     1       9.441  -7.319  24.167  1.00  0.00    -0.392 OA
ATOM      9  H   UNL     1      10.421  -7.461  24.200  1.00  0.00     0.210 HD
ENDBRANCH   6   8
BRANCH   5  10
ATOM     10  C   UNL     1       8.368  -7.406  27.667  1.00  0.00    -0.075 C 
ATOM     11  C   UNL     1       7.301  -6.600  27.565  1.00  0.00     0.008 C 
ATOM     12  C   UNL     1       8.438  -8.319  28.862  1.00  0.00     0.039 C 
ENDBRANCH   5  10
TORSDOF 2
ENDMDL
MODEL 5
REMARK VINA RESULT:    -4.549      2.545      4.678
REMARK INTER + INTRA:          -5.065
REMARK INTER:                  -4.884
REMARK INTRA:                  -0.181
REMARK UNBOUND:                -0.117
REMARK SMILES C=C(C)[C@@H]1CC[C@@H](C)C[C@H]1O
REMARK SMILES IDX 8 1 7 2 6 3 5 4 4 5 10 6 9 7 11 8 2 10 1 11 3 12
REMARK H PARENT 11 9
REMARK Flexibility Score: inf
ROOT
ATOM      1  C   UNL     1       9.122  -6.936  26.884  1.00  0.00     0.008 C 
ATOM      2  C   UNL     1       9.856  -8.242  26.552  1.00  0.00    -0.012 C 
ATOM      3  C   UNL     1      10.711  -8.691  27.743  1.00  0.00     0.004 C 
ATOM      4  C   UNL     1      11.372 -10.035  27.442  1.00  0.00     0.011 C 
ATOM      5  C   UNL     1      12.221 -10.040  26.139  1.00  0.00     0.043 C 
ATOM      6  C   UNL     1      12.067  -8.779  25.229  1.00  0.00     0.121 C 
ATOM      7  C   UNL     1      10.670  -8.103  25.239  1.00  0.00     0.035 C 
ENDROOT
BRANCH   6   8
ATOM      8  O   UNL     1      13.072  -7.833  25.508  1.00  0.00    -0.392 OA
ATOM      9  H   UNL     1      12.947  -7.513  26.437  1.00  0.00     0.210 HD
ENDBRANCH   6   8
BRANCH   5  10
ATOM     10  C   UNL     1      12.002 -11.332  25.348  1.00  0.00    -0.075 C 
ATOM     11  C   UNL     1      11.671 -11.320  24.048  1.00  0.00     0.008 C 
ATOM     12  C   UNL     1      12.164 -12.672  26.013  1.00  0.00     0.039 C 
ENDBRANCH   5  10
TORSDOF 2
ENDMDL
MODEL 6
REMARK VINA RESULT:    -4.461      1.912      2.743
REMARK INTER + INTRA:          -4.970
REMARK INTER:                  -4.850
REMARK INTRA:                  -0.120
REMARK UNBOUND:                -0.117
REMARK SMILES C=C(C)[C@@H]1CC[C@@H](C)C[C@H]1O
REMARK SMILES IDX 8 1 7 2 6 3 5 4 4 5 10 6 9 7 11 8 2 10 1 11 3 12
REMARK H PARENT 11 9
REMARK Flexibility Score: inf
ROOT
ATOM      1  C   UNL     1      11.390 -10.490  27.627  1.00  0.00     0.008 C 
ATOM      2  C   UNL     1      10.632  -9.324  26.979  1.00  0.00    -0.012 C 
ATOM      3  C   UNL     1      11.228  -8.998  25.605  1.00  0.00     0.004 C 
ATOM      4  C   UNL     1      10.416  -7.896  24.925  1.00  0.00     0.011 C 
ATOM      5  C   UNL     1      10.282  -6.600  25.774  1.00  0.00     0.043 C 
ATOM      6  C   UNL     1      10.770  -6.710  27.255  1.00  0.00     0.121 C 
ATOM      7  C   UNL     1      10.585  -8.097  27.927  1.00  0.00     0.035 C 
ENDROOT
BRANCH   6   8
ATOM      8  O   UNL     1      12.104  -6.279  27.378  1.00  0.00    -0.392 OA
ATOM      9  H   UNL     1      12.562  -6.440  26.514  1.00  0.00     0.210 HD
ENDBRANCH   6   8
BRANCH   5  10
ATOM     10  C   UNL     1       8.862  -6.036  25.692  1.00  0.00    -0.075 C 
ATOM     11  C   UNL     1       8.453  -5.291  24.655  1.00  0.00     0.008 C 
ATOM     12  C   UNL     1       7.865  -6.313  26.785  1.00  0.00     0.039 C 
ENDBRANCH   5  10
TORSDOF 2
ENDMDL
MODEL 7
REMARK VINA RESULT:    -4.448      2.455      4.223
REMARK INTER + INTRA:          -4.955
REMARK INTER:                  -4.742
REMARK INTRA:                  -0.213
REMARK UNBOUND:                -0.117
REMARK SMILES C=C(C)[C@@H]1CC[C@@H](C)C[C@H]1O
REMARK SMILES IDX 8 1 7 2 6 3 5 4 4 5 10 6 9 7 11 8 2 10 1 11 3 12
REMARK H PARENT 11 9
REMARK Flexibility Score: inf
ROOT
ATOM      1  C   UNL     1      15.008 -10.557  24.861  1.00  0.00     0.008 C 
ATOM      2  C   UNL     1      13.839 -10.052  25.716  1.00  0.00    -0.012 C 
ATOM      3  C   UNL     1      12.886 -11.206  26.052  1.00  0.00     0.004 C 
ATOM      4  C   UNL     1      11.771 -10.718  26.975  1.00  0.00     0.011 C 
ATOM      5  C   UNL     1      10.972  -9.510  26.411  1.00  0.00     0.043 C 
ATOM      6  C   UNL     1      11.576  -8.837  25.136  1.00  0.00     0.121 C 
ATOM      7  C   UNL     1      13.124  -8.857  25.030  1.00  0.00     0.035 C 
ENDROOT
BRANCH   6   8
ATOM      8  O   UNL     1      10.997  -9.366  23.966  1.00  0.00    -0.392 OA
ATOM      9  H   UNL     1      10.985  -8.654  23.278  1.00  0.00     0.210 HD
ENDBRANCH   6   8
BRANCH   5  10
ATOM     10  C   UNL     1      10.689  -8.480  27.506  1.00  0.00    -0.075 C 
ATOM     11  C   UNL     1      10.255  -8.839  28.723  1.00  0.00     0.008 C 
ATOM     12  C   UNL     1      10.901  -7.012  27.249  1.00  0.00     0.039 C 
ENDBRANCH   5  10
TORSDOF 2
ENDMDL
MODEL 8
REMARK VINA RESULT:    -4.434      3.434      4.839
REMARK INTER + INTRA:          -4.941
REMARK INTER:                  -4.741
REMARK INTRA:                  -0.200
REMARK UNBOUND:                -0.117
REMARK SMILES C=C(C)[C@@H]1CC[C@@H](C)C[C@H]1O
REMARK SMILES IDX 8 1 7 2 6 3 5 4 4 5 10 6 9 7 11 8 2 10 1 11 3 12
REMARK H PARENT 11 9
REMARK Flexibility Score: inf
ROOT
ATOM      1  C   UNL     1      12.136 -13.611  24.249  1.00  0.00     0.008 C 
ATOM      2  C   UNL     1      11.651 -12.307  24.896  1.00  0.00    -0.012 C 
ATOM      3  C   UNL     1      12.062 -11.102  24.040  1.00  0.00     0.004 C 
ATOM      4  C   UNL     1      11.503  -9.814  24.641  1.00  0.00     0.011 C 
ATOM      5  C   UNL     1      11.911  -9.583  26.124  1.00  0.00     0.043 C 
ATOM      6  C   UNL     1      12.601 -10.795  26.830  1.00  0.00     0.121 C 
ATOM      7  C   UNL     1      12.138 -12.201  26.365  1.00  0.00     0.035 C 
ENDROOT
BRANCH   6   8
ATOM      8  O   UNL     1      14.003 -10.689  26.755  1.00  0.00    -0.392 OA
ATOM      9  H   UNL     1      14.350 -11.496  26.298  1.00  0.00     0.210 HD
ENDBRANCH   6   8
BRANCH   5  10
ATOM     10  C   UNL     1      10.730  -9.057  26.941  1.00  0.00    -0.075 C 
ATOM     11  C   UNL     1      10.413  -9.567  28.141  1.00  0.00     0.008 C 
ATOM     12  C   UNL     1       9.882  -7.927  26.421  1.00  0.00     0.039 C 
ENDBRANCH   5  10
TORSDOF 2
ENDMDL
MODEL 9
REMARK VINA RESULT:    -2.640      6.573      8.046
REMARK INTER + INTRA:          -2.989
REMARK INTER:                  -2.745
REMARK INTRA:                  -0.244
REMARK UNBOUND:                -0.117
REMARK SMILES C=C(C)[C@@H]1CC[C@@H](C)C[C@H]1O
REMARK SMILES IDX 8 1 7 2 6 3 5 4 4 5 10 6 9 7 11 8 2 10 1 11 3 12
REMARK H PARENT 11 9
REMARK Flexibility Score: inf
ROOT
ATOM      1  C   UNL     1      13.241  -1.578  28.257  1.00  0.00     0.008 C 
ATOM      2  C   UNL     1      12.930  -0.445  27.270  1.00  0.00    -0.012 C 
ATOM      3  C   UNL     1      11.684  -0.785  26.442  1.00  0.00     0.004 C 
ATOM      4  C   UNL     1      11.326   0.381  25.523  1.00  0.00     0.011 C 
ATOM      5  C   UNL     1      12.487   0.825  24.589  1.00  0.00     0.043 C 
ATOM      6  C   UNL     1      13.883   0.194  24.901  1.00  0.00     0.121 C 
ATOM      7  C   UNL     1      14.167  -0.113  26.395  1.00  0.00     0.035 C 
ENDROOT
BRANCH   6   8
ATOM      8  O   UNL     1      14.103  -0.952  24.113  1.00  0.00    -0.392 OA
ATOM      9  H   UNL     1      14.856  -1.459  24.508  1.00  0.00     0.210 HD
ENDBRANCH   6   8
BRANCH   5  10
ATOM     10  C   UNL     1      12.569   2.351  24.503  1.00  0.00    -0.075 C 
ATOM     11  C   UNL     1      11.476   3.125  24.570  1.00  0.00     0.008 C 
ATOM     12  C   UNL     1      13.899   3.037  24.348  1.00  0.00     0.039 C 
ENDBRANCH   5  10
TORSDOF 2
ENDMDL
