MODEL 1
REMARK VINA RESULT:    -5.508      0.000      0.000
REMARK INTER + INTRA:         -11.222
REMARK INTER:                 -10.339
REMARK INTRA:                  -0.883
REMARK UNBOUND:                -0.883
REMARK SMILES O=C([O-])CCCCCCCCCCCCCCC(=O)[O-]
REMARK SMILES IDX 10 1 9 2 8 3 7 4 6 5 5 6 4 7 2 8 1 9 3 10 11 11 12 12 13 13
REMARK SMILES IDX 14 14 15 15 16 16 17 17 18 18 19 19 20 20
REMARK H PARENT
REMARK Flexibility Score: inf
ROOT
ATOM      1  C   UNL     1     -16.564  -5.858  39.274  1.00  0.00     0.000 C 
ENDROOT
BRANCH   1   2
ATOM      2  C   UNL     1     -17.738  -6.818  39.540  1.00  0.00     0.000 C 
BRANCH   2   3
ATOM      3  C   UNL     1     -17.992  -7.032  41.040  1.00  0.00     0.000 C 
BRANCH   3   4
ATOM      4  C   UNL     1     -16.800  -6.599  41.910  1.00  0.00     0.000 C 
BRANCH   4   5
ATOM      5  C   UNL     1     -17.048  -6.814  43.413  1.00  0.00     0.000 C 
BRANCH   5   6
ATOM      6  C   UNL     1     -17.813  -8.103  43.772  1.00  0.00     0.006 C 
BRANCH   6   7
ATOM      7  C   UNL     1     -17.337  -8.775  45.073  1.00  0.00     0.053 C 
BRANCH   7   8
ATOM      8  C   UNL     1     -16.214  -9.742  44.843  1.00  0.00     0.041 C 
ATOM      9  O   UNL     1     -16.455 -10.915  44.456  1.00  0.00    -0.550 OA
ATOM     10  O   UNL     1     -14.902  -9.361  45.097  1.00  0.00    -0.550 OA
ENDBRANCH   7   8
ENDBRANCH   6   7
ENDBRANCH   5   6
ENDBRANCH   4   5
ENDBRANCH   3   4
ENDBRANCH   2   3
ENDBRANCH   1   2
BRANCH   1  11
ATOM     11  C   UNL     1     -15.849  -6.156  37.946  1.00  0.00     0.000 C 
BRANCH  11  12
ATOM     12  C   UNL     1     -14.357  -5.781  37.984  1.00  0.00     0.000 C 
BRANCH  12  13
ATOM     13  C   UNL     1     -13.580  -6.540  39.076  1.00  0.00     0.000 C 
BRANCH  13  14
ATOM     14  C   UNL     1     -12.471  -7.476  38.557  1.00  0.00     0.000 C 
BRANCH  14  15
ATOM     15  C   UNL     1     -11.509  -8.015  39.635  1.00  0.00     0.000 C 
BRANCH  15  16
ATOM     16  C   UNL     1     -10.728  -9.279  39.234  1.00  0.00     0.006 C 
BRANCH  16  17
ATOM     17  C   UNL     1     -10.996  -9.708  37.785  1.00  0.00     0.053 C 
BRANCH  17  18
ATOM     18  C   UNL     1      -9.779  -9.487  36.943  1.00  0.00     0.041 C 
ATOM     19  O   UNL     1      -8.693 -10.050  37.239  1.00  0.00    -0.550 OA
ATOM     20  O   UNL     1      -9.833  -8.620  35.859  1.00  0.00    -0.550 OA
ENDBRANCH  17  18
ENDBRANCH  16  17
ENDBRANCH  15  16
ENDBRANCH  14  15
ENDBRANCH  13  14
ENDBRANCH  12  13
ENDBRANCH  11  12
ENDBRANCH   1  11
TORSDOF 15
ENDMDL
MODEL 2
REMARK VINA RESULT:    -5.465      1.855      3.444
REMARK INTER + INTRA:         -11.141
REMARK INTER:                 -10.052
REMARK INTRA:                  -1.089
REMARK UNBOUND:                -0.883
REMARK SMILES O=C([O-])CCCCCCCCCCCCCCC(=O)[O-]
REMARK SMILES IDX 10 1 9 2 8 3 7 4 6 5 5 6 4 7 2 8 1 9 3 10 11 11 12 12 13 13
REMARK SMILES IDX 14 14 15 15 16 16 17 17 18 18 19 19 20 20
REMARK H PARENT
REMARK Flexibility Score: inf
ROOT
ATOM      1  C   UNL     1     -13.869  -6.530  36.912  1.00  0.00     0.000 C 
ENDROOT
BRANCH   1   2
ATOM      2  C   UNL     1     -15.080  -6.759  37.834  1.00  0.00     0.000 C 
BRANCH   2   3
ATOM      3  C   UNL     1     -15.430  -5.513  38.662  1.00  0.00     0.000 C 
BRANCH   3   4
ATOM      4  C   UNL     1     -16.891  -5.513  39.143  1.00  0.00     0.000 C 
BRANCH   4   5
ATOM      5  C   UNL     1     -17.564  -6.889  39.008  1.00  0.00     0.000 C 
BRANCH   5   6
ATOM      6  C   UNL     1     -17.909  -7.583  40.340  1.00  0.00     0.006 C 
BRANCH   6   7
ATOM      7  C   UNL     1     -17.519  -6.773  41.591  1.00  0.00     0.053 C 
BRANCH   7   8
ATOM      8  C   UNL     1     -17.627  -7.577  42.852  1.00  0.00     0.041 C 
ATOM      9  O   UNL     1     -17.373  -7.049  43.966  1.00  0.00    -0.550 OA
ATOM     10  O   UNL     1     -17.967  -8.923  42.795  1.00  0.00    -0.550 OA
ENDBRANCH   7   8
ENDBRANCH   6   7
ENDBRANCH   5   6
ENDBRANCH   4   5
ENDBRANCH   3   4
ENDBRANCH   2   3
ENDBRANCH   1   2
BRANCH   1  11
ATOM     11  C   UNL     1     -12.699  -7.477  37.230  1.00  0.00     0.000 C 
BRANCH  11  12
ATOM     12  C   UNL     1     -12.367  -7.519  38.731  1.00  0.00     0.000 C 
BRANCH  12  13
ATOM     13  C   UNL     1     -11.281  -8.556  39.072  1.00  0.00     0.000 C 
BRANCH  13  14
ATOM     14  C   UNL     1     -11.056  -9.644  38.003  1.00  0.00     0.000 C 
BRANCH  14  15
ATOM     15  C   UNL     1      -9.629  -9.712  37.426  1.00  0.00     0.000 C 
BRANCH  15  16
ATOM     16  C   UNL     1      -9.532  -9.488  35.906  1.00  0.00     0.006 C 
BRANCH  16  17
ATOM     17  C   UNL     1      -9.224  -8.030  35.539  1.00  0.00     0.053 C 
BRANCH  17  18
ATOM     18  C   UNL     1      -7.812  -7.899  35.063  1.00  0.00     0.041 C 
ATOM     19  O   UNL     1      -6.859  -7.952  35.884  1.00  0.00    -0.550 OA
ATOM     20  O   UNL     1      -7.550  -7.669  33.719  1.00  0.00    -0.550 OA
ENDBRANCH  17  18
ENDBRANCH  16  17
ENDBRANCH  15  16
ENDBRANCH  14  15
ENDBRANCH  13  14
ENDBRANCH  12  13
ENDBRANCH  11  12
ENDBRANCH   1  11
TORSDOF 15
ENDMDL
MODEL 3
REMARK VINA RESULT:    -5.464      1.759      8.063
REMARK INTER + INTRA:         -11.140
REMARK INTER:                 -10.569
REMARK INTRA:                  -0.570
REMARK UNBOUND:                -0.883
REMARK SMILES O=C([O-])CCCCCCCCCCCCCCC(=O)[O-]
REMARK SMILES IDX 10 1 9 2 8 3 7 4 6 5 5 6 4 7 2 8 1 9 3 10 11 11 12 12 13 13
REMARK SMILES IDX 14 14 15 15 16 16 17 17 18 18 19 19 20 20
REMARK H PARENT
REMARK Flexibility Score: inf
ROOT
ATOM      1  C   UNL     1     -17.777  -6.956  40.070  1.00  0.00     0.000 C 
ENDROOT
BRANCH   1   2
ATOM      2  C   UNL     1     -17.025  -5.866  39.285  1.00  0.00     0.000 C 
BRANCH   2   3
ATOM      3  C   UNL     1     -16.243  -6.436  38.092  1.00  0.00     0.000 C 
BRANCH   3   4
ATOM      4  C   UNL     1     -14.824  -5.852  37.980  1.00  0.00     0.000 C 
BRANCH   4   5
ATOM      5  C   UNL     1     -14.067  -6.356  36.740  1.00  0.00     0.000 C 
BRANCH   5   6
ATOM      6  C   UNL     1     -13.138  -7.562  36.985  1.00  0.00     0.006 C 
BRANCH   6   7
ATOM      7  C   UNL     1     -12.421  -7.536  38.348  1.00  0.00     0.053 C 
BRANCH   7   8
ATOM      8  C   UNL     1     -11.167  -8.358  38.352  1.00  0.00     0.041 C 
ATOM      9  O   UNL     1     -10.096  -7.881  38.811  1.00  0.00    -0.550 OA
ATOM     10  O   UNL     1     -11.169  -9.638  37.811  1.00  0.00    -0.550 OA
ENDBRANCH   7   8
ENDBRANCH   6   7
ENDBRANCH   5   6
ENDBRANCH   4   5
ENDBRANCH   3   4
ENDBRANCH   2   3
ENDBRANCH   1   2
BRANCH   1  11
ATOM     11  C   UNL     1     -18.078  -6.537  41.518  1.00  0.00     0.000 C 
BRANCH  11  12
ATOM     12  C   UNL     1     -17.190  -7.268  42.540  1.00  0.00     0.000 C 
BRANCH  12  13
ATOM     13  C   UNL     1     -17.780  -8.619  42.984  1.00  0.00     0.000 C 
BRANCH  13  14
ATOM     14  C   UNL     1     -17.320  -9.109  44.371  1.00  0.00     0.000 C 
BRANCH  14  15
ATOM     15  C   UNL     1     -16.630 -10.487  44.385  1.00  0.00     0.000 C 
BRANCH  15  16
ATOM     16  C   UNL     1     -15.253 -10.516  45.072  1.00  0.00     0.006 C 
BRANCH  16  17
ATOM     17  C   UNL     1     -15.309 -11.100  46.490  1.00  0.00     0.053 C 
BRANCH  17  18
ATOM     18  C   UNL     1     -15.792 -10.069  47.460  1.00  0.00     0.041 C 
ATOM     19  O   UNL     1     -16.963 -10.129  47.918  1.00  0.00    -0.550 OA
ATOM     20  O   UNL     1     -14.965  -9.013  47.821  1.00  0.00    -0.550 OA
ENDBRANCH  17  18
ENDBRANCH  16  17
ENDBRANCH  15  16
ENDBRANCH  14  15
ENDBRANCH  13  14
ENDBRANCH  12  13
ENDBRANCH  11  12
ENDBRANCH   1  11
TORSDOF 15
ENDMDL
MODEL 4
REMARK VINA RESULT:    -5.410      2.530      8.427
REMARK INTER + INTRA:         -11.038
REMARK INTER:                 -10.045
REMARK INTRA:                  -0.992
REMARK UNBOUND:                -0.883
REMARK SMILES O=C([O-])CCCCCCCCCCCCCCC(=O)[O-]
REMARK SMILES IDX 10 1 9 2 8 3 7 4 6 5 5 6 4 7 2 8 1 9 3 10 11 11 12 12 13 13
REMARK SMILES IDX 14 14 15 15 16 16 17 17 18 18 19 19 20 20
REMARK H PARENT
REMARK Flexibility Score: inf
ROOT
ATOM      1  C   UNL     1     -16.652  -6.581  42.297  1.00  0.00     0.000 C 
ENDROOT
BRANCH   1   2
ATOM      2  C   UNL     1     -17.960  -6.556  41.485  1.00  0.00     0.000 C 
BRANCH   2   3
ATOM      3  C   UNL     1     -17.739  -6.915  40.007  1.00  0.00     0.000 C 
BRANCH   3   4
ATOM      4  C   UNL     1     -17.116  -5.759  39.204  1.00  0.00     0.000 C 
BRANCH   4   5
ATOM      5  C   UNL     1     -16.124  -6.243  38.134  1.00  0.00     0.000 C 
BRANCH   5   6
ATOM      6  C   UNL     1     -14.736  -5.574  38.177  1.00  0.00     0.006 C 
BRANCH   6   7
ATOM      7  C   UNL     1     -13.738  -6.258  39.131  1.00  0.00     0.053 C 
BRANCH   7   8
ATOM      8  C   UNL     1     -12.833  -7.221  38.422  1.00  0.00     0.041 C 
ATOM      9  O   UNL     1     -12.017  -7.923  39.074  1.00  0.00    -0.550 OA
ATOM     10  O   UNL     1     -12.861  -7.313  37.036  1.00  0.00    -0.550 OA
ENDBRANCH   7   8
ENDBRANCH   6   7
ENDBRANCH   5   6
ENDBRANCH   4   5
ENDBRANCH   3   4
ENDBRANCH   2   3
ENDBRANCH   1   2
BRANCH   1  11
ATOM     11  C   UNL     1     -16.811  -7.301  43.647  1.00  0.00     0.000 C 
BRANCH  11  12
ATOM     12  C   UNL     1     -17.649  -8.585  43.533  1.00  0.00     0.000 C 
BRANCH  12  13
ATOM     13  C   UNL     1     -16.972  -9.798  44.198  1.00  0.00     0.000 C 
BRANCH  13  14
ATOM     14  C   UNL     1     -15.670  -9.484  44.961  1.00  0.00     0.000 C 
BRANCH  14  15
ATOM     15  C   UNL     1     -15.136 -10.627  45.847  1.00  0.00     0.000 C 
BRANCH  15  16
ATOM     16  C   UNL     1     -15.955 -10.897  47.122  1.00  0.00     0.006 C 
BRANCH  16  17
ATOM     17  C   UNL     1     -16.356  -9.610  47.855  1.00  0.00     0.053 C 
BRANCH  17  18
ATOM     18  C   UNL     1     -15.634  -9.507  49.161  1.00  0.00     0.041 C 
ATOM     19  O   UNL     1     -15.175 -10.541  49.714  1.00  0.00    -0.550 OA
ATOM     20  O   UNL     1     -15.513  -8.277  49.794  1.00  0.00    -0.550 OA
ENDBRANCH  17  18
ENDBRANCH  16  17
ENDBRANCH  15  16
ENDBRANCH  14  15
ENDBRANCH  13  14
ENDBRANCH  12  13
ENDBRANCH  11  12
ENDBRANCH   1  11
TORSDOF 15
ENDMDL
MODEL 5
REMARK VINA RESULT:    -5.404      2.873      7.315
REMARK INTER + INTRA:         -11.027
REMARK INTER:                 -10.257
REMARK INTRA:                  -0.770
REMARK UNBOUND:                -0.883
REMARK SMILES O=C([O-])CCCCCCCCCCCCCCC(=O)[O-]
REMARK SMILES IDX 10 1 9 2 8 3 7 4 6 5 5 6 4 7 2 8 1 9 3 10 11 11 12 12 13 13
REMARK SMILES IDX 14 14 15 15 16 16 17 17 18 18 19 19 20 20
REMARK H PARENT
REMARK Flexibility Score: inf
ROOT
ATOM      1  C   UNL     1     -12.676  -6.966  39.078  1.00  0.00     0.000 C 
ENDROOT
BRANCH   1   2
ATOM      2  C   UNL     1     -11.770  -7.927  39.869  1.00  0.00     0.000 C 
BRANCH   2   3
ATOM      3  C   UNL     1     -10.525  -8.346  39.074  1.00  0.00     0.000 C 
BRANCH   3   4
ATOM      4  C   UNL     1     -10.370  -9.874  38.978  1.00  0.00     0.000 C 
BRANCH   4   5
ATOM      5  C   UNL     1      -9.359 -10.437  39.991  1.00  0.00     0.000 C 
BRANCH   5   6
ATOM      6  C   UNL     1      -9.904 -10.634  41.419  1.00  0.00     0.006 C 
BRANCH   6   7
ATOM      7  C   UNL     1      -8.822 -10.969  42.464  1.00  0.00     0.053 C 
BRANCH   7   8
ATOM      8  C   UNL     1      -8.698  -9.911  43.520  1.00  0.00     0.041 C 
ATOM      9  O   UNL     1      -8.707  -8.693  43.204  1.00  0.00    -0.550 OA
ATOM     10  O   UNL     1      -8.530 -10.272  44.852  1.00  0.00    -0.550 OA
ENDBRANCH   7   8
ENDBRANCH   6   7
ENDBRANCH   5   6
ENDBRANCH   4   5
ENDBRANCH   3   4
ENDBRANCH   2   3
ENDBRANCH   1   2
BRANCH   1  11
ATOM     11  C   UNL     1     -12.873  -7.410  37.619  1.00  0.00     0.000 C 
BRANCH  11  12
ATOM     12  C   UNL     1     -13.999  -6.634  36.915  1.00  0.00     0.000 C 
BRANCH  12  13
ATOM     13  C   UNL     1     -14.870  -5.827  37.895  1.00  0.00     0.000 C 
BRANCH  13  14
ATOM     14  C   UNL     1     -16.291  -6.383  38.118  1.00  0.00     0.000 C 
BRANCH  14  15
ATOM     15  C   UNL     1     -17.036  -5.811  39.340  1.00  0.00     0.000 C 
BRANCH  15  16
ATOM     16  C   UNL     1     -17.784  -6.853  40.190  1.00  0.00     0.006 C 
BRANCH  16  17
ATOM     17  C   UNL     1     -18.023  -6.383  41.631  1.00  0.00     0.053 C 
BRANCH  17  18
ATOM     18  C   UNL     1     -16.923  -6.860  42.525  1.00  0.00     0.041 C 
ATOM     19  O   UNL     1     -17.123  -7.809  43.327  1.00  0.00    -0.550 OA
ATOM     20  O   UNL     1     -15.689  -6.222  42.509  1.00  0.00    -0.550 OA
ENDBRANCH  17  18
ENDBRANCH  16  17
ENDBRANCH  15  16
ENDBRANCH  14  15
ENDBRANCH  13  14
ENDBRANCH  12  13
ENDBRANCH  11  12
ENDBRANCH   1  11
TORSDOF 15
ENDMDL
MODEL 6
REMARK VINA RESULT:    -5.400      1.909      3.186
REMARK INTER + INTRA:         -11.018
REMARK INTER:                 -10.487
REMARK INTRA:                  -0.532
REMARK UNBOUND:                -0.883
REMARK SMILES O=C([O-])CCCCCCCCCCCCCCC(=O)[O-]
REMARK SMILES IDX 10 1 9 2 8 3 7 4 6 5 5 6 4 7 2 8 1 9 3 10 11 11 12 12 13 13
REMARK SMILES IDX 14 14 15 15 16 16 17 17 18 18 19 19 20 20
REMARK H PARENT
REMARK Flexibility Score: inf
ROOT
ATOM      1  C   UNL     1     -17.117  -6.809  41.625  1.00  0.00     0.000 C 
ENDROOT
BRANCH   1   2
ATOM      2  C   UNL     1     -17.719  -7.911  42.515  1.00  0.00     0.000 C 
BRANCH   2   3
ATOM      3  C   UNL     1     -16.941  -8.094  43.827  1.00  0.00     0.000 C 
BRANCH   3   4
ATOM      4  C   UNL     1     -17.379  -9.347  44.606  1.00  0.00     0.000 C 
BRANCH   4   5
ATOM      5  C   UNL     1     -16.327 -10.469  44.572  1.00  0.00     0.000 C 
BRANCH   5   6
ATOM      6  C   UNL     1     -15.184 -10.325  45.596  1.00  0.00     0.006 C 
BRANCH   6   7
ATOM      7  C   UNL     1     -15.298 -11.275  46.803  1.00  0.00     0.053 C 
BRANCH   7   8
ATOM      8  C   UNL     1     -15.745 -10.570  48.049  1.00  0.00     0.041 C 
ATOM      9  O   UNL     1     -15.047 -10.625  49.095  1.00  0.00    -0.550 OA
ATOM     10  O   UNL     1     -16.953  -9.885  48.067  1.00  0.00    -0.550 OA
ENDBRANCH   7   8
ENDBRANCH   6   7
ENDBRANCH   5   6
ENDBRANCH   4   5
ENDBRANCH   3   4
ENDBRANCH   2   3
ENDBRANCH   1   2
BRANCH   1  11
ATOM     11  C   UNL     1     -17.717  -6.803  40.209  1.00  0.00     0.000 C 
BRANCH  11  12
ATOM     12  C   UNL     1     -17.074  -5.740  39.302  1.00  0.00     0.000 C 
BRANCH  12  13
ATOM     13  C   UNL     1     -16.193  -6.354  38.198  1.00  0.00     0.000 C 
BRANCH  13  14
ATOM     14  C   UNL     1     -14.738  -5.844  38.164  1.00  0.00     0.000 C 
BRANCH  14  15
ATOM     15  C   UNL     1     -13.727  -6.789  37.485  1.00  0.00     0.000 C 
BRANCH  15  16
ATOM     16  C   UNL     1     -12.611  -7.314  38.406  1.00  0.00     0.006 C 
BRANCH  16  17
ATOM     17  C   UNL     1     -11.870  -8.519  37.813  1.00  0.00     0.053 C 
BRANCH  17  18
ATOM     18  C   UNL     1     -10.398  -8.253  37.761  1.00  0.00     0.041 C 
ATOM     19  O   UNL     1      -9.660  -8.922  36.993  1.00  0.00    -0.550 OA
ATOM     20  O   UNL     1      -9.835  -7.299  38.599  1.00  0.00    -0.550 OA
ENDBRANCH  17  18
ENDBRANCH  16  17
ENDBRANCH  15  16
ENDBRANCH  14  15
ENDBRANCH  13  14
ENDBRANCH  12  13
ENDBRANCH  11  12
ENDBRANCH   1  11
TORSDOF 15
ENDMDL
MODEL 7
REMARK VINA RESULT:    -5.356      3.214      8.640
REMARK INTER + INTRA:         -10.936
REMARK INTER:                  -9.868
REMARK INTRA:                  -1.067
REMARK UNBOUND:                -0.883
REMARK SMILES O=C([O-])CCCCCCCCCCCCCCC(=O)[O-]
REMARK SMILES IDX 10 1 9 2 8 3 7 4 6 5 5 6 4 7 2 8 1 9 3 10 11 11 12 12 13 13
REMARK SMILES IDX 14 14 15 15 16 16 17 17 18 18 19 19 20 20
REMARK H PARENT
REMARK Flexibility Score: inf
ROOT
ATOM      1  C   UNL     1     -16.650  -8.570  44.067  1.00  0.00     0.000 C 
ENDROOT
BRANCH   1   2
ATOM      2  C   UNL     1     -17.749  -7.653  43.500  1.00  0.00     0.000 C 
BRANCH   2   3
ATOM      3  C   UNL     1     -18.028  -7.922  42.014  1.00  0.00     0.000 C 
BRANCH   3   4
ATOM      4  C   UNL     1     -17.966  -6.644  41.159  1.00  0.00     0.000 C 
BRANCH   4   5
ATOM      5  C   UNL     1     -17.662  -6.930  39.678  1.00  0.00     0.000 C 
BRANCH   5   6
ATOM      6  C   UNL     1     -16.885  -5.821  38.943  1.00  0.00     0.006 C 
BRANCH   6   7
ATOM      7  C   UNL     1     -15.380  -5.787  39.267  1.00  0.00     0.053 C 
BRANCH   7   8
ATOM      8  C   UNL     1     -14.533  -6.234  38.113  1.00  0.00     0.041 C 
ATOM      9  O   UNL     1     -13.495  -6.916  38.314  1.00  0.00    -0.550 OA
ATOM     10  O   UNL     1     -14.868  -5.863  36.817  1.00  0.00    -0.550 OA
ENDBRANCH   7   8
ENDBRANCH   6   7
ENDBRANCH   5   6
ENDBRANCH   4   5
ENDBRANCH   3   4
ENDBRANCH   2   3
ENDBRANCH   1   2
BRANCH   1  11
ATOM     11  C   UNL     1     -17.115 -10.030  44.204  1.00  0.00     0.000 C 
BRANCH  11  12
ATOM     12  C   UNL     1     -15.967 -10.979  44.586  1.00  0.00     0.000 C 
BRANCH  12  13
ATOM     13  C   UNL     1     -14.767 -10.243  45.211  1.00  0.00     0.000 C 
BRANCH  13  14
ATOM     14  C   UNL     1     -14.498 -10.572  46.693  1.00  0.00     0.000 C 
BRANCH  14  15
ATOM     15  C   UNL     1     -15.736 -10.995  47.507  1.00  0.00     0.000 C 
BRANCH  15  16
ATOM     16  C   UNL     1     -16.659  -9.838  47.933  1.00  0.00     0.006 C 
BRANCH  16  17
ATOM     17  C   UNL     1     -16.005  -8.904  48.960  1.00  0.00     0.053 C 
BRANCH  17  18
ATOM     18  C   UNL     1     -15.752  -7.559  48.355  1.00  0.00     0.041 C 
ATOM     19  O   UNL     1     -16.427  -7.172  47.365  1.00  0.00    -0.550 OA
ATOM     20  O   UNL     1     -14.736  -6.753  48.853  1.00  0.00    -0.550 OA
ENDBRANCH  17  18
ENDBRANCH  16  17
ENDBRANCH  15  16
ENDBRANCH  14  15
ENDBRANCH  13  14
ENDBRANCH  12  13
ENDBRANCH  11  12
ENDBRANCH   1  11
TORSDOF 15
ENDMDL
MODEL 8
REMARK VINA RESULT:    -5.355      1.390      8.420
REMARK INTER + INTRA:         -10.934
REMARK INTER:                 -10.345
REMARK INTRA:                  -0.589
REMARK UNBOUND:                -0.883
REMARK SMILES O=C([O-])CCCCCCCCCCCCCCC(=O)[O-]
REMARK SMILES IDX 10 1 9 2 8 3 7 4 6 5 5 6 4 7 2 8 1 9 3 10 11 11 12 12 13 13
REMARK SMILES IDX 14 14 15 15 16 16 17 17 18 18 19 19 20 20
REMARK H PARENT
REMARK Flexibility Score: inf
ROOT
ATOM      1  C   UNL     1     -14.898  -5.846  37.497  1.00  0.00     0.000 C 
ENDROOT
BRANCH   1   2
ATOM      2  C   UNL     1     -13.728  -6.784  37.151  1.00  0.00     0.000 C 
BRANCH   2   3
ATOM      3  C   UNL     1     -12.884  -7.149  38.382  1.00  0.00     0.000 C 
BRANCH   3   4
ATOM      4  C   UNL     1     -11.815  -8.212  38.074  1.00  0.00     0.000 C 
BRANCH   4   5
ATOM      5  C   UNL     1     -10.954  -8.564  39.298  1.00  0.00     0.000 C 
BRANCH   5   6
ATOM      6  C   UNL     1     -10.335  -9.976  39.279  1.00  0.00     0.006 C 
BRANCH   6   7
ATOM      7  C   UNL     1      -8.798  -9.987  39.171  1.00  0.00     0.053 C 
BRANCH   7   8
ATOM      8  C   UNL     1      -8.323 -10.287  37.780  1.00  0.00     0.041 C 
ATOM      9  O   UNL     1      -8.945  -9.832  36.785  1.00  0.00    -0.550 OA
ATOM     10  O   UNL     1      -7.217 -11.104  37.582  1.00  0.00    -0.550 OA
ENDBRANCH   7   8
ENDBRANCH   6   7
ENDBRANCH   5   6
ENDBRANCH   4   5
ENDBRANCH   3   4
ENDBRANCH   2   3
ENDBRANCH   1   2
BRANCH   1  11
ATOM     11  C   UNL     1     -15.486  -6.127  38.890  1.00  0.00     0.000 C 
BRANCH  11  12
ATOM     12  C   UNL     1     -16.977  -5.763  38.983  1.00  0.00     0.000 C 
BRANCH  12  13
ATOM     13  C   UNL     1     -17.706  -6.523  40.107  1.00  0.00     0.000 C 
BRANCH  13  14
ATOM     14  C   UNL     1     -16.954  -6.581  41.452  1.00  0.00     0.000 C 
BRANCH  14  15
ATOM     15  C   UNL     1     -17.833  -6.878  42.683  1.00  0.00     0.000 C 
BRANCH  15  16
ATOM     16  C   UNL     1     -17.697  -8.303  43.248  1.00  0.00     0.006 C 
BRANCH  16  17
ATOM     17  C   UNL     1     -16.670  -8.396  44.385  1.00  0.00     0.053 C 
BRANCH  17  18
ATOM     18  C   UNL     1     -17.354  -8.689  45.683  1.00  0.00     0.041 C 
ATOM     19  O   UNL     1     -17.726  -7.746  46.429  1.00  0.00    -0.550 OA
ATOM     20  O   UNL     1     -17.534 -10.004  46.092  1.00  0.00    -0.550 OA
ENDBRANCH  17  18
ENDBRANCH  16  17
ENDBRANCH  15  16
ENDBRANCH  14  15
ENDBRANCH  13  14
ENDBRANCH  12  13
ENDBRANCH  11  12
ENDBRANCH   1  11
TORSDOF 15
ENDMDL
MODEL 9
REMARK VINA RESULT:    -5.263      5.645      8.888
REMARK INTER + INTRA:         -10.761
REMARK INTER:                  -8.342
REMARK INTRA:                  -2.419
REMARK UNBOUND:                -0.883
REMARK SMILES O=C([O-])CCCCCCCCCCCCCCC(=O)[O-]
REMARK SMILES IDX 10 1 9 2 8 3 7 4 6 5 5 6 4 7 2 8 1 9 3 10 11 11 12 12 13 13
REMARK SMILES IDX 14 14 15 15 16 16 17 17 18 18 19 19 20 20
REMARK H PARENT
REMARK Flexibility Score: inf
ROOT
ATOM      1  C   UNL     1     -13.079  -9.808  45.593  1.00  0.00     0.000 C 
ENDROOT
BRANCH   1   2
ATOM      2  C   UNL     1     -14.493  -9.322  45.226  1.00  0.00     0.000 C 
BRANCH   2   3
ATOM      3  C   UNL     1     -15.439 -10.482  44.878  1.00  0.00     0.000 C 
BRANCH   3   4
ATOM      4  C   UNL     1     -16.919 -10.060  44.882  1.00  0.00     0.000 C 
BRANCH   4   5
ATOM      5  C   UNL     1     -17.424  -9.641  43.491  1.00  0.00     0.000 C 
BRANCH   5   6
ATOM      6  C   UNL     1     -18.111  -8.262  43.432  1.00  0.00     0.006 C 
BRANCH   6   7
ATOM      7  C   UNL     1     -17.221  -7.141  42.864  1.00  0.00     0.053 C 
BRANCH   7   8
ATOM      8  C   UNL     1     -16.426  -6.443  43.927  1.00  0.00     0.041 C 
ATOM      9  O   UNL     1     -15.341  -5.874  43.639  1.00  0.00    -0.550 OA
ATOM     10  O   UNL     1     -16.863  -6.456  45.246  1.00  0.00    -0.550 OA
ENDBRANCH   7   8
ENDBRANCH   6   7
ENDBRANCH   5   6
ENDBRANCH   4   5
ENDBRANCH   3   4
ENDBRANCH   2   3
ENDBRANCH   1   2
BRANCH   1  11
ATOM     11  C   UNL     1     -12.909 -10.038  47.104  1.00  0.00     0.000 C 
BRANCH  11  12
ATOM     12  C   UNL     1     -13.161 -11.501  47.508  1.00  0.00     0.000 C 
BRANCH  12  13
ATOM     13  C   UNL     1     -14.507 -11.697  48.229  1.00  0.00     0.000 C 
BRANCH  13  14
ATOM     14  C   UNL     1     -15.010 -10.472  49.020  1.00  0.00     0.000 C 
BRANCH  14  15
ATOM     15  C   UNL     1     -16.331  -9.861  48.514  1.00  0.00     0.000 C 
BRANCH  15  16
ATOM     16  C   UNL     1     -16.265  -8.359  48.181  1.00  0.00     0.006 C 
BRANCH  16  17
ATOM     17  C   UNL     1     -15.142  -7.633  48.932  1.00  0.00     0.053 C 
BRANCH  17  18
ATOM     18  C   UNL     1     -14.780  -6.363  48.228  1.00  0.00     0.041 C 
ATOM     19  O   UNL     1     -14.088  -6.396  47.177  1.00  0.00    -0.550 OA
ATOM     20  O   UNL     1     -15.165  -5.140  48.762  1.00  0.00    -0.550 OA
ENDBRANCH  17  18
ENDBRANCH  16  17
ENDBRANCH  15  16
ENDBRANCH  14  15
ENDBRANCH  13  14
ENDBRANCH  12  13
ENDBRANCH  11  12
ENDBRANCH   1  11
TORSDOF 15
ENDMDL
