MODEL 1
REMARK VINA RESULT:    -5.032      0.000      0.000
REMARK INTER + INTRA:         -11.384
REMARK INTER:                  -9.738
REMARK INTRA:                  -1.646
REMARK UNBOUND:                -1.646
REMARK SMILES CCCCCCCCCCCCCCCCCC(=O)[O-]
REMARK SMILES IDX 10 1 11 2 12 3 13 4 14 5 15 6 16 7 17 8 18 9 19 10 20 11
REMARK SMILES IDX 9 12 8 13 7 14 6 15 5 16 4 17 3 18 2 19 1 20
REMARK H PARENT
REMARK Flexibility Score: inf
ROOT
ATOM      1  C   UNL     1     -14.299 -11.960  12.834  1.00  0.00     0.000 C 
ENDROOT
BRANCH   1   2
ATOM      2  C   UNL     1     -13.013 -12.008  13.673  1.00  0.00     0.000 C 
BRANCH   2   3
ATOM      3  C   UNL     1     -12.657 -13.431  14.132  1.00  0.00     0.000 C 
BRANCH   3   4
ATOM      4  C   UNL     1     -12.212 -13.483  15.603  1.00  0.00     0.000 C 
BRANCH   4   5
ATOM      5  C   UNL     1     -10.883 -12.749  15.850  1.00  0.00     0.000 C 
BRANCH   5   6
ATOM      6  C   UNL     1      -9.659 -13.457  15.231  1.00  0.00     0.000 C 
BRANCH   6   7
ATOM      7  C   UNL     1      -8.999 -12.616  14.128  1.00  0.00     0.006 C 
BRANCH   7   8
ATOM      8  C   UNL     1      -8.572 -11.245  14.664  1.00  0.00     0.053 C 
BRANCH   8   9
ATOM      9  C   UNL     1      -7.121 -11.253  15.027  1.00  0.00     0.041 C 
ATOM     10  O   UNL     1      -6.761 -10.993  16.205  1.00  0.00    -0.550 OA
ATOM     11  O   UNL     1      -6.162 -11.499  14.053  1.00  0.00    -0.550 OA
ENDBRANCH   8   9
ENDBRANCH   7   8
ENDBRANCH   6   7
ENDBRANCH   5   6
ENDBRANCH   4   5
ENDBRANCH   3   4
ENDBRANCH   2   3
ENDBRANCH   1   2
BRANCH   1  12
ATOM     12  C   UNL     1     -15.255 -13.095  13.228  1.00  0.00     0.000 C 
BRANCH  12  13
ATOM     13  C   UNL     1     -16.344 -12.646  14.219  1.00  0.00    -0.000 C 
BRANCH  13  14
ATOM     14  C   UNL     1     -16.699 -13.675  15.309  1.00  0.00    -0.000 C 
BRANCH  14  15
ATOM     15  C   UNL     1     -15.700 -13.760  16.479  1.00  0.00    -0.000 C 
BRANCH  15  16
ATOM     16  C   UNL     1     -15.317 -12.387  17.074  1.00  0.00    -0.000 C 
BRANCH  16  17
ATOM     17  C   UNL     1     -15.418 -12.360  18.610  1.00  0.00    -0.000 C 
BRANCH  17  18
ATOM     18  C   UNL     1     -16.870 -12.423  19.116  1.00  0.00    -0.000 C 
BRANCH  18  19
ATOM     19  C   UNL     1     -17.036 -12.206  20.631  1.00  0.00    -0.003 C 
ATOM     20  C   UNL     1     -17.903 -10.993  20.969  1.00  0.00     0.004 C 
ENDBRANCH  18  19
ENDBRANCH  17  18
ENDBRANCH  16  17
ENDBRANCH  15  16
ENDBRANCH  14  15
ENDBRANCH  13  14
ENDBRANCH  12  13
ENDBRANCH   1  12
TORSDOF 16
ENDMDL
MODEL 2
REMARK VINA RESULT:    -4.797      3.773      8.170
REMARK INTER + INTRA:         -10.929
REMARK INTER:                  -9.641
REMARK INTRA:                  -1.288
REMARK UNBOUND:                -1.646
REMARK SMILES CCCCCCCCCCCCCCCCCC(=O)[O-]
REMARK SMILES IDX 10 1 11 2 12 3 13 4 14 5 15 6 16 7 17 8 18 9 19 10 20 11
REMARK SMILES IDX 9 12 8 13 7 14 6 15 5 16 4 17 3 18 2 19 1 20
REMARK H PARENT
REMARK Flexibility Score: inf
ROOT
ATOM      1  C   UNL     1     -13.570 -12.127  13.531  1.00  0.00     0.000 C 
ENDROOT
BRANCH   1   2
ATOM      2  C   UNL     1     -14.855 -12.901  13.194  1.00  0.00     0.000 C 
BRANCH   2   3
ATOM      3  C   UNL     1     -15.991 -12.625  14.191  1.00  0.00     0.000 C 
BRANCH   3   4
ATOM      4  C   UNL     1     -16.328 -13.852  15.056  1.00  0.00     0.000 C 
BRANCH   4   5
ATOM      5  C   UNL     1     -16.486 -13.506  16.546  1.00  0.00     0.000 C 
BRANCH   5   6
ATOM      6  C   UNL     1     -15.150 -13.202  17.257  1.00  0.00     0.000 C 
BRANCH   6   7
ATOM      7  C   UNL     1     -15.357 -12.474  18.594  1.00  0.00     0.006 C 
BRANCH   7   8
ATOM      8  C   UNL     1     -16.773 -12.708  19.134  1.00  0.00     0.053 C 
BRANCH   8   9
ATOM      9  C   UNL     1     -17.172 -11.599  20.055  1.00  0.00     0.041 C 
ATOM     10  O   UNL     1     -16.293 -10.881  20.599  1.00  0.00    -0.550 OA
ATOM     11  O   UNL     1     -18.512 -11.390  20.352  1.00  0.00    -0.550 OA
ENDBRANCH   8   9
ENDBRANCH   7   8
ENDBRANCH   6   7
ENDBRANCH   5   6
ENDBRANCH   4   5
ENDBRANCH   3   4
ENDBRANCH   2   3
ENDBRANCH   1   2
BRANCH   1  12
ATOM     12  C   UNL     1     -12.908 -12.688  14.797  1.00  0.00     0.000 C 
BRANCH  12  13
ATOM     13  C   UNL     1     -12.644 -14.203  14.716  1.00  0.00    -0.000 C 
BRANCH  13  14
ATOM     14  C   UNL     1     -11.158 -14.608  14.738  1.00  0.00    -0.000 C 
BRANCH  14  15
ATOM     15  C   UNL     1     -10.171 -13.499  14.328  1.00  0.00    -0.000 C 
BRANCH  15  16
ATOM     16  C   UNL     1      -9.305 -12.972  15.493  1.00  0.00    -0.000 C 
BRANCH  16  17
ATOM     17  C   UNL     1      -8.659 -11.610  15.179  1.00  0.00    -0.000 C 
BRANCH  17  18
ATOM     18  C   UNL     1      -8.195 -11.492  13.716  1.00  0.00    -0.000 C 
BRANCH  18  19
ATOM     19  C   UNL     1      -6.840 -12.155  13.412  1.00  0.00    -0.003 C 
ATOM     20  C   UNL     1      -5.658 -11.197  13.563  1.00  0.00     0.004 C 
ENDBRANCH  18  19
ENDBRANCH  17  18
ENDBRANCH  16  17
ENDBRANCH  15  16
ENDBRANCH  14  15
ENDBRANCH  13  14
ENDBRANCH  12  13
ENDBRANCH   1  12
TORSDOF 16
ENDMDL
MODEL 3
REMARK VINA RESULT:    -4.764      1.103      1.739
REMARK INTER + INTRA:         -10.865
REMARK INTER:                  -9.607
REMARK INTRA:                  -1.258
REMARK UNBOUND:                -1.646
REMARK SMILES CCCCCCCCCCCCCCCCCC(=O)[O-]
REMARK SMILES IDX 10 1 11 2 12 3 13 4 14 5 15 6 16 7 17 8 18 9 19 10 20 11
REMARK SMILES IDX 9 12 8 13 7 14 6 15 5 16 4 17 3 18 2 19 1 20
REMARK H PARENT
REMARK Flexibility Score: inf
ROOT
ATOM      1  C   UNL     1     -14.998 -12.978  13.469  1.00  0.00     0.000 C 
ENDROOT
BRANCH   1   2
ATOM      2  C   UNL     1     -13.935 -11.930  13.105  1.00  0.00     0.000 C 
BRANCH   2   3
ATOM      3  C   UNL     1     -12.604 -12.155  13.839  1.00  0.00     0.000 C 
BRANCH   3   4
ATOM      4  C   UNL     1     -12.392 -13.624  14.240  1.00  0.00     0.000 C 
BRANCH   4   5
ATOM      5  C   UNL     1     -11.008 -13.880  14.860  1.00  0.00     0.000 C 
BRANCH   5   6
ATOM      6  C   UNL     1     -10.585 -12.815  15.895  1.00  0.00     0.000 C 
BRANCH   6   7
ATOM      7  C   UNL     1      -9.164 -12.290  15.640  1.00  0.00     0.006 C 
BRANCH   7   8
ATOM      8  C   UNL     1      -9.027 -11.744  14.215  1.00  0.00     0.053 C 
BRANCH   8   9
ATOM      9  C   UNL     1      -7.992 -12.513  13.457  1.00  0.00     0.041 C 
ATOM     10  O   UNL     1      -6.787 -12.486  13.824  1.00  0.00    -0.550 OA
ATOM     11  O   UNL     1      -8.347 -13.220  12.316  1.00  0.00    -0.550 OA
ENDBRANCH   8   9
ENDBRANCH   7   8
ENDBRANCH   6   7
ENDBRANCH   5   6
ENDBRANCH   4   5
ENDBRANCH   3   4
ENDBRANCH   2   3
ENDBRANCH   1   2
BRANCH   1  12
ATOM     12  C   UNL     1     -15.865 -12.494  14.641  1.00  0.00     0.000 C 
BRANCH  12  13
ATOM     13  C   UNL     1     -16.508 -13.650  15.429  1.00  0.00    -0.000 C 
BRANCH  13  14
ATOM     14  C   UNL     1     -15.978 -13.835  16.863  1.00  0.00    -0.000 C 
BRANCH  14  15
ATOM     15  C   UNL     1     -14.977 -12.763  17.335  1.00  0.00    -0.000 C 
BRANCH  15  16
ATOM     16  C   UNL     1     -15.019 -12.497  18.856  1.00  0.00    -0.000 C 
BRANCH  16  17
ATOM     17  C   UNL     1     -16.012 -11.382  19.233  1.00  0.00    -0.000 C 
BRANCH  17  18
ATOM     18  C   UNL     1     -16.714 -11.637  20.579  1.00  0.00    -0.000 C 
BRANCH  18  19
ATOM     19  C   UNL     1     -17.534 -10.449  21.114  1.00  0.00    -0.003 C 
ATOM     20  C   UNL     1     -18.910 -10.860  21.639  1.00  0.00     0.004 C 
ENDBRANCH  18  19
ENDBRANCH  17  18
ENDBRANCH  16  17
ENDBRANCH  15  16
ENDBRANCH  14  15
ENDBRANCH  13  14
ENDBRANCH  12  13
ENDBRANCH   1  12
TORSDOF 16
ENDMDL
MODEL 4
REMARK VINA RESULT:    -4.735      4.582      8.389
REMARK INTER + INTRA:         -10.809
REMARK INTER:                  -9.471
REMARK INTRA:                  -1.338
REMARK UNBOUND:                -1.646
REMARK SMILES CCCCCCCCCCCCCCCCCC(=O)[O-]
REMARK SMILES IDX 10 1 11 2 12 3 13 4 14 5 15 6 16 7 17 8 18 9 19 10 20 11
REMARK SMILES IDX 9 12 8 13 7 14 6 15 5 16 4 17 3 18 2 19 1 20
REMARK H PARENT
REMARK Flexibility Score: inf
ROOT
ATOM      1  C   UNL     1     -15.959 -12.412  14.653  1.00  0.00     0.000 C 
ENDROOT
BRANCH   1   2
ATOM      2  C   UNL     1     -16.280 -13.801  15.225  1.00  0.00     0.000 C 
BRANCH   2   3
ATOM      3  C   UNL     1     -16.264 -13.828  16.761  1.00  0.00     0.000 C 
BRANCH   3   4
ATOM      4  C   UNL     1     -14.993 -13.194  17.350  1.00  0.00     0.000 C 
BRANCH   4   5
ATOM      5  C   UNL     1     -15.276 -12.336  18.595  1.00  0.00     0.000 C 
BRANCH   5   6
ATOM      6  C   UNL     1     -16.757 -12.344  19.031  1.00  0.00     0.000 C 
BRANCH   6   7
ATOM      7  C   UNL     1     -16.912 -12.359  20.559  1.00  0.00     0.006 C 
BRANCH   7   8
ATOM      8  C   UNL     1     -17.252 -10.962  21.090  1.00  0.00     0.053 C 
BRANCH   8   9
ATOM      9  C   UNL     1     -18.686 -10.896  21.510  1.00  0.00     0.041 C 
ATOM     10  O   UNL     1     -19.603 -11.021  20.656  1.00  0.00    -0.550 OA
ATOM     11  O   UNL     1     -19.012 -10.648  22.837  1.00  0.00    -0.550 OA
ENDBRANCH   8   9
ENDBRANCH   7   8
ENDBRANCH   6   7
ENDBRANCH   5   6
ENDBRANCH   4   5
ENDBRANCH   3   4
ENDBRANCH   2   3
ENDBRANCH   1   2
BRANCH   1  12
ATOM     12  C   UNL     1     -15.047 -12.522  13.422  1.00  0.00     0.000 C 
BRANCH  12  13
ATOM     13  C   UNL     1     -13.950 -13.591  13.582  1.00  0.00    -0.000 C 
BRANCH  13  14
ATOM     14  C   UNL     1     -12.583 -13.056  14.048  1.00  0.00    -0.000 C 
BRANCH  14  15
ATOM     15  C   UNL     1     -12.211 -13.390  15.505  1.00  0.00    -0.000 C 
BRANCH  15  16
ATOM     16  C   UNL     1     -10.902 -12.723  15.984  1.00  0.00    -0.000 C 
BRANCH  16  17
ATOM     17  C   UNL     1      -9.647 -13.426  15.436  1.00  0.00    -0.000 C 
BRANCH  17  18
ATOM     18  C   UNL     1      -8.703 -12.467  14.689  1.00  0.00    -0.000 C 
BRANCH  18  19
ATOM     19  C   UNL     1      -9.262 -11.050  14.469  1.00  0.00    -0.003 C 
ATOM     20  C   UNL     1      -8.281 -10.125  13.749  1.00  0.00     0.004 C 
ENDBRANCH  18  19
ENDBRANCH  17  18
ENDBRANCH  16  17
ENDBRANCH  15  16
ENDBRANCH  14  15
ENDBRANCH  13  14
ENDBRANCH  12  13
ENDBRANCH   1  12
TORSDOF 16
ENDMDL
MODEL 5
REMARK VINA RESULT:    -4.728      1.047      2.402
REMARK INTER + INTRA:         -10.795
REMARK INTER:                  -9.419
REMARK INTRA:                  -1.376
REMARK UNBOUND:                -1.646
REMARK SMILES CCCCCCCCCCCCCCCCCC(=O)[O-]
REMARK SMILES IDX 10 1 11 2 12 3 13 4 14 5 15 6 16 7 17 8 18 9 19 10 20 11
REMARK SMILES IDX 9 12 8 13 7 14 6 15 5 16 4 17 3 18 2 19 1 20
REMARK H PARENT
REMARK Flexibility Score: inf
ROOT
ATOM      1  C   UNL     1     -15.891 -12.371  14.938  1.00  0.00     0.000 C 
ENDROOT
BRANCH   1   2
ATOM      2  C   UNL     1     -15.395 -12.580  13.499  1.00  0.00     0.000 C 
BRANCH   2   3
ATOM      3  C   UNL     1     -14.096 -13.399  13.433  1.00  0.00     0.000 C 
BRANCH   3   4
ATOM      4  C   UNL     1     -12.915 -12.689  14.114  1.00  0.00     0.000 C 
BRANCH   4   5
ATOM      5  C   UNL     1     -12.179 -13.588  15.122  1.00  0.00     0.000 C 
BRANCH   5   6
ATOM      6  C   UNL     1     -11.268 -12.811  16.097  1.00  0.00     0.000 C 
BRANCH   6   7
ATOM      7  C   UNL     1      -9.788 -12.890  15.694  1.00  0.00     0.006 C 
BRANCH   7   8
ATOM      8  C   UNL     1      -9.382 -11.677  14.850  1.00  0.00     0.053 C 
BRANCH   8   9
ATOM      9  C   UNL     1      -7.996 -11.852  14.314  1.00  0.00     0.041 C 
ATOM     10  O   UNL     1      -7.802 -12.530  13.271  1.00  0.00    -0.550 OA
ATOM     11  O   UNL     1      -6.914 -11.308  14.993  1.00  0.00    -0.550 OA
ENDBRANCH   8   9
ENDBRANCH   7   8
ENDBRANCH   6   7
ENDBRANCH   5   6
ENDBRANCH   4   5
ENDBRANCH   3   4
ENDBRANCH   2   3
ENDBRANCH   1   2
BRANCH   1  12
ATOM     12  C   UNL     1     -16.264 -13.710  15.590  1.00  0.00     0.000 C 
BRANCH  12  13
ATOM     13  C   UNL     1     -15.800 -13.816  17.054  1.00  0.00    -0.000 C 
BRANCH  13  14
ATOM     14  C   UNL     1     -15.091 -12.564  17.604  1.00  0.00    -0.000 C 
BRANCH  14  15
ATOM     15  C   UNL     1     -15.540 -12.123  19.011  1.00  0.00    -0.000 C 
BRANCH  15  16
ATOM     16  C   UNL     1     -16.952 -12.615  19.398  1.00  0.00    -0.000 C 
BRANCH  16  17
ATOM     17  C   UNL     1     -17.778 -11.534  20.118  1.00  0.00    -0.000 C 
BRANCH  17  18
ATOM     18  C   UNL     1     -17.176 -11.127  21.475  1.00  0.00    -0.000 C 
BRANCH  18  19
ATOM     19  C   UNL     1     -18.206 -10.701  22.537  1.00  0.00    -0.003 C 
ATOM     20  C   UNL     1     -19.652 -10.910  22.085  1.00  0.00     0.004 C 
ENDBRANCH  18  19
ENDBRANCH  17  18
ENDBRANCH  16  17
ENDBRANCH  15  16
ENDBRANCH  14  15
ENDBRANCH  13  14
ENDBRANCH  12  13
ENDBRANCH   1  12
TORSDOF 16
ENDMDL
MODEL 6
REMARK VINA RESULT:    -4.688      1.267      3.042
REMARK INTER + INTRA:         -10.718
REMARK INTER:                  -9.265
REMARK INTRA:                  -1.453
REMARK UNBOUND:                -1.646
REMARK SMILES CCCCCCCCCCCCCCCCCC(=O)[O-]
REMARK SMILES IDX 10 1 11 2 12 3 13 4 14 5 15 6 16 7 17 8 18 9 19 10 20 11
REMARK SMILES IDX 9 12 8 13 7 14 6 15 5 16 4 17 3 18 2 19 1 20
REMARK H PARENT
REMARK Flexibility Score: inf
ROOT
ATOM      1  C   UNL     1     -16.596 -13.574  15.129  1.00  0.00     0.000 C 
ENDROOT
BRANCH   1   2
ATOM      2  C   UNL     1     -15.855 -12.387  14.493  1.00  0.00     0.000 C 
BRANCH   2   3
ATOM      3  C   UNL     1     -15.095 -12.779  13.216  1.00  0.00     0.000 C 
BRANCH   3   4
ATOM      4  C   UNL     1     -13.582 -12.923  13.449  1.00  0.00     0.000 C 
BRANCH   4   5
ATOM      5  C   UNL     1     -13.212 -14.233  14.166  1.00  0.00     0.000 C 
BRANCH   5   6
ATOM      6  C   UNL     1     -11.912 -14.141  14.994  1.00  0.00     0.000 C 
BRANCH   6   7
ATOM      7  C   UNL     1     -11.538 -12.688  15.325  1.00  0.00     0.006 C 
BRANCH   7   8
ATOM      8  C   UNL     1     -10.147 -12.611  15.965  1.00  0.00     0.053 C 
BRANCH   8   9
ATOM      9  C   UNL     1      -9.222 -11.802  15.112  1.00  0.00     0.041 C 
ATOM     10  O   UNL     1      -9.649 -11.246  14.066  1.00  0.00    -0.550 OA
ATOM     11  O   UNL     1      -7.878 -11.702  15.445  1.00  0.00    -0.550 OA
ENDBRANCH   8   9
ENDBRANCH   7   8
ENDBRANCH   6   7
ENDBRANCH   5   6
ENDBRANCH   4   5
ENDBRANCH   3   4
ENDBRANCH   2   3
ENDBRANCH   1   2
BRANCH   1  12
ATOM     12  C   UNL     1     -16.093 -13.833  16.557  1.00  0.00     0.000 C 
BRANCH  12  13
ATOM     13  C   UNL     1     -15.138 -12.737  17.065  1.00  0.00    -0.000 C 
BRANCH  13  14
ATOM     14  C   UNL     1     -15.104 -12.560  18.594  1.00  0.00    -0.000 C 
BRANCH  14  15
ATOM     15  C   UNL     1     -16.452 -12.184  19.240  1.00  0.00    -0.000 C 
BRANCH  15  16
ATOM     16  C   UNL     1     -16.464 -12.314  20.779  1.00  0.00    -0.000 C 
BRANCH  16  17
ATOM     17  C   UNL     1     -16.543 -10.949  21.486  1.00  0.00    -0.000 C 
BRANCH  17  18
ATOM     18  C   UNL     1     -17.790 -10.140  21.088  1.00  0.00    -0.000 C 
BRANCH  18  19
ATOM     19  C   UNL     1     -19.130 -10.864  21.317  1.00  0.00    -0.003 C 
ATOM     20  C   UNL     1     -19.583 -10.835  22.776  1.00  0.00     0.004 C 
ENDBRANCH  18  19
ENDBRANCH  17  18
ENDBRANCH  16  17
ENDBRANCH  15  16
ENDBRANCH  14  15
ENDBRANCH  13  14
ENDBRANCH  12  13
ENDBRANCH   1  12
TORSDOF 16
ENDMDL
MODEL 7
REMARK VINA RESULT:    -4.651      5.001      9.512
REMARK INTER + INTRA:         -10.646
REMARK INTER:                  -9.713
REMARK INTRA:                  -0.933
REMARK UNBOUND:                -1.646
REMARK SMILES CCCCCCCCCCCCCCCCCC(=O)[O-]
REMARK SMILES IDX 10 1 11 2 12 3 13 4 14 5 15 6 16 7 17 8 18 9 19 10 20 11
REMARK SMILES IDX 9 12 8 13 7 14 6 15 5 16 4 17 3 18 2 19 1 20
REMARK H PARENT
REMARK Flexibility Score: inf
ROOT
ATOM      1  C   UNL     1     -14.830 -12.125  15.725  1.00  0.00     0.000 C 
ENDROOT
BRANCH   1   2
ATOM      2  C   UNL     1     -15.121 -13.552  16.216  1.00  0.00     0.000 C 
BRANCH   2   3
ATOM      3  C   UNL     1     -16.174 -13.591  17.334  1.00  0.00     0.000 C 
BRANCH   3   4
ATOM      4  C   UNL     1     -15.874 -12.591  18.463  1.00  0.00     0.000 C 
BRANCH   4   5
ATOM      5  C   UNL     1     -17.084 -12.348  19.381  1.00  0.00     0.000 C 
BRANCH   5   6
ATOM      6  C   UNL     1     -16.783 -11.406  20.567  1.00  0.00     0.000 C 
BRANCH   6   7
ATOM      7  C   UNL     1     -17.941 -10.437  20.846  1.00  0.00     0.006 C 
BRANCH   7   8
ATOM      8  C   UNL     1     -18.799 -10.928  22.017  1.00  0.00     0.053 C 
BRANCH   8   9
ATOM      9  C   UNL     1     -20.253 -10.846  21.672  1.00  0.00     0.041 C 
ATOM     10  O   UNL     1     -20.634 -10.137  20.704  1.00  0.00    -0.550 OA
ATOM     11  O   UNL     1     -21.192 -11.510  22.450  1.00  0.00    -0.550 OA
ENDBRANCH   8   9
ENDBRANCH   7   8
ENDBRANCH   6   7
ENDBRANCH   5   6
ENDBRANCH   4   5
ENDBRANCH   3   4
ENDBRANCH   2   3
ENDBRANCH   1   2
BRANCH   1  12
ATOM     12  C   UNL     1     -13.447 -12.043  15.064  1.00  0.00     0.000 C 
BRANCH  12  13
ATOM     13  C   UNL     1     -12.547 -13.245  15.403  1.00  0.00    -0.000 C 
BRANCH  13  14
ATOM     14  C   UNL     1     -11.187 -12.885  16.029  1.00  0.00    -0.000 C 
BRANCH  14  15
ATOM     15  C   UNL     1      -9.957 -13.449  15.292  1.00  0.00    -0.000 C 
BRANCH  15  16
ATOM     16  C   UNL     1      -9.573 -12.657  14.023  1.00  0.00    -0.000 C 
BRANCH  16  17
ATOM     17  C   UNL     1      -9.304 -11.169  14.315  1.00  0.00    -0.000 C 
BRANCH  17  18
ATOM     18  C   UNL     1      -8.037 -10.643  13.618  1.00  0.00    -0.000 C 
BRANCH  18  19
ATOM     19  C   UNL     1      -6.734 -10.836  14.414  1.00  0.00    -0.003 C 
ATOM     20  C   UNL     1      -6.974 -11.098  15.901  1.00  0.00     0.004 C 
ENDBRANCH  18  19
ENDBRANCH  17  18
ENDBRANCH  16  17
ENDBRANCH  15  16
ENDBRANCH  14  15
ENDBRANCH  13  14
ENDBRANCH  12  13
ENDBRANCH   1  12
TORSDOF 16
ENDMDL
MODEL 8
REMARK VINA RESULT:    -4.624      2.093      4.389
REMARK INTER + INTRA:         -10.594
REMARK INTER:                  -8.814
REMARK INTRA:                  -1.780
REMARK UNBOUND:                -1.646
REMARK SMILES CCCCCCCCCCCCCCCCCC(=O)[O-]
REMARK SMILES IDX 10 1 11 2 12 3 13 4 14 5 15 6 16 7 17 8 18 9 19 10 20 11
REMARK SMILES IDX 9 12 8 13 7 14 6 15 5 16 4 17 3 18 2 19 1 20
REMARK H PARENT
REMARK Flexibility Score: inf
ROOT
ATOM      1  C   UNL     1     -14.929 -13.074  17.170  1.00  0.00     0.000 C 
ENDROOT
BRANCH   1   2
ATOM      2  C   UNL     1     -16.100 -13.857  16.556  1.00  0.00     0.000 C 
BRANCH   2   3
ATOM      3  C   UNL     1     -16.164 -13.727  15.027  1.00  0.00     0.000 C 
BRANCH   3   4
ATOM      4  C   UNL     1     -15.752 -12.329  14.536  1.00  0.00     0.000 C 
BRANCH   4   5
ATOM      5  C   UNL     1     -14.686 -12.376  13.428  1.00  0.00     0.000 C 
BRANCH   5   6
ATOM      6  C   UNL     1     -13.286 -11.923  13.894  1.00  0.00     0.000 C 
BRANCH   6   7
ATOM      7  C   UNL     1     -12.379 -13.112  14.246  1.00  0.00     0.006 C 
BRANCH   7   8
ATOM      8  C   UNL     1     -11.623 -12.857  15.555  1.00  0.00     0.053 C 
BRANCH   8   9
ATOM      9  C   UNL     1     -10.191 -12.525  15.276  1.00  0.00     0.041 C 
ATOM     10  O   UNL     1      -9.272 -13.086  15.929  1.00  0.00    -0.550 OA
ATOM     11  O   UNL     1      -9.873 -11.559  14.331  1.00  0.00    -0.550 OA
ENDBRANCH   8   9
ENDBRANCH   7   8
ENDBRANCH   6   7
ENDBRANCH   5   6
ENDBRANCH   4   5
ENDBRANCH   3   4
ENDBRANCH   2   3
ENDBRANCH   1   2
BRANCH   1  12
ATOM     12  C   UNL     1     -15.386 -12.278  18.401  1.00  0.00     0.000 C 
BRANCH  12  13
ATOM     13  C   UNL     1     -16.772 -12.710  18.914  1.00  0.00    -0.000 C 
BRANCH  13  14
ATOM     14  C   UNL     1     -17.156 -12.155  20.299  1.00  0.00    -0.000 C 
BRANCH  14  15
ATOM     15  C   UNL     1     -16.667 -10.724  20.590  1.00  0.00    -0.000 C 
BRANCH  15  16
ATOM     16  C   UNL     1     -15.866 -10.593  21.904  1.00  0.00    -0.000 C 
BRANCH  16  17
ATOM     17  C   UNL     1     -15.258 -11.931  22.361  1.00  0.00    -0.000 C 
BRANCH  17  18
ATOM     18  C   UNL     1     -13.929 -12.255  21.656  1.00  0.00    -0.000 C 
BRANCH  18  19
ATOM     19  C   UNL     1     -13.042 -11.033  21.355  1.00  0.00    -0.003 C 
ATOM     20  C   UNL     1     -11.659 -11.413  20.827  1.00  0.00     0.004 C 
ENDBRANCH  18  19
ENDBRANCH  17  18
ENDBRANCH  16  17
ENDBRANCH  15  16
ENDBRANCH  14  15
ENDBRANCH  13  14
ENDBRANCH  12  13
ENDBRANCH   1  12
TORSDOF 16
ENDMDL
MODEL 9
REMARK VINA RESULT:    -4.504      1.966      3.374
REMARK INTER + INTRA:         -10.362
REMARK INTER:                  -8.692
REMARK INTRA:                  -1.669
REMARK UNBOUND:                -1.646
REMARK SMILES CCCCCCCCCCCCCCCCCC(=O)[O-]
REMARK SMILES IDX 10 1 11 2 12 3 13 4 14 5 15 6 16 7 17 8 18 9 19 10 20 11
REMARK SMILES IDX 9 12 8 13 7 14 6 15 5 16 4 17 3 18 2 19 1 20
REMARK H PARENT
REMARK Flexibility Score: inf
ROOT
ATOM      1  C   UNL     1     -16.615 -13.545  15.247  1.00  0.00     0.000 C 
ENDROOT
BRANCH   1   2
ATOM      2  C   UNL     1     -15.732 -12.553  14.474  1.00  0.00     0.000 C 
BRANCH   2   3
ATOM      3  C   UNL     1     -14.809 -13.247  13.459  1.00  0.00     0.000 C 
BRANCH   3   4
ATOM      4  C   UNL     1     -13.324 -13.137  13.841  1.00  0.00     0.000 C 
BRANCH   4   5
ATOM      5  C   UNL     1     -12.773 -14.428  14.471  1.00  0.00     0.000 C 
BRANCH   5   6
ATOM      6  C   UNL     1     -11.412 -14.242  15.176  1.00  0.00     0.000 C 
BRANCH   6   7
ATOM      7  C   UNL     1     -11.242 -12.825  15.745  1.00  0.00     0.006 C 
BRANCH   7   8
ATOM      8  C   UNL     1      -9.764 -12.509  16.000  1.00  0.00     0.053 C 
BRANCH   8   9
ATOM      9  C   UNL     1      -9.100 -12.057  14.739  1.00  0.00     0.041 C 
ATOM     10  O   UNL     1      -8.249 -12.793  14.172  1.00  0.00    -0.550 OA
ATOM     11  O   UNL     1      -9.381 -10.803  14.215  1.00  0.00    -0.550 OA
ENDBRANCH   8   9
ENDBRANCH   7   8
ENDBRANCH   6   7
ENDBRANCH   5   6
ENDBRANCH   4   5
ENDBRANCH   3   4
ENDBRANCH   2   3
ENDBRANCH   1   2
BRANCH   1  12
ATOM     12  C   UNL     1     -16.048 -13.806  16.650  1.00  0.00     0.000 C 
BRANCH  12  13
ATOM     13  C   UNL     1     -15.031 -12.740  17.094  1.00  0.00    -0.000 C 
BRANCH  13  14
ATOM     14  C   UNL     1     -14.863 -12.595  18.619  1.00  0.00    -0.000 C 
BRANCH  14  15
ATOM     15  C   UNL     1     -16.047 -11.933  19.348  1.00  0.00    -0.000 C 
BRANCH  15  16
ATOM     16  C   UNL     1     -15.951 -12.007  20.888  1.00  0.00    -0.000 C 
BRANCH  16  17
ATOM     17  C   UNL     1     -15.296 -10.755  21.499  1.00  0.00    -0.000 C 
BRANCH  17  18
ATOM     18  C   UNL     1     -14.029 -11.079  22.311  1.00  0.00    -0.000 C 
BRANCH  18  19
ATOM     19  C   UNL     1     -13.391 -12.444  21.996  1.00  0.00    -0.003 C 
ATOM     20  C   UNL     1     -12.137 -12.332  21.130  1.00  0.00     0.004 C 
ENDBRANCH  18  19
ENDBRANCH  17  18
ENDBRANCH  16  17
ENDBRANCH  15  16
ENDBRANCH  14  15
ENDBRANCH  13  14
ENDBRANCH  12  13
ENDBRANCH   1  12
TORSDOF 16
ENDMDL
