MODEL 1
REMARK VINA RESULT:    -4.480      0.000      0.000
REMARK INTER + INTRA:          -9.658
REMARK INTER:                  -8.147
REMARK INTRA:                  -1.511
REMARK UNBOUND:                -1.511
REMARK SMILES CCCCCC=CCC=CCCCCCCCC(=O)[O-]
REMARK SMILES IDX 11 1 12 2 13 3 14 4 15 5 16 6 17 7 18 8 19 9 20 10 10 11
REMARK SMILES IDX 9 12 8 13 7 14 6 15 5 16 4 17 3 18 2 19 1 20
REMARK H PARENT
REMARK Flexibility Score: inf
ROOT
ATOM      1  C   UNL     1       2.313  15.044  18.487  1.00  0.00     0.027 C 
ENDROOT
BRANCH   1   2
ATOM      2  C   UNL     1       2.254  13.724  19.266  1.00  0.00     0.004 C 
BRANCH   2   3
ATOM      3  C   UNL     1       3.129  12.656  18.604  1.00  0.00     0.000 C 
BRANCH   3   4
ATOM      4  C   UNL     1       3.519  13.073  17.177  1.00  0.00     0.000 C 
BRANCH   4   5
ATOM      5  C   UNL     1       5.022  12.904  16.902  1.00  0.00     0.000 C 
BRANCH   5   6
ATOM      6  C   UNL     1       5.336  12.732  15.407  1.00  0.00     0.006 C 
BRANCH   6   7
ATOM      7  C   UNL     1       4.170  12.094  14.638  1.00  0.00     0.053 C 
BRANCH   7   8
ATOM      8  C   UNL     1       4.553  10.783  14.026  1.00  0.00     0.041 C 
ATOM      9  O   UNL     1       4.887   9.817  14.758  1.00  0.00    -0.550 OA
ATOM     10  O   UNL     1       4.547  10.630  12.648  1.00  0.00    -0.550 OA
ENDBRANCH   7   8
ENDBRANCH   6   7
ENDBRANCH   5   6
ENDBRANCH   4   5
ENDBRANCH   3   4
ENDBRANCH   2   3
ENDBRANCH   1   2
BRANCH   1  11
ATOM     11  C   UNL     1       0.961  15.697  18.435  1.00  0.00    -0.031 C 
ATOM     12  C   UNL     1      -0.066  15.244  19.171  1.00  0.00    -0.027 C 
BRANCH  12  13
ATOM     13  C   UNL     1      -1.397  15.942  19.176  1.00  0.00     0.054 C 
BRANCH  13  14
ATOM     14  C   UNL     1      -1.217  17.419  19.387  1.00  0.00    -0.027 C 
ATOM     15  C   UNL     1      -1.054  17.930  20.616  1.00  0.00    -0.031 C 
BRANCH  15  16
ATOM     16  C   UNL     1      -0.777  19.390  20.828  1.00  0.00     0.027 C 
BRANCH  16  17
ATOM     17  C   UNL     1      -0.167  20.011  19.564  1.00  0.00     0.004 C 
BRANCH  17  18
ATOM     18  C   UNL     1       1.364  20.006  19.626  1.00  0.00     0.000 C 
BRANCH  18  19
ATOM     19  C   UNL     1       1.964  19.711  18.247  1.00  0.00    -0.003 C 
ATOM     20  C   UNL     1       0.913  19.835  17.148  1.00  0.00     0.004 C 
ENDBRANCH  18  19
ENDBRANCH  17  18
ENDBRANCH  16  17
ENDBRANCH  15  16
ENDBRANCH  13  14
ENDBRANCH  12  13
ENDBRANCH   1  11
TORSDOF 14
ENDMDL
MODEL 2
REMARK VINA RESULT:    -4.403      3.761      8.764
REMARK INTER + INTRA:          -9.517
REMARK INTER:                  -8.344
REMARK INTRA:                  -1.173
REMARK UNBOUND:                -1.511
REMARK SMILES CCCCCC=CCC=CCCCCCCCC(=O)[O-]
REMARK SMILES IDX 11 1 12 2 13 3 14 4 15 5 16 6 17 7 18 8 19 9 20 10 10 11
REMARK SMILES IDX 9 12 8 13 7 14 6 15 5 16 4 17 3 18 2 19 1 20
REMARK H PARENT
REMARK Flexibility Score: inf
ROOT
ATOM      1  C   UNL     1       1.002  15.780  18.792  1.00  0.00     0.027 C 
ENDROOT
BRANCH   1   2
ATOM      2  C   UNL     1       1.366  17.270  18.796  1.00  0.00     0.004 C 
BRANCH   2   3
ATOM      3  C   UNL     1       0.204  18.118  19.322  1.00  0.00     0.000 C 
BRANCH   3   4
ATOM      4  C   UNL     1      -0.915  17.227  19.882  1.00  0.00     0.000 C 
BRANCH   4   5
ATOM      5  C   UNL     1      -1.381  17.671  21.278  1.00  0.00     0.000 C 
BRANCH   5   6
ATOM      6  C   UNL     1      -1.677  16.484  22.210  1.00  0.00     0.006 C 
BRANCH   6   7
ATOM      7  C   UNL     1      -1.542  15.133  21.492  1.00  0.00     0.053 C 
BRANCH   7   8
ATOM      8  C   UNL     1      -1.511  13.989  22.455  1.00  0.00     0.041 C 
ATOM      9  O   UNL     1      -1.497  12.805  22.033  1.00  0.00    -0.550 OA
ATOM     10  O   UNL     1      -1.503  14.229  23.822  1.00  0.00    -0.550 OA
ENDBRANCH   7   8
ENDBRANCH   6   7
ENDBRANCH   5   6
ENDBRANCH   4   5
ENDBRANCH   3   4
ENDBRANCH   2   3
ENDBRANCH   1   2
BRANCH   1  11
ATOM     11  C   UNL     1       2.233  14.928  18.666  1.00  0.00    -0.031 C 
ATOM     12  C   UNL     1       2.235  13.639  19.039  1.00  0.00    -0.027 C 
BRANCH  12  13
ATOM     13  C   UNL     1       3.445  12.768  18.843  1.00  0.00     0.054 C 
BRANCH  13  14
ATOM     14  C   UNL     1       3.787  12.661  17.384  1.00  0.00    -0.027 C 
ATOM     15  C   UNL     1       4.979  13.066  16.920  1.00  0.00    -0.031 C 
BRANCH  15  16
ATOM     16  C   UNL     1       5.366  12.874  15.482  1.00  0.00     0.027 C 
BRANCH  16  17
ATOM     17  C   UNL     1       4.136  12.521  14.635  1.00  0.00     0.004 C 
BRANCH  17  18
ATOM     18  C   UNL     1       4.458  11.420  13.620  1.00  0.00     0.000 C 
BRANCH  18  19
ATOM     19  C   UNL     1       4.872  10.127  14.329  1.00  0.00    -0.003 C 
ATOM     20  C   UNL     1       4.889   8.947  13.363  1.00  0.00     0.004 C 
ENDBRANCH  18  19
ENDBRANCH  17  18
ENDBRANCH  16  17
ENDBRANCH  15  16
ENDBRANCH  13  14
ENDBRANCH  12  13
ENDBRANCH   1  11
TORSDOF 14
ENDMDL
MODEL 3
REMARK VINA RESULT:    -4.329      3.411      8.453
REMARK INTER + INTRA:          -9.383
REMARK INTER:                  -8.006
REMARK INTRA:                  -1.378
REMARK UNBOUND:                -1.511
REMARK SMILES CCCCCC=CCC=CCCCCCCCC(=O)[O-]
REMARK SMILES IDX 11 1 12 2 13 3 14 4 15 5 16 6 17 7 18 8 19 9 20 10 10 11
REMARK SMILES IDX 9 12 8 13 7 14 6 15 5 16 4 17 3 18 2 19 1 20
REMARK H PARENT
REMARK Flexibility Score: inf
ROOT
ATOM      1  C   UNL     1       0.857  15.749  18.463  1.00  0.00     0.027 C 
ENDROOT
BRANCH   1   2
ATOM      2  C   UNL     1      -0.144  15.246  19.510  1.00  0.00     0.004 C 
BRANCH   2   3
ATOM      3  C   UNL     1      -1.577  15.636  19.132  1.00  0.00     0.000 C 
BRANCH   3   4
ATOM      4  C   UNL     1      -1.680  17.144  18.856  1.00  0.00     0.000 C 
BRANCH   4   5
ATOM      5  C   UNL     1      -1.499  17.991  20.126  1.00  0.00     0.000 C 
BRANCH   5   6
ATOM      6  C   UNL     1      -0.393  19.048  19.980  1.00  0.00     0.006 C 
BRANCH   6   7
ATOM      7  C   UNL     1      -0.284  19.583  18.544  1.00  0.00     0.053 C 
BRANCH   7   8
ATOM      8  C   UNL     1       1.115  19.499  18.020  1.00  0.00     0.041 C 
ATOM      9  O   UNL     1       2.039  19.058  18.749  1.00  0.00    -0.550 OA
ATOM     10  O   UNL     1       1.399  19.913  16.727  1.00  0.00    -0.550 OA
ENDBRANCH   7   8
ENDBRANCH   6   7
ENDBRANCH   5   6
ENDBRANCH   4   5
ENDBRANCH   3   4
ENDBRANCH   2   3
ENDBRANCH   1   2
BRANCH   1  11
ATOM     11  C   UNL     1       2.076  14.872  18.423  1.00  0.00    -0.031 C 
ATOM     12  C   UNL     1       2.134  13.719  19.109  1.00  0.00    -0.027 C 
BRANCH  12  13
ATOM     13  C   UNL     1       3.325  12.806  19.009  1.00  0.00     0.054 C 
BRANCH  13  14
ATOM     14  C   UNL     1       3.747  12.645  17.576  1.00  0.00    -0.027 C 
ATOM     15  C   UNL     1       4.970  13.016  17.167  1.00  0.00    -0.031 C 
BRANCH  15  16
ATOM     16  C   UNL     1       5.434  12.769  15.761  1.00  0.00     0.027 C 
BRANCH  16  17
ATOM     17  C   UNL     1       4.237  12.515  14.835  1.00  0.00     0.004 C 
BRANCH  17  18
ATOM     18  C   UNL     1       4.548  11.415  13.815  1.00  0.00     0.000 C 
BRANCH  18  19
ATOM     19  C   UNL     1       4.644  10.047  14.500  1.00  0.00    -0.003 C 
ATOM     20  C   UNL     1       5.000   8.952  13.500  1.00  0.00     0.004 C 
ENDBRANCH  18  19
ENDBRANCH  17  18
ENDBRANCH  16  17
ENDBRANCH  15  16
ENDBRANCH  13  14
ENDBRANCH  12  13
ENDBRANCH   1  11
TORSDOF 14
ENDMDL
MODEL 4
REMARK VINA RESULT:    -4.232      1.804      2.678
REMARK INTER + INTRA:          -9.207
REMARK INTER:                  -7.339
REMARK INTRA:                  -1.869
REMARK UNBOUND:                -1.511
REMARK SMILES CCCCCC=CCC=CCCCCCCCC(=O)[O-]
REMARK SMILES IDX 11 1 12 2 13 3 14 4 15 5 16 6 17 7 18 8 19 9 20 10 10 11
REMARK SMILES IDX 9 12 8 13 7 14 6 15 5 16 4 17 3 18 2 19 1 20
REMARK H PARENT
REMARK Flexibility Score: inf
ROOT
ATOM      1  C   UNL     1       4.239  12.653  19.435  1.00  0.00     0.027 C 
ENDROOT
BRANCH   1   2
ATOM      2  C   UNL     1       4.240  11.133  19.636  1.00  0.00     0.004 C 
BRANCH   2   3
ATOM      3  C   UNL     1       2.916  10.517  19.169  1.00  0.00     0.000 C 
BRANCH   3   4
ATOM      4  C   UNL     1       3.140   9.570  17.982  1.00  0.00     0.000 C 
BRANCH   4   5
ATOM      5  C   UNL     1       3.051  10.289  16.627  1.00  0.00     0.000 C 
BRANCH   5   6
ATOM      6  C   UNL     1       4.431  10.652  16.056  1.00  0.00     0.006 C 
BRANCH   6   7
ATOM      7  C   UNL     1       4.580  12.161  15.808  1.00  0.00     0.053 C 
BRANCH   7   8
ATOM      8  C   UNL     1       3.605  12.659  14.789  1.00  0.00     0.041 C 
ATOM      9  O   UNL     1       2.736  13.511  15.107  1.00  0.00    -0.550 OA
ATOM     10  O   UNL     1       3.650  12.180  13.488  1.00  0.00    -0.550 OA
ENDBRANCH   7   8
ENDBRANCH   6   7
ENDBRANCH   5   6
ENDBRANCH   4   5
ENDBRANCH   3   4
ENDBRANCH   2   3
ENDBRANCH   1   2
BRANCH   1  11
ATOM     11  C   UNL     1       2.876  13.140  19.032  1.00  0.00    -0.031 C 
ATOM     12  C   UNL     1       2.688  14.375  18.541  1.00  0.00    -0.027 C 
BRANCH  12  13
ATOM     13  C   UNL     1       1.337  14.835  18.069  1.00  0.00     0.054 C 
BRANCH  13  14
ATOM     14  C   UNL     1       0.836  15.965  18.923  1.00  0.00    -0.027 C 
ATOM     15  C   UNL     1      -0.471  16.254  18.995  1.00  0.00    -0.031 C 
BRANCH  15  16
ATOM     16  C   UNL     1      -0.990  17.317  19.920  1.00  0.00     0.027 C 
BRANCH  16  17
ATOM     17  C   UNL     1      -0.179  18.610  19.762  1.00  0.00     0.004 C 
BRANCH  17  18
ATOM     18  C   UNL     1      -0.538  19.337  18.463  1.00  0.00     0.000 C 
BRANCH  18  19
ATOM     19  C   UNL     1       0.724  19.813  17.737  1.00  0.00    -0.003 C 
ATOM     20  C   UNL     1       1.983  19.444  18.516  1.00  0.00     0.004 C 
ENDBRANCH  18  19
ENDBRANCH  17  18
ENDBRANCH  16  17
ENDBRANCH  15  16
ENDBRANCH  13  14
ENDBRANCH  12  13
ENDBRANCH   1  11
TORSDOF 14
ENDMDL
MODEL 5
REMARK VINA RESULT:    -4.165      2.094      3.790
REMARK INTER + INTRA:          -9.084
REMARK INTER:                  -7.403
REMARK INTRA:                  -1.681
REMARK UNBOUND:                -1.511
REMARK SMILES CCCCCC=CCC=CCCCCCCCC(=O)[O-]
REMARK SMILES IDX 11 1 12 2 13 3 14 4 15 5 16 6 17 7 18 8 19 9 20 10 10 11
REMARK SMILES IDX 9 12 8 13 7 14 6 15 5 16 4 17 3 18 2 19 1 20
REMARK H PARENT
REMARK Flexibility Score: inf
ROOT
ATOM      1  C   UNL     1       4.245  12.842  19.493  1.00  0.00     0.027 C 
ENDROOT
BRANCH   1   2
ATOM      2  C   UNL     1       4.234  11.308  19.493  1.00  0.00     0.004 C 
BRANCH   2   3
ATOM      3  C   UNL     1       2.890  10.769  18.992  1.00  0.00     0.000 C 
BRANCH   3   4
ATOM      4  C   UNL     1       3.097   9.708  17.901  1.00  0.00     0.000 C 
BRANCH   4   5
ATOM      5  C   UNL     1       3.084  10.305  16.485  1.00  0.00     0.000 C 
BRANCH   5   6
ATOM      6  C   UNL     1       4.496  10.605  15.956  1.00  0.00     0.006 C 
BRANCH   6   7
ATOM      7  C   UNL     1       4.697  12.096  15.646  1.00  0.00     0.053 C 
BRANCH   7   8
ATOM      8  C   UNL     1       3.705  12.599  14.646  1.00  0.00     0.041 C 
ATOM      9  O   UNL     1       3.758  12.213  13.451  1.00  0.00    -0.550 OA
ATOM     10  O   UNL     1       2.722  13.498  15.033  1.00  0.00    -0.550 OA
ENDBRANCH   7   8
ENDBRANCH   6   7
ENDBRANCH   5   6
ENDBRANCH   4   5
ENDBRANCH   3   4
ENDBRANCH   2   3
ENDBRANCH   1   2
BRANCH   1  11
ATOM     11  C   UNL     1       3.164  13.385  18.601  1.00  0.00    -0.031 C 
ATOM     12  C   UNL     1       2.379  14.402  18.989  1.00  0.00    -0.027 C 
BRANCH  12  13
ATOM     13  C   UNL     1       1.349  14.994  18.067  1.00  0.00     0.054 C 
BRANCH  13  14
ATOM     14  C   UNL     1       0.116  15.380  18.834  1.00  0.00    -0.027 C 
ATOM     15  C   UNL     1      -0.129  16.659  19.156  1.00  0.00    -0.031 C 
BRANCH  15  16
ATOM     16  C   UNL     1      -1.405  17.065  19.836  1.00  0.00     0.027 C 
BRANCH  16  17
ATOM     17  C   UNL     1      -1.209  17.128  21.356  1.00  0.00     0.004 C 
BRANCH  17  18
ATOM     18  C   UNL     1      -2.123  16.131  22.076  1.00  0.00     0.000 C 
BRANCH  18  19
ATOM     19  C   UNL     1      -1.301  15.045  22.778  1.00  0.00    -0.003 C 
ATOM     20  C   UNL     1      -1.017  13.875  21.842  1.00  0.00     0.004 C 
ENDBRANCH  18  19
ENDBRANCH  17  18
ENDBRANCH  16  17
ENDBRANCH  15  16
ENDBRANCH  13  14
ENDBRANCH  12  13
ENDBRANCH   1  11
TORSDOF 14
ENDMDL
MODEL 6
REMARK VINA RESULT:    -4.055      4.082      8.234
REMARK INTER + INTRA:          -8.885
REMARK INTER:                  -7.326
REMARK INTRA:                  -1.560
REMARK UNBOUND:                -1.511
REMARK SMILES CCCCCC=CCC=CCCCCCCCC(=O)[O-]
REMARK SMILES IDX 11 1 12 2 13 3 14 4 15 5 16 6 17 7 18 8 19 9 20 10 10 11
REMARK SMILES IDX 9 12 8 13 7 14 6 15 5 16 4 17 3 18 2 19 1 20
REMARK H PARENT
REMARK Flexibility Score: inf
ROOT
ATOM      1  C   UNL     1       3.655  13.344  19.451  1.00  0.00     0.027 C 
ENDROOT
BRANCH   1   2
ATOM      2  C   UNL     1       2.190  13.795  19.393  1.00  0.00     0.004 C 
BRANCH   2   3
ATOM      3  C   UNL     1       1.960  14.766  18.230  1.00  0.00     0.000 C 
BRANCH   3   4
ATOM      4  C   UNL     1       1.091  15.953  18.670  1.00  0.00     0.000 C 
BRANCH   4   5
ATOM      5  C   UNL     1      -0.405  15.603  18.721  1.00  0.00     0.000 C 
BRANCH   5   6
ATOM      6  C   UNL     1      -1.012  15.795  20.121  1.00  0.00     0.006 C 
BRANCH   6   7
ATOM      7  C   UNL     1      -1.825  14.574  20.574  1.00  0.00     0.053 C 
BRANCH   7   8
ATOM      8  C   UNL     1      -1.417  14.103  21.935  1.00  0.00     0.041 C 
ATOM      9  O   UNL     1      -1.318  12.873  22.176  1.00  0.00    -0.550 OA
ATOM     10  O   UNL     1      -1.150  15.023  22.938  1.00  0.00    -0.550 OA
ENDBRANCH   7   8
ENDBRANCH   6   7
ENDBRANCH   5   6
ENDBRANCH   4   5
ENDBRANCH   3   4
ENDBRANCH   2   3
ENDBRANCH   1   2
BRANCH   1  11
ATOM     11  C   UNL     1       3.777  11.879  19.135  1.00  0.00    -0.031 C 
ATOM     12  C   UNL     1       2.726  11.165  18.702  1.00  0.00    -0.027 C 
BRANCH  12  13
ATOM     13  C   UNL     1       2.867   9.719  18.315  1.00  0.00     0.054 C 
BRANCH  13  14
ATOM     14  C   UNL     1       3.713   9.583  17.081  1.00  0.00    -0.027 C 
ATOM     15  C   UNL     1       3.508  10.362  16.009  1.00  0.00    -0.031 C 
BRANCH  15  16
ATOM     16  C   UNL     1       4.409  10.300  14.810  1.00  0.00     0.027 C 
BRANCH  16  17
ATOM     17  C   UNL     1       4.764  11.713  14.329  1.00  0.00     0.004 C 
BRANCH  17  18
ATOM     18  C   UNL     1       3.937  12.774  15.062  1.00  0.00     0.000 C 
BRANCH  18  19
ATOM     19  C   UNL     1       4.783  13.492  16.119  1.00  0.00    -0.003 C 
ATOM     20  C   UNL     1       6.221  12.985  16.113  1.00  0.00     0.004 C 
ENDBRANCH  18  19
ENDBRANCH  17  18
ENDBRANCH  16  17
ENDBRANCH  15  16
ENDBRANCH  13  14
ENDBRANCH  12  13
ENDBRANCH   1  11
TORSDOF 14
ENDMDL
MODEL 7
REMARK VINA RESULT:    -4.045      1.703      3.060
REMARK INTER + INTRA:          -8.866
REMARK INTER:                  -7.206
REMARK INTRA:                  -1.660
REMARK UNBOUND:                -1.511
REMARK SMILES CCCCCC=CCC=CCCCCCCCC(=O)[O-]
REMARK SMILES IDX 11 1 12 2 13 3 14 4 15 5 16 6 17 7 18 8 19 9 20 10 10 11
REMARK SMILES IDX 9 12 8 13 7 14 6 15 5 16 4 17 3 18 2 19 1 20
REMARK H PARENT
REMARK Flexibility Score: inf
ROOT
ATOM      1  C   UNL     1       3.956  13.001  19.466  1.00  0.00     0.027 C 
ENDROOT
BRANCH   1   2
ATOM      2  C   UNL     1       4.022  11.470  19.396  1.00  0.00     0.004 C 
BRANCH   2   3
ATOM      3  C   UNL     1       2.772  10.898  18.718  1.00  0.00     0.000 C 
BRANCH   3   4
ATOM      4  C   UNL     1       3.155   9.921  17.597  1.00  0.00     0.000 C 
BRANCH   4   5
ATOM      5  C   UNL     1       3.897  10.610  16.440  1.00  0.00     0.000 C 
BRANCH   5   6
ATOM      6  C   UNL     1       3.153  11.848  15.913  1.00  0.00     0.006 C 
BRANCH   6   7
ATOM      7  C   UNL     1       4.037  13.104  15.916  1.00  0.00     0.053 C 
BRANCH   7   8
ATOM      8  C   UNL     1       5.336  12.876  15.209  1.00  0.00     0.041 C 
ATOM      9  O   UNL     1       5.351  12.619  13.979  1.00  0.00    -0.550 OA
ATOM     10  O   UNL     1       6.531  12.943  15.911  1.00  0.00    -0.550 OA
ENDBRANCH   7   8
ENDBRANCH   6   7
ENDBRANCH   5   6
ENDBRANCH   4   5
ENDBRANCH   3   4
ENDBRANCH   2   3
ENDBRANCH   1   2
BRANCH   1  11
ATOM     11  C   UNL     1       2.569  13.492  19.159  1.00  0.00    -0.031 C 
ATOM     12  C   UNL     1       2.341  14.760  18.781  1.00  0.00    -0.027 C 
BRANCH  12  13
ATOM     13  C   UNL     1       0.964  15.230  18.403  1.00  0.00     0.054 C 
BRANCH  13  14
ATOM     14  C   UNL     1       0.689  16.585  18.990  1.00  0.00    -0.027 C 
ATOM     15  C   UNL     1       1.517  17.617  18.773  1.00  0.00    -0.031 C 
BRANCH  15  16
ATOM     16  C   UNL     1       1.200  18.996  19.274  1.00  0.00     0.027 C 
BRANCH  16  17
ATOM     17  C   UNL     1      -0.297  19.127  19.581  1.00  0.00     0.004 C 
BRANCH  17  18
ATOM     18  C   UNL     1      -0.530  19.601  21.019  1.00  0.00     0.000 C 
BRANCH  18  19
ATOM     19  C   UNL     1      -1.774  18.936  21.618  1.00  0.00    -0.003 C 
ATOM     20  C   UNL     1      -1.587  17.427  21.746  1.00  0.00     0.004 C 
ENDBRANCH  18  19
ENDBRANCH  17  18
ENDBRANCH  16  17
ENDBRANCH  15  16
ENDBRANCH  13  14
ENDBRANCH  12  13
ENDBRANCH   1  11
TORSDOF 14
ENDMDL
MODEL 8
REMARK VINA RESULT:    -4.012      3.920      8.255
REMARK INTER + INTRA:          -8.807
REMARK INTER:                  -7.635
REMARK INTRA:                  -1.173
REMARK UNBOUND:                -1.511
REMARK SMILES CCCCCC=CCC=CCCCCCCCC(=O)[O-]
REMARK SMILES IDX 11 1 12 2 13 3 14 4 15 5 16 6 17 7 18 8 19 9 20 10 10 11
REMARK SMILES IDX 9 12 8 13 7 14 6 15 5 16 4 17 3 18 2 19 1 20
REMARK H PARENT
REMARK Flexibility Score: inf
ROOT
ATOM      1  C   UNL     1       1.148  19.152  19.416  1.00  0.00     0.027 C 
ENDROOT
BRANCH   1   2
ATOM      2  C   UNL     1      -0.316  19.453  19.764  1.00  0.00     0.004 C 
BRANCH   2   3
ATOM      3  C   UNL     1      -0.446  19.948  21.208  1.00  0.00     0.000 C 
BRANCH   3   4
ATOM      4  C   UNL     1      -1.740  19.427  21.852  1.00  0.00     0.000 C 
BRANCH   4   5
ATOM      5  C   UNL     1      -2.124  18.024  21.355  1.00  0.00     0.000 C 
BRANCH   5   6
ATOM      6  C   UNL     1      -1.858  16.931  22.403  1.00  0.00     0.006 C 
BRANCH   6   7
ATOM      7  C   UNL     1      -1.615  15.557  21.762  1.00  0.00     0.053 C 
BRANCH   7   8
ATOM      8  C   UNL     1      -1.689  14.450  22.765  1.00  0.00     0.041 C 
ATOM      9  O   UNL     1      -1.628  14.704  23.995  1.00  0.00    -0.550 OA
ATOM     10  O   UNL     1      -1.822  13.135  22.343  1.00  0.00    -0.550 OA
ENDBRANCH   7   8
ENDBRANCH   6   7
ENDBRANCH   5   6
ENDBRANCH   4   5
ENDBRANCH   3   4
ENDBRANCH   2   3
ENDBRANCH   1   2
BRANCH   1  11
ATOM     11  C   UNL     1       1.279  17.797  18.780  1.00  0.00    -0.031 C 
ATOM     12  C   UNL     1       0.470  16.781  19.119  1.00  0.00    -0.027 C 
BRANCH  12  13
ATOM     13  C   UNL     1       0.554  15.448  18.429  1.00  0.00     0.054 C 
BRANCH  13  14
ATOM     14  C   UNL     1       1.953  14.906  18.497  1.00  0.00    -0.027 C 
ATOM     15  C   UNL     1       2.214  13.731  19.088  1.00  0.00    -0.031 C 
BRANCH  15  16
ATOM     16  C   UNL     1       3.593  13.136  19.075  1.00  0.00     0.027 C 
BRANCH  16  17
ATOM     17  C   UNL     1       3.745  12.153  17.907  1.00  0.00     0.004 C 
BRANCH  17  18
ATOM     18  C   UNL     1       3.691  12.880  16.559  1.00  0.00     0.000 C 
BRANCH  18  19
ATOM     19  C   UNL     1       4.883  12.488  15.680  1.00  0.00    -0.003 C 
ATOM     20  C   UNL     1       4.518  12.533  14.200  1.00  0.00     0.004 C 
ENDBRANCH  18  19
ENDBRANCH  17  18
ENDBRANCH  16  17
ENDBRANCH  15  16
ENDBRANCH  13  14
ENDBRANCH  12  13
ENDBRANCH   1  11
TORSDOF 14
ENDMDL
