MODEL 1
REMARK VINA RESULT:    -4.809      0.000      0.000
REMARK INTER + INTRA:          -7.582
REMARK INTER:                  -6.496
REMARK INTRA:                  -1.086
REMARK UNBOUND:                -1.086
REMARK SMILES CC[C@@H](CC[C@H](C)[C@H]1CC[C@H]2[C@@H]3CC(=O)C4=CC(=O)CC[C@]4(C)[C@H]3CC[C@@]12C)C(C)C
REMARK SMILES IDX 4 1 3 2 2 3 1 4 29 5 30 6 31 7 5 8 6 9 7 10 8 11 9 12 27 13
REMARK SMILES IDX 10 14 11 15 26 16 28 17 12 18 25 19 24 20 13 21 22 22 14 23
REMARK SMILES IDX 16 24 21 25 23 26 15 27 17 28 20 29 18 30 19 31
REMARK H PARENT
REMARK Flexibility Score: inf
ROOT
ATOM      1  C   UNL     1      15.376   7.444  22.764  1.00  0.00     0.004 C 
ENDROOT
BRANCH   1   2
ATOM      2  C   UNL     1      14.294   8.232  23.557  1.00  0.00    -0.009 C 
BRANCH   2   3
ATOM      3  C   UNL     1      12.930   8.177  22.792  1.00  0.00     0.000 C 
ATOM      4  C   UNL     1      13.095   8.457  21.298  1.00  0.00     0.004 C 
ENDBRANCH   2   3
BRANCH   2   5
ATOM      5  C   UNL     1      14.718   9.717  23.836  1.00  0.00    -0.014 C 
ATOM      6  C   UNL     1      16.037  10.110  23.140  1.00  0.00     0.007 C 
ATOM      7  C   UNL     1      14.874   9.982  25.347  1.00  0.00     0.007 C 
ENDBRANCH   2   5
ENDBRANCH   1   2
BRANCH   1   8
ATOM      8  C   UNL     1      16.034   6.320  23.599  1.00  0.00     0.004 C 
BRANCH   8   9
ATOM      9  C   UNL     1      15.637   6.353  25.103  1.00  0.00    -0.011 C 
ATOM     10  C   UNL     1      16.916   6.494  25.951  1.00  0.00     0.008 C 
BRANCH   9  11
ATOM     11  C   UNL     1      14.691   5.155  25.489  1.00  0.00    -0.002 C 
ATOM     12  C   UNL     1      13.185   5.422  25.445  1.00  0.00     0.005 C 
ATOM     13  C   UNL     1      14.876   3.748  24.840  1.00  0.00    -0.026 C 
ATOM     14  C   UNL     1      12.529   4.035  25.450  1.00  0.00     0.005 C 
ATOM     15  C   UNL     1      13.673   2.997  25.468  1.00  0.00    -0.001 C 
ATOM     16  C   UNL     1      14.763   3.767  23.272  1.00  0.00     0.007 C 
ATOM     17  C   UNL     1      16.228   3.142  25.299  1.00  0.00     0.012 C 
ATOM     18  C   UNL     1      13.270   1.625  24.821  1.00  0.00     0.004 C 
ATOM     19  C   UNL     1      13.944   2.631  22.624  1.00  0.00     0.005 C 
ATOM     20  C   UNL     1      13.964   1.342  23.460  1.00  0.00     0.003 C 
ATOM     21  C   UNL     1      13.534   0.458  25.780  1.00  0.00     0.085 C 
ATOM     22  C   UNL     1      13.373   0.070  22.732  1.00  0.00    -0.000 C 
ATOM     23  C   UNL     1      13.107  -0.844  25.173  1.00  0.00     0.159 C 
ATOM     24  C   UNL     1      13.309  -1.104  23.724  1.00  0.00     0.005 C 
ATOM     25  C   UNL     1      14.309  -0.325  21.542  1.00  0.00     0.020 C 
ATOM     26  C   UNL     1      11.942   0.330  22.191  1.00  0.00     0.017 C 
ATOM     27  O   UNL     1      12.648  -1.746  25.927  1.00  0.00    -0.295 OA
ATOM     28  C   UNL     1      13.380  -2.380  23.295  1.00  0.00     0.055 C 
ATOM     29  C   UNL     1      13.915  -1.651  20.875  1.00  0.00     0.081 C 
ATOM     30  C   UNL     1      13.660  -2.718  21.892  1.00  0.00     0.156 C 
ATOM     31  O   UNL     1      13.666  -3.927  21.536  1.00  0.00    -0.295 OA
ENDBRANCH   9  11
ENDBRANCH   8   9
ENDBRANCH   1   8
TORSDOF 6
ENDMDL
MODEL 2
REMARK VINA RESULT:    -4.142      3.047      8.480
REMARK INTER + INTRA:          -6.681
REMARK INTER:                  -6.231
REMARK INTRA:                  -0.450
REMARK UNBOUND:                -1.086
REMARK SMILES CC[C@@H](CC[C@H](C)[C@H]1CC[C@H]2[C@@H]3CC(=O)C4=CC(=O)CC[C@]4(C)[C@H]3CC[C@@]12C)C(C)C
REMARK SMILES IDX 4 1 3 2 2 3 1 4 29 5 30 6 31 7 5 8 6 9 7 10 8 11 9 12 27 13
REMARK SMILES IDX 10 14 11 15 26 16 28 17 12 18 25 19 24 20 13 21 22 22 14 23
REMARK SMILES IDX 16 24 21 25 23 26 15 27 17 28 20 29 18 30 19 31
REMARK H PARENT
REMARK Flexibility Score: inf
ROOT
ATOM      1  C   UNL     1      13.955  -2.638  22.344  1.00  0.00     0.004 C 
ENDROOT
BRANCH   1   2
ATOM      2  C   UNL     1      13.866  -3.125  20.869  1.00  0.00    -0.009 C 
BRANCH   2   3
ATOM      3  C   UNL     1      14.755  -4.398  20.676  1.00  0.00     0.000 C 
ATOM      4  C   UNL     1      14.365  -5.524  21.633  1.00  0.00     0.004 C 
ENDBRANCH   2   3
BRANCH   2   5
ATOM      5  C   UNL     1      14.264  -2.006  19.842  1.00  0.00    -0.014 C 
ATOM      6  C   UNL     1      14.280  -2.503  18.382  1.00  0.00     0.007 C 
ATOM      7  C   UNL     1      15.652  -1.415  20.164  1.00  0.00     0.007 C 
ENDBRANCH   2   5
ENDBRANCH   1   2
BRANCH   1   8
ATOM      8  C   UNL     1      12.864  -1.602  22.701  1.00  0.00     0.004 C 
BRANCH   8   9
ATOM      9  C   UNL     1      12.405  -1.672  24.186  1.00  0.00    -0.011 C 
ATOM     10  C   UNL     1      10.941  -2.151  24.232  1.00  0.00     0.008 C 
BRANCH   9  11
ATOM     11  C   UNL     1      12.711  -0.336  24.961  1.00  0.00    -0.002 C 
ATOM     12  C   UNL     1      13.962  -0.319  25.843  1.00  0.00     0.005 C 
ATOM     13  C   UNL     1      12.715   1.037  24.219  1.00  0.00    -0.026 C 
ATOM     14  C   UNL     1      14.237   1.164  26.125  1.00  0.00     0.005 C 
ATOM     15  C   UNL     1      13.154   1.971  25.376  1.00  0.00    -0.001 C 
ATOM     16  C   UNL     1      13.745   1.099  23.033  1.00  0.00     0.007 C 
ATOM     17  C   UNL     1      11.279   1.364  23.735  1.00  0.00     0.012 C 
ATOM     18  C   UNL     1      13.622   3.418  24.987  1.00  0.00     0.004 C 
ATOM     19  C   UNL     1      14.580   2.391  22.910  1.00  0.00     0.005 C 
ATOM     20  C   UNL     1      13.845   3.620  23.464  1.00  0.00     0.003 C 
ATOM     21  C   UNL     1      12.643   4.479  25.506  1.00  0.00     0.085 C 
ATOM     22  C   UNL     1      14.527   5.007  23.130  1.00  0.00    -0.000 C 
ATOM     23  C   UNL     1      13.119   5.860  25.168  1.00  0.00     0.159 C 
ATOM     24  C   UNL     1      13.784   6.134  23.869  1.00  0.00     0.005 C 
ATOM     25  C   UNL     1      14.439   5.268  21.590  1.00  0.00     0.020 C 
ATOM     26  C   UNL     1      16.016   5.036  23.568  1.00  0.00     0.017 C 
ATOM     27  O   UNL     1      12.873   6.801  25.973  1.00  0.00    -0.295 OA
ATOM     28  C   UNL     1      13.767   7.390  23.380  1.00  0.00     0.055 C 
ATOM     29  C   UNL     1      14.920   6.669  21.184  1.00  0.00     0.081 C 
ATOM     30  C   UNL     1      14.330   7.725  22.064  1.00  0.00     0.156 C 
ATOM     31  O   UNL     1      14.332   8.924  21.679  1.00  0.00    -0.295 OA
ENDBRANCH   9  11
ENDBRANCH   8   9
ENDBRANCH   1   8
TORSDOF 6
ENDMDL
MODEL 3
REMARK VINA RESULT:    -3.714      4.467     10.994
REMARK INTER + INTRA:          -6.103
REMARK INTER:                  -4.843
REMARK INTRA:                  -1.260
REMARK UNBOUND:                -1.086
REMARK SMILES CC[C@@H](CC[C@H](C)[C@H]1CC[C@H]2[C@@H]3CC(=O)C4=CC(=O)CC[C@]4(C)[C@H]3CC[C@@]12C)C(C)C
REMARK SMILES IDX 4 1 3 2 2 3 1 4 29 5 30 6 31 7 5 8 6 9 7 10 8 11 9 12 27 13
REMARK SMILES IDX 10 14 11 15 26 16 28 17 12 18 25 19 24 20 13 21 22 22 14 23
REMARK SMILES IDX 16 24 21 25 23 26 15 27 17 28 20 29 18 30 19 31
REMARK H PARENT
REMARK Flexibility Score: inf
ROOT
ATOM      1  C   UNL     1      16.627  -7.766  18.942  1.00  0.00     0.004 C 
ENDROOT
BRANCH   1   2
ATOM      2  C   UNL     1      17.619  -6.939  18.077  1.00  0.00    -0.009 C 
BRANCH   2   3
ATOM      3  C   UNL     1      17.085  -6.835  16.610  1.00  0.00     0.000 C 
ATOM      4  C   UNL     1      16.609  -5.422  16.268  1.00  0.00     0.004 C 
ENDBRANCH   2   3
BRANCH   2   5
ATOM      5  C   UNL     1      19.073  -7.530  18.101  1.00  0.00    -0.014 C 
ATOM      6  C   UNL     1      19.721  -7.597  16.702  1.00  0.00     0.007 C 
ATOM      7  C   UNL     1      19.093  -8.947  18.709  1.00  0.00     0.007 C 
ENDBRANCH   2   5
ENDBRANCH   1   2
BRANCH   1   8
ATOM      8  C   UNL     1      15.976  -6.935  20.072  1.00  0.00     0.004 C 
BRANCH   8   9
ATOM      9  C   UNL     1      14.613  -6.301  19.670  1.00  0.00    -0.011 C 
ATOM     10  C   UNL     1      14.015  -7.108  18.501  1.00  0.00     0.008 C 
BRANCH   9  11
ATOM     11  C   UNL     1      14.731  -4.748  19.437  1.00  0.00    -0.002 C 
ATOM     12  C   UNL     1      13.754  -4.122  18.439  1.00  0.00     0.005 C 
ATOM     13  C   UNL     1      14.772  -3.759  20.643  1.00  0.00    -0.026 C 
ATOM     14  C   UNL     1      13.806  -2.614  18.715  1.00  0.00     0.005 C 
ATOM     15  C   UNL     1      14.791  -2.406  19.886  1.00  0.00    -0.001 C 
ATOM     16  C   UNL     1      13.508  -3.859  21.573  1.00  0.00     0.007 C 
ATOM     17  C   UNL     1      16.080  -3.981  21.447  1.00  0.00     0.012 C 
ATOM     18  C   UNL     1      14.486  -1.114  20.725  1.00  0.00     0.004 C 
ATOM     19  C   UNL     1      12.893  -2.527  22.050  1.00  0.00     0.005 C 
ATOM     20  C   UNL     1      13.934  -1.402  22.148  1.00  0.00     0.003 C 
ATOM     21  C   UNL     1      15.724  -0.214  20.830  1.00  0.00     0.085 C 
ATOM     22  C   UNL     1      13.430  -0.093  22.877  1.00  0.00    -0.000 C 
ATOM     23  C   UNL     1      15.415   1.038  21.595  1.00  0.00     0.159 C 
ATOM     24  C   UNL     1      14.507   1.001  22.769  1.00  0.00     0.005 C 
ATOM     25  C   UNL     1      13.180  -0.408  24.389  1.00  0.00     0.020 C 
ATOM     26  C   UNL     1      12.119   0.449  22.246  1.00  0.00     0.017 C 
ATOM     27  O   UNL     1      16.002   2.108  21.272  1.00  0.00    -0.295 OA
ATOM     28  C   UNL     1      14.610   1.966  23.704  1.00  0.00     0.055 C 
ATOM     29  C   UNL     1      12.852   0.838  25.223  1.00  0.00     0.081 C 
ATOM     30  C   UNL     1      13.805   1.954  24.934  1.00  0.00     0.156 C 
ATOM     31  O   UNL     1      13.907   2.909  25.750  1.00  0.00    -0.295 OA
ENDBRANCH   9  11
ENDBRANCH   8   9
ENDBRANCH   1   8
TORSDOF 6
ENDMDL
MODEL 4
REMARK VINA RESULT:    -3.654      3.212      9.582
REMARK INTER + INTRA:          -6.021
REMARK INTER:                  -5.627
REMARK INTRA:                  -0.394
REMARK UNBOUND:                -1.086
REMARK SMILES CC[C@@H](CC[C@H](C)[C@H]1CC[C@H]2[C@@H]3CC(=O)C4=CC(=O)CC[C@]4(C)[C@H]3CC[C@@]12C)C(C)C
REMARK SMILES IDX 4 1 3 2 2 3 1 4 29 5 30 6 31 7 5 8 6 9 7 10 8 11 9 12 27 13
REMARK SMILES IDX 10 14 11 15 26 16 28 17 12 18 25 19 24 20 13 21 22 22 14 23
REMARK SMILES IDX 16 24 21 25 23 26 15 27 17 28 20 29 18 30 19 31
REMARK H PARENT
REMARK Flexibility Score: inf
ROOT
ATOM      1  C   UNL     1      15.064  -4.338  20.611  1.00  0.00     0.004 C 
ENDROOT
BRANCH   1   2
ATOM      2  C   UNL     1      14.731  -5.553  19.699  1.00  0.00    -0.009 C 
BRANCH   2   3
ATOM      3  C   UNL     1      15.281  -6.868  20.342  1.00  0.00     0.000 C 
ATOM      4  C   UNL     1      14.183  -7.675  21.036  1.00  0.00     0.004 C 
ENDBRANCH   2   3
BRANCH   2   5
ATOM      5  C   UNL     1      15.279  -5.375  18.238  1.00  0.00    -0.014 C 
ATOM      6  C   UNL     1      14.310  -5.902  17.160  1.00  0.00     0.007 C 
ATOM      7  C   UNL     1      16.635  -6.088  18.056  1.00  0.00     0.007 C 
ENDBRANCH   2   5
ENDBRANCH   1   2
BRANCH   1   8
ATOM      8  C   UNL     1      13.829  -3.797  21.367  1.00  0.00     0.004 C 
BRANCH   8   9
ATOM      9  C   UNL     1      13.498  -2.314  21.032  1.00  0.00    -0.011 C 
ATOM     10  C   UNL     1      14.639  -1.731  20.177  1.00  0.00     0.008 C 
BRANCH   9  11
ATOM     11  C   UNL     1      13.119  -1.490  22.319  1.00  0.00    -0.002 C 
ATOM     12  C   UNL     1      13.678  -1.994  23.652  1.00  0.00     0.005 C 
ATOM     13  C   UNL     1      13.301   0.060  22.360  1.00  0.00    -0.026 C 
ATOM     14  C   UNL     1      13.515  -0.821  24.627  1.00  0.00     0.005 C 
ATOM     15  C   UNL     1      12.892   0.344  23.828  1.00  0.00    -0.001 C 
ATOM     16  C   UNL     1      14.782   0.519  22.096  1.00  0.00     0.007 C 
ATOM     17  C   UNL     1      12.321   0.720  21.356  1.00  0.00     0.012 C 
ATOM     18  C   UNL     1      13.257   1.756  24.410  1.00  0.00     0.004 C 
ATOM     19  C   UNL     1      15.332   1.636  23.008  1.00  0.00     0.005 C 
ATOM     20  C   UNL     1      14.228   2.574  23.517  1.00  0.00     0.003 C 
ATOM     21  C   UNL     1      11.997   2.586  24.689  1.00  0.00     0.085 C 
ATOM     22  C   UNL     1      14.749   3.884  24.232  1.00  0.00    -0.000 C 
ATOM     23  C   UNL     1      12.350   3.915  25.286  1.00  0.00     0.159 C 
ATOM     24  C   UNL     1      13.556   4.652  24.827  1.00  0.00     0.005 C 
ATOM     25  C   UNL     1      15.463   4.797  23.181  1.00  0.00     0.020 C 
ATOM     26  C   UNL     1      15.741   3.558  25.381  1.00  0.00     0.017 C 
ATOM     27  O   UNL     1      11.563   4.433  26.125  1.00  0.00    -0.295 OA
ATOM     28  C   UNL     1      13.604   5.989  24.991  1.00  0.00     0.055 C 
ATOM     29  C   UNL     1      15.855   6.173  23.739  1.00  0.00     0.081 C 
ATOM     30  C   UNL     1      14.724   6.799  24.491  1.00  0.00     0.156 C 
ATOM     31  O   UNL     1      14.740   8.039  24.716  1.00  0.00    -0.295 OA
ENDBRANCH   9  11
ENDBRANCH   8   9
ENDBRANCH   1   8
TORSDOF 6
ENDMDL
MODEL 5
REMARK VINA RESULT:    -3.620      7.760     13.198
REMARK INTER + INTRA:          -5.976
REMARK INTER:                  -5.298
REMARK INTRA:                  -0.678
REMARK UNBOUND:                -1.086
REMARK SMILES CC[C@@H](CC[C@H](C)[C@H]1CC[C@H]2[C@@H]3CC(=O)C4=CC(=O)CC[C@]4(C)[C@H]3CC[C@@]12C)C(C)C
REMARK SMILES IDX 4 1 3 2 2 3 1 4 29 5 30 6 31 7 5 8 6 9 7 10 8 11 9 12 27 13
REMARK SMILES IDX 10 14 11 15 26 16 28 17 12 18 25 19 24 20 13 21 22 22 14 23
REMARK SMILES IDX 16 24 21 25 23 26 15 27 17 28 20 29 18 30 19 31
REMARK H PARENT
REMARK Flexibility Score: inf
ROOT
ATOM      1  C   UNL     1      17.007  -9.740  17.305  1.00  0.00     0.004 C 
ENDROOT
BRANCH   1   2
ATOM      2  C   UNL     1      18.382  -9.364  17.927  1.00  0.00    -0.009 C 
BRANCH   2   3
ATOM      3  C   UNL     1      18.175  -8.354  19.103  1.00  0.00     0.000 C 
ATOM      4  C   UNL     1      18.468  -8.985  20.464  1.00  0.00     0.004 C 
ENDBRANCH   2   3
BRANCH   2   5
ATOM      5  C   UNL     1      19.384  -8.786  16.865  1.00  0.00    -0.014 C 
ATOM      6  C   UNL     1      20.862  -9.030  17.233  1.00  0.00     0.007 C 
ATOM      7  C   UNL     1      19.180  -7.269  16.669  1.00  0.00     0.007 C 
ENDBRANCH   2   5
ENDBRANCH   1   2
BRANCH   1   8
ATOM      8  C   UNL     1      15.850  -8.854  17.822  1.00  0.00     0.004 C 
BRANCH   8   9
ATOM      9  C   UNL     1      14.573  -9.660  18.199  1.00  0.00    -0.011 C 
ATOM     10  C   UNL     1      13.393  -9.144  17.354  1.00  0.00     0.008 C 
BRANCH   9  11
ATOM     11  C   UNL     1      14.335  -9.693  19.755  1.00  0.00    -0.002 C 
ATOM     12  C   UNL     1      15.524 -10.105  20.628  1.00  0.00     0.005 C 
ATOM     13  C   UNL     1      13.689  -8.478  20.492  1.00  0.00    -0.026 C 
ATOM     14  C   UNL     1      15.155  -9.658  22.048  1.00  0.00     0.005 C 
ATOM     15  C   UNL     1      13.774  -8.973  21.960  1.00  0.00    -0.001 C 
ATOM     16  C   UNL     1      14.494  -7.140  20.309  1.00  0.00     0.007 C 
ATOM     17  C   UNL     1      12.218  -8.318  20.029  1.00  0.00     0.012 C 
ATOM     18  C   UNL     1      13.542  -7.906  23.087  1.00  0.00     0.004 C 
ATOM     19  C   UNL     1      14.680  -6.267  21.567  1.00  0.00     0.005 C 
ATOM     20  C   UNL     1      13.534  -6.439  22.576  1.00  0.00     0.003 C 
ATOM     21  C   UNL     1      12.247  -8.185  23.860  1.00  0.00     0.085 C 
ATOM     22  C   UNL     1      13.524  -5.387  23.755  1.00  0.00    -0.000 C 
ATOM     23  C   UNL     1      12.054  -7.188  24.963  1.00  0.00     0.159 C 
ATOM     24  C   UNL     1      12.430  -5.764  24.769  1.00  0.00     0.005 C 
ATOM     25  C   UNL     1      13.209  -3.967  23.177  1.00  0.00     0.020 C 
ATOM     26  C   UNL     1      14.885  -5.344  24.500  1.00  0.00     0.017 C 
ATOM     27  O   UNL     1      11.492  -7.563  26.029  1.00  0.00    -0.295 OA
ATOM     28  C   UNL     1      11.835  -4.824  25.530  1.00  0.00     0.055 C 
ATOM     29  C   UNL     1      13.007  -2.901  24.264  1.00  0.00     0.081 C 
ATOM     30  C   UNL     1      12.092  -3.388  25.342  1.00  0.00     0.156 C 
ATOM     31  O   UNL     1      11.547  -2.556  26.115  1.00  0.00    -0.295 OA
ENDBRANCH   9  11
ENDBRANCH   8   9
ENDBRANCH   1   8
TORSDOF 6
ENDMDL
MODEL 6
REMARK VINA RESULT:    -3.484      5.267     11.879
REMARK INTER + INTRA:          -5.792
REMARK INTER:                  -4.741
REMARK INTRA:                  -1.051
REMARK UNBOUND:                -1.086
REMARK SMILES CC[C@@H](CC[C@H](C)[C@H]1CC[C@H]2[C@@H]3CC(=O)C4=CC(=O)CC[C@]4(C)[C@H]3CC[C@@]12C)C(C)C
REMARK SMILES IDX 4 1 3 2 2 3 1 4 29 5 30 6 31 7 5 8 6 9 7 10 8 11 9 12 27 13
REMARK SMILES IDX 10 14 11 15 26 16 28 17 12 18 25 19 24 20 13 21 22 22 14 23
REMARK SMILES IDX 16 24 21 25 23 26 15 27 17 28 20 29 18 30 19 31
REMARK H PARENT
REMARK Flexibility Score: inf
ROOT
ATOM      1  C   UNL     1      18.388  -7.493  18.161  1.00  0.00     0.004 C 
ENDROOT
BRANCH   1   2
ATOM      2  C   UNL     1      18.529  -9.010  17.848  1.00  0.00    -0.009 C 
BRANCH   2   3
ATOM      3  C   UNL     1      18.392  -9.839  19.168  1.00  0.00     0.000 C 
ATOM      4  C   UNL     1      18.112  -8.951  20.380  1.00  0.00     0.004 C 
ENDBRANCH   2   3
BRANCH   2   5
ATOM      5  C   UNL     1      19.874  -9.349  17.113  1.00  0.00    -0.014 C 
ATOM      6  C   UNL     1      20.880 -10.101  18.010  1.00  0.00     0.007 C 
ATOM      7  C   UNL     1      20.561  -8.073  16.584  1.00  0.00     0.007 C 
ENDBRANCH   2   5
ENDBRANCH   1   2
BRANCH   1   8
ATOM      8  C   UNL     1      17.048  -6.899  17.666  1.00  0.00     0.004 C 
BRANCH   8   9
ATOM      9  C   UNL     1      15.980  -6.759  18.788  1.00  0.00    -0.011 C 
ATOM     10  C   UNL     1      15.034  -7.974  18.728  1.00  0.00     0.008 C 
BRANCH   9  11
ATOM     11  C   UNL     1      15.282  -5.348  18.765  1.00  0.00    -0.002 C 
ATOM     12  C   UNL     1      13.873  -5.284  18.170  1.00  0.00     0.005 C 
ATOM     13  C   UNL     1      15.224  -4.462  20.048  1.00  0.00    -0.026 C 
ATOM     14  C   UNL     1      13.296  -3.943  18.642  1.00  0.00     0.005 C 
ATOM     15  C   UNL     1      14.375  -3.275  19.522  1.00  0.00    -0.001 C 
ATOM     16  C   UNL     1      14.508  -5.165  21.258  1.00  0.00     0.007 C 
ATOM     17  C   UNL     1      16.659  -4.012  20.427  1.00  0.00     0.012 C 
ATOM     18  C   UNL     1      13.778  -2.295  20.593  1.00  0.00     0.004 C 
ATOM     19  C   UNL     1      13.522  -4.303  22.074  1.00  0.00     0.005 C 
ATOM     20  C   UNL     1      13.891  -2.812  22.053  1.00  0.00     0.003 C 
ATOM     21  C   UNL     1      14.416  -0.904  20.492  1.00  0.00     0.085 C 
ATOM     22  C   UNL     1      13.086  -1.915  23.076  1.00  0.00    -0.000 C 
ATOM     23  C   UNL     1      13.810   0.039  21.488  1.00  0.00     0.159 C 
ATOM     24  C   UNL     1      13.436  -0.435  22.845  1.00  0.00     0.005 C 
ATOM     25  C   UNL     1      13.491  -2.307  24.536  1.00  0.00     0.020 C 
ATOM     26  C   UNL     1      11.553  -2.086  22.909  1.00  0.00     0.017 C 
ATOM     27  O   UNL     1      13.699   1.258  21.181  1.00  0.00    -0.295 OA
ATOM     28  C   UNL     1      13.358   0.461  23.849  1.00  0.00     0.055 C 
ATOM     29  C   UNL     1      12.893  -1.378  25.602  1.00  0.00     0.081 C 
ATOM     30  C   UNL     1      13.074   0.060  25.235  1.00  0.00     0.156 C 
ATOM     31  O   UNL     1      12.963   0.946  26.125  1.00  0.00    -0.295 OA
ENDBRANCH   9  11
ENDBRANCH   8   9
ENDBRANCH   1   8
TORSDOF 6
ENDMDL
MODEL 7
REMARK VINA RESULT:    -3.455      2.219      4.469
REMARK INTER + INTRA:          -5.752
REMARK INTER:                  -4.322
REMARK INTRA:                  -1.430
REMARK UNBOUND:                -1.086
REMARK SMILES CC[C@@H](CC[C@H](C)[C@H]1CC[C@H]2[C@@H]3CC(=O)C4=CC(=O)CC[C@]4(C)[C@H]3CC[C@@]12C)C(C)C
REMARK SMILES IDX 4 1 3 2 2 3 1 4 29 5 30 6 31 7 5 8 6 9 7 10 8 11 9 12 27 13
REMARK SMILES IDX 10 14 11 15 26 16 28 17 12 18 25 19 24 20 13 21 22 22 14 23
REMARK SMILES IDX 16 24 21 25 23 26 15 27 17 28 20 29 18 30 19 31
REMARK H PARENT
REMARK Flexibility Score: inf
ROOT
ATOM      1  C   UNL     1      15.185   3.812  25.199  1.00  0.00     0.004 C 
ENDROOT
BRANCH   1   2
ATOM      2  C   UNL     1      15.306   3.644  23.658  1.00  0.00    -0.009 C 
BRANCH   2   3
ATOM      3  C   UNL     1      16.622   2.873  23.309  1.00  0.00     0.000 C 
ATOM      4  C   UNL     1      17.872   3.641  23.739  1.00  0.00     0.004 C 
ENDBRANCH   2   3
BRANCH   2   5
ATOM      5  C   UNL     1      15.246   5.017  22.898  1.00  0.00    -0.014 C 
ATOM      6  C   UNL     1      14.357   6.060  23.606  1.00  0.00     0.007 C 
ATOM      7  C   UNL     1      14.726   4.839  21.457  1.00  0.00     0.007 C 
ENDBRANCH   2   5
ENDBRANCH   1   2
BRANCH   1   8
ATOM      8  C   UNL     1      13.972   3.059  25.793  1.00  0.00     0.004 C 
BRANCH   8   9
ATOM      9  C   UNL     1      12.747   3.004  24.835  1.00  0.00    -0.011 C 
ATOM     10  C   UNL     1      11.655   3.951  25.370  1.00  0.00     0.008 C 
BRANCH   9  11
ATOM     11  C   UNL     1      12.288   1.526  24.549  1.00  0.00    -0.002 C 
ATOM     12  C   UNL     1      10.948   1.344  23.833  1.00  0.00     0.005 C 
ATOM     13  C   UNL     1      13.255   0.504  23.873  1.00  0.00    -0.026 C 
ATOM     14  C   UNL     1      10.953  -0.104  23.326  1.00  0.00     0.005 C 
ATOM     15  C   UNL     1      12.310  -0.718  23.738  1.00  0.00    -0.001 C 
ATOM     16  C   UNL     1      13.764   0.972  22.461  1.00  0.00     0.007 C 
ATOM     17  C   UNL     1      14.439   0.206  24.828  1.00  0.00     0.012 C 
ATOM     18  C   UNL     1      12.774  -1.878  22.789  1.00  0.00     0.004 C 
ATOM     19  C   UNL     1      13.789  -0.096  21.346  1.00  0.00     0.005 C 
ATOM     20  C   UNL     1      13.993  -1.515  21.897  1.00  0.00     0.003 C 
ATOM     21  C   UNL     1      13.083  -3.156  23.580  1.00  0.00     0.085 C 
ATOM     22  C   UNL     1      14.292  -2.615  20.802  1.00  0.00    -0.000 C 
ATOM     23  C   UNL     1      13.484  -4.272  22.664  1.00  0.00     0.159 C 
ATOM     24  C   UNL     1      14.319  -4.003  21.465  1.00  0.00     0.005 C 
ATOM     25  C   UNL     1      15.690  -2.335  20.158  1.00  0.00     0.020 C 
ATOM     26  C   UNL     1      13.211  -2.627  19.689  1.00  0.00     0.017 C 
ATOM     27  O   UNL     1      13.168  -5.455  22.972  1.00  0.00    -0.295 OA
ATOM     28  C   UNL     1      15.054  -5.006  20.944  1.00  0.00     0.055 C 
ATOM     29  C   UNL     1      16.151  -3.445  19.203  1.00  0.00     0.081 C 
ATOM     30  C   UNL     1      15.967  -4.799  19.811  1.00  0.00     0.156 C 
ATOM     31  O   UNL     1      16.592  -5.783  19.333  1.00  0.00    -0.295 OA
ENDBRANCH   9  11
ENDBRANCH   8   9
ENDBRANCH   1   8
TORSDOF 6
ENDMDL
MODEL 8
REMARK VINA RESULT:    -3.319      4.920      9.032
REMARK INTER + INTRA:          -5.569
REMARK INTER:                  -4.709
REMARK INTRA:                  -0.860
REMARK UNBOUND:                -1.086
REMARK SMILES CC[C@@H](CC[C@H](C)[C@H]1CC[C@H]2[C@@H]3CC(=O)C4=CC(=O)CC[C@]4(C)[C@H]3CC[C@@]12C)C(C)C
REMARK SMILES IDX 4 1 3 2 2 3 1 4 29 5 30 6 31 7 5 8 6 9 7 10 8 11 9 12 27 13
REMARK SMILES IDX 10 14 11 15 26 16 28 17 12 18 25 19 24 20 13 21 22 22 14 23
REMARK SMILES IDX 16 24 21 25 23 26 15 27 17 28 20 29 18 30 19 31
REMARK H PARENT
REMARK Flexibility Score: inf
ROOT
ATOM      1  C   UNL     1      12.589   0.303  22.898  1.00  0.00     0.004 C 
ENDROOT
BRANCH   1   2
ATOM      2  C   UNL     1      12.769   0.823  24.353  1.00  0.00    -0.009 C 
BRANCH   2   3
ATOM      3  C   UNL     1      11.425   0.678  25.140  1.00  0.00     0.000 C 
ATOM      4  C   UNL     1      11.343  -0.645  25.902  1.00  0.00     0.004 C 
ENDBRANCH   2   3
BRANCH   2   5
ATOM      5  C   UNL     1      13.287   2.304  24.401  1.00  0.00    -0.014 C 
ATOM      6  C   UNL     1      14.174   2.674  23.195  1.00  0.00     0.007 C 
ATOM      7  C   UNL     1      14.089   2.577  25.691  1.00  0.00     0.007 C 
ENDBRANCH   2   5
ENDBRANCH   1   2
BRANCH   1   8
ATOM      8  C   UNL     1      12.865  -1.212  22.762  1.00  0.00     0.004 C 
BRANCH   8   9
ATOM      9  C   UNL     1      14.108  -1.539  21.883  1.00  0.00    -0.011 C 
ATOM     10  C   UNL     1      14.803  -0.220  21.495  1.00  0.00     0.008 C 
BRANCH   9  11
ATOM     11  C   UNL     1      13.748  -2.498  20.688  1.00  0.00    -0.002 C 
ATOM     12  C   UNL     1      13.508  -1.845  19.325  1.00  0.00     0.005 C 
ATOM     13  C   UNL     1      14.612  -3.763  20.389  1.00  0.00    -0.026 C 
ATOM     14  C   UNL     1      13.595  -2.989  18.308  1.00  0.00     0.005 C 
ATOM     15  C   UNL     1      13.910  -4.275  19.104  1.00  0.00    -0.001 C 
ATOM     16  C   UNL     1      16.122  -3.431  20.103  1.00  0.00     0.007 C 
ATOM     17  C   UNL     1      14.469  -4.772  21.557  1.00  0.00     0.012 C 
ATOM     18  C   UNL     1      14.672  -5.353  18.256  1.00  0.00     0.004 C 
ATOM     19  C   UNL     1      16.783  -4.177  18.926  1.00  0.00     0.005 C 
ATOM     20  C   UNL     1      16.154  -5.555  18.676  1.00  0.00     0.003 C 
ATOM     21  C   UNL     1      13.944  -6.703  18.287  1.00  0.00     0.085 C 
ATOM     22  C   UNL     1      16.950  -6.476  17.667  1.00  0.00    -0.000 C 
ATOM     23  C   UNL     1      14.653  -7.716  17.440  1.00  0.00     0.159 C 
ATOM     24  C   UNL     1      16.138  -7.752  17.389  1.00  0.00     0.005 C 
ATOM     25  C   UNL     1      18.320  -6.878  18.307  1.00  0.00     0.020 C 
ATOM     26  C   UNL     1      17.209  -5.758  16.316  1.00  0.00     0.017 C 
ATOM     27  O   UNL     1      13.970  -8.589  16.835  1.00  0.00    -0.295 OA
ATOM     28  C   UNL     1      16.750  -8.903  17.044  1.00  0.00     0.055 C 
ATOM     29  C   UNL     1      19.096  -7.912  17.478  1.00  0.00     0.081 C 
ATOM     30  C   UNL     1      18.214  -9.042  17.050  1.00  0.00     0.156 C 
ATOM     31  O   UNL     1      18.734 -10.125  16.671  1.00  0.00    -0.295 OA
ENDBRANCH   9  11
ENDBRANCH   8   9
ENDBRANCH   1   8
TORSDOF 6
ENDMDL
MODEL 9
REMARK VINA RESULT:    -3.289      3.121      9.002
REMARK INTER + INTRA:          -5.529
REMARK INTER:                  -5.086
REMARK INTRA:                  -0.443
REMARK UNBOUND:                -1.086
REMARK SMILES CC[C@@H](CC[C@H](C)[C@H]1CC[C@H]2[C@@H]3CC(=O)C4=CC(=O)CC[C@]4(C)[C@H]3CC[C@@]12C)C(C)C
REMARK SMILES IDX 4 1 3 2 2 3 1 4 29 5 30 6 31 7 5 8 6 9 7 10 8 11 9 12 27 13
REMARK SMILES IDX 10 14 11 15 26 16 28 17 12 18 25 19 24 20 13 21 22 22 14 23
REMARK SMILES IDX 16 24 21 25 23 26 15 27 17 28 20 29 18 30 19 31
REMARK H PARENT
REMARK Flexibility Score: inf
ROOT
ATOM      1  C   UNL     1      13.033  -2.542  22.665  1.00  0.00     0.004 C 
ENDROOT
BRANCH   1   2
ATOM      2  C   UNL     1      12.870  -3.188  24.070  1.00  0.00    -0.009 C 
BRANCH   2   3
ATOM      3  C   UNL     1      13.038  -4.740  23.964  1.00  0.00     0.000 C 
ATOM      4  C   UNL     1      14.321  -5.132  23.229  1.00  0.00     0.004 C 
ENDBRANCH   2   3
BRANCH   2   5
ATOM      5  C   UNL     1      11.501  -2.820  24.745  1.00  0.00    -0.014 C 
ATOM      6  C   UNL     1      11.580  -1.552  25.619  1.00  0.00     0.007 C 
ATOM      7  C   UNL     1      10.978  -3.977  25.622  1.00  0.00     0.007 C 
ENDBRANCH   2   5
ENDBRANCH   1   2
BRANCH   1   8
ATOM      8  C   UNL     1      13.068  -0.997  22.714  1.00  0.00     0.004 C 
BRANCH   8   9
ATOM      9  C   UNL     1      13.905  -0.358  21.568  1.00  0.00    -0.011 C 
ATOM     10  C   UNL     1      14.347  -1.469  20.597  1.00  0.00     0.008 C 
BRANCH   9  11
ATOM     11  C   UNL     1      15.056   0.563  22.122  1.00  0.00    -0.002 C 
ATOM     12  C   UNL     1      16.192   0.905  21.156  1.00  0.00     0.005 C 
ATOM     13  C   UNL     1      14.727   1.899  22.857  1.00  0.00    -0.026 C 
ATOM     14  C   UNL     1      16.915   2.100  21.790  1.00  0.00     0.005 C 
ATOM     15  C   UNL     1      16.161   2.439  23.095  1.00  0.00    -0.001 C 
ATOM     16  C   UNL     1      13.894   2.903  21.979  1.00  0.00     0.007 C 
ATOM     17  C   UNL     1      14.006   1.588  24.194  1.00  0.00     0.012 C 
ATOM     18  C   UNL     1      16.297   3.947  23.511  1.00  0.00     0.004 C 
ATOM     19  C   UNL     1      14.328   4.384  22.022  1.00  0.00     0.005 C 
ATOM     20  C   UNL     1      14.986   4.764  23.356  1.00  0.00     0.003 C 
ATOM     21  C   UNL     1      16.817   4.083  24.948  1.00  0.00     0.085 C 
ATOM     22  C   UNL     1      15.210   6.315  23.566  1.00  0.00    -0.000 C 
ATOM     23  C   UNL     1      16.986   5.525  25.324  1.00  0.00     0.159 C 
ATOM     24  C   UNL     1      16.011   6.545  24.860  1.00  0.00     0.005 C 
ATOM     25  C   UNL     1      13.822   7.024  23.699  1.00  0.00     0.020 C 
ATOM     26  C   UNL     1      15.996   6.947  22.387  1.00  0.00     0.017 C 
ATOM     27  O   UNL     1      17.923   5.843  26.107  1.00  0.00    -0.295 OA
ATOM     28  C   UNL     1      15.884   7.690  25.560  1.00  0.00     0.055 C 
ATOM     29  C   UNL     1      13.933   8.508  24.078  1.00  0.00     0.081 C 
ATOM     30  C   UNL     1      14.885   8.712  25.213  1.00  0.00     0.156 C 
ATOM     31  O   UNL     1      14.844   9.785  25.871  1.00  0.00    -0.295 OA
ENDBRANCH   9  11
ENDBRANCH   8   9
ENDBRANCH   1   8
TORSDOF 6
ENDMDL
