MODEL 1
REMARK VINA RESULT:    -4.509      0.000      0.000
REMARK INTER + INTRA:          -5.348
REMARK INTER:                  -5.299
REMARK INTRA:                  -0.049
REMARK UNBOUND:                -0.049
REMARK SMILES O=C([O-])CCC(=O)[O-]
REMARK SMILES IDX 4 1 2 2 1 3 3 4 5 5 6 6 7 7 8 8
REMARK H PARENT
REMARK Flexibility Score: inf
ROOT
ATOM      1  C   UNL     1      44.136  27.244   5.535  1.00  0.00     0.059 C 
ENDROOT
BRANCH   1   2
ATOM      2  C   UNL     1      44.208  26.613   6.890  1.00  0.00     0.042 C 
ATOM      3  O   UNL     1      43.165  26.478   7.582  1.00  0.00    -0.550 OA
ATOM      4  O   UNL     1      45.419  26.129   7.369  1.00  0.00    -0.550 OA
ENDBRANCH   1   2
BRANCH   1   5
ATOM      5  C   UNL     1      45.329  26.812   4.681  1.00  0.00     0.059 C 
BRANCH   5   6
ATOM      6  C   UNL     1      44.904  26.590   3.263  1.00  0.00     0.042 C 
ATOM      7  O   UNL     1      45.555  27.109   2.318  1.00  0.00    -0.550 OA
ATOM      8  O   UNL     1      43.760  25.852   2.987  1.00  0.00    -0.550 OA
ENDBRANCH   5   6
ENDBRANCH   1   5
TORSDOF 3
ENDMDL
MODEL 2
REMARK VINA RESULT:    -4.487      1.017      1.594
REMARK INTER + INTRA:          -5.323
REMARK INTER:                  -5.210
REMARK INTRA:                  -0.113
REMARK UNBOUND:                -0.049
REMARK SMILES O=C([O-])CCC(=O)[O-]
REMARK SMILES IDX 4 1 2 2 1 3 3 4 5 5 6 6 7 7 8 8
REMARK H PARENT
REMARK Flexibility Score: inf
ROOT
ATOM      1  C   UNL     1      45.072  27.430   5.684  1.00  0.00     0.059 C 
ENDROOT
BRANCH   1   2
ATOM      2  C   UNL     1      45.508  26.279   6.534  1.00  0.00     0.042 C 
ATOM      3  O   UNL     1      46.591  25.684   6.290  1.00  0.00    -0.550 OA
ATOM      4  O   UNL     1      44.743  25.893   7.628  1.00  0.00    -0.550 OA
ENDBRANCH   1   2
BRANCH   1   5
ATOM      5  C   UNL     1      43.913  27.015   4.776  1.00  0.00     0.059 C 
BRANCH   5   6
ATOM      6  C   UNL     1      44.427  26.564   3.445  1.00  0.00     0.042 C 
ATOM      7  O   UNL     1      45.435  27.119   2.934  1.00  0.00    -0.550 OA
ATOM      8  O   UNL     1      43.761  25.565   2.745  1.00  0.00    -0.550 OA
ENDBRANCH   5   6
ENDBRANCH   1   5
TORSDOF 3
ENDMDL
MODEL 3
REMARK VINA RESULT:    -4.468      0.246      4.113
REMARK INTER + INTRA:          -5.300
REMARK INTER:                  -5.243
REMARK INTRA:                  -0.057
REMARK UNBOUND:                -0.049
REMARK SMILES O=C([O-])CCC(=O)[O-]
REMARK SMILES IDX 4 1 2 2 1 3 3 4 5 5 6 6 7 7 8 8
REMARK H PARENT
REMARK Flexibility Score: inf
ROOT
ATOM      1  C   UNL     1      45.284  26.973   4.688  1.00  0.00     0.059 C 
ENDROOT
BRANCH   1   2
ATOM      2  C   UNL     1      44.873  26.657   3.285  1.00  0.00     0.042 C 
ATOM      3  O   UNL     1      45.579  27.041   2.316  1.00  0.00    -0.550 OA
ATOM      4  O   UNL     1      43.736  25.893   3.049  1.00  0.00    -0.550 OA
ENDBRANCH   1   2
BRANCH   1   5
ATOM      5  C   UNL     1      44.060  27.036   5.603  1.00  0.00     0.059 C 
BRANCH   5   6
ATOM      6  C   UNL     1      44.354  26.380   6.915  1.00  0.00     0.042 C 
ATOM      7  O   UNL     1      45.542  26.129   7.247  1.00  0.00    -0.550 OA
ATOM      8  O   UNL     1      43.311  26.000   7.752  1.00  0.00    -0.550 OA
ENDBRANCH   5   6
ENDBRANCH   1   5
TORSDOF 3
ENDMDL
MODEL 4
REMARK VINA RESULT:    -4.448      0.110      4.135
REMARK INTER + INTRA:          -5.277
REMARK INTER:                  -5.227
REMARK INTRA:                  -0.049
REMARK UNBOUND:                -0.049
REMARK SMILES O=C([O-])CCC(=O)[O-]
REMARK SMILES IDX 4 1 2 2 1 3 3 4 5 5 6 6 7 7 8 8
REMARK H PARENT
REMARK Flexibility Score: inf
ROOT
ATOM      1  C   UNL     1      45.337  26.648   4.726  1.00  0.00     0.059 C 
ENDROOT
BRANCH   1   2
ATOM      2  C   UNL     1      44.859  26.509   3.316  1.00  0.00     0.042 C 
ATOM      3  O   UNL     1      43.775  25.917   3.069  1.00  0.00    -0.550 OA
ATOM      4  O   UNL     1      45.584  27.078   2.276  1.00  0.00    -0.550 OA
ENDBRANCH   1   2
BRANCH   1   5
ATOM      5  C   UNL     1      44.243  27.258   5.604  1.00  0.00     0.059 C 
BRANCH   5   6
ATOM      6  C   UNL     1      44.210  26.586   6.941  1.00  0.00     0.042 C 
ATOM      7  O   UNL     1      43.132  26.514   7.587  1.00  0.00    -0.550 OA
ATOM      8  O   UNL     1      45.381  26.083   7.496  1.00  0.00    -0.550 OA
ENDBRANCH   5   6
ENDBRANCH   1   5
TORSDOF 3
ENDMDL
MODEL 5
REMARK VINA RESULT:    -4.448      0.391      1.638
REMARK INTER + INTRA:          -5.276
REMARK INTER:                  -5.219
REMARK INTRA:                  -0.057
REMARK UNBOUND:                -0.049
REMARK SMILES O=C([O-])CCC(=O)[O-]
REMARK SMILES IDX 4 1 2 2 1 3 3 4 5 5 6 6 7 7 8 8
REMARK H PARENT
REMARK Flexibility Score: inf
ROOT
ATOM      1  C   UNL     1      44.073  26.916   5.734  1.00  0.00     0.059 C 
ENDROOT
BRANCH   1   2
ATOM      2  C   UNL     1      44.463  26.255   7.019  1.00  0.00     0.042 C 
ATOM      3  O   UNL     1      45.675  26.175   7.348  1.00  0.00    -0.550 OA
ATOM      4  O   UNL     1      43.483  25.772   7.877  1.00  0.00    -0.550 OA
ENDBRANCH   1   2
BRANCH   1   5
ATOM      5  C   UNL     1      45.257  26.941   4.765  1.00  0.00     0.059 C 
BRANCH   5   6
ATOM      6  C   UNL     1      44.799  26.644   3.373  1.00  0.00     0.042 C 
ATOM      7  O   UNL     1      43.749  25.976   3.179  1.00  0.00    -0.550 OA
ATOM      8  O   UNL     1      45.559  27.061   2.287  1.00  0.00    -0.550 OA
ENDBRANCH   5   6
ENDBRANCH   1   5
TORSDOF 3
ENDMDL
MODEL 6
REMARK VINA RESULT:    -3.768      1.788      4.054
REMARK INTER + INTRA:          -4.478
REMARK INTER:                  -4.404
REMARK INTRA:                  -0.074
REMARK UNBOUND:                -0.049
REMARK SMILES O=C([O-])CCC(=O)[O-]
REMARK SMILES IDX 4 1 2 2 1 3 3 4 5 5 6 6 7 7 8 8
REMARK H PARENT
REMARK Flexibility Score: inf
ROOT
ATOM      1  C   UNL     1      45.232  26.887   3.161  1.00  0.00     0.059 C 
ENDROOT
BRANCH   1   2
ATOM      2  C   UNL     1      45.899  25.649   2.649  1.00  0.00     0.042 C 
ATOM      3  O   UNL     1      45.212  24.718   2.153  1.00  0.00    -0.550 OA
ATOM      4  O   UNL     1      47.284  25.545   2.675  1.00  0.00    -0.550 OA
ENDBRANCH   1   2
BRANCH   1   5
ATOM      5  C   UNL     1      44.471  26.590   4.454  1.00  0.00     0.059 C 
BRANCH   5   6
ATOM      6  C   UNL     1      45.354  26.808   5.642  1.00  0.00     0.042 C 
ATOM      7  O   UNL     1      46.202  25.937   5.970  1.00  0.00    -0.550 OA
ATOM      8  O   UNL     1      45.206  27.951   6.418  1.00  0.00    -0.550 OA
ENDBRANCH   5   6
ENDBRANCH   1   5
TORSDOF 3
ENDMDL
MODEL 7
REMARK VINA RESULT:    -3.639     14.048     14.655
REMARK INTER + INTRA:          -4.326
REMARK INTER:                  -4.213
REMARK INTRA:                  -0.113
REMARK UNBOUND:                -0.049
REMARK SMILES O=C([O-])CCC(=O)[O-]
REMARK SMILES IDX 4 1 2 2 1 3 3 4 5 5 6 6 7 7 8 8
REMARK H PARENT
REMARK Flexibility Score: inf
ROOT
ATOM      1  C   UNL     1      40.568  22.710  17.639  1.00  0.00     0.059 C 
ENDROOT
BRANCH   1   2
ATOM      2  C   UNL     1      41.340  23.277  18.788  1.00  0.00     0.042 C 
ATOM      3  O   UNL     1      42.457  22.789  19.104  1.00  0.00    -0.550 OA
ATOM      4  O   UNL     1      40.850  24.379  19.480  1.00  0.00    -0.550 OA
ENDBRANCH   1   2
BRANCH   1   5
ATOM      5  C   UNL     1      39.392  23.622  17.283  1.00  0.00     0.059 C 
BRANCH   5   6
ATOM      6  C   UNL     1      38.094  22.956  17.615  1.00  0.00     0.042 C 
ATOM      7  O   UNL     1      37.918  22.442  18.751  1.00  0.00    -0.550 OA
ATOM      8  O   UNL     1      37.097  22.859  16.653  1.00  0.00    -0.550 OA
ENDBRANCH   5   6
ENDBRANCH   1   5
TORSDOF 3
ENDMDL
MODEL 8
REMARK VINA RESULT:    -3.636     14.067     14.760
REMARK INTER + INTRA:          -4.323
REMARK INTER:                  -4.213
REMARK INTRA:                  -0.110
REMARK UNBOUND:                -0.049
REMARK SMILES O=C([O-])CCC(=O)[O-]
REMARK SMILES IDX 4 1 2 2 1 3 3 4 5 5 6 6 7 7 8 8
REMARK H PARENT
REMARK Flexibility Score: inf
ROOT
ATOM      1  C   UNL     1      39.390  23.595  17.257  1.00  0.00     0.059 C 
ENDROOT
BRANCH   1   2
ATOM      2  C   UNL     1      38.102  22.919  17.607  1.00  0.00     0.042 C 
ATOM      3  O   UNL     1      37.940  22.416  18.749  1.00  0.00    -0.550 OA
ATOM      4  O   UNL     1      37.060  22.890  16.688  1.00  0.00    -0.550 OA
ENDBRANCH   1   2
BRANCH   1   5
ATOM      5  C   UNL     1      40.579  22.714  17.646  1.00  0.00     0.059 C 
BRANCH   5   6
ATOM      6  C   UNL     1      41.320  23.314  18.798  1.00  0.00     0.042 C 
ATOM      7  O   UNL     1      42.397  22.798  19.197  1.00  0.00    -0.550 OA
ATOM      8  O   UNL     1      40.795  24.414  19.466  1.00  0.00    -0.550 OA
ENDBRANCH   5   6
ENDBRANCH   1   5
TORSDOF 3
ENDMDL
MODEL 9
REMARK VINA RESULT:    -3.614     14.045     14.961
REMARK INTER + INTRA:          -4.297
REMARK INTER:                  -4.260
REMARK INTRA:                  -0.036
REMARK UNBOUND:                -0.049
REMARK SMILES O=C([O-])CCC(=O)[O-]
REMARK SMILES IDX 4 1 2 2 1 3 3 4 5 5 6 6 7 7 8 8
REMARK H PARENT
REMARK Flexibility Score: inf
ROOT
ATOM      1  C   UNL     1      39.206  23.755  17.962  1.00  0.00     0.059 C 
ENDROOT
BRANCH   1   2
ATOM      2  C   UNL     1      38.523  22.739  17.102  1.00  0.00     0.042 C 
ATOM      3  O   UNL     1      39.133  21.698  16.743  1.00  0.00    -0.550 OA
ATOM      4  O   UNL     1      37.193  22.917  16.739  1.00  0.00    -0.550 OA
ENDBRANCH   1   2
BRANCH   1   5
ATOM      5  C   UNL     1      40.597  23.264  18.366  1.00  0.00     0.059 C 
BRANCH   5   6
ATOM      6  C   UNL     1      41.063  23.971  19.600  1.00  0.00     0.042 C 
ATOM      7  O   UNL     1      41.244  25.217  19.587  1.00  0.00    -0.550 OA
ATOM      8  O   UNL     1      41.347  23.247  20.751  1.00  0.00    -0.550 OA
ENDBRANCH   5   6
ENDBRANCH   1   5
TORSDOF 3
ENDMDL
