MODEL 1
REMARK VINA RESULT:    -4.031      0.000      0.000
REMARK INTER + INTRA:          -5.896
REMARK INTER:                  -5.446
REMARK INTRA:                  -0.450
REMARK UNBOUND:                -0.450
REMARK SMILES CCCCCCC=CC(=O)[O-]
REMARK SMILES IDX 5 1 6 2 7 3 8 4 9 5 10 6 11 7 4 8 3 9 2 10 1 11
REMARK H PARENT
REMARK Flexibility Score: inf
ROOT
ATOM      1  C   UNL     1       3.017   5.986   3.287  1.00  0.00     0.004 C 
ENDROOT
BRANCH   1   2
ATOM      2  C   UNL     1       3.213   4.568   3.844  1.00  0.00     0.027 C 
BRANCH   2   3
ATOM      3  C   UNL     1       4.433   4.491   4.715  1.00  0.00    -0.025 C 
ATOM      4  C   UNL     1       4.357   4.108   5.995  1.00  0.00     0.020 C 
BRANCH   4   5
ATOM      5  C   UNL     1       5.541   4.013   6.862  1.00  0.00     0.064 C 
ATOM      6  O   UNL     1       6.496   3.240   6.579  1.00  0.00    -0.545 OA
ATOM      7  O   UNL     1       5.609   4.786   8.013  1.00  0.00    -0.545 OA
ENDBRANCH   4   5
ENDBRANCH   2   3
ENDBRANCH   1   2
BRANCH   1   8
ATOM      8  C   UNL     1       1.562   6.469   3.398  1.00  0.00     0.000 C 
BRANCH   8   9
ATOM      9  C   UNL     1       1.441   7.829   4.101  1.00  0.00    -0.000 C 
BRANCH   9  10
ATOM     10  C   UNL     1       0.659   7.699   5.414  1.00  0.00    -0.003 C 
ATOM     11  C   UNL     1       1.472   6.954   6.468  1.00  0.00     0.004 C 
ENDBRANCH   9  10
ENDBRANCH   8   9
ENDBRANCH   1   8
TORSDOF 6
ENDMDL
MODEL 2
REMARK VINA RESULT:    -3.862     12.429     13.479
REMARK INTER + INTRA:          -5.667
REMARK INTER:                  -5.187
REMARK INTRA:                  -0.479
REMARK UNBOUND:                -0.450
REMARK SMILES CCCCCCC=CC(=O)[O-]
REMARK SMILES IDX 5 1 6 2 7 3 8 4 9 5 10 6 11 7 4 8 3 9 2 10 1 11
REMARK H PARENT
REMARK Flexibility Score: inf
ROOT
ATOM      1  C   UNL     1      -3.185  -5.670   3.277  1.00  0.00     0.004 C 
ENDROOT
BRANCH   1   2
ATOM      2  C   UNL     1      -3.347  -4.240   3.812  1.00  0.00     0.027 C 
BRANCH   2   3
ATOM      3  C   UNL     1      -4.523  -4.138   4.740  1.00  0.00    -0.025 C 
ATOM      4  C   UNL     1      -4.363  -3.987   6.059  1.00  0.00     0.020 C 
BRANCH   4   5
ATOM      5  C   UNL     1      -5.501  -3.871   6.985  1.00  0.00     0.064 C 
ATOM      6  O   UNL     1      -5.555  -4.558   8.041  1.00  0.00    -0.545 OA
ATOM      7  O   UNL     1      -6.533  -2.991   6.692  1.00  0.00    -0.545 OA
ENDBRANCH   4   5
ENDBRANCH   2   3
ENDBRANCH   1   2
BRANCH   1   8
ATOM      8  C   UNL     1      -1.722  -6.140   3.279  1.00  0.00     0.000 C 
BRANCH   8   9
ATOM      9  C   UNL     1      -1.523  -7.456   4.045  1.00  0.00    -0.000 C 
BRANCH   9  10
ATOM     10  C   UNL     1      -1.162  -7.187   5.511  1.00  0.00    -0.003 C 
ATOM     11  C   UNL     1      -0.440  -5.852   5.665  1.00  0.00     0.004 C 
ENDBRANCH   9  10
ENDBRANCH   8   9
ENDBRANCH   1   8
TORSDOF 6
ENDMDL
MODEL 3
REMARK VINA RESULT:    -3.851     15.272     16.528
REMARK INTER + INTRA:          -5.652
REMARK INTER:                  -5.235
REMARK INTRA:                  -0.417
REMARK UNBOUND:                -0.450
REMARK SMILES CCCCCCC=CC(=O)[O-]
REMARK SMILES IDX 5 1 6 2 7 3 8 4 9 5 10 6 11 7 4 8 3 9 2 10 1 11
REMARK H PARENT
REMARK Flexibility Score: inf
ROOT
ATOM      1  C   UNL     1      -3.254  -6.371  -2.473  1.00  0.00     0.004 C 
ENDROOT
BRANCH   1   2
ATOM      2  C   UNL     1      -4.651  -6.742  -1.955  1.00  0.00     0.027 C 
BRANCH   2   3
ATOM      3  C   UNL     1      -5.711  -6.400  -2.961  1.00  0.00    -0.025 C 
ATOM      4  C   UNL     1      -6.726  -5.583  -2.659  1.00  0.00     0.020 C 
BRANCH   4   5
ATOM      5  C   UNL     1      -7.768  -5.223  -3.634  1.00  0.00     0.064 C 
ATOM      6  O   UNL     1      -8.679  -4.403  -3.341  1.00  0.00    -0.545 OA
ATOM      7  O   UNL     1      -7.747  -5.795  -4.899  1.00  0.00    -0.545 OA
ENDBRANCH   4   5
ENDBRANCH   2   3
ENDBRANCH   1   2
BRANCH   1   8
ATOM      8  C   UNL     1      -2.464  -5.507  -1.477  1.00  0.00     0.000 C 
BRANCH   8   9
ATOM      9  C   UNL     1      -3.373  -4.765  -0.486  1.00  0.00    -0.000 C 
BRANCH   9  10
ATOM     10  C   UNL     1      -2.926  -5.015   0.960  1.00  0.00    -0.003 C 
ATOM     11  C   UNL     1      -1.420  -5.252   1.039  1.00  0.00     0.004 C 
ENDBRANCH   9  10
ENDBRANCH   8   9
ENDBRANCH   1   8
TORSDOF 6
ENDMDL
MODEL 4
REMARK VINA RESULT:    -3.837      6.828      8.093
REMARK INTER + INTRA:          -5.632
REMARK INTER:                  -5.232
REMARK INTRA:                  -0.400
REMARK UNBOUND:                -0.450
REMARK SMILES CCCCCCC=CC(=O)[O-]
REMARK SMILES IDX 5 1 6 2 7 3 8 4 9 5 10 6 11 7 4 8 3 9 2 10 1 11
REMARK H PARENT
REMARK Flexibility Score: inf
ROOT
ATOM      1  C   UNL     1       3.130   6.426  -2.346  1.00  0.00     0.004 C 
ENDROOT
BRANCH   1   2
ATOM      2  C   UNL     1       4.546   6.752  -1.846  1.00  0.00     0.027 C 
BRANCH   2   3
ATOM      3  C   UNL     1       5.576   6.430  -2.891  1.00  0.00    -0.025 C 
ATOM      4  C   UNL     1       6.687   5.748  -2.591  1.00  0.00     0.020 C 
BRANCH   4   5
ATOM      5  C   UNL     1       7.702   5.410  -3.601  1.00  0.00     0.064 C 
ATOM      6  O   UNL     1       7.558   5.744  -4.808  1.00  0.00    -0.545 OA
ATOM      7  O   UNL     1       8.839   4.712  -3.219  1.00  0.00    -0.545 OA
ENDBRANCH   4   5
ENDBRANCH   2   3
ENDBRANCH   1   2
BRANCH   1   8
ATOM      8  C   UNL     1       2.352   5.526  -1.372  1.00  0.00     0.000 C 
BRANCH   8   9
ATOM      9  C   UNL     1       3.244   4.936  -0.270  1.00  0.00    -0.000 C 
BRANCH   9  10
ATOM     10  C   UNL     1       2.678   5.250   1.120  1.00  0.00    -0.003 C 
ATOM     11  C   UNL     1       1.164   5.433   1.070  1.00  0.00     0.004 C 
ENDBRANCH   9  10
ENDBRANCH   8   9
ENDBRANCH   1   8
TORSDOF 6
ENDMDL
MODEL 5
REMARK VINA RESULT:    -3.827      5.603      6.756
REMARK INTER + INTRA:          -5.620
REMARK INTER:                  -5.383
REMARK INTRA:                  -0.237
REMARK UNBOUND:                -0.450
REMARK SMILES CCCCCCC=CC(=O)[O-]
REMARK SMILES IDX 5 1 6 2 7 3 8 4 9 5 10 6 11 7 4 8 3 9 2 10 1 11
REMARK H PARENT
REMARK Flexibility Score: inf
ROOT
ATOM      1  C   UNL     1       3.123   5.004   0.486  1.00  0.00     0.004 C 
ENDROOT
BRANCH   1   2
ATOM      2  C   UNL     1       2.311   5.514  -0.714  1.00  0.00     0.027 C 
BRANCH   2   3
ATOM      3  C   UNL     1       3.212   5.911  -1.848  1.00  0.00    -0.025 C 
ATOM      4  C   UNL     1       4.534   6.031  -1.684  1.00  0.00     0.020 C 
BRANCH   4   5
ATOM      5  C   UNL     1       5.436   6.404  -2.784  1.00  0.00     0.064 C 
ATOM      6  O   UNL     1       5.341   5.862  -3.918  1.00  0.00    -0.545 OA
ATOM      7  O   UNL     1       6.410   7.371  -2.571  1.00  0.00    -0.545 OA
ENDBRANCH   4   5
ENDBRANCH   2   3
ENDBRANCH   1   2
BRANCH   1   8
ATOM      8  C   UNL     1       2.326   5.044   1.799  1.00  0.00     0.000 C 
BRANCH   8   9
ATOM      9  C   UNL     1       2.913   6.031   2.819  1.00  0.00    -0.000 C 
BRANCH   9  10
ATOM     10  C   UNL     1       1.921   6.297   3.958  1.00  0.00    -0.003 C 
ATOM     11  C   UNL     1       1.430   7.742   3.936  1.00  0.00     0.004 C 
ENDBRANCH   9  10
ENDBRANCH   8   9
ENDBRANCH   1   8
TORSDOF 6
ENDMDL
MODEL 6
REMARK VINA RESULT:    -3.813     15.272     16.457
REMARK INTER + INTRA:          -5.600
REMARK INTER:                  -4.997
REMARK INTRA:                  -0.603
REMARK UNBOUND:                -0.450
REMARK SMILES CCCCCCC=CC(=O)[O-]
REMARK SMILES IDX 5 1 6 2 7 3 8 4 9 5 10 6 11 7 4 8 3 9 2 10 1 11
REMARK H PARENT
REMARK Flexibility Score: inf
ROOT
ATOM      1  C   UNL     1      -3.198  -6.388  -2.476  1.00  0.00     0.004 C 
ENDROOT
BRANCH   1   2
ATOM      2  C   UNL     1      -4.602  -6.624  -1.899  1.00  0.00     0.027 C 
BRANCH   2   3
ATOM      3  C   UNL     1      -5.662  -6.355  -2.928  1.00  0.00    -0.025 C 
ATOM      4  C   UNL     1      -6.734  -5.605  -2.649  1.00  0.00     0.020 C 
BRANCH   4   5
ATOM      5  C   UNL     1      -7.778  -5.317  -3.646  1.00  0.00     0.064 C 
ATOM      6  O   UNL     1      -7.667  -5.712  -4.838  1.00  0.00    -0.545 OA
ATOM      7  O   UNL     1      -8.903  -4.598  -3.268  1.00  0.00    -0.545 OA
ENDBRANCH   4   5
ENDBRANCH   2   3
ENDBRANCH   1   2
BRANCH   1   8
ATOM      8  C   UNL     1      -2.309  -5.549  -1.544  1.00  0.00     0.000 C 
BRANCH   8   9
ATOM      9  C   UNL     1      -3.067  -5.029  -0.313  1.00  0.00    -0.000 C 
BRANCH   9  10
ATOM     10  C   UNL     1      -3.194  -3.502  -0.353  1.00  0.00    -0.003 C 
ATOM     11  C   UNL     1      -4.581  -3.076  -0.827  1.00  0.00     0.004 C 
ENDBRANCH   9  10
ENDBRANCH   8   9
ENDBRANCH   1   8
TORSDOF 6
ENDMDL
MODEL 7
REMARK VINA RESULT:    -3.781      7.023      8.463
REMARK INTER + INTRA:          -5.557
REMARK INTER:                  -4.952
REMARK INTRA:                  -0.606
REMARK UNBOUND:                -0.450
REMARK SMILES CCCCCCC=CC(=O)[O-]
REMARK SMILES IDX 5 1 6 2 7 3 8 4 9 5 10 6 11 7 4 8 3 9 2 10 1 11
REMARK H PARENT
REMARK Flexibility Score: inf
ROOT
ATOM      1  C   UNL     1       3.070   6.504  -2.347  1.00  0.00     0.004 C 
ENDROOT
BRANCH   1   2
ATOM      2  C   UNL     1       4.518   6.767  -1.910  1.00  0.00     0.027 C 
BRANCH   2   3
ATOM      3  C   UNL     1       5.494   6.257  -2.931  1.00  0.00    -0.025 C 
ATOM      4  C   UNL     1       6.742   5.912  -2.597  1.00  0.00     0.020 C 
BRANCH   4   5
ATOM      5  C   UNL     1       7.709   5.397  -3.578  1.00  0.00     0.064 C 
ATOM      6  O   UNL     1       8.721   4.740  -3.213  1.00  0.00    -0.545 OA
ATOM      7  O   UNL     1       7.505   5.638  -4.930  1.00  0.00    -0.545 OA
ENDBRANCH   4   5
ENDBRANCH   2   3
ENDBRANCH   1   2
BRANCH   1   8
ATOM      8  C   UNL     1       2.333   5.540  -1.404  1.00  0.00     0.000 C 
BRANCH   8   9
ATOM      9  C   UNL     1       3.128   5.241  -0.124  1.00  0.00    -0.000 C 
BRANCH   9  10
ATOM     10  C   UNL     1       3.359   3.733   0.037  1.00  0.00    -0.003 C 
ATOM     11  C   UNL     1       4.506   3.253  -0.847  1.00  0.00     0.004 C 
ENDBRANCH   9  10
ENDBRANCH   8   9
ENDBRANCH   1   8
TORSDOF 6
ENDMDL
MODEL 8
REMARK VINA RESULT:    -3.667     12.716     13.767
REMARK INTER + INTRA:          -5.403
REMARK INTER:                  -5.185
REMARK INTRA:                  -0.218
REMARK UNBOUND:                -0.450
REMARK SMILES CCCCCCC=CC(=O)[O-]
REMARK SMILES IDX 5 1 6 2 7 3 8 4 9 5 10 6 11 7 4 8 3 9 2 10 1 11
REMARK H PARENT
REMARK Flexibility Score: inf
ROOT
ATOM      1  C   UNL     1      -2.927  -4.801   1.816  1.00  0.00     0.004 C 
ENDROOT
BRANCH   1   2
ATOM      2  C   UNL     1      -2.968  -5.986   2.793  1.00  0.00     0.027 C 
BRANCH   2   3
ATOM      3  C   UNL     1      -1.596  -6.308   3.311  1.00  0.00    -0.025 C 
ATOM      4  C   UNL     1      -1.320  -7.490   3.874  1.00  0.00     0.020 C 
BRANCH   4   5
ATOM      5  C   UNL     1       0.021  -7.832   4.375  1.00  0.00     0.064 C 
ATOM      6  O   UNL     1       0.225  -8.901   5.012  1.00  0.00    -0.545 OA
ATOM      7  O   UNL     1       1.079  -6.964   4.144  1.00  0.00    -0.545 OA
ENDBRANCH   4   5
ENDBRANCH   2   3
ENDBRANCH   1   2
BRANCH   1   8
ATOM      8  C   UNL     1      -2.670  -5.239   0.366  1.00  0.00     0.000 C 
BRANCH   8   9
ATOM      9  C   UNL     1      -3.810  -4.842  -0.584  1.00  0.00    -0.000 C 
BRANCH   9  10
ATOM     10  C   UNL     1      -4.261  -6.040  -1.428  1.00  0.00    -0.003 C 
ATOM     11  C   UNL     1      -3.191  -6.435  -2.441  1.00  0.00     0.004 C 
ENDBRANCH   9  10
ENDBRANCH   8   9
ENDBRANCH   1   8
TORSDOF 6
ENDMDL
MODEL 9
REMARK VINA RESULT:    -3.615     14.132     15.422
REMARK INTER + INTRA:          -5.333
REMARK INTER:                  -5.077
REMARK INTRA:                  -0.256
REMARK UNBOUND:                -0.450
REMARK SMILES CCCCCCC=CC(=O)[O-]
REMARK SMILES IDX 5 1 6 2 7 3 8 4 9 5 10 6 11 7 4 8 3 9 2 10 1 11
REMARK H PARENT
REMARK Flexibility Score: inf
ROOT
ATOM      1  C   UNL     1      -3.075  -4.980   0.126  1.00  0.00     0.004 C 
ENDROOT
BRANCH   1   2
ATOM      2  C   UNL     1      -2.376  -5.329  -1.197  1.00  0.00     0.027 C 
BRANCH   2   3
ATOM      3  C   UNL     1      -3.346  -5.911  -2.185  1.00  0.00    -0.025 C 
ATOM      4  C   UNL     1      -4.626  -5.525  -2.220  1.00  0.00     0.020 C 
BRANCH   4   5
ATOM      5  C   UNL     1      -5.589  -6.072  -3.189  1.00  0.00     0.064 C 
ATOM      6  O   UNL     1      -5.635  -5.645  -4.374  1.00  0.00    -0.545 OA
ATOM      7  O   UNL     1      -6.463  -7.074  -2.792  1.00  0.00    -0.545 OA
ENDBRANCH   4   5
ENDBRANCH   2   3
ENDBRANCH   1   2
BRANCH   1   8
ATOM      8  C   UNL     1      -2.138  -5.097   1.339  1.00  0.00     0.000 C 
BRANCH   8   9
ATOM      9  C   UNL     1      -2.899  -5.315   2.655  1.00  0.00    -0.000 C 
BRANCH   9  10
ATOM     10  C   UNL     1      -2.275  -6.459   3.464  1.00  0.00    -0.003 C 
ATOM     11  C   UNL     1      -0.820  -6.688   3.066  1.00  0.00     0.004 C 
ENDBRANCH   9  10
ENDBRANCH   8   9
ENDBRANCH   1   8
TORSDOF 6
ENDMDL
