MODEL 1
REMARK VINA RESULT:    43.217      0.000      0.000
REMARK INTER + INTRA:          63.637
REMARK INTER:                  60.902
REMARK INTRA:                   2.735
REMARK UNBOUND:                 2.735
REMARK SMILES C[C@H](CO)CCC(=O)[C@@H](C)[C@@H]1C(=O)C[C@@H]2[C@@H]3CC=C4C[C@H](O)CC[C@@]4(C)[C@H]3CC[C@@]21C
REMARK SMILES IDX 6 1 5 2 2 3 1 4 3 5 4 6 7 8 8 9 9 10 10 11 11 12 12 13 30 14
REMARK SMILES IDX 13 15 14 16 15 17 29 18 31 19 16 20 28 21 27 22 17 23 25 24
REMARK SMILES IDX 18 25 19 26 24 27 26 28 20 29 23 30 21 31 22 32
REMARK H PARENT 4 7 22 33
REMARK Flexibility Score: inf
ROOT
ATOM      1  C   UNL     1     -37.041  23.463   5.114  1.00  0.00     0.076 C 
ENDROOT
BRANCH   1   2
ATOM      2  C   UNL     1     -38.124  24.545   5.250  1.00  0.00     0.013 C 
BRANCH   2   3
ATOM      3  C   UNL     1     -38.125  25.617   4.134  1.00  0.00     0.012 C 
ATOM      4  C   UNL     1     -37.229  25.234   2.946  1.00  0.00     0.010 C 
BRANCH   3   5
ATOM      5  C   UNL     1     -37.834  27.042   4.648  1.00  0.00     0.159 C 
BRANCH   5   6
ATOM      6  O   UNL     1     -37.417  27.895   3.614  1.00  0.00    -0.396 OA
ATOM      7  H   UNL     1     -37.206  27.322   2.831  1.00  0.00     0.210 HD
ENDBRANCH   5   6
ENDBRANCH   3   5
ENDBRANCH   2   3
ENDBRANCH   1   2
BRANCH   1   8
ATOM      8  C   UNL     1     -37.667  22.152   4.716  1.00  0.00     0.136 C 
ATOM      9  O   UNL     1     -38.089  22.017   3.576  1.00  0.00    -0.299 OA
BRANCH   8  10
ATOM     10  C   UNL     1     -37.742  20.992   5.691  1.00  0.00     0.064 C 
ATOM     11  C   UNL     1     -37.545  19.676   4.915  1.00  0.00     0.017 C 
BRANCH  10  12
ATOM     12  C   UNL     1     -36.763  21.243   6.893  1.00  0.00     0.072 C 
ATOM     13  C   UNL     1     -36.963  22.499   7.681  1.00  0.00     0.137 C 
ATOM     14  C   UNL     1     -35.231  21.260   6.583  1.00  0.00    -0.019 C 
ATOM     15  O   UNL     1     -38.056  22.927   8.018  1.00  0.00    -0.299 OA
ATOM     16  C   UNL     1     -35.685  23.090   8.159  1.00  0.00     0.080 C 
ATOM     17  C   UNL     1     -34.648  22.000   7.820  1.00  0.00     0.007 C 
ATOM     18  C   UNL     1     -34.903  22.071   5.293  1.00  0.00     0.008 C 
ATOM     19  C   UNL     1     -34.689  19.814   6.482  1.00  0.00     0.012 C 
ATOM     20  C   UNL     1     -33.173  22.487   7.669  1.00  0.00     0.001 C 
ATOM     21  C   UNL     1     -33.414  22.393   5.148  1.00  0.00     0.005 C 
ATOM     22  C   UNL     1     -32.899  23.232   6.344  1.00  0.00     0.003 C 
ATOM     23  C   UNL     1     -32.774  23.389   8.846  1.00  0.00     0.031 C 
ATOM     24  C   UNL     1     -31.379  23.679   6.201  1.00  0.00    -0.008 C 
ATOM     25  C   UNL     1     -31.345  23.810   8.740  1.00  0.00    -0.027 C 
ATOM     26  C   UNL     1     -30.725  24.010   7.558  1.00  0.00    -0.065 C 
ATOM     27  C   UNL     1     -30.506  22.560   5.543  1.00  0.00     0.014 C 
ATOM     28  C   UNL     1     -31.349  24.952   5.315  1.00  0.00     0.016 C 
ATOM     29  C   UNL     1     -29.246  24.335   7.569  1.00  0.00     0.063 C 
ATOM     30  C   UNL     1     -28.991  22.853   5.545  1.00  0.00     0.033 C 
ATOM     31  C   UNL     1     -28.468  23.170   6.956  1.00  0.00     0.118 C 
BRANCH  31  32
ATOM     32  O   UNL     1     -27.106  23.507   6.897  1.00  0.00    -0.393 OA
ATOM     33  H   UNL     1     -27.041  24.348   6.373  1.00  0.00     0.210 HD
ENDBRANCH  31  32
ENDBRANCH  10  12
ENDBRANCH   8  10
ENDBRANCH   1   8
TORSDOF 8
ENDMDL
MODEL 2
REMARK VINA RESULT:    44.054      1.448      1.740
REMARK INTER + INTRA:          64.817
REMARK INTER:                  62.875
REMARK INTRA:                   1.943
REMARK UNBOUND:                 2.735
REMARK SMILES C[C@H](CO)CCC(=O)[C@@H](C)[C@@H]1C(=O)C[C@@H]2[C@@H]3CC=C4C[C@H](O)CC[C@@]4(C)[C@H]3CC[C@@]21C
REMARK SMILES IDX 6 1 5 2 2 3 1 4 3 5 4 6 7 8 8 9 9 10 10 11 11 12 12 13 30 14
REMARK SMILES IDX 13 15 14 16 15 17 29 18 31 19 16 20 28 21 27 22 17 23 25 24
REMARK SMILES IDX 18 25 19 26 24 27 26 28 20 29 23 30 21 31 22 32
REMARK H PARENT 4 7 22 33
REMARK Flexibility Score: inf
ROOT
ATOM      1  C   UNL     1     -37.017  24.488   4.990  1.00  0.00     0.076 C 
ENDROOT
BRANCH   1   2
ATOM      2  C   UNL     1     -38.123  25.024   4.067  1.00  0.00     0.013 C 
BRANCH   2   3
ATOM      3  C   UNL     1     -37.839  26.410   3.438  1.00  0.00     0.012 C 
ATOM      4  C   UNL     1     -36.613  26.398   2.513  1.00  0.00     0.010 C 
BRANCH   3   5
ATOM      5  C   UNL     1     -37.781  27.555   4.471  1.00  0.00     0.159 C 
BRANCH   5   6
ATOM      6  O   UNL     1     -36.628  28.341   4.313  1.00  0.00    -0.396 OA
ATOM      7  H   UNL     1     -36.706  29.102   4.947  1.00  0.00     0.210 HD
ENDBRANCH   5   6
ENDBRANCH   3   5
ENDBRANCH   2   3
ENDBRANCH   1   2
BRANCH   1   8
ATOM      8  C   UNL     1     -37.626  23.719   6.134  1.00  0.00     0.136 C 
ATOM      9  O   UNL     1     -38.013  24.329   7.120  1.00  0.00    -0.299 OA
BRANCH   8  10
ATOM     10  C   UNL     1     -37.800  22.214   6.059  1.00  0.00     0.064 C 
ATOM     11  C   UNL     1     -38.094  21.818   4.599  1.00  0.00     0.017 C 
BRANCH  10  12
ATOM     12  C   UNL     1     -36.577  21.502   6.739  1.00  0.00     0.072 C 
ATOM     13  C   UNL     1     -36.565  21.452   8.234  1.00  0.00     0.137 C 
ATOM     14  C   UNL     1     -35.149  22.034   6.391  1.00  0.00    -0.019 C 
ATOM     15  O   UNL     1     -37.546  21.201   8.916  1.00  0.00    -0.299 OA
ATOM     16  C   UNL     1     -35.197  21.574   8.805  1.00  0.00     0.080 C 
ATOM     17  C   UNL     1     -34.290  21.476   7.561  1.00  0.00     0.007 C 
ATOM     18  C   UNL     1     -35.086  23.592   6.400  1.00  0.00     0.008 C 
ATOM     19  C   UNL     1     -34.684  21.468   5.028  1.00  0.00     0.012 C 
ATOM     20  C   UNL     1     -32.870  22.108   7.704  1.00  0.00     0.001 C 
ATOM     21  C   UNL     1     -33.656  24.135   6.402  1.00  0.00     0.005 C 
ATOM     22  C   UNL     1     -32.869  23.651   7.645  1.00  0.00     0.003 C 
ATOM     23  C   UNL     1     -32.200  21.652   9.007  1.00  0.00     0.031 C 
ATOM     24  C   UNL     1     -31.404  24.263   7.751  1.00  0.00    -0.008 C 
ATOM     25  C   UNL     1     -30.816  22.204   9.122  1.00  0.00    -0.027 C 
ATOM     26  C   UNL     1     -30.462  23.405   8.621  1.00  0.00    -0.065 C 
ATOM     27  C   UNL     1     -30.727  24.390   6.346  1.00  0.00     0.014 C 
ATOM     28  C   UNL     1     -31.531  25.668   8.398  1.00  0.00     0.016 C 
ATOM     29  C   UNL     1     -29.007  23.819   8.704  1.00  0.00     0.063 C 
ATOM     30  C   UNL     1     -29.241  24.800   6.392  1.00  0.00     0.033 C 
ATOM     31  C   UNL     1     -28.414  23.868   7.294  1.00  0.00     0.118 C 
BRANCH  31  32
ATOM     32  O   UNL     1     -27.089  24.325   7.369  1.00  0.00    -0.393 OA
ATOM     33  H   UNL     1     -26.504  23.532   7.243  1.00  0.00     0.210 HD
ENDBRANCH  31  32
ENDBRANCH  10  12
ENDBRANCH   8  10
ENDBRANCH   1   8
TORSDOF 8
ENDMDL
