MODEL 1
REMARK VINA RESULT:    -5.830      0.000      0.000
REMARK INTER + INTRA:         -12.537
REMARK INTER:                 -11.283
REMARK INTRA:                  -1.254
REMARK UNBOUND:                -1.254
REMARK SMILES CCCCCCCCCCCCCCCCCC(=O)[O-]
REMARK SMILES IDX 10 1 11 2 12 3 13 4 14 5 15 6 16 7 17 8 18 9 19 10 20 11
REMARK SMILES IDX 9 12 8 13 7 14 6 15 5 16 4 17 3 18 2 19 1 20
REMARK H PARENT
REMARK Flexibility Score: inf
ROOT
ATOM      1  C   UNL     1     -16.847  28.336   0.258  1.00  0.00     0.000 C 
ENDROOT
BRANCH   1   2
ATOM      2  C   UNL     1     -17.144  26.989  -0.424  1.00  0.00     0.000 C 
BRANCH   2   3
ATOM      3  C   UNL     1     -17.129  25.765   0.510  1.00  0.00     0.000 C 
BRANCH   3   4
ATOM      4  C   UNL     1     -18.330  24.829   0.288  1.00  0.00     0.000 C 
BRANCH   4   5
ATOM      5  C   UNL     1     -18.415  24.304  -1.155  1.00  0.00     0.000 C 
BRANCH   5   6
ATOM      6  C   UNL     1     -18.532  22.774  -1.227  1.00  0.00     0.000 C 
BRANCH   6   7
ATOM      7  C   UNL     1     -19.896  22.355  -1.786  1.00  0.00     0.006 C 
BRANCH   7   8
ATOM      8  C   UNL     1     -20.877  22.026  -0.658  1.00  0.00     0.053 C 
BRANCH   8   9
ATOM      9  C   UNL     1     -21.843  23.150  -0.457  1.00  0.00     0.041 C 
ATOM     10  O   UNL     1     -21.569  24.084   0.342  1.00  0.00    -0.550 OA
ATOM     11  O   UNL     1     -23.019  23.200  -1.195  1.00  0.00    -0.550 OA
ENDBRANCH   8   9
ENDBRANCH   7   8
ENDBRANCH   6   7
ENDBRANCH   5   6
ENDBRANCH   4   5
ENDBRANCH   3   4
ENDBRANCH   2   3
ENDBRANCH   1   2
BRANCH   1  12
ATOM     12  C   UNL     1     -16.357  28.180   1.705  1.00  0.00     0.000 C 
BRANCH  12  13
ATOM     13  C   UNL     1     -15.926  29.531   2.290  1.00  0.00    -0.000 C 
BRANCH  13  14
ATOM     14  C   UNL     1     -15.710  30.568   1.177  1.00  0.00    -0.000 C 
BRANCH  14  15
ATOM     15  C   UNL     1     -16.521  31.859   1.391  1.00  0.00    -0.000 C 
BRANCH  15  16
ATOM     16  C   UNL     1     -16.154  33.020   0.448  1.00  0.00    -0.000 C 
BRANCH  16  17
ATOM     17  C   UNL     1     -17.209  33.257  -0.645  1.00  0.00    -0.000 C 
BRANCH  17  18
ATOM     18  C   UNL     1     -18.217  32.102  -0.755  1.00  0.00    -0.000 C 
BRANCH  18  19
ATOM     19  C   UNL     1     -18.179  31.414  -2.127  1.00  0.00    -0.003 C 
ATOM     20  C   UNL     1     -19.012  30.136  -2.124  1.00  0.00     0.004 C 
ENDBRANCH  18  19
ENDBRANCH  17  18
ENDBRANCH  16  17
ENDBRANCH  15  16
ENDBRANCH  14  15
ENDBRANCH  13  14
ENDBRANCH  12  13
ENDBRANCH   1  12
TORSDOF 16
ENDMDL
MODEL 2
REMARK VINA RESULT:    -5.803      3.115      8.017
REMARK INTER + INTRA:         -12.485
REMARK INTER:                 -11.052
REMARK INTRA:                  -1.433
REMARK UNBOUND:                -1.254
REMARK SMILES CCCCCCCCCCCCCCCCCC(=O)[O-]
REMARK SMILES IDX 10 1 11 2 12 3 13 4 14 5 15 6 16 7 17 8 18 9 19 10 20 11
REMARK SMILES IDX 9 12 8 13 7 14 6 15 5 16 4 17 3 18 2 19 1 20
REMARK H PARENT
REMARK Flexibility Score: inf
ROOT
ATOM      1  C   UNL     1     -18.529  30.003  -1.838  1.00  0.00     0.000 C 
ENDROOT
BRANCH   1   2
ATOM      2  C   UNL     1     -18.289  31.511  -2.023  1.00  0.00     0.000 C 
BRANCH   2   3
ATOM      3  C   UNL     1     -18.195  32.324  -0.718  1.00  0.00     0.000 C 
BRANCH   3   4
ATOM      4  C   UNL     1     -16.993  33.284  -0.697  1.00  0.00     0.000 C 
BRANCH   4   5
ATOM      5  C   UNL     1     -16.225  33.246   0.634  1.00  0.00     0.000 C 
BRANCH   5   6
ATOM      6  C   UNL     1     -16.579  32.023   1.493  1.00  0.00     0.000 C 
BRANCH   6   7
ATOM      7  C   UNL     1     -15.439  30.999   1.484  1.00  0.00     0.006 C 
BRANCH   7   8
ATOM      8  C   UNL     1     -15.842  29.718   2.220  1.00  0.00     0.053 C 
BRANCH   8   9
ATOM      9  C   UNL     1     -15.907  29.958   3.695  1.00  0.00     0.041 C 
ATOM     10  O   UNL     1     -15.026  30.655   4.261  1.00  0.00    -0.550 OA
ATOM     11  O   UNL     1     -16.973  29.461   4.435  1.00  0.00    -0.550 OA
ENDBRANCH   8   9
ENDBRANCH   7   8
ENDBRANCH   6   7
ENDBRANCH   5   6
ENDBRANCH   4   5
ENDBRANCH   3   4
ENDBRANCH   2   3
ENDBRANCH   1   2
BRANCH   1  12
ATOM     12  C   UNL     1     -17.643  29.384  -0.748  1.00  0.00     0.000 C 
BRANCH  12  13
ATOM     13  C   UNL     1     -17.878  27.872  -0.640  1.00  0.00    -0.000 C 
BRANCH  13  14
ATOM     14  C   UNL     1     -16.600  27.148  -0.190  1.00  0.00    -0.000 C 
BRANCH  14  15
ATOM     15  C   UNL     1     -16.881  25.805   0.508  1.00  0.00    -0.000 C 
BRANCH  15  16
ATOM     16  C   UNL     1     -18.358  25.561   0.871  1.00  0.00    -0.000 C 
BRANCH  16  17
ATOM     17  C   UNL     1     -18.874  24.195   0.385  1.00  0.00    -0.000 C 
BRANCH  17  18
ATOM     18  C   UNL     1     -18.524  23.921  -1.086  1.00  0.00    -0.000 C 
BRANCH  18  19
ATOM     19  C   UNL     1     -19.416  22.841  -1.714  1.00  0.00    -0.003 C 
ATOM     20  C   UNL     1     -18.768  21.464  -1.610  1.00  0.00     0.004 C 
ENDBRANCH  18  19
ENDBRANCH  17  18
ENDBRANCH  16  17
ENDBRANCH  15  16
ENDBRANCH  14  15
ENDBRANCH  13  14
ENDBRANCH  12  13
ENDBRANCH   1  12
TORSDOF 16
ENDMDL
MODEL 3
REMARK VINA RESULT:    -5.791      2.536      8.017
REMARK INTER + INTRA:         -12.461
REMARK INTER:                 -11.382
REMARK INTRA:                  -1.079
REMARK UNBOUND:                -1.254
REMARK SMILES CCCCCCCCCCCCCCCCCC(=O)[O-]
REMARK SMILES IDX 10 1 11 2 12 3 13 4 14 5 15 6 16 7 17 8 18 9 19 10 20 11
REMARK SMILES IDX 9 12 8 13 7 14 6 15 5 16 4 17 3 18 2 19 1 20
REMARK H PARENT
REMARK Flexibility Score: inf
ROOT
ATOM      1  C   UNL     1     -16.411  28.521   0.490  1.00  0.00     0.000 C 
ENDROOT
BRANCH   1   2
ATOM      2  C   UNL     1     -16.239  28.734   2.004  1.00  0.00     0.000 C 
BRANCH   2   3
ATOM      3  C   UNL     1     -15.585  30.068   2.408  1.00  0.00     0.000 C 
BRANCH   3   4
ATOM      4  C   UNL     1     -15.545  31.086   1.256  1.00  0.00     0.000 C 
BRANCH   4   5
ATOM      5  C   UNL     1     -16.668  32.132   1.348  1.00  0.00     0.000 C 
BRANCH   5   6
ATOM      6  C   UNL     1     -16.466  33.312   0.385  1.00  0.00     0.000 C 
BRANCH   6   7
ATOM      7  C   UNL     1     -17.047  32.997  -0.997  1.00  0.00     0.006 C 
BRANCH   7   8
ATOM      8  C   UNL     1     -18.344  32.191  -0.880  1.00  0.00     0.053 C 
BRANCH   8   9
ATOM      9  C   UNL     1     -18.370  31.090  -1.892  1.00  0.00     0.041 C 
ATOM     10  O   UNL     1     -18.063  31.324  -3.090  1.00  0.00    -0.550 OA
ATOM     11  O   UNL     1     -18.676  29.792  -1.501  1.00  0.00    -0.550 OA
ENDBRANCH   8   9
ENDBRANCH   7   8
ENDBRANCH   6   7
ENDBRANCH   5   6
ENDBRANCH   4   5
ENDBRANCH   3   4
ENDBRANCH   2   3
ENDBRANCH   1   2
BRANCH   1  12
ATOM     12  C   UNL     1     -16.372  27.041   0.085  1.00  0.00     0.000 C 
BRANCH  12  13
ATOM     13  C   UNL     1     -16.729  26.135   1.270  1.00  0.00    -0.000 C 
BRANCH  13  14
ATOM     14  C   UNL     1     -18.056  25.402   1.021  1.00  0.00    -0.000 C 
BRANCH  14  15
ATOM     15  C   UNL     1     -18.218  24.928  -0.435  1.00  0.00    -0.000 C 
BRANCH  15  16
ATOM     16  C   UNL     1     -18.481  23.420  -0.600  1.00  0.00    -0.000 C 
BRANCH  16  17
ATOM     17  C   UNL     1     -19.148  23.074  -1.942  1.00  0.00    -0.000 C 
BRANCH  17  18
ATOM     18  C   UNL     1     -20.409  22.213  -1.771  1.00  0.00    -0.000 C 
BRANCH  18  19
ATOM     19  C   UNL     1     -20.954  22.242  -0.336  1.00  0.00    -0.003 C 
ATOM     20  C   UNL     1     -21.854  23.453  -0.114  1.00  0.00     0.004 C 
ENDBRANCH  18  19
ENDBRANCH  17  18
ENDBRANCH  16  17
ENDBRANCH  15  16
ENDBRANCH  14  15
ENDBRANCH  13  14
ENDBRANCH  12  13
ENDBRANCH   1  12
TORSDOF 16
ENDMDL
MODEL 4
REMARK VINA RESULT:    -5.599      1.615      3.440
REMARK INTER + INTRA:         -12.090
REMARK INTER:                 -11.126
REMARK INTRA:                  -0.964
REMARK UNBOUND:                -1.254
REMARK SMILES CCCCCCCCCCCCCCCCCC(=O)[O-]
REMARK SMILES IDX 10 1 11 2 12 3 13 4 14 5 15 6 16 7 17 8 18 9 19 10 20 11
REMARK SMILES IDX 9 12 8 13 7 14 6 15 5 16 4 17 3 18 2 19 1 20
REMARK H PARENT
REMARK Flexibility Score: inf
ROOT
ATOM      1  C   UNL     1     -17.859  25.206  -0.296  1.00  0.00     0.000 C 
ENDROOT
BRANCH   1   2
ATOM      2  C   UNL     1     -18.552  23.833  -0.245  1.00  0.00     0.000 C 
BRANCH   2   3
ATOM      3  C   UNL     1     -19.007  23.278  -1.608  1.00  0.00     0.000 C 
BRANCH   3   4
ATOM      4  C   UNL     1     -20.424  22.682  -1.567  1.00  0.00     0.000 C 
BRANCH   4   5
ATOM      5  C   UNL     1     -20.753  22.024  -0.216  1.00  0.00     0.000 C 
BRANCH   5   6
ATOM      6  C   UNL     1     -21.995  22.629   0.455  1.00  0.00     0.000 C 
BRANCH   6   7
ATOM      7  C   UNL     1     -22.913  23.286  -0.581  1.00  0.00     0.006 C 
BRANCH   7   8
ATOM      8  C   UNL     1     -24.387  23.043  -0.245  1.00  0.00     0.053 C 
BRANCH   8   9
ATOM      9  C   UNL     1     -25.266  23.556  -1.341  1.00  0.00     0.041 C 
ATOM     10  O   UNL     1     -25.903  22.751  -2.070  1.00  0.00    -0.550 OA
ATOM     11  O   UNL     1     -25.430  24.923  -1.521  1.00  0.00    -0.550 OA
ENDBRANCH   8   9
ENDBRANCH   7   8
ENDBRANCH   6   7
ENDBRANCH   5   6
ENDBRANCH   4   5
ENDBRANCH   3   4
ENDBRANCH   2   3
ENDBRANCH   1   2
BRANCH   1  12
ATOM     12  C   UNL     1     -17.717  25.857   1.087  1.00  0.00     0.000 C 
BRANCH  12  13
ATOM     13  C   UNL     1     -16.473  26.753   1.150  1.00  0.00    -0.000 C 
BRANCH  13  14
ATOM     14  C   UNL     1     -16.332  27.587  -0.132  1.00  0.00    -0.000 C 
BRANCH  14  15
ATOM     15  C   UNL     1     -16.533  29.095   0.105  1.00  0.00    -0.000 C 
BRANCH  15  16
ATOM     16  C   UNL     1     -15.970  29.622   1.438  1.00  0.00    -0.000 C 
BRANCH  16  17
ATOM     17  C   UNL     1     -15.507  31.086   1.353  1.00  0.00    -0.000 C 
BRANCH  17  18
ATOM     18  C   UNL     1     -16.676  32.081   1.421  1.00  0.00    -0.000 C 
BRANCH  18  19
ATOM     19  C   UNL     1     -16.740  33.002   0.194  1.00  0.00    -0.003 C 
ATOM     20  C   UNL     1     -17.850  32.571  -0.760  1.00  0.00     0.004 C 
ENDBRANCH  18  19
ENDBRANCH  17  18
ENDBRANCH  16  17
ENDBRANCH  15  16
ENDBRANCH  14  15
ENDBRANCH  13  14
ENDBRANCH  12  13
ENDBRANCH   1  12
TORSDOF 16
ENDMDL
MODEL 5
REMARK VINA RESULT:    -5.580      0.861      1.351
REMARK INTER + INTRA:         -12.054
REMARK INTER:                 -10.855
REMARK INTRA:                  -1.199
REMARK UNBOUND:                -1.254
REMARK SMILES CCCCCCCCCCCCCCCCCC(=O)[O-]
REMARK SMILES IDX 10 1 11 2 12 3 13 4 14 5 15 6 16 7 17 8 18 9 19 10 20 11
REMARK SMILES IDX 9 12 8 13 7 14 6 15 5 16 4 17 3 18 2 19 1 20
REMARK H PARENT
REMARK Flexibility Score: inf
ROOT
ATOM      1  C   UNL     1     -17.342  27.495  -0.300  1.00  0.00     0.000 C 
ENDROOT
BRANCH   1   2
ATOM      2  C   UNL     1     -17.088  26.048   0.159  1.00  0.00     0.000 C 
BRANCH   2   3
ATOM      3  C   UNL     1     -18.204  25.430   1.021  1.00  0.00     0.000 C 
BRANCH   3   4
ATOM      4  C   UNL     1     -19.164  24.543   0.210  1.00  0.00     0.000 C 
BRANCH   4   5
ATOM      5  C   UNL     1     -18.506  23.951  -1.048  1.00  0.00     0.000 C 
BRANCH   5   6
ATOM      6  C   UNL     1     -18.678  22.428  -1.152  1.00  0.00     0.000 C 
BRANCH   6   7
ATOM      7  C   UNL     1     -19.963  22.072  -1.907  1.00  0.00     0.006 C 
BRANCH   7   8
ATOM      8  C   UNL     1     -20.829  21.105  -1.096  1.00  0.00     0.053 C 
BRANCH   8   9
ATOM      9  C   UNL     1     -21.874  21.852  -0.329  1.00  0.00     0.041 C 
ATOM     10  O   UNL     1     -22.310  21.393   0.759  1.00  0.00    -0.550 OA
ATOM     11  O   UNL     1     -22.325  23.084  -0.786  1.00  0.00    -0.550 OA
ENDBRANCH   8   9
ENDBRANCH   7   8
ENDBRANCH   6   7
ENDBRANCH   5   6
ENDBRANCH   4   5
ENDBRANCH   3   4
ENDBRANCH   2   3
ENDBRANCH   1   2
BRANCH   1  12
ATOM     12  C   UNL     1     -16.285  28.481   0.216  1.00  0.00     0.000 C 
BRANCH  12  13
ATOM     13  C   UNL     1     -16.264  28.514   1.750  1.00  0.00    -0.000 C 
BRANCH  13  14
ATOM     14  C   UNL     1     -15.797  29.884   2.263  1.00  0.00    -0.000 C 
BRANCH  14  15
ATOM     15  C   UNL     1     -15.860  30.984   1.188  1.00  0.00    -0.000 C 
BRANCH  15  16
ATOM     16  C   UNL     1     -16.613  32.260   1.608  1.00  0.00    -0.000 C 
BRANCH  16  17
ATOM     17  C   UNL     1     -16.321  33.456   0.686  1.00  0.00    -0.000 C 
BRANCH  17  18
ATOM     18  C   UNL     1     -16.858  33.248  -0.739  1.00  0.00    -0.000 C 
BRANCH  18  19
ATOM     19  C   UNL     1     -18.219  32.537  -0.760  1.00  0.00    -0.003 C 
ATOM     20  C   UNL     1     -18.201  31.344  -1.710  1.00  0.00     0.004 C 
ENDBRANCH  18  19
ENDBRANCH  17  18
ENDBRANCH  16  17
ENDBRANCH  15  16
ENDBRANCH  14  15
ENDBRANCH  13  14
ENDBRANCH  12  13
ENDBRANCH   1  12
TORSDOF 16
ENDMDL
MODEL 6
REMARK VINA RESULT:    -5.551      1.439      3.508
REMARK INTER + INTRA:         -11.997
REMARK INTER:                 -10.673
REMARK INTRA:                  -1.324
REMARK UNBOUND:                -1.254
REMARK SMILES CCCCCCCCCCCCCCCCCC(=O)[O-]
REMARK SMILES IDX 10 1 11 2 12 3 13 4 14 5 15 6 16 7 17 8 18 9 19 10 20 11
REMARK SMILES IDX 9 12 8 13 7 14 6 15 5 16 4 17 3 18 2 19 1 20
REMARK H PARENT
REMARK Flexibility Score: inf
ROOT
ATOM      1  C   UNL     1     -18.486  28.823  -1.007  1.00  0.00     0.000 C 
ENDROOT
BRANCH   1   2
ATOM      2  C   UNL     1     -17.013  28.954  -0.583  1.00  0.00     0.000 C 
BRANCH   2   3
ATOM      3  C   UNL     1     -16.326  27.635  -0.183  1.00  0.00     0.000 C 
BRANCH   3   4
ATOM      4  C   UNL     1     -17.170  26.792   0.789  1.00  0.00     0.000 C 
BRANCH   4   5
ATOM      5  C   UNL     1     -17.623  25.456   0.177  1.00  0.00     0.000 C 
BRANCH   5   6
ATOM      6  C   UNL     1     -18.960  24.960   0.749  1.00  0.00     0.000 C 
BRANCH   6   7
ATOM      7  C   UNL     1     -19.300  23.565   0.215  1.00  0.00     0.006 C 
BRANCH   7   8
ATOM      8  C   UNL     1     -18.915  23.429  -1.260  1.00  0.00     0.053 C 
BRANCH   8   9
ATOM      9  C   UNL     1     -19.699  22.333  -1.909  1.00  0.00     0.041 C 
ATOM     10  O   UNL     1     -19.110  21.321  -2.369  1.00  0.00    -0.550 OA
ATOM     11  O   UNL     1     -21.086  22.401  -1.953  1.00  0.00    -0.550 OA
ENDBRANCH   8   9
ENDBRANCH   7   8
ENDBRANCH   6   7
ENDBRANCH   5   6
ENDBRANCH   4   5
ENDBRANCH   3   4
ENDBRANCH   2   3
ENDBRANCH   1   2
BRANCH   1  12
ATOM     12  C   UNL     1     -18.992  30.036  -1.799  1.00  0.00     0.000 C 
BRANCH  12  13
ATOM     13  C   UNL     1     -17.935  31.148  -1.838  1.00  0.00    -0.000 C 
BRANCH  13  14
ATOM     14  C   UNL     1     -18.244  32.236  -0.798  1.00  0.00    -0.000 C 
BRANCH  14  15
ATOM     15  C   UNL     1     -17.127  33.289  -0.678  1.00  0.00    -0.000 C 
BRANCH  15  16
ATOM     16  C   UNL     1     -16.166  33.083   0.508  1.00  0.00    -0.000 C 
BRANCH  16  17
ATOM     17  C   UNL     1     -16.603  31.939   1.438  1.00  0.00    -0.000 C 
BRANCH  17  18
ATOM     18  C   UNL     1     -15.498  30.890   1.643  1.00  0.00    -0.000 C 
BRANCH  18  19
ATOM     19  C   UNL     1     -15.830  29.893   2.762  1.00  0.00    -0.003 C 
ATOM     20  C   UNL     1     -15.630  30.523   4.136  1.00  0.00     0.004 C 
ENDBRANCH  18  19
ENDBRANCH  17  18
ENDBRANCH  16  17
ENDBRANCH  15  16
ENDBRANCH  14  15
ENDBRANCH  13  14
ENDBRANCH  12  13
ENDBRANCH   1  12
TORSDOF 16
ENDMDL
MODEL 7
REMARK VINA RESULT:    -5.462      3.511      8.220
REMARK INTER + INTRA:         -11.825
REMARK INTER:                 -10.489
REMARK INTRA:                  -1.336
REMARK UNBOUND:                -1.254
REMARK SMILES CCCCCCCCCCCCCCCCCC(=O)[O-]
REMARK SMILES IDX 10 1 11 2 12 3 13 4 14 5 15 6 16 7 17 8 18 9 19 10 20 11
REMARK SMILES IDX 9 12 8 13 7 14 6 15 5 16 4 17 3 18 2 19 1 20
REMARK H PARENT
REMARK Flexibility Score: inf
ROOT
ATOM      1  C   UNL     1     -16.900  29.205  -0.559  1.00  0.00     0.000 C 
ENDROOT
BRANCH   1   2
ATOM      2  C   UNL     1     -18.335  28.897  -1.021  1.00  0.00     0.000 C 
BRANCH   2   3
ATOM      3  C   UNL     1     -19.039  30.037  -1.780  1.00  0.00     0.000 C 
BRANCH   3   4
ATOM      4  C   UNL     1     -18.130  31.259  -1.998  1.00  0.00     0.000 C 
BRANCH   4   5
ATOM      5  C   UNL     1     -18.265  32.307  -0.881  1.00  0.00     0.000 C 
BRANCH   5   6
ATOM      6  C   UNL     1     -17.079  33.282  -0.830  1.00  0.00     0.000 C 
BRANCH   6   7
ATOM      7  C   UNL     1     -16.287  33.113   0.472  1.00  0.00     0.006 C 
BRANCH   7   8
ATOM      8  C   UNL     1     -16.969  32.109   1.406  1.00  0.00     0.053 C 
BRANCH   8   9
ATOM      9  C   UNL     1     -15.955  31.415   2.259  1.00  0.00     0.041 C 
ATOM     10  O   UNL     1     -16.086  31.402   3.511  1.00  0.00    -0.550 OA
ATOM     11  O   UNL     1     -14.899  30.732   1.670  1.00  0.00    -0.550 OA
ENDBRANCH   8   9
ENDBRANCH   7   8
ENDBRANCH   6   7
ENDBRANCH   5   6
ENDBRANCH   4   5
ENDBRANCH   3   4
ENDBRANCH   2   3
ENDBRANCH   1   2
BRANCH   1  12
ATOM     12  C   UNL     1     -16.156  27.964  -0.048  1.00  0.00     0.000 C 
BRANCH  12  13
ATOM     13  C   UNL     1     -16.679  27.537   1.330  1.00  0.00    -0.000 C 
BRANCH  13  14
ATOM     14  C   UNL     1     -16.788  26.008   1.426  1.00  0.00    -0.000 C 
BRANCH  14  15
ATOM     15  C   UNL     1     -17.503  25.378   0.216  1.00  0.00    -0.000 C 
BRANCH  15  16
ATOM     16  C   UNL     1     -18.975  24.996   0.460  1.00  0.00    -0.000 C 
BRANCH  16  17
ATOM     17  C   UNL     1     -19.278  23.530   0.105  1.00  0.00    -0.000 C 
BRANCH  17  18
ATOM     18  C   UNL     1     -19.492  23.319  -1.402  1.00  0.00    -0.000 C 
BRANCH  18  19
ATOM     19  C   UNL     1     -19.124  21.900  -1.858  1.00  0.00    -0.003 C 
ATOM     20  C   UNL     1     -19.015  20.952  -0.669  1.00  0.00     0.004 C 
ENDBRANCH  18  19
ENDBRANCH  17  18
ENDBRANCH  16  17
ENDBRANCH  15  16
ENDBRANCH  14  15
ENDBRANCH  13  14
ENDBRANCH  12  13
ENDBRANCH   1  12
TORSDOF 16
ENDMDL
MODEL 8
REMARK VINA RESULT:    -5.431      1.582      4.305
REMARK INTER + INTRA:         -11.764
REMARK INTER:                 -10.299
REMARK INTRA:                  -1.465
REMARK UNBOUND:                -1.254
REMARK SMILES CCCCCCCCCCCCCCCCCC(=O)[O-]
REMARK SMILES IDX 10 1 11 2 12 3 13 4 14 5 15 6 16 7 17 8 18 9 19 10 20 11
REMARK SMILES IDX 9 12 8 13 7 14 6 15 5 16 4 17 3 18 2 19 1 20
REMARK H PARENT
REMARK Flexibility Score: inf
ROOT
ATOM      1  C   UNL     1     -18.193  31.562  -1.914  1.00  0.00     0.000 C 
ENDROOT
BRANCH   1   2
ATOM      2  C   UNL     1     -18.483  30.101  -1.529  1.00  0.00     0.000 C 
BRANCH   2   3
ATOM      3  C   UNL     1     -17.423  29.437  -0.631  1.00  0.00     0.000 C 
BRANCH   3   4
ATOM      4  C   UNL     1     -17.595  27.912  -0.533  1.00  0.00     0.000 C 
BRANCH   4   5
ATOM      5  C   UNL     1     -16.859  27.308   0.675  1.00  0.00     0.000 C 
BRANCH   5   6
ATOM      6  C   UNL     1     -17.057  25.790   0.797  1.00  0.00     0.000 C 
BRANCH   6   7
ATOM      7  C   UNL     1     -18.525  25.409   0.576  1.00  0.00     0.006 C 
BRANCH   7   8
ATOM      8  C   UNL     1     -18.643  24.114  -0.232  1.00  0.00     0.053 C 
BRANCH   8   9
ATOM      9  C   UNL     1     -20.066  23.657  -0.285  1.00  0.00     0.041 C 
ATOM     10  O   UNL     1     -20.889  24.049   0.582  1.00  0.00    -0.550 OA
ATOM     11  O   UNL     1     -20.498  22.845  -1.326  1.00  0.00    -0.550 OA
ENDBRANCH   8   9
ENDBRANCH   7   8
ENDBRANCH   6   7
ENDBRANCH   5   6
ENDBRANCH   4   5
ENDBRANCH   3   4
ENDBRANCH   2   3
ENDBRANCH   1   2
BRANCH   1  12
ATOM     12  C   UNL     1     -18.164  32.506  -0.704  1.00  0.00     0.000 C 
BRANCH  12  13
ATOM     13  C   UNL     1     -16.849  33.293  -0.649  1.00  0.00    -0.000 C 
BRANCH  13  14
ATOM     14  C   UNL     1     -16.310  33.365   0.787  1.00  0.00    -0.000 C 
BRANCH  14  15
ATOM     15  C   UNL     1     -16.627  32.105   1.613  1.00  0.00    -0.000 C 
BRANCH  15  16
ATOM     16  C   UNL     1     -15.519  31.036   1.616  1.00  0.00    -0.000 C 
BRANCH  16  17
ATOM     17  C   UNL     1     -15.608  30.087   2.824  1.00  0.00    -0.000 C 
BRANCH  17  18
ATOM     18  C   UNL     1     -16.603  30.577   3.888  1.00  0.00    -0.000 C 
BRANCH  18  19
ATOM     19  C   UNL     1     -15.922  30.924   5.219  1.00  0.00    -0.003 C 
ATOM     20  C   UNL     1     -15.970  32.424   5.487  1.00  0.00     0.004 C 
ENDBRANCH  18  19
ENDBRANCH  17  18
ENDBRANCH  16  17
ENDBRANCH  15  16
ENDBRANCH  14  15
ENDBRANCH  13  14
ENDBRANCH  12  13
ENDBRANCH   1  12
TORSDOF 16
ENDMDL
MODEL 9
REMARK VINA RESULT:    -5.393      1.396      2.503
REMARK INTER + INTRA:         -11.691
REMARK INTER:                 -10.453
REMARK INTRA:                  -1.239
REMARK UNBOUND:                -1.254
REMARK SMILES CCCCCCCCCCCCCCCCCC(=O)[O-]
REMARK SMILES IDX 10 1 11 2 12 3 13 4 14 5 15 6 16 7 17 8 18 9 19 10 20 11
REMARK SMILES IDX 9 12 8 13 7 14 6 15 5 16 4 17 3 18 2 19 1 20
REMARK H PARENT
REMARK Flexibility Score: inf
ROOT
ATOM      1  C   UNL     1     -17.043  25.483   0.477  1.00  0.00     0.000 C 
ENDROOT
BRANCH   1   2
ATOM      2  C   UNL     1     -18.522  25.339   0.874  1.00  0.00     0.000 C 
BRANCH   2   3
ATOM      3  C   UNL     1     -19.246  24.120   0.274  1.00  0.00     0.000 C 
BRANCH   3   4
ATOM      4  C   UNL     1     -18.609  23.633  -1.039  1.00  0.00     0.000 C 
BRANCH   4   5
ATOM      5  C   UNL     1     -19.545  22.724  -1.853  1.00  0.00     0.000 C 
BRANCH   5   6
ATOM      6  C   UNL     1     -20.939  22.585  -1.222  1.00  0.00     0.000 C 
BRANCH   6   7
ATOM      7  C   UNL     1     -21.188  21.147  -0.755  1.00  0.00     0.006 C 
BRANCH   7   8
ATOM      8  C   UNL     1     -20.708  20.944   0.685  1.00  0.00     0.053 C 
BRANCH   8   9
ATOM      9  C   UNL     1     -21.640  21.608   1.648  1.00  0.00     0.041 C 
ATOM     10  O   UNL     1     -21.183  22.280   2.609  1.00  0.00    -0.550 OA
ATOM     11  O   UNL     1     -23.013  21.534   1.451  1.00  0.00    -0.550 OA
ENDBRANCH   8   9
ENDBRANCH   7   8
ENDBRANCH   6   7
ENDBRANCH   5   6
ENDBRANCH   4   5
ENDBRANCH   3   4
ENDBRANCH   2   3
ENDBRANCH   1   2
BRANCH   1  12
ATOM     12  C   UNL     1     -16.506  26.908   0.668  1.00  0.00     0.000 C 
BRANCH  12  13
ATOM     13  C   UNL     1     -17.211  27.893  -0.273  1.00  0.00    -0.000 C 
BRANCH  13  14
ATOM     14  C   UNL     1     -16.627  29.307  -0.127  1.00  0.00    -0.000 C 
BRANCH  14  15
ATOM     15  C   UNL     1     -15.882  29.515   1.205  1.00  0.00    -0.000 C 
BRANCH  15  16
ATOM     16  C   UNL     1     -15.527  30.978   1.527  1.00  0.00    -0.000 C 
BRANCH  16  17
ATOM     17  C   UNL     1     -16.694  31.946   1.266  1.00  0.00    -0.000 C 
BRANCH  17  18
ATOM     18  C   UNL     1     -16.240  33.252   0.596  1.00  0.00    -0.000 C 
BRANCH  18  19
ATOM     19  C   UNL     1     -16.995  33.540  -0.710  1.00  0.00    -0.003 C 
ATOM     20  C   UNL     1     -18.079  32.497  -0.958  1.00  0.00     0.004 C 
ENDBRANCH  18  19
ENDBRANCH  17  18
ENDBRANCH  16  17
ENDBRANCH  15  16
ENDBRANCH  14  15
ENDBRANCH  13  14
ENDBRANCH  12  13
ENDBRANCH   1  12
TORSDOF 16
ENDMDL
