MODEL 1
REMARK VINA RESULT:    -4.421      0.000      0.000
REMARK INTER + INTRA:          -7.312
REMARK INTER:                  -6.746
REMARK INTRA:                  -0.565
REMARK UNBOUND:                -0.565
REMARK SMILES CCCCCCCCCC=CC(=O)[O-]
REMARK SMILES IDX 7 1 8 2 9 3 10 4 11 5 12 6 13 7 14 8 6 9 5 10 4 11 3 12 2 13
REMARK SMILES IDX 1 14
REMARK H PARENT
REMARK Flexibility Score: inf
ROOT
ATOM      1  C   UNL     1       3.832   9.289   8.930  1.00  0.00     0.000 C 
ENDROOT
BRANCH   1   2
ATOM      2  C   UNL     1       4.707   8.025   8.870  1.00  0.00     0.004 C 
BRANCH   2   3
ATOM      3  C   UNL     1       4.101   6.866   9.675  1.00  0.00     0.027 C 
BRANCH   3   4
ATOM      4  C   UNL     1       3.357   5.890   8.807  1.00  0.00    -0.025 C 
ATOM      5  C   UNL     1       3.962   4.823   8.275  1.00  0.00     0.020 C 
BRANCH   5   6
ATOM      6  C   UNL     1       3.247   3.866   7.418  1.00  0.00     0.064 C 
ATOM      7  O   UNL     1       3.046   2.694   7.828  1.00  0.00    -0.545 OA
ATOM      8  O   UNL     1       2.787   4.236   6.159  1.00  0.00    -0.545 OA
ENDBRANCH   5   6
ENDBRANCH   3   4
ENDBRANCH   2   3
ENDBRANCH   1   2
BRANCH   1   9
ATOM      9  C   UNL     1       4.592  10.555   8.503  1.00  0.00     0.000 C 
BRANCH   9  10
ATOM     10  C   UNL     1       5.405  10.355   7.216  1.00  0.00     0.000 C 
BRANCH  10  11
ATOM     11  C   UNL     1       4.963  11.339   6.127  1.00  0.00    -0.000 C 
BRANCH  11  12
ATOM     12  C   UNL     1       4.037  12.419   6.704  1.00  0.00    -0.000 C 
BRANCH  12  13
ATOM     13  C   UNL     1       4.614  13.835   6.551  1.00  0.00    -0.003 C 
ATOM     14  C   UNL     1       5.734  14.129   7.547  1.00  0.00     0.004 C 
ENDBRANCH  12  13
ENDBRANCH  11  12
ENDBRANCH  10  11
ENDBRANCH   9  10
ENDBRANCH   1   9
TORSDOF 9
ENDMDL
MODEL 2
REMARK VINA RESULT:    -4.167     15.384     16.723
REMARK INTER + INTRA:          -6.925
REMARK INTER:                  -6.003
REMARK INTRA:                  -0.922
REMARK UNBOUND:                -0.565
REMARK SMILES CCCCCCCCCC=CC(=O)[O-]
REMARK SMILES IDX 7 1 8 2 9 3 10 4 11 5 12 6 13 7 14 8 6 9 5 10 4 11 3 12 2 13
REMARK SMILES IDX 1 14
REMARK H PARENT
REMARK Flexibility Score: inf
ROOT
ATOM      1  C   UNL     1       2.964   4.047  -9.036  1.00  0.00     0.000 C 
ENDROOT
BRANCH   1   2
ATOM      2  C   UNL     1       3.995   3.420  -9.991  1.00  0.00     0.004 C 
BRANCH   2   3
ATOM      3  C   UNL     1       5.254   2.945  -9.249  1.00  0.00     0.027 C 
BRANCH   3   4
ATOM      4  C   UNL     1       4.960   2.506  -7.842  1.00  0.00    -0.025 C 
ATOM      5  C   UNL     1       4.917   1.212  -7.508  1.00  0.00     0.020 C 
BRANCH   5   6
ATOM      6  C   UNL     1       4.623   0.768  -6.137  1.00  0.00     0.064 C 
ATOM      7  O   UNL     1       5.463   0.974  -5.224  1.00  0.00    -0.545 OA
ATOM      8  O   UNL     1       3.428   0.126  -5.832  1.00  0.00    -0.545 OA
ENDBRANCH   5   6
ENDBRANCH   3   4
ENDBRANCH   2   3
ENDBRANCH   1   2
BRANCH   1   9
ATOM      9  C   UNL     1       1.948   4.939  -9.767  1.00  0.00     0.000 C 
BRANCH   9  10
ATOM     10  C   UNL     1       1.989   6.400  -9.293  1.00  0.00     0.000 C 
BRANCH  10  11
ATOM     11  C   UNL     1       3.397   6.987  -9.445  1.00  0.00    -0.000 C 
BRANCH  11  12
ATOM     12  C   UNL     1       3.695   7.998  -8.329  1.00  0.00    -0.000 C 
BRANCH  12  13
ATOM     13  C   UNL     1       5.077   7.784  -7.691  1.00  0.00    -0.003 C 
ATOM     14  C   UNL     1       5.653   6.399  -7.980  1.00  0.00     0.004 C 
ENDBRANCH  12  13
ENDBRANCH  11  12
ENDBRANCH  10  11
ENDBRANCH   9  10
ENDBRANCH   1   9
TORSDOF 9
ENDMDL
MODEL 3
REMARK VINA RESULT:    -4.090      1.719      3.324
REMARK INTER + INTRA:          -6.808
REMARK INTER:                  -5.833
REMARK INTRA:                  -0.975
REMARK UNBOUND:                -0.565
REMARK SMILES CCCCCCCCCC=CC(=O)[O-]
REMARK SMILES IDX 7 1 8 2 9 3 10 4 11 5 12 6 13 7 14 8 6 9 5 10 4 11 3 12 2 13
REMARK SMILES IDX 1 14
REMARK H PARENT
REMARK Flexibility Score: inf
ROOT
ATOM      1  C   UNL     1       5.277  11.266   6.359  1.00  0.00     0.000 C 
ENDROOT
BRANCH   1   2
ATOM      2  C   UNL     1       5.797  10.600   7.645  1.00  0.00     0.004 C 
BRANCH   2   3
ATOM      3  C   UNL     1       4.658  10.245   8.612  1.00  0.00     0.027 C 
BRANCH   3   4
ATOM      4  C   UNL     1       4.230   8.809   8.494  1.00  0.00    -0.025 C 
ATOM      5  C   UNL     1       4.746   7.858   9.280  1.00  0.00     0.020 C 
BRANCH   5   6
ATOM      6  C   UNL     1       4.342   6.449   9.169  1.00  0.00     0.064 C 
ATOM      7  O   UNL     1       4.827   5.599   9.959  1.00  0.00    -0.545 OA
ATOM      8  O   UNL     1       3.429   6.039   8.203  1.00  0.00    -0.545 OA
ENDBRANCH   5   6
ENDBRANCH   3   4
ENDBRANCH   2   3
ENDBRANCH   1   2
BRANCH   1   9
ATOM      9  C   UNL     1       4.132  12.256   6.628  1.00  0.00     0.000 C 
BRANCH   9  10
ATOM     10  C   UNL     1       4.555  13.720   6.443  1.00  0.00     0.000 C 
BRANCH  10  11
ATOM     11  C   UNL     1       5.231  14.261   7.708  1.00  0.00    -0.000 C 
BRANCH  11  12
ATOM     12  C   UNL     1       6.674  14.697   7.418  1.00  0.00    -0.000 C 
BRANCH  12  13
ATOM     13  C   UNL     1       7.709  13.874   8.203  1.00  0.00    -0.003 C 
ATOM     14  C   UNL     1       8.590  13.015   7.298  1.00  0.00     0.004 C 
ENDBRANCH  12  13
ENDBRANCH  11  12
ENDBRANCH  10  11
ENDBRANCH   9  10
ENDBRANCH   1   9
TORSDOF 9
ENDMDL
MODEL 4
REMARK VINA RESULT:    -3.819     15.080     16.368
REMARK INTER + INTRA:          -6.393
REMARK INTER:                  -5.538
REMARK INTRA:                  -0.855
REMARK UNBOUND:                -0.565
REMARK SMILES CCCCCCCCCC=CC(=O)[O-]
REMARK SMILES IDX 7 1 8 2 9 3 10 4 11 5 12 6 13 7 14 8 6 9 5 10 4 11 3 12 2 13
REMARK SMILES IDX 1 14
REMARK H PARENT
REMARK Flexibility Score: inf
ROOT
ATOM      1  C   UNL     1       2.182   5.636  -9.362  1.00  0.00     0.000 C 
ENDROOT
BRANCH   1   2
ATOM      2  C   UNL     1       2.756   4.214  -9.231  1.00  0.00     0.004 C 
BRANCH   2   3
ATOM      3  C   UNL     1       4.261   4.170  -9.536  1.00  0.00     0.027 C 
BRANCH   3   4
ATOM      4  C   UNL     1       5.046   3.481  -8.456  1.00  0.00    -0.025 C 
ATOM      5  C   UNL     1       4.579   2.390  -7.839  1.00  0.00     0.020 C 
BRANCH   5   6
ATOM      6  C   UNL     1       5.334   1.710  -6.776  1.00  0.00     0.064 C 
ATOM      7  O   UNL     1       5.641   0.497  -6.910  1.00  0.00    -0.545 OA
ATOM      8  O   UNL     1       5.715   2.387  -5.623  1.00  0.00    -0.545 OA
ENDBRANCH   5   6
ENDBRANCH   3   4
ENDBRANCH   2   3
ENDBRANCH   1   2
BRANCH   1   9
ATOM      9  C   UNL     1       3.277   6.708  -9.472  1.00  0.00     0.000 C 
BRANCH   9  10
ATOM     10  C   UNL     1       2.952   7.975  -8.667  1.00  0.00     0.000 C 
BRANCH  10  11
ATOM     11  C   UNL     1       4.186   8.476  -7.908  1.00  0.00    -0.000 C 
BRANCH  11  12
ATOM     12  C   UNL     1       5.187   7.337  -7.670  1.00  0.00    -0.000 C 
BRANCH  12  13
ATOM     13  C   UNL     1       6.646   7.817  -7.694  1.00  0.00    -0.003 C 
ATOM     14  C   UNL     1       6.982   8.745  -6.527  1.00  0.00     0.004 C 
ENDBRANCH  12  13
ENDBRANCH  11  12
ENDBRANCH  10  11
ENDBRANCH   9  10
ENDBRANCH   1   9
TORSDOF 9
ENDMDL
MODEL 5
REMARK VINA RESULT:    -3.770      5.750      9.561
REMARK INTER + INTRA:          -6.319
REMARK INTER:                  -5.358
REMARK INTRA:                  -0.961
REMARK UNBOUND:                -0.565
REMARK SMILES CCCCCCCCCC=CC(=O)[O-]
REMARK SMILES IDX 7 1 8 2 9 3 10 4 11 5 12 6 13 7 14 8 6 9 5 10 4 11 3 12 2 13
REMARK SMILES IDX 1 14
REMARK H PARENT
REMARK Flexibility Score: inf
ROOT
ATOM      1  C   UNL     1       8.078   1.917   5.128  1.00  0.00     0.000 C 
ENDROOT
BRANCH   1   2
ATOM      2  C   UNL     1       7.572   3.049   6.040  1.00  0.00     0.004 C 
BRANCH   2   3
ATOM      3  C   UNL     1       7.217   2.542   7.446  1.00  0.00     0.027 C 
BRANCH   3   4
ATOM      4  C   UNL     1       5.820   2.916   7.855  1.00  0.00    -0.025 C 
ATOM      5  C   UNL     1       5.132   3.864   7.211  1.00  0.00     0.020 C 
BRANCH   5   6
ATOM      6  C   UNL     1       3.768   4.245   7.606  1.00  0.00     0.064 C 
ATOM      7  O   UNL     1       2.866   3.369   7.646  1.00  0.00    -0.545 OA
ATOM      8  O   UNL     1       3.458   5.559   7.938  1.00  0.00    -0.545 OA
ENDBRANCH   5   6
ENDBRANCH   3   4
ENDBRANCH   2   3
ENDBRANCH   1   2
BRANCH   1   9
ATOM      9  C   UNL     1       7.833   0.522   5.726  1.00  0.00     0.000 C 
BRANCH   9  10
ATOM     10  C   UNL     1       7.480  -0.527   4.662  1.00  0.00     0.000 C 
BRANCH  10  11
ATOM     11  C   UNL     1       7.032  -1.841   5.312  1.00  0.00    -0.000 C 
BRANCH  11  12
ATOM     12  C   UNL     1       6.729  -1.642   6.804  1.00  0.00    -0.000 C 
BRANCH  12  13
ATOM     13  C   UNL     1       5.228  -1.736   7.120  1.00  0.00    -0.003 C 
ATOM     14  C   UNL     1       4.741  -0.600   8.018  1.00  0.00     0.004 C 
ENDBRANCH  12  13
ENDBRANCH  11  12
ENDBRANCH  10  11
ENDBRANCH   9  10
ENDBRANCH   1   9
TORSDOF 9
ENDMDL
MODEL 6
REMARK VINA RESULT:    -3.727     15.389     17.603
REMARK INTER + INTRA:          -6.253
REMARK INTER:                  -5.575
REMARK INTRA:                  -0.679
REMARK UNBOUND:                -0.565
REMARK SMILES CCCCCCCCCC=CC(=O)[O-]
REMARK SMILES IDX 7 1 8 2 9 3 10 4 11 5 12 6 13 7 14 8 6 9 5 10 4 11 3 12 2 13
REMARK SMILES IDX 1 14
REMARK H PARENT
REMARK Flexibility Score: inf
ROOT
ATOM      1  C   UNL     1       2.447   4.662  -9.364  1.00  0.00     0.000 C 
ENDROOT
BRANCH   1   2
ATOM      2  C   UNL     1       2.735   6.062  -9.935  1.00  0.00     0.004 C 
BRANCH   2   3
ATOM      3  C   UNL     1       2.178   7.177  -9.038  1.00  0.00     0.027 C 
BRANCH   3   4
ATOM      4  C   UNL     1       3.257   8.075  -8.500  1.00  0.00    -0.025 C 
ATOM      5  C   UNL     1       4.401   7.581  -8.014  1.00  0.00     0.020 C 
BRANCH   5   6
ATOM      6  C   UNL     1       5.461   8.447  -7.479  1.00  0.00     0.064 C 
ATOM      7  O   UNL     1       5.679   9.565  -8.013  1.00  0.00    -0.545 OA
ATOM      8  O   UNL     1       6.227   8.052  -6.388  1.00  0.00    -0.545 OA
ENDBRANCH   5   6
ENDBRANCH   3   4
ENDBRANCH   2   3
ENDBRANCH   1   2
BRANCH   1   9
ATOM      9  C   UNL     1       3.634   3.700  -9.532  1.00  0.00     0.000 C 
BRANCH   9  10
ATOM     10  C   UNL     1       4.911   4.207  -8.847  1.00  0.00     0.000 C 
BRANCH  10  11
ATOM     11  C   UNL     1       5.704   3.046  -8.234  1.00  0.00    -0.000 C 
BRANCH  11  12
ATOM     12  C   UNL     1       4.771   1.899  -7.823  1.00  0.00    -0.000 C 
BRANCH  12  13
ATOM     13  C   UNL     1       4.830   1.600  -6.317  1.00  0.00    -0.003 C 
ATOM     14  C   UNL     1       3.804   0.555  -5.881  1.00  0.00     0.004 C 
ENDBRANCH  12  13
ENDBRANCH  11  12
ENDBRANCH  10  11
ENDBRANCH   9  10
ENDBRANCH   1   9
TORSDOF 9
ENDMDL
MODEL 7
REMARK VINA RESULT:    -3.718      6.817      9.526
REMARK INTER + INTRA:          -6.238
REMARK INTER:                  -5.015
REMARK INTRA:                  -1.223
REMARK UNBOUND:                -0.565
REMARK SMILES CCCCCCCCCC=CC(=O)[O-]
REMARK SMILES IDX 7 1 8 2 9 3 10 4 11 5 12 6 13 7 14 8 6 9 5 10 4 11 3 12 2 13
REMARK SMILES IDX 1 14
REMARK H PARENT
REMARK Flexibility Score: inf
ROOT
ATOM      1  C   UNL     1       4.791   2.522   8.261  1.00  0.00     0.000 C 
ENDROOT
BRANCH   1   2
ATOM      2  C   UNL     1       5.559   3.584   7.455  1.00  0.00     0.004 C 
BRANCH   2   3
ATOM      3  C   UNL     1       7.020   3.711   7.914  1.00  0.00     0.027 C 
BRANCH   3   4
ATOM      4  C   UNL     1       7.992   3.599   6.773  1.00  0.00    -0.025 C 
ATOM      5  C   UNL     1       7.593   3.249   5.546  1.00  0.00     0.020 C 
BRANCH   5   6
ATOM      6  C   UNL     1       8.536   3.129   4.423  1.00  0.00     0.064 C 
ATOM      7  O   UNL     1       8.985   4.168   3.876  1.00  0.00    -0.545 OA
ATOM      8  O   UNL     1       8.940   1.883   3.957  1.00  0.00    -0.545 OA
ENDBRANCH   5   6
ENDBRANCH   3   4
ENDBRANCH   2   3
ENDBRANCH   1   2
BRANCH   1   9
ATOM      9  C   UNL     1       5.725   1.560   9.012  1.00  0.00     0.000 C 
BRANCH   9  10
ATOM     10  C   UNL     1       5.984   0.258   8.239  1.00  0.00     0.000 C 
BRANCH  10  11
ATOM     11  C   UNL     1       7.486  -0.032   8.137  1.00  0.00    -0.000 C 
BRANCH  11  12
ATOM     12  C   UNL     1       7.909  -0.235   6.675  1.00  0.00    -0.000 C 
BRANCH  12  13
ATOM     13  C   UNL     1       7.132  -1.369   5.988  1.00  0.00    -0.003 C 
ATOM     14  C   UNL     1       7.146  -1.256   4.464  1.00  0.00     0.004 C 
ENDBRANCH  12  13
ENDBRANCH  11  12
ENDBRANCH  10  11
ENDBRANCH   9  10
ENDBRANCH   1   9
TORSDOF 9
ENDMDL
MODEL 8
REMARK VINA RESULT:    -3.657     16.938     19.806
REMARK INTER + INTRA:          -6.146
REMARK INTER:                  -5.014
REMARK INTRA:                  -1.132
REMARK UNBOUND:                -0.565
REMARK SMILES CCCCCCCCCC=CC(=O)[O-]
REMARK SMILES IDX 7 1 8 2 9 3 10 4 11 5 12 6 13 7 14 8 6 9 5 10 4 11 3 12 2 13
REMARK SMILES IDX 1 14
REMARK H PARENT
REMARK Flexibility Score: inf
ROOT
ATOM      1  C   UNL     1      -7.329   0.803  -6.770  1.00  0.00     0.000 C 
ENDROOT
BRANCH   1   2
ATOM      2  C   UNL     1      -6.335   1.271  -5.693  1.00  0.00     0.004 C 
BRANCH   2   3
ATOM      3  C   UNL     1      -6.974   2.265  -4.712  1.00  0.00     0.027 C 
BRANCH   3   4
ATOM      4  C   UNL     1      -7.312   1.633  -3.391  1.00  0.00    -0.025 C 
ATOM      5  C   UNL     1      -6.456   0.816  -2.768  1.00  0.00     0.020 C 
BRANCH   5   6
ATOM      6  C   UNL     1      -6.777   0.185  -1.479  1.00  0.00     0.064 C 
ATOM      7  O   UNL     1      -6.651  -1.060  -1.348  1.00  0.00    -0.545 OA
ATOM      8  O   UNL     1      -7.216   0.943  -0.399  1.00  0.00    -0.545 OA
ENDBRANCH   5   6
ENDBRANCH   3   4
ENDBRANCH   2   3
ENDBRANCH   1   2
BRANCH   1   9
ATOM      9  C   UNL     1      -7.888  -0.601  -6.489  1.00  0.00     0.000 C 
BRANCH   9  10
ATOM     10  C   UNL     1      -9.259  -0.568  -5.798  1.00  0.00     0.000 C 
BRANCH  10  11
ATOM     11  C   UNL     1      -9.579  -1.918  -5.147  1.00  0.00    -0.000 C 
BRANCH  11  12
ATOM     12  C   UNL     1      -8.976  -2.006  -3.737  1.00  0.00    -0.000 C 
BRANCH  12  13
ATOM     13  C   UNL     1      -8.287  -3.354  -3.473  1.00  0.00    -0.003 C 
ATOM     14  C   UNL     1      -8.147  -4.204  -4.735  1.00  0.00     0.004 C 
ENDBRANCH  12  13
ENDBRANCH  11  12
ENDBRANCH  10  11
ENDBRANCH   9  10
ENDBRANCH   1   9
TORSDOF 9
ENDMDL
