MODEL 1
REMARK VINA RESULT:    -6.603      0.000      0.000
REMARK INTER + INTRA:          -8.224
REMARK INTER:                  -7.954
REMARK INTRA:                  -0.270
REMARK UNBOUND:                -0.270
REMARK SMILES O=c1c(O)c(-c2ccc(O)c(O)c2)oc2cc(O)cc(O)c12
REMARK SMILES IDX 5 1 3 2 2 3 1 4 22 5 20 6 19 7 17 8 16 9 15 10 14 11 6 12
REMARK SMILES IDX 7 13 8 14 9 15 13 16 11 17 10 18 12 20 4 22 21 24 18 26
REMARK H PARENT 10 19 12 21 4 23 21 25 18 27
REMARK Flexibility Score: inf
ROOT
ATOM      1  C   UNL     1    -117.865  -2.160  77.367  1.00  0.00     0.180 A 
ATOM      2  C   UNL     1    -117.953  -0.887  77.963  1.00  0.00     0.208 A 
ATOM      3  C   UNL     1    -116.787  -0.293  78.472  1.00  0.00     0.238 A 
ATOM      4  O   UNL     1    -116.857   0.842  79.017  1.00  0.00    -0.285 OA
ATOM      5  C   UNL     1    -115.555  -0.969  78.358  1.00  0.00     0.111 A 
ATOM      6  C   UNL     1    -114.334  -0.437  78.839  1.00  0.00     0.134 A 
ATOM      7  C   UNL     1    -113.146  -1.168  78.681  1.00  0.00     0.093 A 
ATOM      8  C   UNL     1    -113.156  -2.415  78.049  1.00  0.00     0.123 A 
ATOM      9  C   UNL     1    -114.359  -2.944  77.572  1.00  0.00     0.094 A 
ATOM     10  C   UNL     1    -115.553  -2.232  77.723  1.00  0.00     0.146 A 
ATOM     11  O   UNL     1    -116.682  -2.760  77.264  1.00  0.00    -0.452 OA
ENDROOT
BRANCH   1  12
ATOM     12  C   UNL     1    -119.052  -2.859  76.825  1.00  0.00     0.025 A 
ATOM     13  C   UNL     1    -120.012  -3.438  77.674  1.00  0.00     0.016 A 
ATOM     14  C   UNL     1    -121.111  -4.114  77.139  1.00  0.00     0.051 A 
ATOM     15  C   UNL     1    -121.261  -4.235  75.751  1.00  0.00     0.157 A 
ATOM     16  C   UNL     1    -119.195  -3.001  75.435  1.00  0.00     0.062 A 
ATOM     17  C   UNL     1    -120.296  -3.678  74.896  1.00  0.00     0.158 A 
BRANCH  15  18
ATOM     18  O   UNL     1    -122.360  -4.908  75.221  1.00  0.00    -0.504 OA
ATOM     19  H   UNL     1    -122.735  -5.740  75.662  1.00  0.00     0.293 HD
ENDBRANCH  15  18
BRANCH  17  20
ATOM     20  O   UNL     1    -120.412  -3.786  73.511  1.00  0.00    -0.504 OA
ATOM     21  H   UNL     1    -120.008  -3.103  72.882  1.00  0.00     0.293 HD
ENDBRANCH  17  20
ENDBRANCH   1  12
BRANCH   2  22
ATOM     22  O   UNL     1    -119.178  -0.217  78.019  1.00  0.00    -0.502 OA
ATOM     23  H   UNL     1    -119.468   0.444  77.309  1.00  0.00     0.293 HD
ENDBRANCH   2  22
BRANCH   6  24
ATOM     24  O   UNL     1    -114.291   0.804  79.473  1.00  0.00    -0.507 OA
ATOM     25  H   UNL     1    -114.559   1.657  78.994  1.00  0.00     0.293 HD
ENDBRANCH   6  24
BRANCH   8  26
ATOM     26  O   UNL     1    -111.963  -3.119  77.902  1.00  0.00    -0.508 OA
ATOM     27  H   UNL     1    -111.863  -4.068  78.241  1.00  0.00     0.293 HD
ENDBRANCH   8  26
TORSDOF 6
ENDMDL
MODEL 2
REMARK VINA RESULT:    -6.197     16.285     17.552
REMARK INTER + INTRA:          -7.734
REMARK INTER:                  -7.417
REMARK INTRA:                  -0.318
REMARK UNBOUND:                -0.270
REMARK SMILES O=c1c(O)c(-c2ccc(O)c(O)c2)oc2cc(O)cc(O)c12
REMARK SMILES IDX 5 1 3 2 2 3 1 4 22 5 20 6 19 7 17 8 16 9 15 10 14 11 6 12
REMARK SMILES IDX 7 13 8 14 9 15 13 16 11 17 10 18 12 20 4 22 21 24 18 26
REMARK H PARENT 10 19 12 21 4 23 21 25 18 27
REMARK Flexibility Score: inf
ROOT
ATOM      1  C   UNL     1    -118.103 -14.111  88.371  1.00  0.00     0.180 A 
ATOM      2  C   UNL     1    -119.362 -14.520  88.851  1.00  0.00     0.208 A 
ATOM      3  C   UNL     1    -119.482 -15.784  89.451  1.00  0.00     0.238 A 
ATOM      4  O   UNL     1    -120.608 -16.165  89.875  1.00  0.00    -0.285 OA
ATOM      5  C   UNL     1    -118.344 -16.605  89.579  1.00  0.00     0.111 A 
ATOM      6  C   UNL     1    -118.378 -17.889  90.175  1.00  0.00     0.134 A 
ATOM      7  C   UNL     1    -117.199 -18.643  90.273  1.00  0.00     0.093 A 
ATOM      8  C   UNL     1    -115.988 -18.138  89.790  1.00  0.00     0.123 A 
ATOM      9  C   UNL     1    -115.949 -16.870  89.201  1.00  0.00     0.094 A 
ATOM     10  C   UNL     1    -117.113 -16.105  89.092  1.00  0.00     0.146 A 
ATOM     11  O   UNL     1    -117.049 -14.906  88.524  1.00  0.00    -0.452 OA
ENDROOT
BRANCH   1  12
ATOM     12  C   UNL     1    -117.901 -12.802  87.711  1.00  0.00     0.025 A 
ATOM     13  C   UNL     1    -118.216 -12.609  86.354  1.00  0.00     0.016 A 
ATOM     14  C   UNL     1    -117.992 -11.372  85.746  1.00  0.00     0.051 A 
ATOM     15  C   UNL     1    -117.440 -10.312  86.478  1.00  0.00     0.157 A 
ATOM     16  C   UNL     1    -117.328 -11.743  88.435  1.00  0.00     0.062 A 
ATOM     17  C   UNL     1    -117.103 -10.502  87.829  1.00  0.00     0.158 A 
BRANCH  15  18
ATOM     18  O   UNL     1    -117.220  -9.079  85.869  1.00  0.00    -0.504 OA
ATOM     19  H   UNL     1    -117.990  -8.487  85.577  1.00  0.00     0.293 HD
ENDBRANCH  15  18
BRANCH  17  20
ATOM     20  O   UNL     1    -116.546  -9.470  88.584  1.00  0.00    -0.504 OA
ATOM     21  H   UNL     1    -117.039  -9.044  89.358  1.00  0.00     0.293 HD
ENDBRANCH  17  20
ENDBRANCH   1  12
BRANCH   2  22
ATOM     22  O   UNL     1    -120.466 -13.667  88.757  1.00  0.00    -0.502 OA
ATOM     23  H   UNL     1    -120.626 -12.914  89.413  1.00  0.00     0.293 HD
ENDBRANCH   2  22
BRANCH   6  24
ATOM     24  O   UNL     1    -119.570 -18.421  90.667  1.00  0.00    -0.507 OA
ATOM     25  H   UNL     1    -120.325 -18.699  90.050  1.00  0.00     0.293 HD
ENDBRANCH   6  24
BRANCH   8  26
ATOM     26  O   UNL     1    -114.831 -18.905  89.902  1.00  0.00    -0.508 OA
ATOM     27  H   UNL     1    -114.845 -19.909  89.766  1.00  0.00     0.293 HD
ENDBRANCH   8  26
TORSDOF 6
ENDMDL
MODEL 3
REMARK VINA RESULT:    -6.169      8.062      9.251
REMARK INTER + INTRA:          -7.702
REMARK INTER:                  -7.509
REMARK INTRA:                  -0.192
REMARK UNBOUND:                -0.270
REMARK SMILES O=c1c(O)c(-c2ccc(O)c(O)c2)oc2cc(O)cc(O)c12
REMARK SMILES IDX 5 1 3 2 2 3 1 4 22 5 20 6 19 7 17 8 16 9 15 10 14 11 6 12
REMARK SMILES IDX 7 13 8 14 9 15 13 16 11 17 10 18 12 20 4 22 21 24 18 26
REMARK H PARENT 10 19 12 21 4 23 21 25 18 27
REMARK Flexibility Score: inf
ROOT
ATOM      1  C   UNL     1    -115.772 -10.004  80.487  1.00  0.00     0.180 A 
ATOM      2  C   UNL     1    -115.225  -8.757  80.846  1.00  0.00     0.208 A 
ATOM      3  C   UNL     1    -114.410  -8.083  79.924  1.00  0.00     0.238 A 
ATOM      4  O   UNL     1    -113.906  -6.970  80.239  1.00  0.00    -0.285 OA
ATOM      5  C   UNL     1    -114.171  -8.654  78.657  1.00  0.00     0.111 A 
ATOM      6  C   UNL     1    -113.366  -8.037  77.669  1.00  0.00     0.134 A 
ATOM      7  C   UNL     1    -113.183  -8.665  76.428  1.00  0.00     0.093 A 
ATOM      8  C   UNL     1    -113.792  -9.894  76.155  1.00  0.00     0.123 A 
ATOM      9  C   UNL     1    -114.589 -10.507  77.127  1.00  0.00     0.094 A 
ATOM     10  C   UNL     1    -114.780  -9.898  78.371  1.00  0.00     0.146 A 
ATOM     11  O   UNL     1    -115.538 -10.504  79.277  1.00  0.00    -0.452 OA
ENDROOT
BRANCH   1  12
ATOM     12  C   UNL     1    -116.627 -10.784  81.411  1.00  0.00     0.025 A 
ATOM     13  C   UNL     1    -116.205 -12.021  81.931  1.00  0.00     0.016 A 
ATOM     14  C   UNL     1    -117.039 -12.751  82.781  1.00  0.00     0.051 A 
ATOM     15  C   UNL     1    -118.310 -12.264  83.115  1.00  0.00     0.157 A 
ATOM     16  C   UNL     1    -117.910 -10.310  81.732  1.00  0.00     0.062 A 
ATOM     17  C   UNL     1    -118.748 -11.039  82.584  1.00  0.00     0.158 A 
BRANCH  15  18
ATOM     18  O   UNL     1    -119.139 -12.993  83.965  1.00  0.00    -0.504 OA
ATOM     19  H   UNL     1    -118.986 -13.012  84.967  1.00  0.00     0.293 HD
ENDBRANCH  15  18
BRANCH  17  20
ATOM     20  O   UNL     1    -120.009 -10.531  82.891  1.00  0.00    -0.504 OA
ATOM     21  H   UNL     1    -120.859 -11.039  82.684  1.00  0.00     0.293 HD
ENDBRANCH  17  20
ENDBRANCH   1  12
BRANCH   2  22
ATOM     22  O   UNL     1    -115.517  -8.189  82.090  1.00  0.00    -0.502 OA
ATOM     23  H   UNL     1    -114.865  -7.588  82.578  1.00  0.00     0.293 HD
ENDBRANCH   2  22
BRANCH   6  24
ATOM     24  O   UNL     1    -112.746  -6.811  77.911  1.00  0.00    -0.507 OA
ATOM     25  H   UNL     1    -111.748  -6.741  78.078  1.00  0.00     0.293 HD
ENDBRANCH   6  24
BRANCH   8  26
ATOM     26  O   UNL     1    -113.597 -10.496  74.914  1.00  0.00    -0.508 OA
ATOM     27  H   UNL     1    -113.081 -11.362  74.821  1.00  0.00     0.293 HD
ENDBRANCH   8  26
TORSDOF 6
ENDMDL
MODEL 4
REMARK VINA RESULT:    -6.089      6.182     10.512
REMARK INTER + INTRA:          -7.605
REMARK INTER:                  -7.273
REMARK INTRA:                  -0.333
REMARK UNBOUND:                -0.270
REMARK SMILES O=c1c(O)c(-c2ccc(O)c(O)c2)oc2cc(O)cc(O)c12
REMARK SMILES IDX 5 1 3 2 2 3 1 4 22 5 20 6 19 7 17 8 16 9 15 10 14 11 6 12
REMARK SMILES IDX 7 13 8 14 9 15 13 16 11 17 10 18 12 20 4 22 21 24 18 26
REMARK H PARENT 10 19 12 21 4 23 21 25 18 27
REMARK Flexibility Score: inf
ROOT
ATOM      1  C   UNL     1    -108.933  -2.106  74.530  1.00  0.00     0.180 A 
ATOM      2  C   UNL     1    -109.268  -1.870  75.877  1.00  0.00     0.208 A 
ATOM      3  C   UNL     1    -110.542  -1.366  76.182  1.00  0.00     0.238 A 
ATOM      4  O   UNL     1    -110.848  -1.141  77.385  1.00  0.00    -0.285 OA
ATOM      5  C   UNL     1    -111.463  -1.126  75.143  1.00  0.00     0.111 A 
ATOM      6  C   UNL     1    -112.768  -0.624  75.366  1.00  0.00     0.134 A 
ATOM      7  C   UNL     1    -113.631  -0.420  74.278  1.00  0.00     0.093 A 
ATOM      8  C   UNL     1    -113.216  -0.710  72.976  1.00  0.00     0.123 A 
ATOM      9  C   UNL     1    -111.928  -1.207  72.750  1.00  0.00     0.094 A 
ATOM     10  C   UNL     1    -111.053  -1.414  73.820  1.00  0.00     0.146 A 
ATOM     11  O   UNL     1    -109.835  -1.882  73.578  1.00  0.00    -0.452 OA
ENDROOT
BRANCH   1  12
ATOM     12  C   UNL     1    -107.605  -2.619  74.127  1.00  0.00     0.025 A 
ATOM     13  C   UNL     1    -106.535  -1.748  73.854  1.00  0.00     0.016 A 
ATOM     14  C   UNL     1    -105.297  -2.254  73.451  1.00  0.00     0.051 A 
ATOM     15  C   UNL     1    -105.112  -3.635  73.302  1.00  0.00     0.157 A 
ATOM     16  C   UNL     1    -107.420  -4.001  73.955  1.00  0.00     0.062 A 
ATOM     17  C   UNL     1    -106.181  -4.511  73.552  1.00  0.00     0.158 A 
BRANCH  15  18
ATOM     18  O   UNL     1    -103.875  -4.137  72.901  1.00  0.00    -0.504 OA
ATOM     19  H   UNL     1    -103.403  -3.788  72.074  1.00  0.00     0.293 HD
ENDBRANCH  15  18
BRANCH  17  20
ATOM     20  O   UNL     1    -106.031  -5.890  73.407  1.00  0.00    -0.504 OA
ATOM     21  H   UNL     1    -106.218  -6.534  74.165  1.00  0.00     0.293 HD
ENDBRANCH  17  20
ENDBRANCH   1  12
BRANCH   2  22
ATOM     22  O   UNL     1    -108.354  -2.163  76.893  1.00  0.00    -0.502 OA
ATOM     23  H   UNL     1    -108.554  -2.830  77.628  1.00  0.00     0.293 HD
ENDBRANCH   2  22
BRANCH   6  24
ATOM     24  O   UNL     1    -113.212  -0.325  76.654  1.00  0.00    -0.507 OA
ATOM     25  H   UNL     1    -113.179  -1.009  77.402  1.00  0.00     0.293 HD
ENDBRANCH   6  24
BRANCH   8  26
ATOM     26  O   UNL     1    -114.092  -0.501  71.913  1.00  0.00    -0.508 OA
ATOM     27  H   UNL     1    -114.670  -1.248  71.548  1.00  0.00     0.293 HD
ENDBRANCH   8  26
TORSDOF 6
ENDMDL
MODEL 5
REMARK VINA RESULT:    -6.029      6.680     10.018
REMARK INTER + INTRA:          -7.533
REMARK INTER:                  -7.314
REMARK INTRA:                  -0.219
REMARK UNBOUND:                -0.270
REMARK SMILES O=c1c(O)c(-c2ccc(O)c(O)c2)oc2cc(O)cc(O)c12
REMARK SMILES IDX 5 1 3 2 2 3 1 4 22 5 20 6 19 7 17 8 16 9 15 10 14 11 6 12
REMARK SMILES IDX 7 13 8 14 9 15 13 16 11 17 10 18 12 20 4 22 21 24 18 26
REMARK H PARENT 10 19 12 21 4 23 21 25 18 27
REMARK Flexibility Score: inf
ROOT
ATOM      1  C   UNL     1    -108.778  -1.310  74.662  1.00  0.00     0.180 A 
ATOM      2  C   UNL     1    -107.895  -0.265  74.328  1.00  0.00     0.208 A 
ATOM      3  C   UNL     1    -106.573  -0.580  73.974  1.00  0.00     0.238 A 
ATOM      4  O   UNL     1    -105.770   0.348  73.684  1.00  0.00    -0.285 OA
ATOM      5  C   UNL     1    -106.164  -1.929  73.941  1.00  0.00     0.111 A 
ATOM      6  C   UNL     1    -104.852  -2.331  73.591  1.00  0.00     0.134 A 
ATOM      7  C   UNL     1    -104.524  -3.695  73.573  1.00  0.00     0.093 A 
ATOM      8  C   UNL     1    -105.480  -4.662  73.895  1.00  0.00     0.123 A 
ATOM      9  C   UNL     1    -106.777  -4.270  74.241  1.00  0.00     0.094 A 
ATOM     10  C   UNL     1    -107.123  -2.916  74.268  1.00  0.00     0.146 A 
ATOM     11  O   UNL     1    -108.360  -2.571  74.604  1.00  0.00    -0.452 OA
ENDROOT
BRANCH   1  12
ATOM     12  C   UNL     1    -110.180  -1.056  75.062  1.00  0.00     0.025 A 
ATOM     13  C   UNL     1    -111.253  -1.368  74.208  1.00  0.00     0.016 A 
ATOM     14  C   UNL     1    -112.568  -1.098  74.597  1.00  0.00     0.051 A 
ATOM     15  C   UNL     1    -112.830  -0.500  75.837  1.00  0.00     0.157 A 
ATOM     16  C   UNL     1    -110.447  -0.438  76.295  1.00  0.00     0.062 A 
ATOM     17  C   UNL     1    -111.762  -0.166  76.688  1.00  0.00     0.158 A 
BRANCH  15  18
ATOM     18  O   UNL     1    -114.141  -0.233  76.223  1.00  0.00    -0.504 OA
ATOM     19  H   UNL     1    -114.354   0.448  76.944  1.00  0.00     0.293 HD
ENDBRANCH  15  18
BRANCH  17  20
ATOM     20  O   UNL     1    -111.989   0.435  77.925  1.00  0.00    -0.504 OA
ATOM     21  H   UNL     1    -111.914   1.436  78.059  1.00  0.00     0.293 HD
ENDBRANCH  17  20
ENDBRANCH   1  12
BRANCH   2  22
ATOM     22  O   UNL     1    -108.339   1.060  74.320  1.00  0.00    -0.502 OA
ATOM     23  H   UNL     1    -109.310   1.308  74.459  1.00  0.00     0.293 HD
ENDBRANCH   2  22
BRANCH   6  24
ATOM     24  O   UNL     1    -103.876  -1.391  73.264  1.00  0.00    -0.507 OA
ATOM     25  H   UNL     1    -103.180  -1.088  73.936  1.00  0.00     0.293 HD
ENDBRANCH   6  24
BRANCH   8  26
ATOM     26  O   UNL     1    -105.130  -6.010  73.867  1.00  0.00    -0.508 OA
ATOM     27  H   UNL     1    -104.649  -6.417  73.074  1.00  0.00     0.293 HD
ENDBRANCH   8  26
TORSDOF 6
ENDMDL
MODEL 6
REMARK VINA RESULT:    -6.009      6.219      9.864
REMARK INTER + INTRA:          -7.508
REMARK INTER:                  -7.209
REMARK INTRA:                  -0.300
REMARK UNBOUND:                -0.270
REMARK SMILES O=c1c(O)c(-c2ccc(O)c(O)c2)oc2cc(O)cc(O)c12
REMARK SMILES IDX 5 1 3 2 2 3 1 4 22 5 20 6 19 7 17 8 16 9 15 10 14 11 6 12
REMARK SMILES IDX 7 13 8 14 9 15 13 16 11 17 10 18 12 20 4 22 21 24 18 26
REMARK H PARENT 10 19 12 21 4 23 21 25 18 27
REMARK Flexibility Score: inf
ROOT
ATOM      1  C   UNL     1    -109.061  -2.304  75.407  1.00  0.00     0.180 A 
ATOM      2  C   UNL     1    -108.941  -3.695  75.221  1.00  0.00     0.208 A 
ATOM      3  C   UNL     1    -107.811  -4.196  74.555  1.00  0.00     0.238 A 
ATOM      4  O   UNL     1    -107.699  -5.439  74.373  1.00  0.00    -0.285 OA
ATOM      5  C   UNL     1    -106.815  -3.305  74.107  1.00  0.00     0.111 A 
ATOM      6  C   UNL     1    -105.644  -3.728  73.433  1.00  0.00     0.134 A 
ATOM      7  C   UNL     1    -104.694  -2.779  73.026  1.00  0.00     0.093 A 
ATOM      8  C   UNL     1    -104.890  -1.420  73.282  1.00  0.00     0.123 A 
ATOM      9  C   UNL     1    -106.044  -0.996  73.947  1.00  0.00     0.094 A 
ATOM     10  C   UNL     1    -107.004  -1.925  74.359  1.00  0.00     0.146 A 
ATOM     11  O   UNL     1    -108.093  -1.496  74.985  1.00  0.00    -0.452 OA
ENDROOT
BRANCH   1  12
ATOM     12  C   UNL     1    -110.231  -1.699  76.083  1.00  0.00     0.025 A 
ATOM     13  C   UNL     1    -110.334  -1.673  77.485  1.00  0.00     0.016 A 
ATOM     14  C   UNL     1    -111.459  -1.119  78.101  1.00  0.00     0.051 A 
ATOM     15  C   UNL     1    -112.503  -0.594  77.326  1.00  0.00     0.157 A 
ATOM     16  C   UNL     1    -111.289  -1.192  75.311  1.00  0.00     0.062 A 
ATOM     17  C   UNL     1    -112.418  -0.636  75.925  1.00  0.00     0.158 A 
BRANCH  15  18
ATOM     18  O   UNL     1    -113.623  -0.041  77.943  1.00  0.00    -0.504 OA
ATOM     19  H   UNL     1    -113.690   0.035  78.952  1.00  0.00     0.293 HD
ENDBRANCH  15  18
BRANCH  17  20
ATOM     20  O   UNL     1    -113.442  -0.128  75.126  1.00  0.00    -0.504 OA
ATOM     21  H   UNL     1    -113.262   0.293  74.223  1.00  0.00     0.293 HD
ENDBRANCH  17  20
ENDBRANCH   1  12
BRANCH   2  22
ATOM     22  O   UNL     1    -109.919  -4.561  75.718  1.00  0.00    -0.502 OA
ATOM     23  H   UNL     1    -110.320  -5.305  75.160  1.00  0.00     0.293 HD
ENDBRANCH   2  22
BRANCH   6  24
ATOM     24  O   UNL     1    -105.419  -5.078  73.164  1.00  0.00    -0.507 OA
ATOM     25  H   UNL     1    -105.818  -5.534  72.351  1.00  0.00     0.293 HD
ENDBRANCH   6  24
BRANCH   8  26
ATOM     26  O   UNL     1    -103.930  -0.498  72.869  1.00  0.00    -0.508 OA
ATOM     27  H   UNL     1    -102.942  -0.721  72.878  1.00  0.00     0.293 HD
ENDBRANCH   8  26
TORSDOF 6
ENDMDL
MODEL 7
REMARK VINA RESULT:    -5.999      6.523     10.503
REMARK INTER + INTRA:          -7.496
REMARK INTER:                  -7.281
REMARK INTRA:                  -0.215
REMARK UNBOUND:                -0.270
REMARK SMILES O=c1c(O)c(-c2ccc(O)c(O)c2)oc2cc(O)cc(O)c12
REMARK SMILES IDX 5 1 3 2 2 3 1 4 22 5 20 6 19 7 17 8 16 9 15 10 14 11 6 12
REMARK SMILES IDX 7 13 8 14 9 15 13 16 11 17 10 18 12 20 4 22 21 24 18 26
REMARK H PARENT 10 19 12 21 4 23 21 25 18 27
REMARK Flexibility Score: inf
ROOT
ATOM      1  C   UNL     1    -108.592  -1.784  74.950  1.00  0.00     0.180 A 
ATOM      2  C   UNL     1    -109.832  -1.850  74.286  1.00  0.00     0.208 A 
ATOM      3  C   UNL     1    -110.972  -1.337  74.926  1.00  0.00     0.238 A 
ATOM      4  O   UNL     1    -112.090  -1.401  74.345  1.00  0.00    -0.285 OA
ATOM      5  C   UNL     1    -110.851  -0.752  76.202  1.00  0.00     0.111 A 
ATOM      6  C   UNL     1    -111.949  -0.208  76.911  1.00  0.00     0.134 A 
ATOM      7  C   UNL     1    -111.745   0.367  78.175  1.00  0.00     0.093 A 
ATOM      8  C   UNL     1    -110.467   0.410  78.741  1.00  0.00     0.123 A 
ATOM      9  C   UNL     1    -109.380  -0.126  78.044  1.00  0.00     0.094 A 
ATOM     10  C   UNL     1    -109.562  -0.705  76.785  1.00  0.00     0.146 A 
ATOM     11  O   UNL     1    -108.513  -1.210  76.147  1.00  0.00    -0.452 OA
ENDROOT
BRANCH   1  12
ATOM     12  C   UNL     1    -107.349  -2.319  74.350  1.00  0.00     0.025 A 
ATOM     13  C   UNL     1    -106.337  -1.464  73.877  1.00  0.00     0.016 A 
ATOM     14  C   UNL     1    -105.183  -1.991  73.291  1.00  0.00     0.051 A 
ATOM     15  C   UNL     1    -105.028  -3.378  73.157  1.00  0.00     0.157 A 
ATOM     16  C   UNL     1    -107.197  -3.707  74.194  1.00  0.00     0.062 A 
ATOM     17  C   UNL     1    -106.043  -4.238  73.608  1.00  0.00     0.158 A 
BRANCH  15  18
ATOM     18  O   UNL     1    -103.875  -3.901  72.575  1.00  0.00    -0.504 OA
ATOM     19  H   UNL     1    -103.909  -4.416  71.702  1.00  0.00     0.293 HD
ENDBRANCH  15  18
BRANCH  17  20
ATOM     20  O   UNL     1    -105.921  -5.622  73.484  1.00  0.00    -0.504 OA
ATOM     21  H   UNL     1    -106.406  -6.142  72.763  1.00  0.00     0.293 HD
ENDBRANCH  17  20
ENDBRANCH   1  12
BRANCH   2  22
ATOM     22  O   UNL     1    -109.917  -2.391  73.000  1.00  0.00    -0.502 OA
ATOM     23  H   UNL     1    -110.649  -2.132  72.350  1.00  0.00     0.293 HD
ENDBRANCH   2  22
BRANCH   6  24
ATOM     24  O   UNL     1    -113.235  -0.234  76.374  1.00  0.00    -0.507 OA
ATOM     25  H   UNL     1    -113.419   0.041  75.415  1.00  0.00     0.293 HD
ENDBRANCH   6  24
BRANCH   8  26
ATOM     26  O   UNL     1    -110.291   0.987  79.996  1.00  0.00    -0.508 OA
ATOM     27  H   UNL     1    -109.655   0.591  80.677  1.00  0.00     0.293 HD
ENDBRANCH   8  26
TORSDOF 6
ENDMDL
MODEL 8
REMARK VINA RESULT:    -5.983      3.429      4.121
REMARK INTER + INTRA:          -7.477
REMARK INTER:                  -7.178
REMARK INTRA:                  -0.299
REMARK UNBOUND:                -0.270
REMARK SMILES O=c1c(O)c(-c2ccc(O)c(O)c2)oc2cc(O)cc(O)c12
REMARK SMILES IDX 5 1 3 2 2 3 1 4 22 5 20 6 19 7 17 8 16 9 15 10 14 11 6 12
REMARK SMILES IDX 7 13 8 14 9 15 13 16 11 17 10 18 12 20 4 22 21 24 18 26
REMARK H PARENT 10 19 12 21 4 23 21 25 18 27
REMARK Flexibility Score: inf
ROOT
ATOM      1  C   UNL     1    -117.001  -1.733  79.597  1.00  0.00     0.180 A 
ATOM      2  C   UNL     1    -116.108  -0.660  79.785  1.00  0.00     0.208 A 
ATOM      3  C   UNL     1    -115.285  -0.655  80.923  1.00  0.00     0.238 A 
ATOM      4  O   UNL     1    -114.489   0.306  81.107  1.00  0.00    -0.285 OA
ATOM      5  C   UNL     1    -115.353  -1.725  81.837  1.00  0.00     0.111 A 
ATOM      6  C   UNL     1    -114.555  -1.798  83.004  1.00  0.00     0.134 A 
ATOM      7  C   UNL     1    -114.675  -2.902  83.862  1.00  0.00     0.093 A 
ATOM      8  C   UNL     1    -115.573  -3.933  83.574  1.00  0.00     0.123 A 
ATOM      9  C   UNL     1    -116.364  -3.866  82.423  1.00  0.00     0.094 A 
ATOM     10  C   UNL     1    -116.261  -2.773  81.557  1.00  0.00     0.146 A 
ATOM     11  O   UNL     1    -117.026  -2.732  80.473  1.00  0.00    -0.452 OA
ENDROOT
BRANCH   1  12
ATOM     12  C   UNL     1    -117.914  -1.801  78.433  1.00  0.00     0.025 A 
ATOM     13  C   UNL     1    -117.588  -2.554  77.291  1.00  0.00     0.016 A 
ATOM     14  C   UNL     1    -118.454  -2.584  76.194  1.00  0.00     0.051 A 
ATOM     15  C   UNL     1    -119.649  -1.853  76.216  1.00  0.00     0.157 A 
ATOM     16  C   UNL     1    -119.103  -1.053  78.442  1.00  0.00     0.062 A 
ATOM     17  C   UNL     1    -119.972  -1.081  77.345  1.00  0.00     0.158 A 
BRANCH  15  18
ATOM     18  O   UNL     1    -120.511  -1.886  75.122  1.00  0.00    -0.504 OA
ATOM     19  H   UNL     1    -120.960  -2.746  74.827  1.00  0.00     0.293 HD
ENDBRANCH  15  18
BRANCH  17  20
ATOM     20  O   UNL     1    -121.151  -0.338  77.396  1.00  0.00    -0.504 OA
ATOM     21  H   UNL     1    -121.591  -0.086  78.272  1.00  0.00     0.293 HD
ENDBRANCH  17  20
ENDBRANCH   1  12
BRANCH   2  22
ATOM     22  O   UNL     1    -116.024   0.364  78.839  1.00  0.00    -0.502 OA
ATOM     23  H   UNL     1    -115.571   0.239  77.942  1.00  0.00     0.293 HD
ENDBRANCH   2  22
BRANCH   6  24
ATOM     24  O   UNL     1    -113.648  -0.786  83.319  1.00  0.00    -0.507 OA
ATOM     25  H   UNL     1    -113.871   0.193  83.177  1.00  0.00     0.293 HD
ENDBRANCH   6  24
BRANCH   8  26
ATOM     26  O   UNL     1    -115.672  -5.020  84.441  1.00  0.00    -0.508 OA
ATOM     27  H   UNL     1    -116.493  -5.166  85.016  1.00  0.00     0.293 HD
ENDBRANCH   8  26
TORSDOF 6
ENDMDL
MODEL 9
REMARK VINA RESULT:    -5.893     14.556     15.747
REMARK INTER + INTRA:          -7.369
REMARK INTER:                  -7.056
REMARK INTRA:                  -0.312
REMARK UNBOUND:                -0.270
REMARK SMILES O=c1c(O)c(-c2ccc(O)c(O)c2)oc2cc(O)cc(O)c12
REMARK SMILES IDX 5 1 3 2 2 3 1 4 22 5 20 6 19 7 17 8 16 9 15 10 14 11 6 12
REMARK SMILES IDX 7 13 8 14 9 15 13 16 11 17 10 18 12 20 4 22 21 24 18 26
REMARK H PARENT 10 19 12 21 4 23 21 25 18 27
REMARK Flexibility Score: inf
ROOT
ATOM      1  C   UNL     1    -118.175 -13.806  87.437  1.00  0.00     0.180 A 
ATOM      2  C   UNL     1    -117.625 -12.606  87.929  1.00  0.00     0.208 A 
ATOM      3  C   UNL     1    -117.458 -11.525  87.048  1.00  0.00     0.238 A 
ATOM      4  O   UNL     1    -116.956 -10.449  87.476  1.00  0.00    -0.285 OA
ATOM      5  C   UNL     1    -117.859 -11.654  85.703  1.00  0.00     0.111 A 
ATOM      6  C   UNL     1    -117.728 -10.611  84.754  1.00  0.00     0.134 A 
ATOM      7  C   UNL     1    -118.160 -10.814  83.434  1.00  0.00     0.093 A 
ATOM      8  C   UNL     1    -118.719 -12.035  83.047  1.00  0.00     0.123 A 
ATOM      9  C   UNL     1    -118.850 -13.068  83.981  1.00  0.00     0.094 A 
ATOM     10  C   UNL     1    -118.424 -12.886  85.300  1.00  0.00     0.146 A 
ATOM     11  O   UNL     1    -118.556 -13.884  86.165  1.00  0.00    -0.452 OA
ENDROOT
BRANCH   1  12
ATOM     12  C   UNL     1    -118.366 -14.995  88.298  1.00  0.00     0.025 A 
ATOM     13  C   UNL     1    -117.299 -15.859  88.600  1.00  0.00     0.016 A 
ATOM     14  C   UNL     1    -117.509 -16.989  89.395  1.00  0.00     0.051 A 
ATOM     15  C   UNL     1    -118.788 -17.280  89.888  1.00  0.00     0.157 A 
ATOM     16  C   UNL     1    -119.650 -15.302  88.777  1.00  0.00     0.062 A 
ATOM     17  C   UNL     1    -119.864 -16.433  89.573  1.00  0.00     0.158 A 
BRANCH  15  18
ATOM     18  O   UNL     1    -118.993 -18.407  90.681  1.00  0.00    -0.504 OA
ATOM     19  H   UNL     1    -118.465 -19.260  90.538  1.00  0.00     0.293 HD
ENDBRANCH  15  18
BRANCH  17  20
ATOM     20  O   UNL     1    -121.150 -16.698  90.042  1.00  0.00    -0.504 OA
ATOM     21  H   UNL     1    -121.973 -16.544  89.474  1.00  0.00     0.293 HD
ENDBRANCH  17  20
ENDBRANCH   1  12
BRANCH   2  22
ATOM     22  O   UNL     1    -117.282 -12.487  89.278  1.00  0.00    -0.502 OA
ATOM     23  H   UNL     1    -117.357 -13.261  89.927  1.00  0.00     0.293 HD
ENDBRANCH   2  22
BRANCH   6  24
ATOM     24  O   UNL     1    -117.175  -9.381  85.109  1.00  0.00    -0.507 OA
ATOM     25  H   UNL     1    -117.683  -8.512  84.986  1.00  0.00     0.293 HD
ENDBRANCH   6  24
BRANCH   8  26
ATOM     26  O   UNL     1    -119.141 -12.211  81.731  1.00  0.00    -0.508 OA
ATOM     27  H   UNL     1    -118.744 -11.672  80.971  1.00  0.00     0.293 HD
ENDBRANCH   8  26
TORSDOF 6
ENDMDL
