MODEL 1
REMARK VINA RESULT:    -3.821      0.000      0.000
REMARK INTER + INTRA:          -3.821
REMARK INTER:                  -3.821
REMARK INTRA:                   0.000
REMARK UNBOUND:                 0.000
REMARK SMILES c1cc[nH]c1
REMARK SMILES IDX 1 1 5 2 4 3 3 4 2 5
REMARK H PARENT 4 6
REMARK Flexibility Score: inf
ROOT
ATOM      1  C   UNL     1      23.663  29.510  12.990  1.00  0.00     0.019 A 
ATOM      2  C   UNL     1      23.138  30.451  12.128  1.00  0.00     0.082 A 
ATOM      3  N   UNL     1      22.385  31.331  12.813  1.00  0.00    -0.368 N 
ATOM      4  C   UNL     1      22.424  30.963  14.106  1.00  0.00     0.082 A 
ATOM      5  C   UNL     1      23.208  29.837  14.252  1.00  0.00     0.019 A 
ATOM      6  H   UNL     1      21.869  32.146  12.415  1.00  0.00     0.165 HD
ENDROOT
TORSDOF 0
ENDMDL
MODEL 2
REMARK VINA RESULT:    -3.816      0.058      1.624
REMARK INTER + INTRA:          -3.816
REMARK INTER:                  -3.816
REMARK INTRA:                   0.000
REMARK UNBOUND:                 0.000
REMARK SMILES c1cc[nH]c1
REMARK SMILES IDX 1 1 5 2 4 3 3 4 2 5
REMARK H PARENT 4 6
REMARK Flexibility Score: inf
ROOT
ATOM      1  C   UNL     1      23.215  29.837  14.202  1.00  0.00     0.019 A 
ATOM      2  C   UNL     1      22.454  30.978  14.053  1.00  0.00     0.082 A 
ATOM      3  N   UNL     1      22.425  31.344  12.758  1.00  0.00    -0.368 N 
ATOM      4  C   UNL     1      23.160  30.448  12.077  1.00  0.00     0.082 A 
ATOM      5  C   UNL     1      23.666  29.498  12.942  1.00  0.00     0.019 A 
ATOM      6  H   UNL     1      21.924  32.168  12.359  1.00  0.00     0.165 HD
ENDROOT
TORSDOF 0
ENDMDL
MODEL 3
REMARK VINA RESULT:    -3.232     11.451     11.794
REMARK INTER + INTRA:          -3.232
REMARK INTER:                  -3.232
REMARK INTRA:                   0.000
REMARK UNBOUND:                 0.000
REMARK SMILES c1cc[nH]c1
REMARK SMILES IDX 1 1 5 2 4 3 3 4 2 5
REMARK H PARENT 4 6
REMARK Flexibility Score: inf
ROOT
ATOM      1  C   UNL     1      14.873  36.938  19.695  1.00  0.00     0.019 A 
ATOM      2  C   UNL     1      14.514  36.020  18.729  1.00  0.00     0.082 A 
ATOM      3  N   UNL     1      14.757  36.524  17.505  1.00  0.00    -0.368 N 
ATOM      4  C   UNL     1      15.269  37.755  17.678  1.00  0.00     0.082 A 
ATOM      5  C   UNL     1      15.355  38.045  19.025  1.00  0.00     0.019 A 
ATOM      6  H   UNL     1      14.582  36.047  16.594  1.00  0.00     0.165 HD
ENDROOT
TORSDOF 0
ENDMDL
MODEL 4
REMARK VINA RESULT:    -3.146      0.873      1.429
REMARK INTER + INTRA:          -3.146
REMARK INTER:                  -3.146
REMARK INTRA:                   0.000
REMARK UNBOUND:                 0.000
REMARK SMILES c1cc[nH]c1
REMARK SMILES IDX 1 1 5 2 4 3 3 4 2 5
REMARK H PARENT 4 6
REMARK Flexibility Score: inf
ROOT
ATOM      1  C   UNL     1      23.083  30.491  12.239  1.00  0.00     0.019 A 
ATOM      2  C   UNL     1      22.276  31.277  13.036  1.00  0.00     0.082 A 
ATOM      3  N   UNL     1      22.435  30.936  14.327  1.00  0.00    -0.368 N 
ATOM      4  C   UNL     1      23.336  29.939  14.366  1.00  0.00     0.082 A 
ATOM      5  C   UNL     1      23.760  29.637  13.087  1.00  0.00     0.019 A 
ATOM      6  H   UNL     1      21.950  31.366  15.145  1.00  0.00     0.165 HD
ENDROOT
TORSDOF 0
ENDMDL
MODEL 5
REMARK VINA RESULT:    -3.125      1.273      1.707
REMARK INTER + INTRA:          -3.125
REMARK INTER:                  -3.125
REMARK INTRA:                   0.000
REMARK UNBOUND:                 0.000
REMARK SMILES c1cc[nH]c1
REMARK SMILES IDX 1 1 5 2 4 3 3 4 2 5
REMARK H PARENT 4 6
REMARK Flexibility Score: inf
ROOT
ATOM      1  C   UNL     1      22.453  31.110  12.961  1.00  0.00     0.019 A 
ATOM      2  C   UNL     1      23.099  30.522  11.892  1.00  0.00     0.082 A 
ATOM      3  N   UNL     1      23.849  29.491  12.321  1.00  0.00    -0.368 N 
ATOM      4  C   UNL     1      23.689  29.412  13.653  1.00  0.00     0.082 A 
ATOM      5  C   UNL     1      22.829  30.401  14.084  1.00  0.00     0.019 A 
ATOM      6  H   UNL     1      24.443  28.869  11.729  1.00  0.00     0.165 HD
ENDROOT
TORSDOF 0
ENDMDL
MODEL 6
REMARK VINA RESULT:    -3.107      1.638      2.326
REMARK INTER + INTRA:          -3.107
REMARK INTER:                  -3.107
REMARK INTRA:                   0.000
REMARK UNBOUND:                 0.000
REMARK SMILES c1cc[nH]c1
REMARK SMILES IDX 1 1 5 2 4 3 3 4 2 5
REMARK H PARENT 4 6
REMARK Flexibility Score: inf
ROOT
ATOM      1  C   UNL     1      23.441  29.993  13.288  1.00  0.00     0.019 A 
ATOM      2  C   UNL     1      24.424  29.322  12.588  1.00  0.00     0.082 A 
ATOM      3  N   UNL     1      24.342  29.625  11.280  1.00  0.00    -0.368 N 
ATOM      4  C   UNL     1      23.317  30.483  11.136  1.00  0.00     0.082 A 
ATOM      5  C   UNL     1      22.736  30.734  12.362  1.00  0.00     0.019 A 
ATOM      6  H   UNL     1      24.959  29.262  10.521  1.00  0.00     0.165 HD
ENDROOT
TORSDOF 0
ENDMDL
MODEL 7
REMARK VINA RESULT:    -2.854      6.389      7.113
REMARK INTER + INTRA:          -2.854
REMARK INTER:                  -2.854
REMARK INTRA:                   0.000
REMARK UNBOUND:                 0.000
REMARK SMILES c1cc[nH]c1
REMARK SMILES IDX 1 1 5 2 4 3 3 4 2 5
REMARK H PARENT 4 6
REMARK Flexibility Score: inf
ROOT
ATOM      1  C   UNL     1      29.124  28.600  12.474  1.00  0.00     0.019 A 
ATOM      2  C   UNL     1      28.086  28.225  11.645  1.00  0.00     0.082 A 
ATOM      3  N   UNL     1      28.569  27.836  10.452  1.00  0.00    -0.368 N 
ATOM      4  C   UNL     1      29.907  27.958  10.507  1.00  0.00     0.082 A 
ATOM      5  C   UNL     1      30.286  28.429  11.748  1.00  0.00     0.019 A 
ATOM      6  H   UNL     1      28.009  27.502   9.636  1.00  0.00     0.165 HD
ENDROOT
TORSDOF 0
ENDMDL
MODEL 8
REMARK VINA RESULT:    -2.838     12.006     12.365
REMARK INTER + INTRA:          -2.838
REMARK INTER:                  -2.838
REMARK INTRA:                   0.000
REMARK UNBOUND:                 0.000
REMARK SMILES c1cc[nH]c1
REMARK SMILES IDX 1 1 5 2 4 3 3 4 2 5
REMARK H PARENT 4 6
REMARK Flexibility Score: inf
ROOT
ATOM      1  C   UNL     1      14.219  35.704  19.010  1.00  0.00     0.019 A 
ATOM      2  C   UNL     1      14.086  35.728  20.384  1.00  0.00     0.082 A 
ATOM      3  N   UNL     1      14.643  36.848  20.878  1.00  0.00    -0.368 N 
ATOM      4  C   UNL     1      15.130  37.542  19.834  1.00  0.00     0.082 A 
ATOM      5  C   UNL     1      14.884  36.861  18.660  1.00  0.00     0.019 A 
ATOM      6  H   UNL     1      14.687  37.126  21.883  1.00  0.00     0.165 HD
ENDROOT
TORSDOF 0
ENDMDL
MODEL 9
REMARK VINA RESULT:    -2.657      7.868      8.661
REMARK INTER + INTRA:          -2.657
REMARK INTER:                  -2.657
REMARK INTRA:                   0.000
REMARK UNBOUND:                 0.000
REMARK SMILES c1cc[nH]c1
REMARK SMILES IDX 1 1 5 2 4 3 3 4 2 5
REMARK H PARENT 4 6
REMARK Flexibility Score: inf
ROOT
ATOM      1  C   UNL     1      28.700  23.551  13.261  1.00  0.00     0.019 A 
ATOM      2  C   UNL     1      27.579  24.167  12.742  1.00  0.00     0.082 A 
ATOM      3  N   UNL     1      27.867  24.710  11.545  1.00  0.00    -0.368 N 
ATOM      4  C   UNL     1      29.161  24.447  11.293  1.00  0.00     0.082 A 
ATOM      5  C   UNL     1      29.709  23.730  12.337  1.00  0.00     0.019 A 
ATOM      6  H   UNL     1      27.209  25.235  10.929  1.00  0.00     0.165 HD
ENDROOT
TORSDOF 0
ENDMDL
