MODEL 1
REMARK VINA RESULT:    69.038      0.000      0.000
REMARK INTER + INTRA:          93.017
REMARK INTER:                  93.253
REMARK INTRA:                  -0.237
REMARK UNBOUND:                -0.237
REMARK SMILES O=c1c(-c2ccc(O)cc2)coc2c([C@@H]3O[C@@H](CO)[C@H](O)[C@@H](O)[C@H]3O)c(O)ccc12
REMARK SMILES IDX 3 1 11 2 12 3 13 4 30 5 2 6 1 7 29 8 28 9 26 10 14 11 4 12
REMARK SMILES IDX 5 13 6 14 7 15 10 16 9 17 8 18 15 20 24 21 16 22 22 23 17 24
REMARK SMILES IDX 20 25 25 26 23 28 18 30 19 31 21 33 27 35
REMARK H PARENT 8 19 25 27 23 29 19 32 21 34 27 36
REMARK Flexibility Score: inf
ROOT
ATOM      1  C   UNL     1       8.872  92.360   2.134  1.00  0.00     0.065 A 
ATOM      2  C   UNL     1      10.093  92.645   1.506  1.00  0.00     0.208 A 
ATOM      3  O   UNL     1      10.325  93.839   0.975  1.00  0.00    -0.463 OA
ATOM      4  C   UNL     1       9.438  94.831   0.998  1.00  0.00     0.147 A 
ATOM      5  C   UNL     1       8.177  94.630   1.608  1.00  0.00     0.066 A 
ATOM      6  C   UNL     1       7.897  93.373   2.177  1.00  0.00     0.200 A 
ATOM      7  O   UNL     1       6.771  93.149   2.702  1.00  0.00    -0.288 OA
ATOM      8  C   UNL     1       7.238  95.673   1.620  1.00  0.00     0.020 A 
ATOM      9  C   UNL     1       7.542  96.897   1.030  1.00  0.00     0.047 A 
ATOM     10  C   UNL     1       8.784  97.107   0.420  1.00  0.00     0.125 A 
ATOM     11  C   UNL     1       9.753  96.077   0.408  1.00  0.00     0.069 A 
ENDROOT
BRANCH   1  12
ATOM     12  C   UNL     1       8.637  91.016   2.721  1.00  0.00    -0.011 A 
ATOM     13  C   UNL     1       9.719  90.246   3.182  1.00  0.00     0.013 A 
ATOM     14  C   UNL     1       9.500  88.983   3.741  1.00  0.00     0.047 A 
ATOM     15  C   UNL     1       8.199  88.478   3.851  1.00  0.00     0.115 A 
ATOM     16  C   UNL     1       7.332  90.505   2.841  1.00  0.00     0.013 A 
ATOM     17  C   UNL     1       7.118  89.241   3.402  1.00  0.00     0.047 A 
BRANCH  15  18
ATOM     18  O   UNL     1       7.969  87.220   4.406  1.00  0.00    -0.508 OA
ATOM     19  H   UNL     1       7.180  87.049   5.019  1.00  0.00     0.293 HD
ENDBRANCH  15  18
ENDBRANCH   1  12
BRANCH  11  20
ATOM     20  C   UNL     1      11.090  96.290  -0.286  1.00  0.00     0.188 C 
ATOM     21  C   UNL     1      11.018  95.783  -1.753  1.00  0.00     0.179 C 
ATOM     22  O   UNL     1      11.471  97.658  -0.149  1.00  0.00    -0.362 OA
ATOM     23  C   UNL     1      12.377  95.986  -2.469  1.00  0.00     0.177 C 
ATOM     24  C   UNL     1      12.148  98.220  -1.269  1.00  0.00     0.176 C 
ATOM     25  C   UNL     1      13.138  97.222  -1.924  1.00  0.00     0.177 C 
BRANCH  21  26
ATOM     26  O   UNL     1      10.590  94.444  -1.834  1.00  0.00    -0.387 OA
ATOM     27  H   UNL     1      10.356  94.139  -0.919  1.00  0.00     0.211 HD
ENDBRANCH  21  26
BRANCH  23  28
ATOM     28  O   UNL     1      13.189  94.839  -2.396  1.00  0.00    -0.387 OA
ATOM     29  H   UNL     1      12.925  94.233  -3.135  1.00  0.00     0.211 HD
ENDBRANCH  23  28
BRANCH  24  30
ATOM     30  C   UNL     1      12.867  99.489  -0.784  1.00  0.00     0.191 C 
BRANCH  30  31
ATOM     31  O   UNL     1      13.075 100.380  -1.850  1.00  0.00    -0.394 OA
ATOM     32  H   UNL     1      12.283 100.977  -1.894  1.00  0.00     0.210 HD
ENDBRANCH  30  31
ENDBRANCH  24  30
BRANCH  25  33
ATOM     33  O   UNL     1      13.833  97.843  -2.976  1.00  0.00    -0.388 OA
ATOM     34  H   UNL     1      14.622  98.291  -2.572  1.00  0.00     0.211 HD
ENDBRANCH  25  33
ENDBRANCH  11  20
BRANCH  10  35
ATOM     35  O   UNL     1       9.055  98.337  -0.178  1.00  0.00    -0.507 OA
ATOM     36  H   UNL     1       9.099  98.444  -1.185  1.00  0.00     0.293 HD
ENDBRANCH  10  35
TORSDOF 9
ENDMDL
MODEL 2
REMARK VINA RESULT:    69.873      0.982      2.303
REMARK INTER + INTRA:          94.144
REMARK INTER:                  92.597
REMARK INTRA:                   1.548
REMARK UNBOUND:                -0.237
REMARK SMILES O=c1c(-c2ccc(O)cc2)coc2c([C@@H]3O[C@@H](CO)[C@H](O)[C@@H](O)[C@H]3O)c(O)ccc12
REMARK SMILES IDX 3 1 11 2 12 3 13 4 30 5 2 6 1 7 29 8 28 9 26 10 14 11 4 12
REMARK SMILES IDX 5 13 6 14 7 15 10 16 9 17 8 18 15 20 24 21 16 22 22 23 17 24
REMARK SMILES IDX 20 25 25 26 23 28 18 30 19 31 21 33 27 35
REMARK H PARENT 8 19 25 27 23 29 19 32 21 34 27 36
REMARK Flexibility Score: inf
ROOT
ATOM      1  C   UNL     1       9.054  92.813   1.727  1.00  0.00     0.065 A 
ATOM      2  C   UNL     1      10.113  93.040   0.837  1.00  0.00     0.208 A 
ATOM      3  O   UNL     1      10.269  94.219   0.249  1.00  0.00    -0.463 OA
ATOM      4  C   UNL     1       9.453  95.250   0.456  1.00  0.00     0.147 A 
ATOM      5  C   UNL     1       8.356  95.109   1.337  1.00  0.00     0.066 A 
ATOM      6  C   UNL     1       8.158  93.870   1.974  1.00  0.00     0.200 A 
ATOM      7  O   UNL     1       7.171  93.699   2.742  1.00  0.00    -0.288 OA
ATOM      8  C   UNL     1       7.489  96.193   1.545  1.00  0.00     0.020 A 
ATOM      9  C   UNL     1       7.704  97.400   0.883  1.00  0.00     0.047 A 
ATOM     10  C   UNL     1       8.784  97.550   0.006  1.00  0.00     0.125 A 
ATOM     11  C   UNL     1       9.680  96.478  -0.208  1.00  0.00     0.069 A 
ENDROOT
BRANCH   1  12
ATOM     12  C   UNL     1       8.901  91.484   2.373  1.00  0.00    -0.011 A 
ATOM     13  C   UNL     1      10.029  90.683   2.622  1.00  0.00     0.013 A 
ATOM     14  C   UNL     1       9.888  89.435   3.236  1.00  0.00     0.047 A 
ATOM     15  C   UNL     1       8.621  88.974   3.612  1.00  0.00     0.115 A 
ATOM     16  C   UNL     1       7.631  91.017   2.760  1.00  0.00     0.013 A 
ATOM     17  C   UNL     1       7.495  89.768   3.373  1.00  0.00     0.047 A 
BRANCH  15  18
ATOM     18  O   UNL     1       8.468  87.731   4.223  1.00  0.00    -0.508 OA
ATOM     19  H   UNL     1       7.579  87.439   4.613  1.00  0.00     0.293 HD
ENDBRANCH  15  18
ENDBRANCH   1  12
BRANCH  11  20
ATOM     20  C   UNL     1      10.834  96.627  -1.189  1.00  0.00     0.188 C 
ATOM     21  C   UNL     1      11.876  97.641  -0.640  1.00  0.00     0.179 C 
ATOM     22  O   UNL     1      11.361  95.335  -1.485  1.00  0.00    -0.362 OA
ATOM     23  C   UNL     1      13.052  97.810  -1.634  1.00  0.00     0.177 C 
ATOM     24  C   UNL     1      12.772  95.279  -1.672  1.00  0.00     0.176 C 
ATOM     25  C   UNL     1      13.318  96.511  -2.439  1.00  0.00     0.177 C 
BRANCH  21  26
ATOM     26  O   UNL     1      11.293  98.882  -0.318  1.00  0.00    -0.387 OA
ATOM     27  H   UNL     1      10.482  98.710   0.227  1.00  0.00     0.211 HD
ENDBRANCH  21  26
BRANCH  23  28
ATOM     28  O   UNL     1      12.854  98.895  -2.506  1.00  0.00    -0.387 OA
ATOM     29  H   UNL     1      12.463  99.640  -1.980  1.00  0.00     0.211 HD
ENDBRANCH  23  28
BRANCH  24  30
ATOM     30  C   UNL     1      13.087  93.970  -2.413  1.00  0.00     0.191 C 
BRANCH  30  31
ATOM     31  O   UNL     1      14.460  93.679  -2.347  1.00  0.00    -0.394 OA
ATOM     32  H   UNL     1      14.865  93.975  -3.204  1.00  0.00     0.210 HD
ENDBRANCH  30  31
ENDBRANCH  24  30
BRANCH  25  33
ATOM     33  O   UNL     1      14.699  96.375  -2.663  1.00  0.00    -0.388 OA
ATOM     34  H   UNL     1      14.865  96.659  -3.599  1.00  0.00     0.211 HD
ENDBRANCH  25  33
ENDBRANCH  11  20
BRANCH  10  35
ATOM     35  O   UNL     1       8.965  98.764  -0.656  1.00  0.00    -0.507 OA
ATOM     36  H   UNL     1       8.182  99.346  -0.930  1.00  0.00     0.293 HD
ENDBRANCH  10  35
TORSDOF 9
ENDMDL
MODEL 3
REMARK VINA RESULT:    71.354      4.324      9.497
REMARK INTER + INTRA:          96.146
REMARK INTER:                  93.673
REMARK INTRA:                   2.473
REMARK UNBOUND:                -0.237
REMARK SMILES O=c1c(-c2ccc(O)cc2)coc2c([C@@H]3O[C@@H](CO)[C@H](O)[C@@H](O)[C@H]3O)c(O)ccc12
REMARK SMILES IDX 3 1 11 2 12 3 13 4 30 5 2 6 1 7 29 8 28 9 26 10 14 11 4 12
REMARK SMILES IDX 5 13 6 14 7 15 10 16 9 17 8 18 15 20 24 21 16 22 22 23 17 24
REMARK SMILES IDX 20 25 25 26 23 28 18 30 19 31 21 33 27 35
REMARK H PARENT 8 19 25 27 23 29 19 32 21 34 27 36
REMARK Flexibility Score: inf
ROOT
ATOM      1  C   UNL     1      11.200 102.430   1.372  1.00  0.00     0.065 A 
ATOM      2  C   UNL     1      10.546 101.198   1.234  1.00  0.00     0.208 A 
ATOM      3  O   UNL     1      10.950 100.308   0.337  1.00  0.00    -0.463 OA
ATOM      4  C   UNL     1      11.982 100.512  -0.479  1.00  0.00     0.147 A 
ATOM      5  C   UNL     1      12.698 101.730  -0.411  1.00  0.00     0.066 A 
ATOM      6  C   UNL     1      12.293 102.699   0.526  1.00  0.00     0.200 A 
ATOM      7  O   UNL     1      12.890 103.809   0.594  1.00  0.00    -0.288 OA
ATOM      8  C   UNL     1      13.778 101.950  -1.280  1.00  0.00     0.020 A 
ATOM      9  C   UNL     1      14.139 100.977  -2.209  1.00  0.00     0.047 A 
ATOM     10  C   UNL     1      13.435  99.770  -2.289  1.00  0.00     0.125 A 
ATOM     11  C   UNL     1      12.353  99.518  -1.414  1.00  0.00     0.069 A 
ENDROOT
BRANCH   1  12
ATOM     12  C   UNL     1      10.729 103.410   2.384  1.00  0.00    -0.011 A 
ATOM     13  C   UNL     1       9.853 103.006   3.407  1.00  0.00     0.013 A 
ATOM     14  C   UNL     1       9.413 103.925   4.365  1.00  0.00     0.047 A 
ATOM     15  C   UNL     1       9.847 105.255   4.316  1.00  0.00     0.115 A 
ATOM     16  C   UNL     1      11.166 104.747   2.345  1.00  0.00     0.013 A 
ATOM     17  C   UNL     1      10.723 105.662   3.306  1.00  0.00     0.047 A 
BRANCH  15  18
ATOM     18  O   UNL     1       9.414 106.180   5.264  1.00  0.00    -0.508 OA
ATOM     19  H   UNL     1       9.714 106.125   6.231  1.00  0.00     0.293 HD
ENDBRANCH  15  18
ENDBRANCH   1  12
BRANCH  11  20
ATOM     20  C   UNL     1      11.564  98.223  -1.523  1.00  0.00     0.188 C 
ATOM     21  C   UNL     1      12.497  97.005  -1.272  1.00  0.00     0.179 C 
ATOM     22  O   UNL     1      10.434  98.293  -0.655  1.00  0.00    -0.362 OA
ATOM     23  C   UNL     1      11.707  95.677  -1.390  1.00  0.00     0.177 C 
ATOM     24  C   UNL     1      10.072  97.070  -0.022  1.00  0.00     0.176 C 
ATOM     25  C   UNL     1      10.226  95.847  -0.963  1.00  0.00     0.177 C 
BRANCH  21  26
ATOM     26  O   UNL     1      13.621  97.011  -2.121  1.00  0.00    -0.387 OA
ATOM     27  H   UNL     1      14.431  97.124  -1.559  1.00  0.00     0.211 HD
ENDBRANCH  21  26
BRANCH  23  28
ATOM     28  O   UNL     1      11.785  95.129  -2.684  1.00  0.00    -0.387 OA
ATOM     29  H   UNL     1      11.350  94.238  -2.662  1.00  0.00     0.211 HD
ENDBRANCH  23  28
BRANCH  24  30
ATOM     30  C   UNL     1       8.625  97.218   0.475  1.00  0.00     0.191 C 
BRANCH  30  31
ATOM     31  O   UNL     1       8.270  96.140   1.302  1.00  0.00    -0.394 OA
ATOM     32  H   UNL     1       7.306  96.239   1.517  1.00  0.00     0.210 HD
ENDBRANCH  30  31
ENDBRANCH  24  30
BRANCH  25  33
ATOM     33  O   UNL     1       9.789  94.677  -0.320  1.00  0.00    -0.388 OA
ATOM     34  H   UNL     1       9.193  94.205  -0.959  1.00  0.00     0.211 HD
ENDBRANCH  25  33
ENDBRANCH  11  20
BRANCH  10  35
ATOM     35  O   UNL     1      13.808  98.820  -3.240  1.00  0.00    -0.507 OA
ATOM     36  H   UNL     1      14.361  99.067  -4.053  1.00  0.00     0.293 HD
ENDBRANCH  10  35
TORSDOF 9
ENDMDL
MODEL 4
REMARK VINA RESULT:    71.815      3.140      5.374
REMARK INTER + INTRA:          96.769
REMARK INTER:                  96.681
REMARK INTRA:                   0.088
REMARK UNBOUND:                -0.237
REMARK SMILES O=c1c(-c2ccc(O)cc2)coc2c([C@@H]3O[C@@H](CO)[C@H](O)[C@@H](O)[C@H]3O)c(O)ccc12
REMARK SMILES IDX 3 1 11 2 12 3 13 4 30 5 2 6 1 7 29 8 28 9 26 10 14 11 4 12
REMARK SMILES IDX 5 13 6 14 7 15 10 16 9 17 8 18 15 20 24 21 16 22 22 23 17 24
REMARK SMILES IDX 20 25 25 26 23 28 18 30 19 31 21 33 27 35
REMARK H PARENT 8 19 25 27 23 29 19 32 21 34 27 36
REMARK Flexibility Score: inf
ROOT
ATOM      1  C   UNL     1       9.143  96.190   0.283  1.00  0.00     0.065 A 
ATOM      2  C   UNL     1       9.729  97.433   0.565  1.00  0.00     0.208 A 
ATOM      3  O   UNL     1      10.875  97.790  -0.000  1.00  0.00    -0.463 OA
ATOM      4  C   UNL     1      11.539  97.015  -0.855  1.00  0.00     0.147 A 
ATOM      5  C   UNL     1      11.022  95.743  -1.193  1.00  0.00     0.066 A 
ATOM      6  C   UNL     1       9.810  95.330  -0.609  1.00  0.00     0.200 A 
ATOM      7  O   UNL     1       9.336  94.189  -0.864  1.00  0.00    -0.288 OA
ATOM      8  C   UNL     1      11.730  94.921  -2.085  1.00  0.00     0.020 A 
ATOM      9  C   UNL     1      12.936  95.354  -2.630  1.00  0.00     0.047 A 
ATOM     10  C   UNL     1      13.459  96.609  -2.300  1.00  0.00     0.125 A 
ATOM     11  C   UNL     1      12.758  97.461  -1.415  1.00  0.00     0.069 A 
ENDROOT
BRANCH   1  12
ATOM     12  C   UNL     1       7.859  95.813   0.927  1.00  0.00    -0.011 A 
ATOM     13  C   UNL     1       6.895  96.796   1.213  1.00  0.00     0.013 A 
ATOM     14  C   UNL     1       5.682  96.443   1.813  1.00  0.00     0.047 A 
ATOM     15  C   UNL     1       5.417  95.106   2.131  1.00  0.00     0.115 A 
ATOM     16  C   UNL     1       7.582  94.471   1.243  1.00  0.00     0.013 A 
ATOM     17  C   UNL     1       6.368  94.123   1.844  1.00  0.00     0.047 A 
BRANCH  15  18
ATOM     18  O   UNL     1       4.212  94.742   2.730  1.00  0.00    -0.508 OA
ATOM     19  H   UNL     1       4.103  94.738   3.738  1.00  0.00     0.293 HD
ENDBRANCH  15  18
ENDBRANCH   1  12
BRANCH  11  20
ATOM     20  C   UNL     1      13.343  98.811  -1.026  1.00  0.00     0.188 C 
ATOM     21  C   UNL     1      12.624  99.949  -1.802  1.00  0.00     0.179 C 
ATOM     22  O   UNL     1      13.302  98.942   0.394  1.00  0.00    -0.362 OA
ATOM     23  C   UNL     1      13.216 101.329  -1.422  1.00  0.00     0.177 C 
ATOM     24  C   UNL     1      13.034 100.254   0.879  1.00  0.00     0.176 C 
ATOM     25  C   UNL     1      13.736 101.352   0.039  1.00  0.00     0.177 C 
BRANCH  21  26
ATOM     26  O   UNL     1      12.650  99.745  -3.195  1.00  0.00    -0.387 OA
ATOM     27  H   UNL     1      12.453 100.611  -3.638  1.00  0.00     0.211 HD
ENDBRANCH  21  26
BRANCH  23  28
ATOM     28  O   UNL     1      14.231 101.731  -2.310  1.00  0.00    -0.387 OA
ATOM     29  H   UNL     1      14.982 102.089  -1.769  1.00  0.00     0.211 HD
ENDBRANCH  23  28
BRANCH  24  30
ATOM     30  C   UNL     1      13.477 100.301   2.350  1.00  0.00     0.191 C 
BRANCH  30  31
ATOM     31  O   UNL     1      14.551 101.190   2.518  1.00  0.00    -0.394 OA
ATOM     32  H   UNL     1      14.196 102.000   2.968  1.00  0.00     0.210 HD
ENDBRANCH  30  31
ENDBRANCH  24  30
BRANCH  25  33
ATOM     33  O   UNL     1      13.502 102.620   0.598  1.00  0.00    -0.388 OA
ATOM     34  H   UNL     1      12.561 102.623   0.916  1.00  0.00     0.211 HD
ENDBRANCH  25  33
ENDBRANCH  11  20
BRANCH  10  35
ATOM     35  O   UNL     1      14.678  97.010  -2.847  1.00  0.00    -0.507 OA
ATOM     36  H   UNL     1      14.931  96.792  -3.804  1.00  0.00     0.293 HD
ENDBRANCH  10  35
TORSDOF 9
ENDMDL
