MODEL 1
REMARK VINA RESULT:    10.498      0.000      0.000
REMARK INTER + INTRA:          35.284
REMARK INTER:                  24.920
REMARK INTRA:                  10.365
REMARK UNBOUND:                10.365
REMARK SMILES O=C(OC[C@H]1O[C@H](OC(=O)c2cc(O)c(O)c(O)c2)[C@H](OC(=O)c2cc(O)c(O)c(O)c2)[C@@H](OC(=O)c2cc(O)c(O)c(O)c2)[C@H]1OC(=O)c1cc(O)c(O)c(O)c1)c1cc(O)c(O)c(O)c1
REMARK SMILES IDX 5 1 46 2 33 3 20 4 7 5 6 6 4 7 3 8 2 9 1 10 59 11 60 12
REMARK SMILES IDX 61 13 67 14 63 15 65 16 62 17 64 19 66 21 47 23 48 24 49 25
REMARK SMILES IDX 50 26 58 27 51 28 56 29 52 30 54 31 57 32 53 34 55 36 34 38
REMARK SMILES IDX 35 39 36 40 37 41 45 42 38 43 43 44 39 45 41 46 44 47 40 49
REMARK SMILES IDX 42 51 8 53 9 54 10 55 11 56 19 57 12 58 17 59 13 60 15 61
REMARK SMILES IDX 18 62 14 64 16 66 21 68 22 69 23 70 24 71 32 72 25 73 30 74
REMARK SMILES IDX 26 75 28 76 31 77 27 79 29 81
REMARK H PARENT 62 18 64 20 66 22 57 33 53 35 55 37 44 48 40 50 42 52 18 63
REMARK H PARENT 14 65 16 67 31 78 27 80 29 82
REMARK Flexibility Score: inf
ROOT
ATOM      1  C   UNL     1      72.056  39.877  20.701  1.00  0.00     0.205 C 
ATOM      2  C   UNL     1      73.399  40.618  20.566  1.00  0.00     0.254 C 
ATOM      3  C   UNL     1      73.828  41.053  21.971  1.00  0.00     0.267 C 
ATOM      4  C   UNL     1      73.920  39.819  22.889  1.00  0.00     0.290 C 
ATOM      5  C   UNL     1      72.595  39.025  22.824  1.00  0.00     0.357 C 
ATOM      6  O   UNL     1      72.222  38.706  21.489  1.00  0.00    -0.329 OA
ENDROOT
BRANCH   1   7
ATOM      7  C   UNL     1      71.462  39.487  19.335  1.00  0.00     0.269 C 
BRANCH   7   8
ATOM      8  O   UNL     1      71.135  40.666  18.606  1.00  0.00    -0.459 OA
BRANCH   8   9
ATOM      9  C   UNL     1      69.832  40.938  18.165  1.00  0.00     0.338 C 
ATOM     10  O   UNL     1      69.500  42.124  17.877  1.00  0.00    -0.246 OA
BRANCH   9  11
ATOM     11  C   UNL     1      68.842  39.846  18.070  1.00  0.00     0.067 A 
ATOM     12  C   UNL     1      67.472  40.138  18.011  1.00  0.00     0.066 A 
ATOM     13  C   UNL     1      66.521  39.116  17.973  1.00  0.00     0.162 A 
ATOM     14  C   UNL     1      69.260  38.500  18.083  1.00  0.00     0.066 A 
ATOM     15  C   UNL     1      66.940  37.765  18.023  1.00  0.00     0.200 A 
ATOM     16  C   UNL     1      68.315  37.468  18.071  1.00  0.00     0.162 A 
BRANCH  13  17
ATOM     17  O   UNL     1      65.179  39.484  17.876  1.00  0.00    -0.504 OA
ATOM     18  H   UNL     1      64.842  40.415  18.055  1.00  0.00     0.293 HD
ENDBRANCH  13  17
BRANCH  15  19
ATOM     19  O   UNL     1      66.028  36.705  18.032  1.00  0.00    -0.502 OA
ATOM     20  H   UNL     1      65.754  36.180  17.216  1.00  0.00     0.293 HD
ENDBRANCH  15  19
BRANCH  16  21
ATOM     21  O   UNL     1      68.766  36.149  18.112  1.00  0.00    -0.504 OA
ATOM     22  H   UNL     1      68.461  35.498  18.826  1.00  0.00     0.293 HD
ENDBRANCH  16  21
ENDBRANCH   9  11
ENDBRANCH   8   9
ENDBRANCH   7   8
ENDBRANCH   1   7
BRANCH   2  23
ATOM     23  O   UNL     1      74.393  39.746  20.026  1.00  0.00    -0.452 OA
BRANCH  23  24
ATOM     24  C   UNL     1      74.137  38.754  19.069  1.00  0.00     0.338 C 
ATOM     25  O   UNL     1      74.582  38.882  17.900  1.00  0.00    -0.246 OA
BRANCH  24  26
ATOM     26  C   UNL     1      73.359  37.555  19.453  1.00  0.00     0.067 A 
ATOM     27  C   UNL     1      73.615  36.887  20.665  1.00  0.00     0.066 A 
ATOM     28  C   UNL     1      72.388  37.037  18.581  1.00  0.00     0.066 A 
ATOM     29  C   UNL     1      72.921  35.710  20.992  1.00  0.00     0.162 A 
ATOM     30  C   UNL     1      71.687  35.871  18.907  1.00  0.00     0.162 A 
ATOM     31  C   UNL     1      71.952  35.202  20.111  1.00  0.00     0.200 A 
BRANCH  29  32
ATOM     32  O   UNL     1      73.196  35.042  22.182  1.00  0.00    -0.504 OA
ATOM     33  H   UNL     1      74.137  34.752  22.422  1.00  0.00     0.293 HD
ENDBRANCH  29  32
BRANCH  30  34
ATOM     34  O   UNL     1      70.734  35.388  18.014  1.00  0.00    -0.504 OA
ATOM     35  H   UNL     1      70.990  34.865  17.182  1.00  0.00     0.293 HD
ENDBRANCH  30  34
BRANCH  31  36
ATOM     36  O   UNL     1      71.250  34.036  20.410  1.00  0.00    -0.502 OA
ATOM     37  H   UNL     1      70.514  34.010  21.104  1.00  0.00     0.293 HD
ENDBRANCH  31  36
ENDBRANCH  24  26
ENDBRANCH  23  24
ENDBRANCH   2  23
BRANCH   3  38
ATOM     38  O   UNL     1      75.071  41.752  21.919  1.00  0.00    -0.450 OA
BRANCH  38  39
ATOM     39  C   UNL     1      75.798  41.910  20.731  1.00  0.00     0.338 C 
ATOM     40  O   UNL     1      75.195  42.124  19.644  1.00  0.00    -0.246 OA
BRANCH  39  41
ATOM     41  C   UNL     1      77.277  41.846  20.751  1.00  0.00     0.067 A 
ATOM     42  C   UNL     1      77.963  41.651  21.962  1.00  0.00     0.066 A 
ATOM     43  C   UNL     1      78.009  41.976  19.560  1.00  0.00     0.066 A 
ATOM     44  C   UNL     1      79.359  41.592  21.986  1.00  0.00     0.162 A 
ATOM     45  C   UNL     1      79.407  41.923  19.571  1.00  0.00     0.162 A 
ATOM     46  C   UNL     1      80.094  41.738  20.799  1.00  0.00     0.200 A 
BRANCH  44  47
ATOM     47  O   UNL     1      80.022  41.384  23.197  1.00  0.00    -0.504 OA
ATOM     48  H   UNL     1      79.996  40.485  23.672  1.00  0.00     0.293 HD
ENDBRANCH  44  47
BRANCH  45  49
ATOM     49  O   UNL     1      80.067  42.060  18.350  1.00  0.00    -0.504 OA
ATOM     50  H   UNL     1      80.661  41.351  17.944  1.00  0.00     0.293 HD
ENDBRANCH  45  49
BRANCH  46  51
ATOM     51  O   UNL     1      81.488  41.698  20.887  1.00  0.00    -0.502 OA
ATOM     52  H   UNL     1      81.999  41.786  21.758  1.00  0.00     0.293 HD
ENDBRANCH  46  51
ENDBRANCH  39  41
ENDBRANCH  38  39
ENDBRANCH   3  38
BRANCH   5  53
ATOM     53  O   UNL     1      71.553  39.738  23.487  1.00  0.00    -0.428 OA
BRANCH  53  54
ATOM     54  C   UNL     1      70.627  40.545  22.818  1.00  0.00     0.340 C 
ATOM     55  O   UNL     1      70.840  41.775  22.666  1.00  0.00    -0.246 OA
BRANCH  54  56
ATOM     56  C   UNL     1      69.396  39.941  22.283  1.00  0.00     0.067 A 
ATOM     57  C   UNL     1      69.061  38.614  22.580  1.00  0.00     0.066 A 
ATOM     58  C   UNL     1      68.539  40.700  21.479  1.00  0.00     0.066 A 
ATOM     59  C   UNL     1      67.868  38.049  22.112  1.00  0.00     0.162 A 
ATOM     60  C   UNL     1      67.359  40.149  20.978  1.00  0.00     0.162 A 
ATOM     61  C   UNL     1      67.000  38.823  21.301  1.00  0.00     0.200 A 
BRANCH  59  62
ATOM     62  O   UNL     1      67.590  36.729  22.482  1.00  0.00    -0.504 OA
ATOM     63  H   UNL     1      67.859  36.321  23.371  1.00  0.00     0.293 HD
ENDBRANCH  59  62
BRANCH  60  64
ATOM     64  O   UNL     1      66.556  40.935  20.151  1.00  0.00    -0.504 OA
ATOM     65  H   UNL     1      66.464  40.749  19.157  1.00  0.00     0.293 HD
ENDBRANCH  60  64
BRANCH  61  66
ATOM     66  O   UNL     1      65.788  38.317  20.809  1.00  0.00    -0.502 OA
ATOM     67  H   UNL     1      65.105  37.831  21.374  1.00  0.00     0.293 HD
ENDBRANCH  61  66
ENDBRANCH  54  56
ENDBRANCH  53  54
ENDBRANCH   5  53
BRANCH   4  68
ATOM     68  O   UNL     1      74.128  40.226  24.240  1.00  0.00    -0.448 OA
BRANCH  68  69
ATOM     69  C   UNL     1      75.386  40.416  24.819  1.00  0.00     0.339 C 
ATOM     70  O   UNL     1      76.154  41.322  24.391  1.00  0.00    -0.246 OA
BRANCH  69  71
ATOM     71  C   UNL     1      75.818  39.537  25.926  1.00  0.00     0.067 A 
ATOM     72  C   UNL     1      76.670  38.450  25.693  1.00  0.00     0.066 A 
ATOM     73  C   UNL     1      75.382  39.787  27.237  1.00  0.00     0.066 A 
ATOM     74  C   UNL     1      77.096  37.631  26.750  1.00  0.00     0.162 A 
ATOM     75  C   UNL     1      75.802  38.980  28.298  1.00  0.00     0.162 A 
ATOM     76  C   UNL     1      76.663  37.898  28.059  1.00  0.00     0.200 A 
BRANCH  74  77
ATOM     77  O   UNL     1      77.955  36.560  26.505  1.00  0.00    -0.504 OA
ATOM     78  H   UNL     1      78.529  36.162  27.242  1.00  0.00     0.293 HD
ENDBRANCH  74  77
BRANCH  75  79
ATOM     79  O   UNL     1      75.356  39.271  29.588  1.00  0.00    -0.504 OA
ATOM     80  H   UNL     1      74.412  39.578  29.777  1.00  0.00     0.293 HD
ENDBRANCH  75  79
BRANCH  76  81
ATOM     81  O   UNL     1      77.078  37.097  29.124  1.00  0.00    -0.502 OA
ATOM     82  H   UNL     1      77.270  36.112  29.020  1.00  0.00     0.293 HD
ENDBRANCH  76  81
ENDBRANCH  69  71
ENDBRANCH  68  69
ENDBRANCH   4  68
TORSDOF 31
ENDMDL
MODEL 2
REMARK VINA RESULT:    12.487      1.784      9.017
REMARK INTER + INTRA:          40.006
REMARK INTER:                  33.534
REMARK INTRA:                   6.472
REMARK UNBOUND:                10.365
REMARK SMILES O=C(OC[C@H]1O[C@H](OC(=O)c2cc(O)c(O)c(O)c2)[C@H](OC(=O)c2cc(O)c(O)c(O)c2)[C@@H](OC(=O)c2cc(O)c(O)c(O)c2)[C@H]1OC(=O)c1cc(O)c(O)c(O)c1)c1cc(O)c(O)c(O)c1
REMARK SMILES IDX 5 1 46 2 33 3 20 4 7 5 6 6 4 7 3 8 2 9 1 10 59 11 60 12
REMARK SMILES IDX 61 13 67 14 63 15 65 16 62 17 64 19 66 21 47 23 48 24 49 25
REMARK SMILES IDX 50 26 58 27 51 28 56 29 52 30 54 31 57 32 53 34 55 36 34 38
REMARK SMILES IDX 35 39 36 40 37 41 45 42 38 43 43 44 39 45 41 46 44 47 40 49
REMARK SMILES IDX 42 51 8 53 9 54 10 55 11 56 19 57 12 58 17 59 13 60 15 61
REMARK SMILES IDX 18 62 14 64 16 66 21 68 22 69 23 70 24 71 32 72 25 73 30 74
REMARK SMILES IDX 26 75 28 76 31 77 27 79 29 81
REMARK H PARENT 62 18 64 20 66 22 57 33 53 35 55 37 44 48 40 50 42 52 18 63
REMARK H PARENT 14 65 16 67 31 78 27 80 29 82
REMARK Flexibility Score: inf
ROOT
ATOM      1  C   UNL     1      73.511  39.943  23.553  1.00  0.00     0.205 C 
ATOM      2  C   UNL     1      74.030  40.570  22.247  1.00  0.00     0.254 C 
ATOM      3  C   UNL     1      72.811  40.885  21.373  1.00  0.00     0.267 C 
ATOM      4  C   UNL     1      71.852  41.815  22.138  1.00  0.00     0.290 C 
ATOM      5  C   UNL     1      71.527  41.202  23.520  1.00  0.00     0.357 C 
ATOM      6  O   UNL     1      72.701  40.876  24.255  1.00  0.00    -0.329 OA
ENDROOT
BRANCH   1   7
ATOM      7  C   UNL     1      74.654  39.475  24.473  1.00  0.00     0.269 C 
BRANCH   7   8
ATOM      8  O   UNL     1      74.507  40.075  25.756  1.00  0.00    -0.459 OA
BRANCH   8   9
ATOM      9  C   UNL     1      74.830  39.400  26.941  1.00  0.00     0.338 C 
ATOM     10  O   UNL     1      74.993  38.146  26.927  1.00  0.00    -0.246 OA
BRANCH   9  11
ATOM     11  C   UNL     1      74.947  40.149  28.209  1.00  0.00     0.067 A 
ATOM     12  C   UNL     1      76.209  40.441  28.744  1.00  0.00     0.066 A 
ATOM     13  C   UNL     1      76.335  41.103  29.967  1.00  0.00     0.162 A 
ATOM     14  C   UNL     1      73.792  40.540  28.916  1.00  0.00     0.066 A 
ATOM     15  C   UNL     1      75.175  41.461  30.694  1.00  0.00     0.200 A 
ATOM     16  C   UNL     1      73.906  41.181  30.155  1.00  0.00     0.162 A 
BRANCH  13  17
ATOM     17  O   UNL     1      77.624  41.392  30.416  1.00  0.00    -0.504 OA
ATOM     18  H   UNL     1      77.850  41.584  31.377  1.00  0.00     0.293 HD
ENDBRANCH  13  17
BRANCH  15  19
ATOM     19  O   UNL     1      75.246  42.086  31.943  1.00  0.00    -0.502 OA
ATOM     20  H   UNL     1      75.771  41.734  32.729  1.00  0.00     0.293 HD
ENDBRANCH  15  19
BRANCH  16  21
ATOM     21  O   UNL     1      72.740  41.528  30.838  1.00  0.00    -0.504 OA
ATOM     22  H   UNL     1      72.073  42.190  30.461  1.00  0.00     0.293 HD
ENDBRANCH  16  21
ENDBRANCH   9  11
ENDBRANCH   8   9
ENDBRANCH   7   8
ENDBRANCH   1   7
BRANCH   2  23
ATOM     23  O   UNL     1      74.729  41.785  22.524  1.00  0.00    -0.452 OA
BRANCH  23  24
ATOM     24  C   UNL     1      76.090  41.854  22.852  1.00  0.00     0.338 C 
ATOM     25  O   UNL     1      76.439  41.971  24.055  1.00  0.00    -0.246 OA
BRANCH  24  26
ATOM     26  C   UNL     1      77.103  41.768  21.778  1.00  0.00     0.067 A 
ATOM     27  C   UNL     1      78.474  41.685  22.084  1.00  0.00     0.066 A 
ATOM     28  C   UNL     1      76.708  41.826  20.431  1.00  0.00     0.066 A 
ATOM     29  C   UNL     1      79.436  41.673  21.060  1.00  0.00     0.162 A 
ATOM     30  C   UNL     1      77.662  41.805  19.408  1.00  0.00     0.162 A 
ATOM     31  C   UNL     1      79.028  41.731  19.717  1.00  0.00     0.200 A 
BRANCH  29  32
ATOM     32  O   UNL     1      80.792  41.612  21.373  1.00  0.00    -0.504 OA
ATOM     33  H   UNL     1      81.398  40.910  20.964  1.00  0.00     0.293 HD
ENDBRANCH  29  32
BRANCH  30  34
ATOM     34  O   UNL     1      77.230  41.867  18.085  1.00  0.00    -0.504 OA
ATOM     35  H   UNL     1      77.347  41.089  17.442  1.00  0.00     0.293 HD
ENDBRANCH  30  34
BRANCH  31  36
ATOM     36  O   UNL     1      79.961  41.723  18.683  1.00  0.00    -0.502 OA
ATOM     37  H   UNL     1      80.445  40.881  18.396  1.00  0.00     0.293 HD
ENDBRANCH  31  36
ENDBRANCH  24  26
ENDBRANCH  23  24
ENDBRANCH   2  23
BRANCH   3  38
ATOM     38  O   UNL     1      73.222  41.470  20.137  1.00  0.00    -0.450 OA
BRANCH  38  39
ATOM     39  C   UNL     1      73.930  40.754  19.161  1.00  0.00     0.338 C 
ATOM     40  O   UNL     1      74.747  41.352  18.409  1.00  0.00    -0.246 OA
BRANCH  39  41
ATOM     41  C   UNL     1      73.736  39.294  19.024  1.00  0.00     0.067 A 
ATOM     42  C   UNL     1      72.469  38.722  19.234  1.00  0.00     0.066 A 
ATOM     43  C   UNL     1      74.815  38.464  18.679  1.00  0.00     0.066 A 
ATOM     44  C   UNL     1      72.281  37.344  19.106  1.00  0.00     0.162 A 
ATOM     45  C   UNL     1      74.641  37.082  18.552  1.00  0.00     0.162 A 
ATOM     46  C   UNL     1      73.362  36.510  18.778  1.00  0.00     0.200 A 
BRANCH  44  47
ATOM     47  O   UNL     1      71.012  36.797  19.306  1.00  0.00    -0.504 OA
ATOM     48  H   UNL     1      70.873  35.966  19.876  1.00  0.00     0.293 HD
ENDBRANCH  44  47
BRANCH  45  49
ATOM     49  O   UNL     1      75.758  36.320  18.207  1.00  0.00    -0.504 OA
ATOM     50  H   UNL     1      75.740  35.320  18.068  1.00  0.00     0.293 HD
ENDBRANCH  45  49
BRANCH  46  51
ATOM     51  O   UNL     1      73.122  35.136  18.691  1.00  0.00    -0.502 OA
ATOM     52  H   UNL     1      72.195  34.724  18.724  1.00  0.00     0.293 HD
ENDBRANCH  46  51
ENDBRANCH  39  41
ENDBRANCH  38  39
ENDBRANCH   3  38
BRANCH   5  53
ATOM     53  O   UNL     1      70.685  40.060  23.372  1.00  0.00    -0.428 OA
BRANCH  53  54
ATOM     54  C   UNL     1      69.569  40.031  22.528  1.00  0.00     0.340 C 
ATOM     55  O   UNL     1      68.961  41.091  22.232  1.00  0.00    -0.246 OA
BRANCH  54  56
ATOM     56  C   UNL     1      69.113  38.744  21.979  1.00  0.00     0.067 A 
ATOM     57  C   UNL     1      67.793  38.578  21.542  1.00  0.00     0.066 A 
ATOM     58  C   UNL     1      70.008  37.673  21.877  1.00  0.00     0.066 A 
ATOM     59  C   UNL     1      67.368  37.369  20.976  1.00  0.00     0.162 A 
ATOM     60  C   UNL     1      69.599  36.451  21.343  1.00  0.00     0.162 A 
ATOM     61  C   UNL     1      68.280  36.288  20.871  1.00  0.00     0.200 A 
BRANCH  59  62
ATOM     62  O   UNL     1      66.043  37.296  20.532  1.00  0.00    -0.504 OA
ATOM     63  H   UNL     1      65.520  36.431  20.452  1.00  0.00     0.293 HD
ENDBRANCH  59  62
BRANCH  60  64
ATOM     64  O   UNL     1      70.519  35.403  21.297  1.00  0.00    -0.504 OA
ATOM     65  H   UNL     1      71.438  35.515  20.882  1.00  0.00     0.293 HD
ENDBRANCH  60  64
BRANCH  61  66
ATOM     66  O   UNL     1      67.915  35.057  20.307  1.00  0.00    -0.502 OA
ATOM     67  H   UNL     1      68.561  34.433  19.841  1.00  0.00     0.293 HD
ENDBRANCH  61  66
ENDBRANCH  54  56
ENDBRANCH  53  54
ENDBRANCH   5  53
BRANCH   4  68
ATOM     68  O   UNL     1      70.630  41.962  21.418  1.00  0.00    -0.448 OA
BRANCH  68  69
ATOM     69  C   UNL     1      70.503  41.779  20.038  1.00  0.00     0.339 C 
ATOM     70  O   UNL     1      71.440  42.121  19.263  1.00  0.00    -0.246 OA
BRANCH  69  71
ATOM     71  C   UNL     1      69.260  41.197  19.492  1.00  0.00     0.067 A 
ATOM     72  C   UNL     1      69.252  39.917  18.924  1.00  0.00     0.066 A 
ATOM     73  C   UNL     1      68.058  41.923  19.543  1.00  0.00     0.066 A 
ATOM     74  C   UNL     1      68.065  39.359  18.426  1.00  0.00     0.162 A 
ATOM     75  C   UNL     1      66.869  41.375  19.054  1.00  0.00     0.162 A 
ATOM     76  C   UNL     1      66.867  40.089  18.494  1.00  0.00     0.200 A 
BRANCH  74  77
ATOM     77  O   UNL     1      68.068  38.077  17.875  1.00  0.00    -0.504 OA
ATOM     78  H   UNL     1      68.589  37.865  17.030  1.00  0.00     0.293 HD
ENDBRANCH  74  77
BRANCH  75  79
ATOM     79  O   UNL     1      65.694  42.125  19.136  1.00  0.00    -0.504 OA
ATOM     80  H   UNL     1      65.651  43.010  19.622  1.00  0.00     0.293 HD
ENDBRANCH  75  79
BRANCH  76  81
ATOM     81  O   UNL     1      65.674  39.549  18.007  1.00  0.00    -0.502 OA
ATOM     82  H   UNL     1      65.520  39.370  17.027  1.00  0.00     0.293 HD
ENDBRANCH  76  81
ENDBRANCH  69  71
ENDBRANCH  68  69
ENDBRANCH   4  68
TORSDOF 31
ENDMDL
