MODEL 1
REMARK VINA RESULT:    -5.413      0.000      0.000
REMARK INTER + INTRA:          -6.796
REMARK INTER:                  -6.363
REMARK INTRA:                  -0.433
REMARK UNBOUND:                -0.433
REMARK SMILES CCC=Cc1oc(O)c2ccc(O)cc12
REMARK SMILES IDX 7 1 6 2 5 3 15 4 14 5 12 6 11 7 10 8 9 9 8 10 4 12 3 13 2 14
REMARK SMILES IDX 1 15 13 16
REMARK H PARENT 8 11 13 17
REMARK Flexibility Score: inf
ROOT
ATOM      1  C   UNL     1      17.555 -48.883   4.806  1.00  0.00     0.290 A 
ATOM      2  O   UNL     1      16.455 -48.188   4.593  1.00  0.00    -0.425 OA
ATOM      3  C   UNL     1      15.678 -48.277   5.659  1.00  0.00     0.138 A 
ATOM      4  C   UNL     1      16.309 -49.072   6.603  1.00  0.00     0.035 A 
ATOM      5  C   UNL     1      15.927 -49.477   7.884  1.00  0.00     0.059 A 
ATOM      6  C   UNL     1      16.814 -50.302   8.608  1.00  0.00     0.116 A 
ATOM      7  C   UNL     1      18.047 -50.694   8.037  1.00  0.00     0.047 A 
ATOM      8  C   UNL     1      18.405 -50.269   6.744  1.00  0.00     0.020 A 
ATOM      9  C   UNL     1      17.506 -49.455   6.057  1.00  0.00     0.067 A 
ENDROOT
BRANCH   1  10
ATOM     10  O   UNL     1      18.589 -48.998   3.882  1.00  0.00    -0.480 OA
ATOM     11  H   UNL     1      19.517 -49.286   4.165  1.00  0.00     0.297 HD
ENDBRANCH   1  10
BRANCH   3  12
ATOM     12  C   UNL     1      14.349 -47.644   5.810  1.00  0.00     0.043 C 
ATOM     13  C   UNL     1      14.120 -46.407   6.277  1.00  0.00    -0.023 C 
BRANCH  13  14
ATOM     14  C   UNL     1      15.168 -45.450   6.774  1.00  0.00     0.024 C 
ATOM     15  C   UNL     1      15.465 -44.364   5.742  1.00  0.00     0.008 C 
ENDBRANCH  13  14
ENDBRANCH   3  12
BRANCH   6  16
ATOM     16  O   UNL     1      16.486 -50.737   9.889  1.00  0.00    -0.508 OA
ATOM     17  H   UNL     1      16.833 -51.616  10.255  1.00  0.00     0.293 HD
ENDBRANCH   6  16
TORSDOF 4
ENDMDL
MODEL 2
REMARK VINA RESULT:    -5.379      2.368      3.994
REMARK INTER + INTRA:          -6.756
REMARK INTER:                  -6.211
REMARK INTRA:                  -0.545
REMARK UNBOUND:                -0.433
REMARK SMILES CCC=Cc1oc(O)c2ccc(O)cc12
REMARK SMILES IDX 7 1 6 2 5 3 15 4 14 5 12 6 11 7 10 8 9 9 8 10 4 12 3 13 2 14
REMARK SMILES IDX 1 15 13 16
REMARK H PARENT 8 11 13 17
REMARK Flexibility Score: inf
ROOT
ATOM      1  C   UNL     1      15.651 -52.854   7.822  1.00  0.00     0.290 A 
ATOM      2  O   UNL     1      14.429 -52.382   7.676  1.00  0.00    -0.425 OA
ATOM      3  C   UNL     1      14.495 -51.183   7.123  1.00  0.00     0.138 A 
ATOM      4  C   UNL     1      15.827 -50.867   6.907  1.00  0.00     0.035 A 
ATOM      5  C   UNL     1      16.438 -49.738   6.356  1.00  0.00     0.059 A 
ATOM      6  C   UNL     1      17.847 -49.725   6.271  1.00  0.00     0.116 A 
ATOM      7  C   UNL     1      18.598 -50.831   6.733  1.00  0.00     0.047 A 
ATOM      8  C   UNL     1      17.953 -51.955   7.282  1.00  0.00     0.020 A 
ATOM      9  C   UNL     1      16.561 -51.935   7.351  1.00  0.00     0.067 A 
ENDROOT
BRANCH   1  10
ATOM     10  O   UNL     1      15.939 -54.099   8.373  1.00  0.00    -0.480 OA
ATOM     11  H   UNL     1      16.894 -54.394   8.534  1.00  0.00     0.297 HD
ENDBRANCH   1  10
BRANCH   3  12
ATOM     12  C   UNL     1      13.337 -50.318   6.805  1.00  0.00     0.043 C 
ATOM     13  C   UNL     1      12.883 -49.308   7.562  1.00  0.00    -0.023 C 
BRANCH  13  14
ATOM     14  C   UNL     1      13.441 -48.891   8.895  1.00  0.00     0.024 C 
ATOM     15  C   UNL     1      14.381 -47.696   8.757  1.00  0.00     0.008 C 
ENDBRANCH  13  14
ENDBRANCH   3  12
BRANCH   6  16
ATOM     16  O   UNL     1      18.510 -48.626   5.731  1.00  0.00    -0.508 OA
ATOM     17  H   UNL     1      18.032 -47.748   5.569  1.00  0.00     0.293 HD
ENDBRANCH   6  16
TORSDOF 4
ENDMDL
MODEL 3
REMARK VINA RESULT:    -5.314      2.371      2.626
REMARK INTER + INTRA:          -6.680
REMARK INTER:                  -6.293
REMARK INTRA:                  -0.387
REMARK UNBOUND:                -0.433
REMARK SMILES CCC=Cc1oc(O)c2ccc(O)cc12
REMARK SMILES IDX 7 1 6 2 5 3 15 4 14 5 12 6 11 7 10 8 9 9 8 10 4 12 3 13 2 14
REMARK SMILES IDX 1 15 13 16
REMARK H PARENT 8 11 13 17
REMARK Flexibility Score: inf
ROOT
ATOM      1  C   UNL     1      17.316 -49.195   6.044  1.00  0.00     0.290 A 
ATOM      2  O   UNL     1      16.141 -48.600   5.986  1.00  0.00    -0.425 OA
ATOM      3  C   UNL     1      15.225 -49.407   6.495  1.00  0.00     0.138 A 
ATOM      4  C   UNL     1      15.842 -50.580   6.897  1.00  0.00     0.035 A 
ATOM      5  C   UNL     1      15.339 -51.741   7.488  1.00  0.00     0.059 A 
ATOM      6  C   UNL     1      16.248 -52.779   7.784  1.00  0.00     0.116 A 
ATOM      7  C   UNL     1      17.621 -52.629   7.484  1.00  0.00     0.047 A 
ATOM      8  C   UNL     1      18.100 -51.447   6.888  1.00  0.00     0.020 A 
ATOM      9  C   UNL     1      17.175 -50.442   6.610  1.00  0.00     0.067 A 
ENDROOT
BRANCH   1  10
ATOM     10  O   UNL     1      18.499 -48.619   5.592  1.00  0.00    -0.480 OA
ATOM     11  H   UNL     1      19.379 -49.116   5.645  1.00  0.00     0.297 HD
ENDBRANCH   1  10
BRANCH   3  12
ATOM     12  C   UNL     1      13.780 -49.107   6.602  1.00  0.00     0.043 C 
ATOM     13  C   UNL     1      13.167 -48.580   7.673  1.00  0.00    -0.023 C 
BRANCH  13  14
ATOM     14  C   UNL     1      13.828 -48.235   8.979  1.00  0.00     0.024 C 
ATOM     15  C   UNL     1      12.878 -47.469   9.898  1.00  0.00     0.008 C 
ENDBRANCH  13  14
ENDBRANCH   3  12
BRANCH   6  16
ATOM     16  O   UNL     1      15.802 -53.959   8.374  1.00  0.00    -0.508 OA
ATOM     17  H   UNL     1      15.965 -54.861   7.943  1.00  0.00     0.293 HD
ENDBRANCH   6  16
TORSDOF 4
ENDMDL
MODEL 4
REMARK VINA RESULT:    -5.302      1.781      4.605
REMARK INTER + INTRA:          -6.666
REMARK INTER:                  -6.219
REMARK INTRA:                  -0.447
REMARK UNBOUND:                -0.433
REMARK SMILES CCC=Cc1oc(O)c2ccc(O)cc12
REMARK SMILES IDX 7 1 6 2 5 3 15 4 14 5 12 6 11 7 10 8 9 9 8 10 4 12 3 13 2 14
REMARK SMILES IDX 1 15 13 16
REMARK H PARENT 8 11 13 17
REMARK Flexibility Score: inf
ROOT
ATOM      1  C   UNL     1      17.811 -49.047   5.086  1.00  0.00     0.290 A 
ATOM      2  O   UNL     1      18.199 -49.657   6.188  1.00  0.00    -0.425 OA
ATOM      3  C   UNL     1      17.286 -49.468   7.127  1.00  0.00     0.138 A 
ATOM      4  C   UNL     1      16.263 -48.695   6.602  1.00  0.00     0.035 A 
ATOM      5  C   UNL     1      15.078 -48.215   7.162  1.00  0.00     0.059 A 
ATOM      6  C   UNL     1      14.227 -47.440   6.345  1.00  0.00     0.116 A 
ATOM      7  C   UNL     1      14.582 -47.170   5.003  1.00  0.00     0.047 A 
ATOM      8  C   UNL     1      15.784 -47.668   4.466  1.00  0.00     0.020 A 
ATOM      9  C   UNL     1      16.600 -48.429   5.300  1.00  0.00     0.067 A 
ENDROOT
BRANCH   1  10
ATOM     10  O   UNL     1      18.543 -49.049   3.903  1.00  0.00    -0.480 OA
ATOM     11  H   UNL     1      19.382 -48.491   3.802  1.00  0.00     0.297 HD
ENDBRANCH   1  10
BRANCH   3  12
ATOM     12  C   UNL     1      17.357 -49.986   8.511  1.00  0.00     0.043 C 
ATOM     13  C   UNL     1      16.924 -51.188   8.920  1.00  0.00    -0.023 C 
BRANCH  13  14
ATOM     14  C   UNL     1      16.248 -52.217   8.057  1.00  0.00     0.024 C 
ATOM     15  C   UNL     1      17.267 -53.110   7.352  1.00  0.00     0.008 C 
ENDBRANCH  13  14
ENDBRANCH   3  12
BRANCH   6  16
ATOM     16  O   UNL     1      13.031 -46.936   6.851  1.00  0.00    -0.508 OA
ATOM     17  H   UNL     1      12.639 -47.278   7.720  1.00  0.00     0.293 HD
ENDBRANCH   6  16
TORSDOF 4
ENDMDL
MODEL 5
REMARK VINA RESULT:    -5.264      9.349     11.200
REMARK INTER + INTRA:          -6.621
REMARK INTER:                  -6.248
REMARK INTRA:                  -0.372
REMARK UNBOUND:                -0.433
REMARK SMILES CCC=Cc1oc(O)c2ccc(O)cc12
REMARK SMILES IDX 7 1 6 2 5 3 15 4 14 5 12 6 11 7 10 8 9 9 8 10 4 12 3 13 2 14
REMARK SMILES IDX 1 15 13 16
REMARK H PARENT 8 11 13 17
REMARK Flexibility Score: inf
ROOT
ATOM      1  C   UNL     1      17.900 -53.298  -2.495  1.00  0.00     0.290 A 
ATOM      2  O   UNL     1      17.162 -52.604  -1.652  1.00  0.00    -0.425 OA
ATOM      3  C   UNL     1      15.903 -52.636  -2.057  1.00  0.00     0.138 A 
ATOM      4  C   UNL     1      15.830 -53.385  -3.220  1.00  0.00     0.035 A 
ATOM      5  C   UNL     1      14.753 -53.725  -4.042  1.00  0.00     0.059 A 
ATOM      6  C   UNL     1      15.015 -54.522  -5.177  1.00  0.00     0.116 A 
ATOM      7  C   UNL     1      16.332 -54.953  -5.456  1.00  0.00     0.047 A 
ATOM      8  C   UNL     1      17.397 -54.595  -4.608  1.00  0.00     0.020 A 
ATOM      9  C   UNL     1      17.103 -53.808  -3.496  1.00  0.00     0.067 A 
ENDROOT
BRANCH   1  10
ATOM     10  O   UNL     1      19.274 -53.469  -2.361  1.00  0.00    -0.480 OA
ATOM     11  H   UNL     1      19.758 -54.225  -2.829  1.00  0.00     0.297 HD
ENDBRANCH   1  10
BRANCH   3  12
ATOM     12  C   UNL     1      14.767 -51.968  -1.384  1.00  0.00     0.043 C 
ATOM     13  C   UNL     1      14.085 -52.452  -0.334  1.00  0.00    -0.023 C 
BRANCH  13  14
ATOM     14  C   UNL     1      14.322 -53.781   0.328  1.00  0.00     0.024 C 
ATOM     15  C   UNL     1      13.152 -54.172   1.228  1.00  0.00     0.008 C 
ENDBRANCH  13  14
ENDBRANCH   3  12
BRANCH   6  16
ATOM     16  O   UNL     1      13.979 -54.892  -6.032  1.00  0.00    -0.508 OA
ATOM     17  H   UNL     1      13.801 -54.391  -6.895  1.00  0.00     0.293 HD
ENDBRANCH   6  16
TORSDOF 4
ENDMDL
MODEL 6
REMARK VINA RESULT:    -5.192      2.854      4.561
REMARK INTER + INTRA:          -6.536
REMARK INTER:                  -6.003
REMARK INTRA:                  -0.533
REMARK UNBOUND:                -0.433
REMARK SMILES CCC=Cc1oc(O)c2ccc(O)cc12
REMARK SMILES IDX 7 1 6 2 5 3 15 4 14 5 12 6 11 7 10 8 9 9 8 10 4 12 3 13 2 14
REMARK SMILES IDX 1 15 13 16
REMARK H PARENT 8 11 13 17
REMARK Flexibility Score: inf
ROOT
ATOM      1  C   UNL     1      16.143 -52.921   7.620  1.00  0.00     0.290 A 
ATOM      2  O   UNL     1      17.335 -52.372   7.500  1.00  0.00    -0.425 OA
ATOM      3  C   UNL     1      17.256 -51.096   7.841  1.00  0.00     0.138 A 
ATOM      4  C   UNL     1      15.947 -50.812   8.196  1.00  0.00     0.035 A 
ATOM      5  C   UNL     1      15.336 -49.633   8.628  1.00  0.00     0.059 A 
ATOM      6  C   UNL     1      13.955 -49.674   8.918  1.00  0.00     0.116 A 
ATOM      7  C   UNL     1      13.232 -50.880   8.770  1.00  0.00     0.047 A 
ATOM      8  C   UNL     1      13.876 -52.052   8.333  1.00  0.00     0.020 A 
ATOM      9  C   UNL     1      15.240 -51.976   8.056  1.00  0.00     0.067 A 
ENDROOT
BRANCH   1  10
ATOM     10  O   UNL     1      15.875 -54.257   7.341  1.00  0.00    -0.480 OA
ATOM     11  H   UNL     1      16.018 -54.979   8.037  1.00  0.00     0.297 HD
ENDBRANCH   1  10
BRANCH   3  12
ATOM     12  C   UNL     1      18.380 -50.133   7.831  1.00  0.00     0.043 C 
ATOM     13  C   UNL     1      18.734 -49.355   6.797  1.00  0.00    -0.023 C 
BRANCH  13  14
ATOM     14  C   UNL     1      18.081 -49.346   5.442  1.00  0.00     0.024 C 
ATOM     15  C   UNL     1      16.864 -48.424   5.416  1.00  0.00     0.008 C 
ENDBRANCH  13  14
ENDBRANCH   3  12
BRANCH   6  16
ATOM     16  O   UNL     1      13.292 -48.528   9.354  1.00  0.00    -0.508 OA
ATOM     17  H   UNL     1      13.076 -47.769   8.719  1.00  0.00     0.293 HD
ENDBRANCH   6  16
TORSDOF 4
ENDMDL
MODEL 7
REMARK VINA RESULT:    -5.103      9.508     11.448
REMARK INTER + INTRA:          -6.431
REMARK INTER:                  -6.029
REMARK INTRA:                  -0.402
REMARK UNBOUND:                -0.433
REMARK SMILES CCC=Cc1oc(O)c2ccc(O)cc12
REMARK SMILES IDX 7 1 6 2 5 3 15 4 14 5 12 6 11 7 10 8 9 9 8 10 4 12 3 13 2 14
REMARK SMILES IDX 1 15 13 16
REMARK H PARENT 8 11 13 17
REMARK Flexibility Score: inf
ROOT
ATOM      1  C   UNL     1      17.597 -53.498  -2.792  1.00  0.00     0.290 A 
ATOM      2  O   UNL     1      17.111 -54.078  -3.871  1.00  0.00    -0.425 OA
ATOM      3  C   UNL     1      15.809 -53.850  -3.931  1.00  0.00     0.138 A 
ATOM      4  C   UNL     1      15.441 -53.088  -2.833  1.00  0.00     0.035 A 
ATOM      5  C   UNL     1      14.206 -52.581  -2.425  1.00  0.00     0.059 A 
ATOM      6  C   UNL     1      14.164 -51.824  -1.234  1.00  0.00     0.116 A 
ATOM      7  C   UNL     1      15.346 -51.598  -0.493  1.00  0.00     0.047 A 
ATOM      8  C   UNL     1      16.577 -52.121  -0.930  1.00  0.00     0.020 A 
ATOM      9  C   UNL     1      16.582 -52.864  -2.110  1.00  0.00     0.067 A 
ENDROOT
BRANCH   1  10
ATOM     10  O   UNL     1      18.940 -53.540  -2.429  1.00  0.00    -0.480 OA
ATOM     11  H   UNL     1      19.451 -52.695  -2.208  1.00  0.00     0.297 HD
ENDBRANCH   1  10
BRANCH   3  12
ATOM     12  C   UNL     1      14.899 -54.342  -4.989  1.00  0.00     0.043 C 
ATOM     13  C   UNL     1      14.427 -55.593  -5.095  1.00  0.00    -0.023 C 
BRANCH  13  14
ATOM     14  C   UNL     1      14.767 -56.739  -4.183  1.00  0.00     0.024 C 
ATOM     15  C   UNL     1      15.761 -57.697  -4.838  1.00  0.00     0.008 C 
ENDBRANCH  13  14
ENDBRANCH   3  12
BRANCH   6  16
ATOM     16  O   UNL     1      12.959 -51.293  -0.779  1.00  0.00    -0.508 OA
ATOM     17  H   UNL     1      12.929 -50.430  -0.249  1.00  0.00     0.293 HD
ENDBRANCH   6  16
TORSDOF 4
ENDMDL
MODEL 8
REMARK VINA RESULT:    -5.085      1.977      5.440
REMARK INTER + INTRA:          -6.411
REMARK INTER:                  -5.903
REMARK INTRA:                  -0.507
REMARK UNBOUND:                -0.433
REMARK SMILES CCC=Cc1oc(O)c2ccc(O)cc12
REMARK SMILES IDX 7 1 6 2 5 3 15 4 14 5 12 6 11 7 10 8 9 9 8 10 4 12 3 13 2 14
REMARK SMILES IDX 1 15 13 16
REMARK H PARENT 8 11 13 17
REMARK Flexibility Score: inf
ROOT
ATOM      1  C   UNL     1      13.829 -48.332   9.089  1.00  0.00     0.290 A 
ATOM      2  O   UNL     1      14.241 -49.567   8.880  1.00  0.00    -0.425 OA
ATOM      3  C   UNL     1      14.898 -49.611   7.732  1.00  0.00     0.138 A 
ATOM      4  C   UNL     1      14.905 -48.342   7.176  1.00  0.00     0.035 A 
ATOM      5  C   UNL     1      15.454 -47.849   5.990  1.00  0.00     0.059 A 
ATOM      6  C   UNL     1      15.287 -46.477   5.706  1.00  0.00     0.116 A 
ATOM      7  C   UNL     1      14.583 -45.644   6.606  1.00  0.00     0.047 A 
ATOM      8  C   UNL     1      14.041 -46.170   7.794  1.00  0.00     0.020 A 
ATOM      9  C   UNL     1      14.225 -47.528   8.043  1.00  0.00     0.067 A 
ENDROOT
BRANCH   1  10
ATOM     10  O   UNL     1      13.107 -47.938  10.211  1.00  0.00    -0.480 OA
ATOM     11  H   UNL     1      13.512 -47.975  11.138  1.00  0.00     0.297 HD
ENDBRANCH   1  10
BRANCH   3  12
ATOM     12  C   UNL     1      15.509 -50.821   7.138  1.00  0.00     0.043 C 
ATOM     13  C   UNL     1      16.729 -51.300   7.421  1.00  0.00    -0.023 C 
BRANCH  13  14
ATOM     14  C   UNL     1      17.720 -50.675   8.364  1.00  0.00     0.024 C 
ATOM     15  C   UNL     1      18.781 -49.877   7.609  1.00  0.00     0.008 C 
ENDBRANCH  13  14
ENDBRANCH   3  12
BRANCH   6  16
ATOM     16  O   UNL     1      15.813 -45.930   4.538  1.00  0.00    -0.508 OA
ATOM     17  H   UNL     1      16.690 -45.422   4.540  1.00  0.00     0.293 HD
ENDBRANCH   6  16
TORSDOF 4
ENDMDL
MODEL 9
REMARK VINA RESULT:    -5.067      2.075      4.581
REMARK INTER + INTRA:          -6.390
REMARK INTER:                  -5.969
REMARK INTRA:                  -0.421
REMARK UNBOUND:                -0.433
REMARK SMILES CCC=Cc1oc(O)c2ccc(O)cc12
REMARK SMILES IDX 7 1 6 2 5 3 15 4 14 5 12 6 11 7 10 8 9 9 8 10 4 12 3 13 2 14
REMARK SMILES IDX 1 15 13 16
REMARK H PARENT 8 11 13 17
REMARK Flexibility Score: inf
ROOT
ATOM      1  C   UNL     1      15.041 -49.083   5.467  1.00  0.00     0.290 A 
ATOM      2  O   UNL     1      15.548 -50.092   6.147  1.00  0.00    -0.425 OA
ATOM      3  C   UNL     1      15.387 -49.863   7.439  1.00  0.00     0.138 A 
ATOM      4  C   UNL     1      14.747 -48.644   7.598  1.00  0.00     0.035 A 
ATOM      5  C   UNL     1      14.345 -47.945   8.738  1.00  0.00     0.059 A 
ATOM      6  C   UNL     1      13.701 -46.703   8.558  1.00  0.00     0.116 A 
ATOM      7  C   UNL     1      13.477 -46.199   7.256  1.00  0.00     0.047 A 
ATOM      8  C   UNL     1      13.892 -46.927   6.125  1.00  0.00     0.020 A 
ATOM      9  C   UNL     1      14.526 -48.150   6.339  1.00  0.00     0.067 A 
ENDROOT
BRANCH   1  10
ATOM     10  O   UNL     1      15.042 -49.007   4.078  1.00  0.00    -0.480 OA
ATOM     11  H   UNL     1      14.280 -48.570   3.574  1.00  0.00     0.297 HD
ENDBRANCH   1  10
BRANCH   3  12
ATOM     12  C   UNL     1      15.832 -50.756   8.532  1.00  0.00     0.043 C 
ATOM     13  C   UNL     1      17.007 -50.680   9.175  1.00  0.00    -0.023 C 
BRANCH  13  14
ATOM     14  C   UNL     1      18.107 -49.699   8.878  1.00  0.00     0.024 C 
ATOM     15  C   UNL     1      18.879 -50.092   7.620  1.00  0.00     0.008 C 
ENDBRANCH  13  14
ENDBRANCH   3  12
BRANCH   6  16
ATOM     16  O   UNL     1      13.278 -45.962   9.659  1.00  0.00    -0.508 OA
ATOM     17  H   UNL     1      13.387 -44.955   9.693  1.00  0.00     0.293 HD
ENDBRANCH   6  16
TORSDOF 4
ENDMDL
