MODEL 1
REMARK VINA RESULT:     6.480      0.000      0.000
REMARK INTER + INTRA:          13.119
REMARK INTER:                  14.814
REMARK INTRA:                  -1.695
REMARK UNBOUND:                -1.695
REMARK SMILES CCCCCCCCCCCCCCCCCCCCCCCC(=O)[O-]
REMARK SMILES IDX 13 1 14 2 15 3 16 4 17 5 18 6 19 7 20 8 21 9 22 10 23 11
REMARK SMILES IDX 24 12 25 13 26 14 12 15 11 16 10 17 9 18 8 19 7 20 6 21 5 22
REMARK SMILES IDX 4 23 3 24 2 25 1 26
REMARK H PARENT
REMARK Flexibility Score: inf
ROOT
ATOM      1  C   UNL     1      11.159  12.297 -13.258  1.00  0.00     0.000 C 
ENDROOT
BRANCH   1   2
ATOM      2  C   UNL     1      12.347  11.528 -13.869  1.00  0.00     0.000 C 
BRANCH   2   3
ATOM      3  C   UNL     1      13.706  11.794 -13.195  1.00  0.00     0.000 C 
BRANCH   3   4
ATOM      4  C   UNL     1      14.625  10.565 -13.211  1.00  0.00     0.000 C 
BRANCH   4   5
ATOM      5  C   UNL     1      14.132   9.521 -14.225  1.00  0.00     0.000 C 
BRANCH   5   6
ATOM      6  C   UNL     1      14.977   8.236 -14.201  1.00  0.00     0.000 C 
BRANCH   6   7
ATOM      7  C   UNL     1      16.469   8.521 -13.970  1.00  0.00     0.000 C 
BRANCH   7   8
ATOM      8  C   UNL     1      17.270   8.340 -15.268  1.00  0.00     0.000 C 
BRANCH   8   9
ATOM      9  C   UNL     1      18.469   9.302 -15.371  1.00  0.00     0.000 C 
BRANCH   9  10
ATOM     10  C   UNL     1      18.220  10.725 -14.828  1.00  0.00     0.006 C 
BRANCH  10  11
ATOM     11  C   UNL     1      19.399  11.309 -14.030  1.00  0.00     0.053 C 
BRANCH  11  12
ATOM     12  C   UNL     1      19.788  12.684 -14.485  1.00  0.00     0.041 C 
ATOM     13  O   UNL     1      19.090  13.296 -15.338  1.00  0.00    -0.550 OA
ATOM     14  O   UNL     1      20.907  13.303 -13.942  1.00  0.00    -0.550 OA
ENDBRANCH  11  12
ENDBRANCH  10  11
ENDBRANCH   9  10
ENDBRANCH   8   9
ENDBRANCH   7   8
ENDBRANCH   6   7
ENDBRANCH   5   6
ENDBRANCH   4   5
ENDBRANCH   3   4
ENDBRANCH   2   3
ENDBRANCH   1   2
BRANCH   1  15
ATOM     15  C   UNL     1       9.777  11.956 -13.854  1.00  0.00     0.000 C 
BRANCH  15  16
ATOM     16  C   UNL     1       8.674  11.661 -12.822  1.00  0.00     0.000 C 
BRANCH  16  17
ATOM     17  C   UNL     1       7.434  10.997 -13.447  1.00  0.00     0.000 C 
BRANCH  17  18
ATOM     18  C   UNL     1       6.875   9.853 -12.586  1.00  0.00    -0.000 C 
BRANCH  18  19
ATOM     19  C   UNL     1       6.400   8.652 -13.423  1.00  0.00    -0.000 C 
BRANCH  19  20
ATOM     20  C   UNL     1       5.039   8.115 -12.950  1.00  0.00    -0.000 C 
BRANCH  20  21
ATOM     21  C   UNL     1       3.874   8.608 -13.825  1.00  0.00    -0.000 C 
BRANCH  21  22
ATOM     22  C   UNL     1       2.906   9.523 -13.060  1.00  0.00    -0.000 C 
BRANCH  22  23
ATOM     23  C   UNL     1       2.787  10.922 -13.688  1.00  0.00    -0.000 C 
BRANCH  23  24
ATOM     24  C   UNL     1       3.946  11.245 -14.648  1.00  0.00    -0.000 C 
BRANCH  24  25
ATOM     25  C   UNL     1       3.876  12.640 -15.296  1.00  0.00    -0.003 C 
ATOM     26  C   UNL     1       2.995  13.616 -14.519  1.00  0.00     0.004 C 
ENDBRANCH  24  25
ENDBRANCH  23  24
ENDBRANCH  22  23
ENDBRANCH  21  22
ENDBRANCH  20  21
ENDBRANCH  19  20
ENDBRANCH  18  19
ENDBRANCH  17  18
ENDBRANCH  16  17
ENDBRANCH  15  16
ENDBRANCH   1  15
TORSDOF 22
ENDMDL
MODEL 2
REMARK VINA RESULT:     6.526      0.989      2.384
REMARK INTER + INTRA:          13.224
REMARK INTER:                  14.359
REMARK INTRA:                  -1.135
REMARK UNBOUND:                -1.695
REMARK SMILES CCCCCCCCCCCCCCCCCCCCCCCC(=O)[O-]
REMARK SMILES IDX 13 1 14 2 15 3 16 4 17 5 18 6 19 7 20 8 21 9 22 10 23 11
REMARK SMILES IDX 24 12 25 13 26 14 12 15 11 16 10 17 9 18 8 19 7 20 6 21 5 22
REMARK SMILES IDX 4 23 3 24 2 25 1 26
REMARK H PARENT
REMARK Flexibility Score: inf
ROOT
ATOM      1  C   UNL     1      13.864  11.687 -13.133  1.00  0.00     0.000 C 
ENDROOT
BRANCH   1   2
ATOM      2  C   UNL     1      14.872  10.536 -13.328  1.00  0.00     0.000 C 
BRANCH   2   3
ATOM      3  C   UNL     1      14.331   9.328 -14.115  1.00  0.00     0.000 C 
BRANCH   3   4
ATOM      4  C   UNL     1      15.362   8.198 -14.245  1.00  0.00     0.000 C 
BRANCH   4   5
ATOM      5  C   UNL     1      16.780   8.762 -14.418  1.00  0.00     0.000 C 
BRANCH   5   6
ATOM      6  C   UNL     1      17.519   8.133 -15.611  1.00  0.00     0.000 C 
BRANCH   6   7
ATOM      7  C   UNL     1      19.005   8.522 -15.651  1.00  0.00     0.000 C 
BRANCH   7   8
ATOM      8  C   UNL     1      19.176  10.046 -15.560  1.00  0.00     0.000 C 
BRANCH   8   9
ATOM      9  C   UNL     1      20.003  10.484 -14.337  1.00  0.00     0.000 C 
BRANCH   9  10
ATOM     10  C   UNL     1      19.996  11.999 -14.045  1.00  0.00     0.006 C 
BRANCH  10  11
ATOM     11  C   UNL     1      21.365  12.681 -14.218  1.00  0.00     0.053 C 
BRANCH  11  12
ATOM     12  C   UNL     1      21.256  14.098 -14.697  1.00  0.00     0.041 C 
ATOM     13  O   UNL     1      20.390  14.418 -15.555  1.00  0.00    -0.550 OA
ATOM     14  O   UNL     1      22.095  15.073 -14.170  1.00  0.00    -0.550 OA
ENDBRANCH  11  12
ENDBRANCH  10  11
ENDBRANCH   9  10
ENDBRANCH   8   9
ENDBRANCH   7   8
ENDBRANCH   6   7
ENDBRANCH   5   6
ENDBRANCH   4   5
ENDBRANCH   3   4
ENDBRANCH   2   3
ENDBRANCH   1   2
BRANCH   1  15
ATOM     15  C   UNL     1      12.526  11.524 -13.885  1.00  0.00     0.000 C 
BRANCH  15  16
ATOM     16  C   UNL     1      11.327  12.253 -13.252  1.00  0.00     0.000 C 
BRANCH  16  17
ATOM     17  C   UNL     1       9.986  11.876 -13.908  1.00  0.00     0.000 C 
BRANCH  17  18
ATOM     18  C   UNL     1       8.830  11.805 -12.898  1.00  0.00    -0.000 C 
BRANCH  18  19
ATOM     19  C   UNL     1       7.579  11.114 -13.469  1.00  0.00    -0.000 C 
BRANCH  19  20
ATOM     20  C   UNL     1       6.914  10.177 -12.448  1.00  0.00    -0.000 C 
BRANCH  20  21
ATOM     21  C   UNL     1       5.760   9.363 -13.059  1.00  0.00    -0.000 C 
BRANCH  21  22
ATOM     22  C   UNL     1       4.485   9.410 -12.204  1.00  0.00    -0.000 C 
BRANCH  22  23
ATOM     23  C   UNL     1       3.272   9.961 -12.973  1.00  0.00    -0.000 C 
BRANCH  23  24
ATOM     24  C   UNL     1       3.651  10.542 -14.347  1.00  0.00    -0.000 C 
BRANCH  24  25
ATOM     25  C   UNL     1       3.961  12.050 -14.346  1.00  0.00    -0.003 C 
ATOM     26  C   UNL     1       2.718  12.915 -14.545  1.00  0.00     0.004 C 
ENDBRANCH  24  25
ENDBRANCH  23  24
ENDBRANCH  22  23
ENDBRANCH  21  22
ENDBRANCH  20  21
ENDBRANCH  19  20
ENDBRANCH  18  19
ENDBRANCH  17  18
ENDBRANCH  16  17
ENDBRANCH  15  16
ENDBRANCH   1  15
TORSDOF 22
ENDMDL
MODEL 3
REMARK VINA RESULT:     6.535      7.299     11.097
REMARK INTER + INTRA:          13.245
REMARK INTER:                  11.681
REMARK INTRA:                   1.565
REMARK UNBOUND:                -1.695
REMARK SMILES CCCCCCCCCCCCCCCCCCCCCCCC(=O)[O-]
REMARK SMILES IDX 13 1 14 2 15 3 16 4 17 5 18 6 19 7 20 8 21 9 22 10 23 11
REMARK SMILES IDX 24 12 25 13 26 14 12 15 11 16 10 17 9 18 8 19 7 20 6 21 5 22
REMARK SMILES IDX 4 23 3 24 2 25 1 26
REMARK H PARENT
REMARK Flexibility Score: inf
ROOT
ATOM      1  C   UNL     1      19.337  12.179 -14.199  1.00  0.00     0.000 C 
ENDROOT
BRANCH   1   2
ATOM      2  C   UNL     1      17.989  11.456 -14.003  1.00  0.00     0.000 C 
BRANCH   2   3
ATOM      3  C   UNL     1      17.588  11.222 -12.535  1.00  0.00     0.000 C 
BRANCH   3   4
ATOM      4  C   UNL     1      16.773  12.385 -11.951  1.00  0.00     0.000 C 
BRANCH   4   5
ATOM      5  C   UNL     1      17.155  12.646 -10.486  1.00  0.00     0.000 C 
BRANCH   5   6
ATOM      6  C   UNL     1      17.246  11.349  -9.665  1.00  0.00     0.000 C 
BRANCH   6   7
ATOM      7  C   UNL     1      16.193  11.288  -8.547  1.00  0.00     0.000 C 
BRANCH   7   8
ATOM      8  C   UNL     1      16.537  10.193  -7.527  1.00  0.00     0.000 C 
BRANCH   8   9
ATOM      9  C   UNL     1      17.330   9.026  -8.146  1.00  0.00     0.000 C 
BRANCH   9  10
ATOM     10  C   UNL     1      18.677   8.709  -7.462  1.00  0.00     0.006 C 
BRANCH  10  11
ATOM     11  C   UNL     1      19.735   9.816  -7.613  1.00  0.00     0.053 C 
BRANCH  11  12
ATOM     12  C   UNL     1      21.092   9.396  -7.133  1.00  0.00     0.041 C 
ATOM     13  O   UNL     1      22.122  10.026  -7.493  1.00  0.00    -0.550 OA
ATOM     14  O   UNL     1      21.215   8.321  -6.259  1.00  0.00    -0.550 OA
ENDBRANCH  11  12
ENDBRANCH  10  11
ENDBRANCH   9  10
ENDBRANCH   8   9
ENDBRANCH   7   8
ENDBRANCH   6   7
ENDBRANCH   5   6
ENDBRANCH   4   5
ENDBRANCH   3   4
ENDBRANCH   2   3
ENDBRANCH   1   2
BRANCH   1  15
ATOM     15  C   UNL     1      19.351  13.257 -15.303  1.00  0.00     0.000 C 
BRANCH  15  16
ATOM     16  C   UNL     1      20.647  14.084 -15.394  1.00  0.00     0.000 C 
BRANCH  16  17
ATOM     17  C   UNL     1      21.914  13.222 -15.259  1.00  0.00     0.000 C 
BRANCH  17  18
ATOM     18  C   UNL     1      21.619  11.810 -14.727  1.00  0.00    -0.000 C 
BRANCH  18  19
ATOM     19  C   UNL     1      20.909  10.918 -15.761  1.00  0.00    -0.000 C 
BRANCH  19  20
ATOM     20  C   UNL     1      21.635   9.580 -15.972  1.00  0.00    -0.000 C 
BRANCH  20  21
ATOM     21  C   UNL     1      20.662   8.396 -16.104  1.00  0.00    -0.000 C 
BRANCH  21  22
ATOM     22  C   UNL     1      19.191   8.838 -16.124  1.00  0.00    -0.000 C 
BRANCH  22  23
ATOM     23  C   UNL     1      18.352   8.167 -15.023  1.00  0.00    -0.000 C 
BRANCH  23  24
ATOM     24  C   UNL     1      16.853   8.113 -15.366  1.00  0.00    -0.000 C 
BRANCH  24  25
ATOM     25  C   UNL     1      15.910   8.356 -14.174  1.00  0.00    -0.003 C 
ATOM     26  C   UNL     1      14.446   8.066 -14.502  1.00  0.00     0.004 C 
ENDBRANCH  24  25
ENDBRANCH  23  24
ENDBRANCH  22  23
ENDBRANCH  21  22
ENDBRANCH  20  21
ENDBRANCH  19  20
ENDBRANCH  18  19
ENDBRANCH  17  18
ENDBRANCH  16  17
ENDBRANCH  15  16
ENDBRANCH   1  15
TORSDOF 22
ENDMDL
MODEL 4
REMARK VINA RESULT:     6.663      7.116     11.391
REMARK INTER + INTRA:          13.538
REMARK INTER:                  14.796
REMARK INTRA:                  -1.258
REMARK UNBOUND:                -1.695
REMARK SMILES CCCCCCCCCCCCCCCCCCCCCCCC(=O)[O-]
REMARK SMILES IDX 13 1 14 2 15 3 16 4 17 5 18 6 19 7 20 8 21 9 22 10 23 11
REMARK SMILES IDX 24 12 25 13 26 14 12 15 11 16 10 17 9 18 8 19 7 20 6 21 5 22
REMARK SMILES IDX 4 23 3 24 2 25 1 26
REMARK H PARENT
REMARK Flexibility Score: inf
ROOT
ATOM      1  C   UNL     1      20.096  13.990 -14.129  1.00  0.00     0.000 C 
ENDROOT
BRANCH   1   2
ATOM      2  C   UNL     1      21.611  13.818 -14.357  1.00  0.00     0.000 C 
BRANCH   2   3
ATOM      3  C   UNL     1      22.125  12.372 -14.223  1.00  0.00     0.000 C 
BRANCH   3   4
ATOM      4  C   UNL     1      21.592  11.450 -15.328  1.00  0.00     0.000 C 
BRANCH   4   5
ATOM      5  C   UNL     1      21.710   9.974 -14.918  1.00  0.00     0.000 C 
BRANCH   5   6
ATOM      6  C   UNL     1      21.624   9.023 -16.124  1.00  0.00     0.000 C 
BRANCH   6   7
ATOM      7  C   UNL     1      20.627   7.876 -15.896  1.00  0.00     0.000 C 
BRANCH   7   8
ATOM      8  C   UNL     1      19.184   8.351 -16.121  1.00  0.00     0.000 C 
BRANCH   8   9
ATOM      9  C   UNL     1      18.227   7.911 -14.997  1.00  0.00     0.000 C 
BRANCH   9  10
ATOM     10  C   UNL     1      17.080   8.896 -14.685  1.00  0.00     0.006 C 
BRANCH  10  11
ATOM     11  C   UNL     1      15.909   8.273 -13.904  1.00  0.00     0.053 C 
BRANCH  11  12
ATOM     12  C   UNL     1      14.581   8.862 -14.275  1.00  0.00     0.041 C 
ATOM     13  O   UNL     1      14.150   9.888 -13.685  1.00  0.00    -0.550 OA
ATOM     14  O   UNL     1      13.832   8.291 -15.298  1.00  0.00    -0.550 OA
ENDBRANCH  11  12
ENDBRANCH  10  11
ENDBRANCH   9  10
ENDBRANCH   8   9
ENDBRANCH   7   8
ENDBRANCH   6   7
ENDBRANCH   5   6
ENDBRANCH   4   5
ENDBRANCH   3   4
ENDBRANCH   2   3
ENDBRANCH   1   2
BRANCH   1  15
ATOM     15  C   UNL     1      19.190  13.253 -15.138  1.00  0.00     0.000 C 
BRANCH  15  16
ATOM     16  C   UNL     1      18.603  11.920 -14.638  1.00  0.00     0.000 C 
BRANCH  16  17
ATOM     17  C   UNL     1      18.789  11.718 -13.123  1.00  0.00     0.000 C 
BRANCH  17  18
ATOM     18  C   UNL     1      17.512  12.017 -12.322  1.00  0.00    -0.000 C 
BRANCH  18  19
ATOM     19  C   UNL     1      17.789  12.266 -10.828  1.00  0.00    -0.000 C 
BRANCH  19  20
ATOM     20  C   UNL     1      17.496  11.025  -9.968  1.00  0.00    -0.000 C 
BRANCH  20  21
ATOM     21  C   UNL     1      18.304  11.012  -8.659  1.00  0.00    -0.000 C 
BRANCH  21  22
ATOM     22  C   UNL     1      18.132   9.705  -7.871  1.00  0.00    -0.000 C 
BRANCH  22  23
ATOM     23  C   UNL     1      19.439   8.901  -7.757  1.00  0.00    -0.000 C 
BRANCH  23  24
ATOM     24  C   UNL     1      20.690   9.797  -7.739  1.00  0.00    -0.000 C 
BRANCH  24  25
ATOM     25  C   UNL     1      21.806   9.326  -6.789  1.00  0.00    -0.003 C 
ATOM     26  C   UNL     1      21.295   8.421  -5.670  1.00  0.00     0.004 C 
ENDBRANCH  24  25
ENDBRANCH  23  24
ENDBRANCH  22  23
ENDBRANCH  21  22
ENDBRANCH  20  21
ENDBRANCH  19  20
ENDBRANCH  18  19
ENDBRANCH  17  18
ENDBRANCH  16  17
ENDBRANCH  15  16
ENDBRANCH   1  15
TORSDOF 22
ENDMDL
MODEL 5
REMARK VINA RESULT:     6.764      1.668      3.048
REMARK INTER + INTRA:          13.769
REMARK INTER:                  14.754
REMARK INTRA:                  -0.985
REMARK UNBOUND:                -1.695
REMARK SMILES CCCCCCCCCCCCCCCCCCCCCCCC(=O)[O-]
REMARK SMILES IDX 13 1 14 2 15 3 16 4 17 5 18 6 19 7 20 8 21 9 22 10 23 11
REMARK SMILES IDX 24 12 25 13 26 14 12 15 11 16 10 17 9 18 8 19 7 20 6 21 5 22
REMARK SMILES IDX 4 23 3 24 2 25 1 26
REMARK H PARENT
REMARK Flexibility Score: inf
ROOT
ATOM      1  C   UNL     1      13.399  11.742 -13.210  1.00  0.00     0.000 C 
ENDROOT
BRANCH   1   2
ATOM      2  C   UNL     1      14.396  10.593 -13.460  1.00  0.00     0.000 C 
BRANCH   2   3
ATOM      3  C   UNL     1      13.829   9.407 -14.261  1.00  0.00     0.000 C 
BRANCH   3   4
ATOM      4  C   UNL     1      14.798   8.218 -14.325  1.00  0.00     0.000 C 
BRANCH   4   5
ATOM      5  C   UNL     1      16.196   8.620 -13.830  1.00  0.00     0.000 C 
BRANCH   5   6
ATOM      6  C   UNL     1      17.241   8.617 -14.958  1.00  0.00     0.000 C 
BRANCH   6   7
ATOM      7  C   UNL     1      18.394   9.596 -14.692  1.00  0.00     0.000 C 
BRANCH   7   8
ATOM      8  C   UNL     1      19.415   9.568 -15.839  1.00  0.00     0.000 C 
BRANCH   8   9
ATOM      9  C   UNL     1      20.314  10.818 -15.871  1.00  0.00     0.000 C 
BRANCH   9  10
ATOM     10  C   UNL     1      20.801  11.315 -14.493  1.00  0.00     0.006 C 
BRANCH  10  11
ATOM     11  C   UNL     1      20.238  12.688 -14.084  1.00  0.00     0.053 C 
BRANCH  11  12
ATOM     12  C   UNL     1      20.036  13.608 -15.250  1.00  0.00     0.041 C 
ATOM     13  O   UNL     1      18.932  13.639 -15.857  1.00  0.00    -0.550 OA
ATOM     14  O   UNL     1      21.063  14.456 -15.649  1.00  0.00    -0.550 OA
ENDBRANCH  11  12
ENDBRANCH  10  11
ENDBRANCH   9  10
ENDBRANCH   8   9
ENDBRANCH   7   8
ENDBRANCH   6   7
ENDBRANCH   5   6
ENDBRANCH   4   5
ENDBRANCH   3   4
ENDBRANCH   2   3
ENDBRANCH   1   2
BRANCH   1  15
ATOM     15  C   UNL     1      12.054  11.620 -13.955  1.00  0.00     0.000 C 
BRANCH  15  16
ATOM     16  C   UNL     1      10.839  12.206 -13.213  1.00  0.00     0.000 C 
BRANCH  16  17
ATOM     17  C   UNL     1       9.499  11.824 -13.868  1.00  0.00     0.000 C 
BRANCH  17  18
ATOM     18  C   UNL     1       8.384  11.578 -12.839  1.00  0.00    -0.000 C 
BRANCH  18  19
ATOM     19  C   UNL     1       7.203  10.778 -13.419  1.00  0.00    -0.000 C 
BRANCH  19  20
ATOM     20  C   UNL     1       7.187   9.323 -12.923  1.00  0.00    -0.000 C 
BRANCH  20  21
ATOM     21  C   UNL     1       5.767   8.731 -12.878  1.00  0.00    -0.000 C 
BRANCH  21  22
ATOM     22  C   UNL     1       4.934   9.283 -11.712  1.00  0.00    -0.000 C 
BRANCH  22  23
ATOM     23  C   UNL     1       3.476   9.574 -12.107  1.00  0.00    -0.000 C 
BRANCH  23  24
ATOM     24  C   UNL     1       2.463   9.073 -11.062  1.00  0.00    -0.000 C 
BRANCH  24  25
ATOM     25  C   UNL     1       3.062   8.773  -9.676  1.00  0.00    -0.003 C 
ATOM     26  C   UNL     1       2.060   8.962  -8.539  1.00  0.00     0.004 C 
ENDBRANCH  24  25
ENDBRANCH  23  24
ENDBRANCH  22  23
ENDBRANCH  21  22
ENDBRANCH  20  21
ENDBRANCH  19  20
ENDBRANCH  18  19
ENDBRANCH  17  18
ENDBRANCH  16  17
ENDBRANCH  15  16
ENDBRANCH   1  15
TORSDOF 22
ENDMDL
MODEL 6
REMARK VINA RESULT:     6.972      1.236      2.406
REMARK INTER + INTRA:          14.244
REMARK INTER:                  15.613
REMARK INTRA:                  -1.368
REMARK UNBOUND:                -1.695
REMARK SMILES CCCCCCCCCCCCCCCCCCCCCCCC(=O)[O-]
REMARK SMILES IDX 13 1 14 2 15 3 16 4 17 5 18 6 19 7 20 8 21 9 22 10 23 11
REMARK SMILES IDX 24 12 25 13 26 14 12 15 11 16 10 17 9 18 8 19 7 20 6 21 5 22
REMARK SMILES IDX 4 23 3 24 2 25 1 26
REMARK H PARENT
REMARK Flexibility Score: inf
ROOT
ATOM      1  C   UNL     1       8.215  11.315 -12.724  1.00  0.00     0.000 C 
ENDROOT
BRANCH   1   2
ATOM      2  C   UNL     1       9.284  12.001 -13.597  1.00  0.00     0.000 C 
BRANCH   2   3
ATOM      3  C   UNL     1      10.637  12.234 -12.900  1.00  0.00     0.000 C 
BRANCH   3   4
ATOM      4  C   UNL     1      11.821  12.193 -13.877  1.00  0.00     0.000 C 
BRANCH   4   5
ATOM      5  C   UNL     1      13.060  11.572 -13.215  1.00  0.00     0.000 C 
BRANCH   5   6
ATOM      6  C   UNL     1      13.605  10.369 -14.003  1.00  0.00     0.000 C 
BRANCH   6   7
ATOM      7  C   UNL     1      14.994   9.930 -13.515  1.00  0.00     0.000 C 
BRANCH   7   8
ATOM      8  C   UNL     1      15.319   8.506 -13.991  1.00  0.00     0.000 C 
BRANCH   8   9
ATOM      9  C   UNL     1      16.830   8.256 -14.145  1.00  0.00     0.000 C 
BRANCH   9  10
ATOM     10  C   UNL     1      17.639   9.438 -14.720  1.00  0.00     0.006 C 
BRANCH  10  11
ATOM     11  C   UNL     1      18.736   9.968 -13.780  1.00  0.00     0.053 C 
BRANCH  11  12
ATOM     12  C   UNL     1      18.694  11.457 -13.613  1.00  0.00     0.041 C 
ATOM     13  O   UNL     1      17.686  12.014 -13.101  1.00  0.00    -0.550 OA
ATOM     14  O   UNL     1      19.784  12.228 -13.997  1.00  0.00    -0.550 OA
ENDBRANCH  11  12
ENDBRANCH  10  11
ENDBRANCH   9  10
ENDBRANCH   8   9
ENDBRANCH   7   8
ENDBRANCH   6   7
ENDBRANCH   5   6
ENDBRANCH   4   5
ENDBRANCH   3   4
ENDBRANCH   2   3
ENDBRANCH   1   2
BRANCH   1  15
ATOM     15  C   UNL     1       7.061  10.646 -13.500  1.00  0.00     0.000 C 
BRANCH  15  16
ATOM     16  C   UNL     1       6.754   9.193 -13.092  1.00  0.00     0.000 C 
BRANCH  16  17
ATOM     17  C   UNL     1       6.337   9.064 -11.616  1.00  0.00     0.000 C 
BRANCH  17  18
ATOM     18  C   UNL     1       5.242   8.007 -11.398  1.00  0.00    -0.000 C 
BRANCH  18  19
ATOM     19  C   UNL     1       3.913   8.615 -10.913  1.00  0.00    -0.000 C 
BRANCH  19  20
ATOM     20  C   UNL     1       3.257   9.506 -11.980  1.00  0.00    -0.000 C 
BRANCH  20  21
ATOM     21  C   UNL     1       3.043   8.768 -13.313  1.00  0.00    -0.000 C 
BRANCH  21  22
ATOM     22  C   UNL     1       2.458   9.676 -14.404  1.00  0.00    -0.000 C 
BRANCH  22  23
ATOM     23  C   UNL     1       1.960  11.023 -13.854  1.00  0.00    -0.000 C 
BRANCH  23  24
ATOM     24  C   UNL     1       2.042  12.158 -14.891  1.00  0.00    -0.000 C 
BRANCH  24  25
ATOM     25  C   UNL     1       3.409  12.861 -14.968  1.00  0.00    -0.003 C 
ATOM     26  C   UNL     1       3.314  14.294 -15.488  1.00  0.00     0.004 C 
ENDBRANCH  24  25
ENDBRANCH  23  24
ENDBRANCH  22  23
ENDBRANCH  21  22
ENDBRANCH  20  21
ENDBRANCH  19  20
ENDBRANCH  18  19
ENDBRANCH  17  18
ENDBRANCH  16  17
ENDBRANCH  15  16
ENDBRANCH   1  15
TORSDOF 22
ENDMDL
MODEL 7
REMARK VINA RESULT:     7.028      4.920     12.513
REMARK INTER + INTRA:          14.371
REMARK INTER:                  15.839
REMARK INTRA:                  -1.468
REMARK UNBOUND:                -1.695
REMARK SMILES CCCCCCCCCCCCCCCCCCCCCCCC(=O)[O-]
REMARK SMILES IDX 13 1 14 2 15 3 16 4 17 5 18 6 19 7 20 8 21 9 22 10 23 11
REMARK SMILES IDX 24 12 25 13 26 14 12 15 11 16 10 17 9 18 8 19 7 20 6 21 5 22
REMARK SMILES IDX 4 23 3 24 2 25 1 26
REMARK H PARENT
REMARK Flexibility Score: inf
ROOT
ATOM      1  C   UNL     1      10.847  12.278 -13.279  1.00  0.00     0.000 C 
ENDROOT
BRANCH   1   2
ATOM      2  C   UNL     1       9.481  11.905 -13.890  1.00  0.00     0.000 C 
BRANCH   2   3
ATOM      3  C   UNL     1       8.436  11.401 -12.878  1.00  0.00     0.000 C 
BRANCH   3   4
ATOM      4  C   UNL     1       7.086  11.078 -13.533  1.00  0.00     0.000 C 
BRANCH   4   5
ATOM      5  C   UNL     1       6.715   9.601 -13.332  1.00  0.00     0.000 C 
BRANCH   5   6
ATOM      6  C   UNL     1       6.672   9.204 -11.847  1.00  0.00     0.000 C 
BRANCH   6   7
ATOM      7  C   UNL     1       5.602   8.141 -11.556  1.00  0.00     0.000 C 
BRANCH   7   8
ATOM      8  C   UNL     1       4.834   8.473 -10.267  1.00  0.00     0.000 C 
BRANCH   8   9
ATOM      9  C   UNL     1       3.347   8.078 -10.338  1.00  0.00     0.000 C 
BRANCH   9  10
ATOM     10  C   UNL     1       2.402   9.164 -10.893  1.00  0.00     0.006 C 
BRANCH  10  11
ATOM     11  C   UNL     1       1.905   8.896 -12.325  1.00  0.00     0.053 C 
BRANCH  11  12
ATOM     12  C   UNL     1       2.841   9.416 -13.374  1.00  0.00     0.041 C 
ATOM     13  O   UNL     1       3.361  10.558 -13.258  1.00  0.00    -0.550 OA
ATOM     14  O   UNL     1       3.162   8.623 -14.470  1.00  0.00    -0.550 OA
ENDBRANCH  11  12
ENDBRANCH  10  11
ENDBRANCH   9  10
ENDBRANCH   8   9
ENDBRANCH   7   8
ENDBRANCH   6   7
ENDBRANCH   5   6
ENDBRANCH   4   5
ENDBRANCH   3   4
ENDBRANCH   2   3
ENDBRANCH   1   2
BRANCH   1  15
ATOM     15  C   UNL     1      12.064  11.556 -13.896  1.00  0.00     0.000 C 
BRANCH  15  16
ATOM     16  C   UNL     1      13.436  12.036 -13.390  1.00  0.00     0.000 C 
BRANCH  16  17
ATOM     17  C   UNL     1      14.395  10.875 -13.075  1.00  0.00     0.000 C 
BRANCH  17  18
ATOM     18  C   UNL     1      14.248   9.700 -14.055  1.00  0.00    -0.000 C 
BRANCH  18  19
ATOM     19  C   UNL     1      15.246   8.561 -13.777  1.00  0.00    -0.000 C 
BRANCH  19  20
ATOM     20  C   UNL     1      15.812   7.955 -15.072  1.00  0.00    -0.000 C 
BRANCH  20  21
ATOM     21  C   UNL     1      17.334   8.148 -15.197  1.00  0.00    -0.000 C 
BRANCH  21  22
ATOM     22  C   UNL     1      17.745   9.628 -15.180  1.00  0.00    -0.000 C 
BRANCH  22  23
ATOM     23  C   UNL     1      18.896   9.916 -14.201  1.00  0.00    -0.000 C 
BRANCH  23  24
ATOM     24  C   UNL     1      18.822  11.327 -13.592  1.00  0.00    -0.000 C 
BRANCH  24  25
ATOM     25  C   UNL     1      19.709  12.376 -14.287  1.00  0.00    -0.003 C 
ATOM     26  C   UNL     1      21.167  11.936 -14.413  1.00  0.00     0.004 C 
ENDBRANCH  24  25
ENDBRANCH  23  24
ENDBRANCH  22  23
ENDBRANCH  21  22
ENDBRANCH  20  21
ENDBRANCH  19  20
ENDBRANCH  18  19
ENDBRANCH  17  18
ENDBRANCH  16  17
ENDBRANCH  15  16
ENDBRANCH   1  15
TORSDOF 22
ENDMDL
MODEL 8
REMARK VINA RESULT:     7.125      4.578     13.314
REMARK INTER + INTRA:          14.593
REMARK INTER:                  15.628
REMARK INTRA:                  -1.035
REMARK UNBOUND:                -1.695
REMARK SMILES CCCCCCCCCCCCCCCCCCCCCCCC(=O)[O-]
REMARK SMILES IDX 13 1 14 2 15 3 16 4 17 5 18 6 19 7 20 8 21 9 22 10 23 11
REMARK SMILES IDX 24 12 25 13 26 14 12 15 11 16 10 17 9 18 8 19 7 20 6 21 5 22
REMARK SMILES IDX 4 23 3 24 2 25 1 26
REMARK H PARENT
REMARK Flexibility Score: inf
ROOT
ATOM      1  C   UNL     1      11.437  12.029 -13.927  1.00  0.00     0.000 C 
ENDROOT
BRANCH   1   2
ATOM      2  C   UNL     1      10.149  12.138 -13.085  1.00  0.00     0.000 C 
BRANCH   2   3
ATOM      3  C   UNL     1       8.900  11.510 -13.729  1.00  0.00     0.000 C 
BRANCH   3   4
ATOM      4  C   UNL     1       7.747  11.330 -12.732  1.00  0.00     0.000 C 
BRANCH   4   5
ATOM      5  C   UNL     1       6.875  10.123 -13.110  1.00  0.00     0.000 C 
BRANCH   5   6
ATOM      6  C   UNL     1       6.017  10.387 -14.359  1.00  0.00     0.000 C 
BRANCH   6   7
ATOM      7  C   UNL     1       4.715   9.572 -14.359  1.00  0.00     0.000 C 
BRANCH   7   8
ATOM      8  C   UNL     1       3.701  10.158 -13.365  1.00  0.00     0.000 C 
BRANCH   8   9
ATOM      9  C   UNL     1       2.292  10.313 -13.969  1.00  0.00     0.000 C 
BRANCH   9  10
ATOM     10  C   UNL     1       2.245  10.934 -15.381  1.00  0.00     0.006 C 
BRANCH  10  11
ATOM     11  C   UNL     1       1.900  12.434 -15.399  1.00  0.00     0.053 C 
BRANCH  11  12
ATOM     12  C   UNL     1       3.112  13.311 -15.496  1.00  0.00     0.041 C 
ATOM     13  O   UNL     1       3.091  14.484 -15.037  1.00  0.00    -0.550 OA
ATOM     14  O   UNL     1       4.279  12.818 -16.069  1.00  0.00    -0.550 OA
ENDBRANCH  11  12
ENDBRANCH  10  11
ENDBRANCH   9  10
ENDBRANCH   8   9
ENDBRANCH   7   8
ENDBRANCH   6   7
ENDBRANCH   5   6
ENDBRANCH   4   5
ENDBRANCH   3   4
ENDBRANCH   2   3
ENDBRANCH   1   2
BRANCH   1  15
ATOM     15  C   UNL     1      12.752  12.030 -13.120  1.00  0.00     0.000 C 
BRANCH  15  16
ATOM     16  C   UNL     1      13.777  10.959 -13.539  1.00  0.00     0.000 C 
BRANCH  16  17
ATOM     17  C   UNL     1      15.174  11.206 -12.943  1.00  0.00     0.000 C 
BRANCH  17  18
ATOM     18  C   UNL     1      16.246  10.277 -13.536  1.00  0.00    -0.000 C 
BRANCH  18  19
ATOM     19  C   UNL     1      17.661  10.878 -13.469  1.00  0.00    -0.000 C 
BRANCH  19  20
ATOM     20  C   UNL     1      18.636  10.179 -14.430  1.00  0.00    -0.000 C 
BRANCH  20  21
ATOM     21  C   UNL     1      19.551  11.172 -15.167  1.00  0.00    -0.000 C 
BRANCH  21  22
ATOM     22  C   UNL     1      20.050  12.304 -14.256  1.00  0.00    -0.000 C 
BRANCH  22  23
ATOM     23  C   UNL     1      21.473  12.770 -14.608  1.00  0.00    -0.000 C 
BRANCH  23  24
ATOM     24  C   UNL     1      21.765  14.205 -14.136  1.00  0.00    -0.000 C 
BRANCH  24  25
ATOM     25  C   UNL     1      22.125  15.192 -15.260  1.00  0.00    -0.003 C 
ATOM     26  C   UNL     1      20.923  15.582 -16.119  1.00  0.00     0.004 C 
ENDBRANCH  24  25
ENDBRANCH  23  24
ENDBRANCH  22  23
ENDBRANCH  21  22
ENDBRANCH  20  21
ENDBRANCH  19  20
ENDBRANCH  18  19
ENDBRANCH  17  18
ENDBRANCH  16  17
ENDBRANCH  15  16
ENDBRANCH   1  15
TORSDOF 22
ENDMDL
