MODEL 1
REMARK VINA RESULT:    -4.777      0.000      0.000
REMARK INTER + INTRA:          -6.990
REMARK INTER:                  -6.453
REMARK INTRA:                  -0.537
REMARK UNBOUND:                -0.537
REMARK SMILES O=C[C@@H](O)[C@@H](O)[C@@H](O)CO
REMARK SMILES IDX 7 1 9 2 10 3 5 5 3 6 2 7 1 8 4 9 6 11 8 13
REMARK H PARENT 10 4 4 10 6 12 8 14
REMARK Flexibility Score: inf
ROOT
ATOM      1  C   UNL     1     -22.305  12.010 -18.679  1.00  0.00     0.171 C 
ENDROOT
BRANCH   1   2
ATOM      2  C   UNL     1     -22.201  13.468 -18.186  1.00  0.00     0.190 C 
BRANCH   2   3
ATOM      3  O   UNL     1     -23.339  13.841 -17.455  1.00  0.00    -0.394 OA
ATOM      4  H   UNL     1     -23.073  13.862 -16.498  1.00  0.00     0.210 HD
ENDBRANCH   2   3
ENDBRANCH   1   2
BRANCH   1   5
ATOM      5  C   UNL     1     -21.710  10.990 -17.669  1.00  0.00     0.181 C 
BRANCH   5   6
ATOM      6  C   UNL     1     -20.325  10.469 -18.134  1.00  0.00     0.209 C 
BRANCH   6   7
ATOM      7  C   UNL     1     -19.202  11.193 -17.437  1.00  0.00     0.258 C 
ATOM      8  O   UNL     1     -18.842  12.299 -17.814  1.00  0.00    -0.300 OA
ENDBRANCH   6   7
BRANCH   6   9
ATOM      9  O   UNL     1     -20.194   9.083 -17.938  1.00  0.00    -0.383 OA
ATOM     10  H   UNL     1     -19.291   8.817 -18.252  1.00  0.00     0.211 HD
ENDBRANCH   6   9
ENDBRANCH   5   6
BRANCH   5  11
ATOM     11  O   UNL     1     -21.555  11.611 -16.416  1.00  0.00    -0.387 OA
ATOM     12  H   UNL     1     -22.456  11.908 -16.121  1.00  0.00     0.211 HD
ENDBRANCH   5  11
ENDBRANCH   1   5
BRANCH   1  13
ATOM     13  O   UNL     1     -23.641  11.706 -18.999  1.00  0.00    -0.388 OA
ATOM     14  H   UNL     1     -24.077  11.361 -18.176  1.00  0.00     0.211 HD
ENDBRANCH   1  13
TORSDOF 8
ENDMDL
MODEL 2
REMARK VINA RESULT:    -4.748      1.400      3.498
REMARK INTER + INTRA:          -6.951
REMARK INTER:                  -6.417
REMARK INTRA:                  -0.534
REMARK UNBOUND:                -0.537
REMARK SMILES O=C[C@@H](O)[C@@H](O)[C@@H](O)CO
REMARK SMILES IDX 7 1 9 2 10 3 5 5 3 6 2 7 1 8 4 9 6 11 8 13
REMARK H PARENT 10 4 4 10 6 12 8 14
REMARK Flexibility Score: inf
ROOT
ATOM      1  C   UNL     1     -19.822  10.826 -17.173  1.00  0.00     0.171 C 
ENDROOT
BRANCH   1   2
ATOM      2  C   UNL     1     -18.562  11.659 -17.483  1.00  0.00     0.190 C 
BRANCH   2   3
ATOM      3  O   UNL     1     -18.850  12.711 -18.366  1.00  0.00    -0.394 OA
ATOM      4  H   UNL     1     -19.620  13.207 -17.982  1.00  0.00     0.210 HD
ENDBRANCH   2   3
ENDBRANCH   1   2
BRANCH   1   5
ATOM      5  C   UNL     1     -21.092  11.366 -17.889  1.00  0.00     0.181 C 
BRANCH   5   6
ATOM      6  C   UNL     1     -21.617  10.365 -18.950  1.00  0.00     0.209 C 
BRANCH   6   7
ATOM      7  C   UNL     1     -22.874  10.871 -19.611  1.00  0.00     0.258 C 
ATOM      8  O   UNL     1     -23.345  11.957 -19.309  1.00  0.00    -0.300 OA
ENDBRANCH   6   7
BRANCH   6   9
ATOM      9  O   UNL     1     -20.646  10.079 -19.925  1.00  0.00    -0.383 OA
ATOM     10  H   UNL     1     -20.711  10.774 -20.631  1.00  0.00     0.211 HD
ENDBRANCH   6   9
ENDBRANCH   5   6
BRANCH   5  11
ATOM     11  O   UNL     1     -22.107  11.581 -16.938  1.00  0.00    -0.387 OA
ATOM     12  H   UNL     1     -22.974  11.387 -17.382  1.00  0.00     0.211 HD
ENDBRANCH   5  11
ENDBRANCH   1   5
BRANCH   1  13
ATOM     13  O   UNL     1     -19.590   9.472 -17.478  1.00  0.00    -0.388 OA
ATOM     14  H   UNL     1     -20.395   9.126 -17.946  1.00  0.00     0.211 HD
ENDBRANCH   1  13
TORSDOF 8
ENDMDL
MODEL 3
REMARK VINA RESULT:    -4.740      1.182      2.067
REMARK INTER + INTRA:          -6.940
REMARK INTER:                  -6.520
REMARK INTRA:                  -0.420
REMARK UNBOUND:                -0.537
REMARK SMILES O=C[C@@H](O)[C@@H](O)[C@@H](O)CO
REMARK SMILES IDX 7 1 9 2 10 3 5 5 3 6 2 7 1 8 4 9 6 11 8 13
REMARK H PARENT 10 4 4 10 6 12 8 14
REMARK Flexibility Score: inf
ROOT
ATOM      1  C   UNL     1     -21.584  12.257 -18.632  1.00  0.00     0.171 C 
ENDROOT
BRANCH   1   2
ATOM      2  C   UNL     1     -22.057  13.680 -18.275  1.00  0.00     0.190 C 
BRANCH   2   3
ATOM      3  O   UNL     1     -22.903  13.671 -17.155  1.00  0.00    -0.394 OA
ATOM      4  H   UNL     1     -22.334  13.469 -16.366  1.00  0.00     0.210 HD
ENDBRANCH   2   3
ENDBRANCH   1   2
BRANCH   1   5
ATOM      5  C   UNL     1     -20.237  11.882 -17.952  1.00  0.00     0.181 C 
BRANCH   5   6
ATOM      6  C   UNL     1     -19.742  10.483 -18.399  1.00  0.00     0.209 C 
BRANCH   6   7
ATOM      7  C   UNL     1     -20.144   9.414 -17.415  1.00  0.00     0.258 C 
ATOM      8  O   UNL     1     -21.135   8.727 -17.610  1.00  0.00    -0.300 OA
ENDBRANCH   6   7
BRANCH   6   9
ATOM      9  O   UNL     1     -20.207  10.149 -19.683  1.00  0.00    -0.383 OA
ATOM     10  H   UNL     1     -21.164  10.411 -19.737  1.00  0.00     0.211 HD
ENDBRANCH   6   9
ENDBRANCH   5   6
BRANCH   5  11
ATOM     11  O   UNL     1     -19.260  12.833 -18.300  1.00  0.00    -0.387 OA
ATOM     12  H   UNL     1     -19.348  13.593 -17.666  1.00  0.00     0.211 HD
ENDBRANCH   5  11
ENDBRANCH   1   5
BRANCH   1  13
ATOM     13  O   UNL     1     -22.594  11.325 -18.330  1.00  0.00    -0.388 OA
ATOM     14  H   UNL     1     -22.716  11.320 -17.344  1.00  0.00     0.211 HD
ENDBRANCH   1  13
TORSDOF 8
ENDMDL
MODEL 4
REMARK VINA RESULT:    -4.709      1.182      2.281
REMARK INTER + INTRA:          -6.897
REMARK INTER:                  -6.225
REMARK INTRA:                  -0.673
REMARK UNBOUND:                -0.537
REMARK SMILES O=C[C@@H](O)[C@@H](O)[C@@H](O)CO
REMARK SMILES IDX 7 1 9 2 10 3 5 5 3 6 2 7 1 8 4 9 6 11 8 13
REMARK H PARENT 10 4 4 10 6 12 8 14
REMARK Flexibility Score: inf
ROOT
ATOM      1  C   UNL     1     -20.950  13.044 -18.030  1.00  0.00     0.171 C 
ENDROOT
BRANCH   1   2
ATOM      2  C   UNL     1     -22.013  13.955 -18.677  1.00  0.00     0.190 C 
BRANCH   2   3
ATOM      3  O   UNL     1     -23.312  13.503 -18.394  1.00  0.00    -0.394 OA
ATOM      4  H   UNL     1     -23.507  12.769 -19.033  1.00  0.00     0.210 HD
ENDBRANCH   2   3
ENDBRANCH   1   2
BRANCH   1   5
ATOM      5  C   UNL     1     -21.358  11.544 -18.037  1.00  0.00     0.181 C 
BRANCH   5   6
ATOM      6  C   UNL     1     -20.132  10.621 -18.254  1.00  0.00     0.209 C 
BRANCH   6   7
ATOM      7  C   UNL     1     -20.238   9.360 -17.435  1.00  0.00     0.258 C 
ATOM      8  O   UNL     1     -21.098   8.527 -17.679  1.00  0.00    -0.300 OA
ENDBRANCH   6   7
BRANCH   6   9
ATOM      9  O   UNL     1     -19.956  10.296 -19.610  1.00  0.00    -0.383 OA
ATOM     10  H   UNL     1     -19.551   9.390 -19.655  1.00  0.00     0.211 HD
ENDBRANCH   6   9
ENDBRANCH   5   6
BRANCH   5  11
ATOM     11  O   UNL     1     -21.949  11.217 -16.801  1.00  0.00    -0.387 OA
ATOM     12  H   UNL     1     -21.355  11.571 -16.088  1.00  0.00     0.211 HD
ENDBRANCH   5  11
ENDBRANCH   1   5
BRANCH   1  13
ATOM     13  O   UNL     1     -19.703  13.246 -18.651  1.00  0.00    -0.388 OA
ATOM     14  H   UNL     1     -19.860  13.305 -19.630  1.00  0.00     0.211 HD
ENDBRANCH   1  13
TORSDOF 8
ENDMDL
MODEL 5
REMARK VINA RESULT:    -4.649      1.022      3.953
REMARK INTER + INTRA:          -6.818
REMARK INTER:                  -6.224
REMARK INTRA:                  -0.593
REMARK UNBOUND:                -0.537
REMARK SMILES O=C[C@@H](O)[C@@H](O)[C@@H](O)CO
REMARK SMILES IDX 7 1 9 2 10 3 5 5 3 6 2 7 1 8 4 9 6 11 8 13
REMARK H PARENT 10 4 4 10 6 12 8 14
REMARK Flexibility Score: inf
ROOT
ATOM      1  C   UNL     1     -20.104  11.799 -18.208  1.00  0.00     0.171 C 
ENDROOT
BRANCH   1   2
ATOM      2  C   UNL     1     -19.558  10.531 -17.520  1.00  0.00     0.190 C 
BRANCH   2   3
ATOM      3  O   UNL     1     -20.185   9.375 -18.009  1.00  0.00    -0.394 OA
ATOM      4  H   UNL     1     -19.570   8.616 -17.829  1.00  0.00     0.210 HD
ENDBRANCH   2   3
ENDBRANCH   1   2
BRANCH   1   5
ATOM      5  C   UNL     1     -21.431  12.303 -17.574  1.00  0.00     0.181 C 
BRANCH   5   6
ATOM      6  C   UNL     1     -22.469  12.691 -18.659  1.00  0.00     0.209 C 
BRANCH   6   7
ATOM      7  C   UNL     1     -23.203  11.481 -19.178  1.00  0.00     0.258 C 
ATOM      8  O   UNL     1     -22.590  10.507 -19.588  1.00  0.00    -0.300 OA
ENDBRANCH   6   7
BRANCH   6   9
ATOM      9  O   UNL     1     -23.390  13.641 -18.185  1.00  0.00    -0.383 OA
ATOM     10  H   UNL     1     -22.894  14.287 -17.617  1.00  0.00     0.211 HD
ENDBRANCH   6   9
ENDBRANCH   5   6
BRANCH   5  11
ATOM     11  O   UNL     1     -21.982  11.283 -16.775  1.00  0.00    -0.387 OA
ATOM     12  H   UNL     1     -21.404  10.482 -16.880  1.00  0.00     0.211 HD
ENDBRANCH   5  11
ENDBRANCH   1   5
BRANCH   1  13
ATOM     13  O   UNL     1     -19.119  12.803 -18.216  1.00  0.00    -0.388 OA
ATOM     14  H   UNL     1     -19.581  13.679 -18.281  1.00  0.00     0.211 HD
ENDBRANCH   1  13
TORSDOF 8
ENDMDL
MODEL 6
REMARK VINA RESULT:    -4.482      1.145      2.090
REMARK INTER + INTRA:          -6.592
REMARK INTER:                  -6.110
REMARK INTRA:                  -0.482
REMARK UNBOUND:                -0.537
REMARK SMILES O=C[C@@H](O)[C@@H](O)[C@@H](O)CO
REMARK SMILES IDX 7 1 9 2 10 3 5 5 3 6 2 7 1 8 4 9 6 11 8 13
REMARK H PARENT 10 4 4 10 6 12 8 14
REMARK Flexibility Score: inf
ROOT
ATOM      1  C   UNL     1     -21.083  12.802 -18.029  1.00  0.00     0.171 C 
ENDROOT
BRANCH   1   2
ATOM      2  C   UNL     1     -22.098  13.898 -18.409  1.00  0.00     0.190 C 
BRANCH   2   3
ATOM      3  O   UNL     1     -23.238  13.843 -17.592  1.00  0.00    -0.394 OA
ATOM      4  H   UNL     1     -23.318  12.906 -17.271  1.00  0.00     0.210 HD
ENDBRANCH   2   3
ENDBRANCH   1   2
BRANCH   1   5
ATOM      5  C   UNL     1     -21.521  11.386 -18.497  1.00  0.00     0.181 C 
BRANCH   5   6
ATOM      6  C   UNL     1     -21.254  10.317 -17.407  1.00  0.00     0.209 C 
BRANCH   6   7
ATOM      7  C   UNL     1     -19.869   9.734 -17.533  1.00  0.00     0.258 C 
ATOM      8  O   UNL     1     -18.880  10.444 -17.425  1.00  0.00    -0.300 OA
ENDBRANCH   6   7
BRANCH   6   9
ATOM      9  O   UNL     1     -21.439  10.832 -16.112  1.00  0.00    -0.383 OA
ATOM     10  H   UNL     1     -20.542  10.954 -15.703  1.00  0.00     0.211 HD
ENDBRANCH   6   9
ENDBRANCH   5   6
BRANCH   5  11
ATOM     11  O   UNL     1     -22.899  11.397 -18.784  1.00  0.00    -0.387 OA
ATOM     12  H   UNL     1     -23.039  12.030 -19.537  1.00  0.00     0.211 HD
ENDBRANCH   5  11
ENDBRANCH   1   5
BRANCH   1  13
ATOM     13  O   UNL     1     -19.807  13.139 -18.518  1.00  0.00    -0.388 OA
ATOM     14  H   UNL     1     -19.197  12.382 -18.318  1.00  0.00     0.211 HD
ENDBRANCH   1  13
TORSDOF 8
ENDMDL
MODEL 7
REMARK VINA RESULT:    -4.478      1.358      3.660
REMARK INTER + INTRA:          -6.585
REMARK INTER:                  -5.928
REMARK INTRA:                  -0.658
REMARK UNBOUND:                -0.537
REMARK SMILES O=C[C@@H](O)[C@@H](O)[C@@H](O)CO
REMARK SMILES IDX 7 1 9 2 10 3 5 5 3 6 2 7 1 8 4 9 6 11 8 13
REMARK H PARENT 10 4 4 10 6 12 8 14
REMARK Flexibility Score: inf
ROOT
ATOM      1  C   UNL     1     -21.138   9.970 -18.662  1.00  0.00     0.171 C 
ENDROOT
BRANCH   1   2
ATOM      2  C   UNL     1     -20.329   9.329 -17.517  1.00  0.00     0.190 C 
BRANCH   2   3
ATOM      3  O   UNL     1     -18.970   9.670 -17.600  1.00  0.00    -0.394 OA
ATOM      4  H   UNL     1     -18.889  10.608 -17.284  1.00  0.00     0.210 HD
ENDBRANCH   2   3
ENDBRANCH   1   2
BRANCH   1   5
ATOM      5  C   UNL     1     -21.862  11.275 -18.230  1.00  0.00     0.181 C 
BRANCH   5   6
ATOM      6  C   UNL     1     -21.058  12.535 -18.640  1.00  0.00     0.209 C 
BRANCH   6   7
ATOM      7  C   UNL     1     -21.718  13.797 -18.144  1.00  0.00     0.258 C 
ATOM      8  O   UNL     1     -22.739  13.746 -17.475  1.00  0.00    -0.300 OA
ENDBRANCH   6   7
BRANCH   6   9
ATOM      9  O   UNL     1     -19.730  12.480 -18.183  1.00  0.00    -0.383 OA
ATOM     10  H   UNL     1     -19.165  12.151 -18.931  1.00  0.00     0.211 HD
ENDBRANCH   6   9
ENDBRANCH   5   6
BRANCH   5  11
ATOM     11  O   UNL     1     -23.126  11.333 -18.847  1.00  0.00    -0.387 OA
ATOM     12  H   UNL     1     -23.553  12.185 -18.566  1.00  0.00     0.211 HD
ENDBRANCH   5  11
ENDBRANCH   1   5
BRANCH   1  13
ATOM     13  O   UNL     1     -20.307  10.181 -19.778  1.00  0.00    -0.388 OA
ATOM     14  H   UNL     1     -20.765   9.799 -20.572  1.00  0.00     0.211 HD
ENDBRANCH   1  13
TORSDOF 8
ENDMDL
MODEL 8
REMARK VINA RESULT:    -4.467      1.233      3.981
REMARK INTER + INTRA:          -6.571
REMARK INTER:                  -6.019
REMARK INTRA:                  -0.553
REMARK UNBOUND:                -0.537
REMARK SMILES O=C[C@@H](O)[C@@H](O)[C@@H](O)CO
REMARK SMILES IDX 7 1 9 2 10 3 5 5 3 6 2 7 1 8 4 9 6 11 8 13
REMARK H PARENT 10 4 4 10 6 12 8 14
REMARK Flexibility Score: inf
ROOT
ATOM      1  C   UNL     1     -20.623  11.438 -17.160  1.00  0.00     0.171 C 
ENDROOT
BRANCH   1   2
ATOM      2  C   UNL     1     -19.135  11.361 -17.558  1.00  0.00     0.190 C 
BRANCH   2   3
ATOM      3  O   UNL     1     -18.753  12.477 -18.318  1.00  0.00    -0.394 OA
ATOM      4  H   UNL     1     -19.150  12.361 -19.221  1.00  0.00     0.210 HD
ENDBRANCH   2   3
ENDBRANCH   1   2
BRANCH   1   5
ATOM      5  C   UNL     1     -21.578  11.032 -18.318  1.00  0.00     0.181 C 
BRANCH   5   6
ATOM      6  C   UNL     1     -22.462  12.221 -18.772  1.00  0.00     0.209 C 
BRANCH   6   7
ATOM      7  C   UNL     1     -23.659  11.751 -19.558  1.00  0.00     0.258 C 
ATOM      8  O   UNL     1     -23.552  10.855 -20.382  1.00  0.00    -0.300 OA
ENDBRANCH   6   7
BRANCH   6   9
ATOM      9  O   UNL     1     -22.883  13.005 -17.684  1.00  0.00    -0.383 OA
ATOM     10  H   UNL     1     -22.702  12.493 -16.852  1.00  0.00     0.211 HD
ENDBRANCH   6   9
ENDBRANCH   5   6
BRANCH   5  11
ATOM     11  O   UNL     1     -20.816  10.596 -19.418  1.00  0.00    -0.387 OA
ATOM     12  H   UNL     1     -21.391   9.985 -19.951  1.00  0.00     0.211 HD
ENDBRANCH   5  11
ENDBRANCH   1   5
BRANCH   1  13
ATOM     13  O   UNL     1     -20.851  10.668 -16.005  1.00  0.00    -0.388 OA
ATOM     14  H   UNL     1     -21.675  10.135 -16.155  1.00  0.00     0.211 HD
ENDBRANCH   1  13
TORSDOF 8
ENDMDL
MODEL 9
REMARK VINA RESULT:    -4.422      1.322      1.886
REMARK INTER + INTRA:          -6.511
REMARK INTER:                  -6.183
REMARK INTRA:                  -0.328
REMARK UNBOUND:                -0.537
REMARK SMILES O=C[C@@H](O)[C@@H](O)[C@@H](O)CO
REMARK SMILES IDX 7 1 9 2 10 3 5 5 3 6 2 7 1 8 4 9 6 11 8 13
REMARK H PARENT 10 4 4 10 6 12 8 14
REMARK Flexibility Score: inf
ROOT
ATOM      1  C   UNL     1     -22.388  11.844 -18.134  1.00  0.00     0.171 C 
ENDROOT
BRANCH   1   2
ATOM      2  C   UNL     1     -23.272  12.188 -19.350  1.00  0.00     0.190 C 
BRANCH   2   3
ATOM      3  O   UNL     1     -23.577  13.557 -19.388  1.00  0.00    -0.394 OA
ATOM      4  H   UNL     1     -24.222  13.729 -18.653  1.00  0.00     0.210 HD
ENDBRANCH   2   3
ENDBRANCH   1   2
BRANCH   1   5
ATOM      5  C   UNL     1     -20.955  11.397 -18.537  1.00  0.00     0.181 C 
BRANCH   5   6
ATOM      6  C   UNL     1     -20.228  10.688 -17.365  1.00  0.00     0.209 C 
BRANCH   6   7
ATOM      7  C   UNL     1     -18.825  11.211 -17.190  1.00  0.00     0.258 C 
ATOM      8  O   UNL     1     -18.442  12.191 -17.810  1.00  0.00    -0.300 OA
ENDBRANCH   6   7
BRANCH   6   9
ATOM      9  O   UNL     1     -20.938  10.811 -16.158  1.00  0.00    -0.383 OA
ATOM     10  H   UNL     1     -20.290  11.068 -15.451  1.00  0.00     0.211 HD
ENDBRANCH   6   9
ENDBRANCH   5   6
BRANCH   5  11
ATOM     11  O   UNL     1     -21.035  10.500 -19.619  1.00  0.00    -0.387 OA
ATOM     12  H   UNL     1     -21.554  10.950 -20.337  1.00  0.00     0.211 HD
ENDBRANCH   5  11
ENDBRANCH   1   5
BRANCH   1  13
ATOM     13  O   UNL     1     -22.360  12.930 -17.239  1.00  0.00    -0.388 OA
ATOM     14  H   UNL     1     -23.216  12.929 -16.736  1.00  0.00     0.211 HD
ENDBRANCH   1  13
TORSDOF 8
ENDMDL
