MODEL 1
REMARK VINA RESULT:    -4.112      0.000      0.000
REMARK INTER + INTRA:          -4.511
REMARK INTER:                  -4.352
REMARK INTRA:                  -0.159
REMARK UNBOUND:                -0.159
REMARK SMILES C=C(C)[C@H]1CC=C(C)C(=O)C1
REMARK SMILES IDX 8 1 7 2 6 3 5 4 4 5 11 6 9 7 10 8 2 9 1 10 3 11
REMARK H PARENT
REMARK Flexibility Score: inf
ROOT
ATOM      1  C   UNL     1      34.309  72.241 107.125  1.00  0.00     0.048 C 
ATOM      2  C   UNL     1      33.172  71.610 106.372  1.00  0.00    -0.012 C 
ATOM      3  C   UNL     1      31.905  71.858 106.744  1.00  0.00    -0.019 C 
ATOM      4  C   UNL     1      30.731  71.269 106.010  1.00  0.00     0.036 C 
ATOM      5  C   UNL     1      31.035  69.857 105.471  1.00  0.00     0.025 C 
ATOM      6  C   UNL     1      32.325  69.887 104.621  1.00  0.00     0.089 C 
ATOM      7  C   UNL     1      33.450  70.602 105.319  1.00  0.00     0.158 C 
ATOM      8  O   UNL     1      34.638  70.354 104.979  1.00  0.00    -0.295 OA
ENDROOT
BRANCH   5   9
ATOM      9  C   UNL     1      31.035  68.820 106.597  1.00  0.00    -0.077 C 
ATOM     10  C   UNL     1      30.037  68.843 107.498  1.00  0.00     0.008 C 
ATOM     11  C   UNL     1      32.141  67.799 106.750  1.00  0.00     0.039 C 
ENDBRANCH   5   9
TORSDOF 1
ENDMDL
MODEL 2
REMARK VINA RESULT:    -3.931      1.969      4.092
REMARK INTER + INTRA:          -4.320
REMARK INTER:                  -4.196
REMARK INTRA:                  -0.124
REMARK UNBOUND:                -0.159
REMARK SMILES C=C(C)[C@H]1CC=C(C)C(=O)C1
REMARK SMILES IDX 8 1 7 2 6 3 5 4 4 5 11 6 9 7 10 8 2 9 1 10 3 11
REMARK H PARENT
REMARK Flexibility Score: inf
ROOT
ATOM      1  C   UNL     1      30.762  69.621 107.515  1.00  0.00     0.048 C 
ATOM      2  C   UNL     1      32.053  70.101 106.914  1.00  0.00    -0.012 C 
ATOM      3  C   UNL     1      33.116  69.280 106.873  1.00  0.00    -0.019 C 
ATOM      4  C   UNL     1      34.424  69.703 106.262  1.00  0.00     0.036 C 
ATOM      5  C   UNL     1      34.709  71.202 106.486  1.00  0.00     0.025 C 
ATOM      6  C   UNL     1      33.511  72.043 105.991  1.00  0.00     0.089 C 
ATOM      7  C   UNL     1      32.198  71.519 106.504  1.00  0.00     0.158 C 
ATOM      8  O   UNL     1      31.206  72.297 106.556  1.00  0.00    -0.295 OA
ENDROOT
BRANCH   5   9
ATOM      9  C   UNL     1      35.130  71.478 107.932  1.00  0.00    -0.077 C 
ATOM     10  C   UNL     1      35.084  72.741 108.389  1.00  0.00     0.008 C 
ATOM     11  C   UNL     1      35.634  70.382 108.845  1.00  0.00     0.039 C 
ENDBRANCH   5   9
TORSDOF 1
ENDMDL
MODEL 3
REMARK VINA RESULT:    -3.916      1.817      2.799
REMARK INTER + INTRA:          -4.305
REMARK INTER:                  -4.163
REMARK INTRA:                  -0.142
REMARK UNBOUND:                -0.159
REMARK SMILES C=C(C)[C@H]1CC=C(C)C(=O)C1
REMARK SMILES IDX 8 1 7 2 6 3 5 4 4 5 11 6 9 7 10 8 2 9 1 10 3 11
REMARK H PARENT
REMARK Flexibility Score: inf
ROOT
ATOM      1  C   UNL     1      35.742  71.462 109.279  1.00  0.00     0.048 C 
ATOM      2  C   UNL     1      35.086  71.193 107.954  1.00  0.00    -0.012 C 
ATOM      3  C   UNL     1      34.632  72.217 107.213  1.00  0.00    -0.019 C 
ATOM      4  C   UNL     1      33.988  72.003 105.870  1.00  0.00     0.036 C 
ATOM      5  C   UNL     1      33.178  70.693 105.819  1.00  0.00     0.025 C 
ATOM      6  C   UNL     1      34.067  69.508 106.258  1.00  0.00     0.089 C 
ATOM      7  C   UNL     1      34.809  69.797 107.535  1.00  0.00     0.158 C 
ATOM      8  O   UNL     1      35.220  68.833 108.236  1.00  0.00    -0.295 OA
ENDROOT
BRANCH   5   9
ATOM      9  C   UNL     1      31.861  70.824 106.590  1.00  0.00    -0.077 C 
ATOM     10  C   UNL     1      31.230  72.011 106.596  1.00  0.00     0.008 C 
ATOM     11  C   UNL     1      31.271  69.673 107.375  1.00  0.00     0.039 C 
ENDBRANCH   5   9
TORSDOF 1
ENDMDL
MODEL 4
REMARK VINA RESULT:    -3.916      2.021      3.786
REMARK INTER + INTRA:          -4.305
REMARK INTER:                  -4.145
REMARK INTRA:                  -0.159
REMARK UNBOUND:                -0.159
REMARK SMILES C=C(C)[C@H]1CC=C(C)C(=O)C1
REMARK SMILES IDX 8 1 7 2 6 3 5 4 4 5 11 6 9 7 10 8 2 9 1 10 3 11
REMARK H PARENT
REMARK Flexibility Score: inf
ROOT
ATOM      1  C   UNL     1      31.077  67.733 103.767  1.00  0.00     0.048 C 
ATOM      2  C   UNL     1      30.953  68.838 104.778  1.00  0.00    -0.012 C 
ATOM      3  C   UNL     1      31.053  70.118 104.384  1.00  0.00    -0.019 C 
ATOM      4  C   UNL     1      30.914  71.262 105.352  1.00  0.00     0.036 C 
ATOM      5  C   UNL     1      31.483  70.915 106.742  1.00  0.00     0.025 C 
ATOM      6  C   UNL     1      30.846  69.606 107.259  1.00  0.00     0.089 C 
ATOM      7  C   UNL     1      30.872  68.514 106.224  1.00  0.00     0.158 C 
ATOM      8  O   UNL     1      30.795  67.312 106.599  1.00  0.00    -0.295 OA
ENDROOT
BRANCH   5   9
ATOM      9  C   UNL     1      33.014  70.920 106.733  1.00  0.00    -0.077 C 
ATOM     10  C   UNL     1      33.654  71.939 106.134  1.00  0.00     0.008 C 
ATOM     11  C   UNL     1      33.826  69.796 107.339  1.00  0.00     0.039 C 
ENDBRANCH   5   9
TORSDOF 1
ENDMDL
MODEL 5
REMARK VINA RESULT:    -3.862      2.063      3.909
REMARK INTER + INTRA:          -4.248
REMARK INTER:                  -4.130
REMARK INTRA:                  -0.118
REMARK UNBOUND:                -0.159
REMARK SMILES C=C(C)[C@H]1CC=C(C)C(=O)C1
REMARK SMILES IDX 8 1 7 2 6 3 5 4 4 5 11 6 9 7 10 8 2 9 1 10 3 11
REMARK H PARENT
REMARK Flexibility Score: inf
ROOT
ATOM      1  C   UNL     1      31.361  71.902 106.583  1.00  0.00     0.048 C 
ATOM      2  C   UNL     1      32.753  71.349 106.455  1.00  0.00    -0.012 C 
ATOM      3  C   UNL     1      33.765  72.161 106.110  1.00  0.00    -0.019 C 
ATOM      4  C   UNL     1      35.180  71.662 105.991  1.00  0.00     0.036 C 
ATOM      5  C   UNL     1      35.239  70.212 105.468  1.00  0.00     0.025 C 
ATOM      6  C   UNL     1      34.350  69.302 106.344  1.00  0.00     0.089 C 
ATOM      7  C   UNL     1      32.981  69.887 106.564  1.00  0.00     0.158 C 
ATOM      8  O   UNL     1      32.029  69.119 106.872  1.00  0.00    -0.295 OA
ENDROOT
BRANCH   5   9
ATOM      9  C   UNL     1      34.938  70.149 103.968  1.00  0.00    -0.077 C 
ATOM     10  C   UNL     1      35.695  70.873 103.125  1.00  0.00     0.008 C 
ATOM     11  C   UNL     1      33.793  69.332 103.412  1.00  0.00     0.039 C 
ENDBRANCH   5   9
TORSDOF 1
ENDMDL
MODEL 6
REMARK VINA RESULT:    -3.833     10.574     12.044
REMARK INTER + INTRA:          -4.216
REMARK INTER:                  -4.056
REMARK INTRA:                  -0.160
REMARK UNBOUND:                -0.159
REMARK SMILES C=C(C)[C@H]1CC=C(C)C(=O)C1
REMARK SMILES IDX 8 1 7 2 6 3 5 4 4 5 11 6 9 7 10 8 2 9 1 10 3 11
REMARK H PARENT
REMARK Flexibility Score: inf
ROOT
ATOM      1  C   UNL     1      28.490  62.975  97.356  1.00  0.00     0.048 C 
ATOM      2  C   UNL     1      29.211  61.800  97.953  1.00  0.00    -0.012 C 
ATOM      3  C   UNL     1      28.579  60.622  98.079  1.00  0.00    -0.019 C 
ATOM      4  C   UNL     1      29.264  59.409  98.649  1.00  0.00     0.036 C 
ATOM      5  C   UNL     1      30.272  59.781  99.755  1.00  0.00     0.025 C 
ATOM      6  C   UNL     1      31.263  60.841  99.226  1.00  0.00     0.089 C 
ATOM      7  C   UNL     1      30.563  61.980  98.537  1.00  0.00     0.158 C 
ATOM      8  O   UNL     1      31.154  63.090  98.435  1.00  0.00    -0.295 OA
ENDROOT
BRANCH   5   9
ATOM      9  C   UNL     1      29.556  60.165 101.053  1.00  0.00    -0.077 C 
ATOM     10  C   UNL     1      28.480  59.455 101.433  1.00  0.00     0.008 C 
ATOM     11  C   UNL     1      29.998  61.341 101.896  1.00  0.00     0.039 C 
ENDBRANCH   5   9
TORSDOF 1
ENDMDL
MODEL 7
REMARK VINA RESULT:    -3.809      7.785      9.396
REMARK INTER + INTRA:          -4.191
REMARK INTER:                  -4.089
REMARK INTRA:                  -0.102
REMARK UNBOUND:                -0.159
REMARK SMILES C=C(C)[C@H]1CC=C(C)C(=O)C1
REMARK SMILES IDX 8 1 7 2 6 3 5 4 4 5 11 6 9 7 10 8 2 9 1 10 3 11
REMARK H PARENT
REMARK Flexibility Score: inf
ROOT
ATOM      1  C   UNL     1      23.726  75.603 109.128  1.00  0.00     0.048 C 
ATOM      2  C   UNL     1      24.755  75.739 108.041  1.00  0.00    -0.012 C 
ATOM      3  C   UNL     1      24.946  76.929 107.447  1.00  0.00    -0.019 C 
ATOM      4  C   UNL     1      25.978  77.124 106.370  1.00  0.00     0.036 C 
ATOM      5  C   UNL     1      26.133  75.870 105.485  1.00  0.00     0.025 C 
ATOM      6  C   UNL     1      26.410  74.634 106.370  1.00  0.00     0.089 C 
ATOM      7  C   UNL     1      25.449  74.534 107.523  1.00  0.00     0.158 C 
ATOM      8  O   UNL     1      25.260  73.412 108.067  1.00  0.00    -0.295 OA
ENDROOT
BRANCH   5   9
ATOM      9  C   UNL     1      24.951  75.718 104.525  1.00  0.00    -0.077 C 
ATOM     10  C   UNL     1      24.691  76.710 103.655  1.00  0.00     0.008 C 
ATOM     11  C   UNL     1      24.044  74.507 104.553  1.00  0.00     0.039 C 
ENDBRANCH   5   9
TORSDOF 1
ENDMDL
MODEL 8
REMARK VINA RESULT:    -3.789     11.109     12.666
REMARK INTER + INTRA:          -4.170
REMARK INTER:                  -4.008
REMARK INTRA:                  -0.161
REMARK UNBOUND:                -0.159
REMARK SMILES C=C(C)[C@H]1CC=C(C)C(=O)C1
REMARK SMILES IDX 8 1 7 2 6 3 5 4 4 5 11 6 9 7 10 8 2 9 1 10 3 11
REMARK H PARENT
REMARK Flexibility Score: inf
ROOT
ATOM      1  C   UNL     1      29.320  59.189  99.025  1.00  0.00     0.048 C 
ATOM      2  C   UNL     1      29.158  60.627  98.621  1.00  0.00    -0.012 C 
ATOM      3  C   UNL     1      28.253  60.960  97.686  1.00  0.00    -0.019 C 
ATOM      4  C   UNL     1      28.036  62.387  97.262  1.00  0.00     0.036 C 
ATOM      5  C   UNL     1      29.344  63.203  97.289  1.00  0.00     0.025 C 
ATOM      6  C   UNL     1      30.011  63.081  98.677  1.00  0.00     0.089 C 
ATOM      7  C   UNL     1      30.094  61.652  99.143  1.00  0.00     0.158 C 
ATOM      8  O   UNL     1      30.956  61.340 100.009  1.00  0.00    -0.295 OA
ENDROOT
BRANCH   5   9
ATOM      9  C   UNL     1      30.250  62.840  96.109  1.00  0.00    -0.077 C 
ATOM     10  C   UNL     1      29.696  62.665  94.897  1.00  0.00     0.008 C 
ATOM     11  C   UNL     1      31.740  62.632  96.274  1.00  0.00     0.039 C 
ENDBRANCH   5   9
TORSDOF 1
ENDMDL
MODEL 9
REMARK VINA RESULT:    -3.753      1.523      2.333
REMARK INTER + INTRA:          -4.132
REMARK INTER:                  -3.969
REMARK INTRA:                  -0.163
REMARK UNBOUND:                -0.159
REMARK SMILES C=C(C)[C@H]1CC=C(C)C(=O)C1
REMARK SMILES IDX 8 1 7 2 6 3 5 4 4 5 11 6 9 7 10 8 2 9 1 10 3 11
REMARK H PARENT
REMARK Flexibility Score: inf
ROOT
ATOM      1  C   UNL     1      35.045  69.967 107.157  1.00  0.00     0.048 C 
ATOM      2  C   UNL     1      33.557  70.159 107.060  1.00  0.00    -0.012 C 
ATOM      3  C   UNL     1      32.730  69.207 107.521  1.00  0.00    -0.019 C 
ATOM      4  C   UNL     1      31.233  69.360 107.468  1.00  0.00     0.036 C 
ATOM      5  C   UNL     1      30.776  70.135 106.216  1.00  0.00     0.025 C 
ATOM      6  C   UNL     1      31.524  71.484 106.131  1.00  0.00     0.089 C 
ATOM      7  C   UNL     1      33.008  71.324 106.324  1.00  0.00     0.158 C 
ATOM      8  O   UNL     1      33.783  72.212 105.875  1.00  0.00    -0.295 OA
ENDROOT
BRANCH   5   9
ATOM      9  C   UNL     1      30.876  69.268 104.958  1.00  0.00    -0.077 C 
ATOM     10  C   UNL     1      31.125  69.864 103.779  1.00  0.00     0.008 C 
ATOM     11  C   UNL     1      30.664  67.770 104.995  1.00  0.00     0.039 C 
ENDBRANCH   5   9
TORSDOF 1
ENDMDL
