MODEL 1
REMARK VINA RESULT:    -5.895      0.000      0.000
REMARK INTER + INTRA:         -11.473
REMARK INTER:                  -8.997
REMARK INTRA:                  -2.477
REMARK UNBOUND:                -2.477
REMARK SMILES CC(=O)CCC=C(C)CCC=C(C)CCC=C(C)C
REMARK SMILES IDX 10 1 11 2 12 3 13 4 14 5 15 6 16 7 18 8 17 9 19 10 9 11 7 12
REMARK SMILES IDX 6 13 8 14 5 15 4 16 2 17 3 18 1 19
REMARK H PARENT
REMARK Flexibility Score: inf
ROOT
ATOM      1  C   UNL     1     -10.533 -15.647  29.715  1.00  0.00     0.032 C 
ENDROOT
BRANCH   1   2
ATOM      2  C   UNL     1     -10.077 -16.419  30.931  1.00  0.00    -0.028 C 
ATOM      3  C   UNL     1     -10.831 -16.626  32.039  1.00  0.00    -0.077 C 
ATOM      4  C   UNL     1     -10.196 -17.323  33.212  1.00  0.00     0.039 C 
BRANCH   3   5
ATOM      5  C   UNL     1     -12.291 -16.221  32.131  1.00  0.00     0.034 C 
BRANCH   5   6
ATOM      6  C   UNL     1     -13.214 -17.449  32.201  1.00  0.00     0.032 C 
BRANCH   6   7
ATOM      7  C   UNL     1     -13.335 -18.122  30.854  1.00  0.00    -0.028 C 
ATOM      8  C   UNL     1     -12.426 -20.310  31.682  1.00  0.00     0.039 C 
ATOM      9  C   UNL     1     -12.955 -19.397  30.597  1.00  0.00    -0.080 C 
ATOM     10  C   UNL     1     -13.073 -19.908  29.185  1.00  0.00     0.039 C 
ENDBRANCH   6   7
ENDBRANCH   5   6
ENDBRANCH   3   5
ENDBRANCH   1   2
BRANCH   1  11
ATOM     11  C   UNL     1     -10.840 -16.586  28.537  1.00  0.00     0.034 C 
BRANCH  11  12
ATOM     12  C   UNL     1     -12.149 -16.223  27.863  1.00  0.00    -0.077 C 
ATOM     13  C   UNL     1     -12.948 -15.290  28.420  1.00  0.00    -0.028 C 
ATOM     14  C   UNL     1     -12.497 -16.888  26.555  1.00  0.00     0.039 C 
BRANCH  13  15
ATOM     15  C   UNL     1     -14.275 -14.843  27.850  1.00  0.00     0.035 C 
BRANCH  15  16
ATOM     16  C   UNL     1     -14.660 -13.447  28.366  1.00  0.00     0.079 C 
BRANCH  16  17
ATOM     17  C   UNL     1     -15.641 -13.527  29.512  1.00  0.00     0.130 C 
ATOM     18  O   UNL     1     -16.791 -13.139  29.352  1.00  0.00    -0.300 OA
ATOM     19  C   UNL     1     -15.240 -14.080  30.847  1.00  0.00     0.087 C 
ENDBRANCH  16  17
ENDBRANCH  15  16
ENDBRANCH  13  15
ENDBRANCH  11  12
ENDBRANCH   1  11
TORSDOF 9
ENDMDL
MODEL 2
REMARK VINA RESULT:    -5.710      2.364      5.227
REMARK INTER + INTRA:         -11.192
REMARK INTER:                  -9.463
REMARK INTRA:                  -1.728
REMARK UNBOUND:                -2.477
REMARK SMILES CC(=O)CCC=C(C)CCC=C(C)CCC=C(C)C
REMARK SMILES IDX 10 1 11 2 12 3 13 4 14 5 15 6 16 7 18 8 17 9 19 10 9 11 7 12
REMARK SMILES IDX 6 13 8 14 5 15 4 16 2 17 3 18 1 19
REMARK H PARENT
REMARK Flexibility Score: inf
ROOT
ATOM      1  C   UNL     1     -10.825 -15.936  32.395  1.00  0.00     0.032 C 
ENDROOT
BRANCH   1   2
ATOM      2  C   UNL     1     -12.263 -15.668  32.773  1.00  0.00    -0.028 C 
ATOM      3  C   UNL     1     -13.324 -15.866  31.953  1.00  0.00    -0.077 C 
ATOM      4  C   UNL     1     -14.687 -15.449  32.437  1.00  0.00     0.039 C 
BRANCH   3   5
ATOM      5  C   UNL     1     -13.202 -16.523  30.589  1.00  0.00     0.034 C 
BRANCH   5   6
ATOM      6  C   UNL     1     -12.845 -15.498  29.500  1.00  0.00     0.032 C 
BRANCH   6   7
ATOM      7  C   UNL     1     -11.945 -16.102  28.450  1.00  0.00    -0.028 C 
ATOM      8  C   UNL     1     -13.763 -16.219  26.723  1.00  0.00     0.039 C 
ATOM      9  C   UNL     1     -12.350 -16.463  27.208  1.00  0.00    -0.080 C 
ATOM     10  C   UNL     1     -11.351 -17.121  26.291  1.00  0.00     0.039 C 
ENDBRANCH   6   7
ENDBRANCH   5   6
ENDBRANCH   3   5
ENDBRANCH   1   2
BRANCH   1  11
ATOM     11  C   UNL     1     -10.342 -17.287  32.947  1.00  0.00     0.034 C 
BRANCH  11  12
ATOM     12  C   UNL     1     -10.693 -18.428  32.012  1.00  0.00    -0.077 C 
ATOM     13  C   UNL     1     -11.721 -19.248  32.318  1.00  0.00    -0.028 C 
ATOM     14  C   UNL     1      -9.909 -18.583  30.734  1.00  0.00     0.039 C 
BRANCH  13  15
ATOM     15  C   UNL     1     -12.168 -20.419  31.474  1.00  0.00     0.035 C 
BRANCH  15  16
ATOM     16  C   UNL     1     -13.471 -20.099  30.724  1.00  0.00     0.079 C 
BRANCH  16  17
ATOM     17  C   UNL     1     -13.252 -20.023  29.232  1.00  0.00     0.130 C 
ATOM     18  O   UNL     1     -12.303 -19.389  28.791  1.00  0.00    -0.300 OA
ATOM     19  C   UNL     1     -14.172 -20.717  28.271  1.00  0.00     0.087 C 
ENDBRANCH  16  17
ENDBRANCH  15  16
ENDBRANCH  13  15
ENDBRANCH  11  12
ENDBRANCH   1  11
TORSDOF 9
ENDMDL
MODEL 3
REMARK VINA RESULT:    -5.550      1.720      4.884
REMARK INTER + INTRA:         -10.947
REMARK INTER:                  -8.805
REMARK INTRA:                  -2.141
REMARK UNBOUND:                -2.477
REMARK SMILES CC(=O)CCC=C(C)CCC=C(C)CCC=C(C)C
REMARK SMILES IDX 10 1 11 2 12 3 13 4 14 5 15 6 16 7 18 8 17 9 19 10 9 11 7 12
REMARK SMILES IDX 6 13 8 14 5 15 4 16 2 17 3 18 1 19
REMARK H PARENT
REMARK Flexibility Score: inf
ROOT
ATOM      1  C   UNL     1     -13.080 -19.197  31.769  1.00  0.00     0.032 C 
ENDROOT
BRANCH   1   2
ATOM      2  C   UNL     1     -13.281 -20.160  30.623  1.00  0.00    -0.028 C 
ATOM      3  C   UNL     1     -13.526 -19.791  29.341  1.00  0.00    -0.077 C 
ATOM      4  C   UNL     1     -13.811 -20.869  28.331  1.00  0.00     0.039 C 
BRANCH   3   5
ATOM      5  C   UNL     1     -13.489 -18.345  28.878  1.00  0.00     0.034 C 
BRANCH   5   6
ATOM      6  C   UNL     1     -12.304 -18.087  27.932  1.00  0.00     0.032 C 
BRANCH   6   7
ATOM      7  C   UNL     1     -11.185 -17.360  28.639  1.00  0.00    -0.028 C 
ATOM      8  C   UNL     1     -12.467 -15.208  28.803  1.00  0.00     0.039 C 
ATOM      9  C   UNL     1     -11.231 -16.057  29.007  1.00  0.00    -0.080 C 
ATOM     10  C   UNL     1     -10.007 -15.448  29.642  1.00  0.00     0.039 C 
ENDBRANCH   6   7
ENDBRANCH   5   6
ENDBRANCH   3   5
ENDBRANCH   1   2
BRANCH   1  11
ATOM     11  C   UNL     1     -11.601 -18.808  31.923  1.00  0.00     0.034 C 
BRANCH  11  12
ATOM     12  C   UNL     1     -11.450 -17.417  32.506  1.00  0.00    -0.077 C 
ATOM     13  C   UNL     1     -12.523 -16.600  32.568  1.00  0.00    -0.028 C 
ATOM     14  C   UNL     1     -10.106 -17.002  33.049  1.00  0.00     0.039 C 
BRANCH  13  15
ATOM     15  C   UNL     1     -12.503 -15.194  33.122  1.00  0.00     0.035 C 
BRANCH  15  16
ATOM     16  C   UNL     1     -13.863 -14.817  33.732  1.00  0.00     0.079 C 
BRANCH  16  17
ATOM     17  C   UNL     1     -14.993 -15.040  32.756  1.00  0.00     0.130 C 
ATOM     18  O   UNL     1     -15.920 -15.779  33.061  1.00  0.00    -0.300 OA
ATOM     19  C   UNL     1     -15.012 -14.366  31.415  1.00  0.00     0.087 C 
ENDBRANCH  16  17
ENDBRANCH  15  16
ENDBRANCH  13  15
ENDBRANCH  11  12
ENDBRANCH   1  11
TORSDOF 9
ENDMDL
MODEL 4
REMARK VINA RESULT:    -5.527      1.797      4.072
REMARK INTER + INTRA:         -10.912
REMARK INTER:                  -8.849
REMARK INTRA:                  -2.064
REMARK UNBOUND:                -2.477
REMARK SMILES CC(=O)CCC=C(C)CCC=C(C)CCC=C(C)C
REMARK SMILES IDX 10 1 11 2 12 3 13 4 14 5 15 6 16 7 18 8 17 9 19 10 9 11 7 12
REMARK SMILES IDX 6 13 8 14 5 15 4 16 2 17 3 18 1 19
REMARK H PARENT
REMARK Flexibility Score: inf
ROOT
ATOM      1  C   UNL     1      -9.947 -16.128  29.419  1.00  0.00     0.032 C 
ENDROOT
BRANCH   1   2
ATOM      2  C   UNL     1     -10.095 -16.602  27.993  1.00  0.00    -0.028 C 
ATOM      3  C   UNL     1     -11.280 -16.774  27.357  1.00  0.00    -0.077 C 
ATOM      4  C   UNL     1     -11.268 -17.356  25.970  1.00  0.00     0.039 C 
BRANCH   3   5
ATOM      5  C   UNL     1     -12.610 -16.370  27.969  1.00  0.00     0.034 C 
BRANCH   5   6
ATOM      6  C   UNL     1     -13.513 -17.592  28.209  1.00  0.00     0.032 C 
BRANCH   6   7
ATOM      7  C   UNL     1     -13.107 -18.339  29.457  1.00  0.00    -0.028 C 
ATOM      8  C   UNL     1     -13.975 -20.541  28.620  1.00  0.00     0.039 C 
ATOM      9  C   UNL     1     -13.337 -19.657  29.670  1.00  0.00    -0.080 C 
ATOM     10  C   UNL     1     -12.936 -20.248  30.997  1.00  0.00     0.039 C 
ENDBRANCH   6   7
ENDBRANCH   5   6
ENDBRANCH   3   5
ENDBRANCH   1   2
BRANCH   1  11
ATOM     11  C   UNL     1      -9.882 -17.311  30.399  1.00  0.00     0.034 C 
BRANCH  11  12
ATOM     12  C   UNL     1     -10.657 -17.023  31.670  1.00  0.00    -0.077 C 
ATOM     13  C   UNL     1     -11.786 -16.287  31.609  1.00  0.00    -0.028 C 
ATOM     14  C   UNL     1     -10.166 -17.615  32.967  1.00  0.00     0.039 C 
BRANCH  13  15
ATOM     15  C   UNL     1     -12.645 -15.928  32.801  1.00  0.00     0.035 C 
BRANCH  15  16
ATOM     16  C   UNL     1     -14.007 -16.638  32.738  1.00  0.00     0.079 C 
BRANCH  16  17
ATOM     17  C   UNL     1     -15.145 -15.652  32.625  1.00  0.00     0.130 C 
ATOM     18  O   UNL     1     -16.200 -15.876  33.204  1.00  0.00    -0.300 OA
ATOM     19  C   UNL     1     -15.011 -14.393  31.821  1.00  0.00     0.087 C 
ENDBRANCH  16  17
ENDBRANCH  15  16
ENDBRANCH  13  15
ENDBRANCH  11  12
ENDBRANCH   1  11
TORSDOF 9
ENDMDL
MODEL 5
REMARK VINA RESULT:    -5.341      3.215      5.977
REMARK INTER + INTRA:         -10.628
REMARK INTER:                  -9.010
REMARK INTRA:                  -1.618
REMARK UNBOUND:                -2.477
REMARK SMILES CC(=O)CCC=C(C)CCC=C(C)CCC=C(C)C
REMARK SMILES IDX 10 1 11 2 12 3 13 4 14 5 15 6 16 7 18 8 17 9 19 10 9 11 7 12
REMARK SMILES IDX 6 13 8 14 5 15 4 16 2 17 3 18 1 19
REMARK H PARENT
REMARK Flexibility Score: inf
ROOT
ATOM      1  C   UNL     1     -12.252 -18.095  32.284  1.00  0.00     0.032 C 
ENDROOT
BRANCH   1   2
ATOM      2  C   UNL     1     -13.012 -18.714  31.136  1.00  0.00    -0.028 C 
ATOM      3  C   UNL     1     -12.591 -18.722  29.848  1.00  0.00    -0.077 C 
ATOM      4  C   UNL     1     -13.513 -19.284  28.799  1.00  0.00     0.039 C 
BRANCH   3   5
ATOM      5  C   UNL     1     -11.219 -18.224  29.426  1.00  0.00     0.034 C 
BRANCH   5   6
ATOM      6  C   UNL     1     -11.318 -17.212  28.273  1.00  0.00     0.032 C 
BRANCH   6   7
ATOM      7  C   UNL     1     -12.213 -16.051  28.635  1.00  0.00    -0.028 C 
ATOM      8  C   UNL     1     -13.615 -16.270  26.565  1.00  0.00     0.039 C 
ATOM      9  C   UNL     1     -13.228 -15.595  27.863  1.00  0.00    -0.080 C 
ATOM     10  C   UNL     1     -13.991 -14.380  28.326  1.00  0.00     0.039 C 
ENDBRANCH   6   7
ENDBRANCH   5   6
ENDBRANCH   3   5
ENDBRANCH   1   2
BRANCH   1  11
ATOM     11  C   UNL     1     -12.456 -16.571  32.336  1.00  0.00     0.034 C 
BRANCH  11  12
ATOM     12  C   UNL     1     -11.197 -15.856  32.784  1.00  0.00    -0.077 C 
ATOM     13  C   UNL     1     -11.194 -15.183  33.954  1.00  0.00    -0.028 C 
ATOM     14  C   UNL     1      -9.961 -15.961  31.927  1.00  0.00     0.039 C 
BRANCH  13  15
ATOM     15  C   UNL     1     -10.007 -14.429  34.510  1.00  0.00     0.035 C 
BRANCH  15  16
ATOM     16  C   UNL     1     -10.069 -14.347  36.044  1.00  0.00     0.079 C 
BRANCH  16  17
ATOM     17  C   UNL     1     -11.052 -13.298  36.507  1.00  0.00     0.130 C 
ATOM     18  O   UNL     1     -11.999 -13.625  37.209  1.00  0.00    -0.300 OA
ATOM     19  C   UNL     1     -10.890 -11.855  36.130  1.00  0.00     0.087 C 
ENDBRANCH  16  17
ENDBRANCH  15  16
ENDBRANCH  13  15
ENDBRANCH  11  12
ENDBRANCH   1  11
TORSDOF 9
ENDMDL
MODEL 6
REMARK VINA RESULT:    -5.336      3.381      5.804
REMARK INTER + INTRA:         -10.620
REMARK INTER:                  -9.293
REMARK INTRA:                  -1.327
REMARK UNBOUND:                -2.477
REMARK SMILES CC(=O)CCC=C(C)CCC=C(C)CCC=C(C)C
REMARK SMILES IDX 10 1 11 2 12 3 13 4 14 5 15 6 16 7 18 8 17 9 19 10 9 11 7 12
REMARK SMILES IDX 6 13 8 14 5 15 4 16 2 17 3 18 1 19
REMARK H PARENT
REMARK Flexibility Score: inf
ROOT
ATOM      1  C   UNL     1     -12.988 -17.433  32.156  1.00  0.00     0.032 C 
ENDROOT
BRANCH   1   2
ATOM      2  C   UNL     1     -13.216 -18.520  31.133  1.00  0.00    -0.028 C 
ATOM      3  C   UNL     1     -12.420 -18.745  30.058  1.00  0.00    -0.077 C 
ATOM      4  C   UNL     1     -12.840 -19.797  29.068  1.00  0.00     0.039 C 
BRANCH   3   5
ATOM      5  C   UNL     1     -11.111 -18.009  29.832  1.00  0.00     0.034 C 
BRANCH   5   6
ATOM      6  C   UNL     1     -11.157 -17.157  28.553  1.00  0.00     0.032 C 
BRANCH   6   7
ATOM      7  C   UNL     1     -12.092 -15.981  28.709  1.00  0.00    -0.028 C 
ATOM      8  C   UNL     1     -13.494 -16.621  26.729  1.00  0.00     0.039 C 
ATOM      9  C   UNL     1     -13.126 -15.708  27.879  1.00  0.00    -0.080 C 
ATOM     10  C   UNL     1     -13.930 -14.456  28.122  1.00  0.00     0.039 C 
ENDBRANCH   6   7
ENDBRANCH   5   6
ENDBRANCH   3   5
ENDBRANCH   1   2
BRANCH   1  11
ATOM     11  C   UNL     1     -13.555 -16.085  31.680  1.00  0.00     0.034 C 
BRANCH  11  12
ATOM     12  C   UNL     1     -14.068 -15.256  32.841  1.00  0.00    -0.077 C 
ATOM     13  C   UNL     1     -13.193 -14.739  33.728  1.00  0.00    -0.028 C 
ATOM     14  C   UNL     1     -15.549 -14.992  32.942  1.00  0.00     0.039 C 
BRANCH  13  15
ATOM     15  C   UNL     1     -13.576 -13.900  34.926  1.00  0.00     0.035 C 
BRANCH  15  16
ATOM     16  C   UNL     1     -12.448 -13.873  35.970  1.00  0.00     0.079 C 
BRANCH  16  17
ATOM     17  C   UNL     1     -12.354 -12.530  36.654  1.00  0.00     0.130 C 
ATOM     18  O   UNL     1     -13.079 -12.286  37.610  1.00  0.00    -0.300 OA
ATOM     19  C   UNL     1     -11.383 -11.484  36.192  1.00  0.00     0.087 C 
ENDBRANCH  16  17
ENDBRANCH  15  16
ENDBRANCH  13  15
ENDBRANCH  11  12
ENDBRANCH   1  11
TORSDOF 9
ENDMDL
MODEL 7
REMARK VINA RESULT:    -5.297      1.954      3.734
REMARK INTER + INTRA:         -10.561
REMARK INTER:                  -8.602
REMARK INTRA:                  -1.959
REMARK UNBOUND:                -2.477
REMARK SMILES CC(=O)CCC=C(C)CCC=C(C)CCC=C(C)C
REMARK SMILES IDX 10 1 11 2 12 3 13 4 14 5 15 6 16 7 18 8 17 9 19 10 9 11 7 12
REMARK SMILES IDX 6 13 8 14 5 15 4 16 2 17 3 18 1 19
REMARK H PARENT
REMARK Flexibility Score: inf
ROOT
ATOM      1  C   UNL     1     -13.605 -16.340  32.363  1.00  0.00     0.032 C 
ENDROOT
BRANCH   1   2
ATOM      2  C   UNL     1     -12.385 -15.915  33.145  1.00  0.00    -0.028 C 
ATOM      3  C   UNL     1     -11.106 -16.083  32.729  1.00  0.00    -0.077 C 
ATOM      4  C   UNL     1      -9.994 -15.706  33.670  1.00  0.00     0.039 C 
BRANCH   3   5
ATOM      5  C   UNL     1     -10.750 -16.599  31.345  1.00  0.00     0.034 C 
BRANCH   5   6
ATOM      6  C   UNL     1     -10.654 -18.133  31.323  1.00  0.00     0.032 C 
BRANCH   6   7
ATOM      7  C   UNL     1     -11.432 -18.716  30.168  1.00  0.00    -0.028 C 
ATOM      8  C   UNL     1     -13.196 -19.719  31.646  1.00  0.00     0.039 C 
ATOM      9  C   UNL     1     -12.558 -19.459  30.298  1.00  0.00    -0.080 C 
ATOM     10  C   UNL     1     -13.185 -20.033  29.054  1.00  0.00     0.039 C 
ENDBRANCH   6   7
ENDBRANCH   5   6
ENDBRANCH   3   5
ENDBRANCH   1   2
BRANCH   1  11
ATOM     11  C   UNL     1     -14.502 -15.138  32.026  1.00  0.00     0.034 C 
BRANCH  11  12
ATOM     12  C   UNL     1     -14.406 -14.766  30.560  1.00  0.00    -0.077 C 
ATOM     13  C   UNL     1     -13.501 -15.385  29.773  1.00  0.00    -0.028 C 
ATOM     14  C   UNL     1     -15.366 -13.741  30.008  1.00  0.00     0.039 C 
BRANCH  13  15
ATOM     15  C   UNL     1     -13.303 -15.103  28.301  1.00  0.00     0.035 C 
BRANCH  15  16
ATOM     16  C   UNL     1     -13.100 -16.404  27.508  1.00  0.00     0.079 C 
BRANCH  16  17
ATOM     17  C   UNL     1     -11.641 -16.644  27.196  1.00  0.00     0.130 C 
ATOM     18  O   UNL     1     -10.783 -16.241  27.969  1.00  0.00    -0.300 OA
ATOM     19  C   UNL     1     -11.218 -17.375  25.957  1.00  0.00     0.087 C 
ENDBRANCH  16  17
ENDBRANCH  15  16
ENDBRANCH  13  15
ENDBRANCH  11  12
ENDBRANCH   1  11
TORSDOF 9
ENDMDL
MODEL 8
REMARK VINA RESULT:    -5.067      3.133      5.638
REMARK INTER + INTRA:         -10.209
REMARK INTER:                  -9.394
REMARK INTRA:                  -0.815
REMARK UNBOUND:                -2.477
REMARK SMILES CC(=O)CCC=C(C)CCC=C(C)CCC=C(C)C
REMARK SMILES IDX 10 1 11 2 12 3 13 4 14 5 15 6 16 7 18 8 17 9 19 10 9 11 7 12
REMARK SMILES IDX 6 13 8 14 5 15 4 16 2 17 3 18 1 19
REMARK H PARENT
REMARK Flexibility Score: inf
ROOT
ATOM      1  C   UNL     1     -11.846 -17.991  31.916  1.00  0.00     0.032 C 
ENDROOT
BRANCH   1   2
ATOM      2  C   UNL     1     -12.955 -17.070  32.363  1.00  0.00    -0.028 C 
ATOM      3  C   UNL     1     -13.500 -16.092  31.598  1.00  0.00    -0.077 C 
ATOM      4  C   UNL     1     -14.525 -15.184  32.224  1.00  0.00     0.039 C 
BRANCH   3   5
ATOM      5  C   UNL     1     -13.149 -15.899  30.133  1.00  0.00     0.034 C 
BRANCH   5   6
ATOM      6  C   UNL     1     -13.257 -17.218  29.350  1.00  0.00     0.032 C 
BRANCH   6   7
ATOM      7  C   UNL     1     -12.207 -17.301  28.267  1.00  0.00    -0.028 C 
ATOM      8  C   UNL     1     -13.706 -16.320  26.509  1.00  0.00     0.039 C 
ATOM      9  C   UNL     1     -12.404 -16.932  26.979  1.00  0.00    -0.080 C 
ATOM     10  C   UNL     1     -11.281 -17.140  25.995  1.00  0.00     0.039 C 
ENDBRANCH   6   7
ENDBRANCH   5   6
ENDBRANCH   3   5
ENDBRANCH   1   2
BRANCH   1  11
ATOM     11  C   UNL     1     -10.582 -17.806  32.772  1.00  0.00     0.034 C 
BRANCH  11  12
ATOM     12  C   UNL     1     -10.241 -16.339  32.950  1.00  0.00    -0.077 C 
ATOM     13  C   UNL     1     -10.230 -15.804  34.188  1.00  0.00    -0.028 C 
ATOM     14  C   UNL     1      -9.875 -15.529  31.732  1.00  0.00     0.039 C 
BRANCH  13  15
ATOM     15  C   UNL     1      -9.910 -14.359  34.498  1.00  0.00     0.035 C 
BRANCH  15  16
ATOM     16  C   UNL     1     -10.236 -14.019  35.961  1.00  0.00     0.079 C 
BRANCH  16  17
ATOM     17  C   UNL     1     -11.339 -12.992  36.063  1.00  0.00     0.130 C 
ATOM     18  O   UNL     1     -11.055 -11.815  36.238  1.00  0.00    -0.300 OA
ATOM     19  C   UNL     1     -12.783 -13.383  35.948  1.00  0.00     0.087 C 
ENDBRANCH  16  17
ENDBRANCH  15  16
ENDBRANCH  13  15
ENDBRANCH  11  12
ENDBRANCH   1  11
TORSDOF 9
ENDMDL
MODEL 9
REMARK VINA RESULT:    -4.213      2.306      4.735
REMARK INTER + INTRA:          -8.907
REMARK INTER:                  -7.572
REMARK INTRA:                  -1.335
REMARK UNBOUND:                -2.477
REMARK SMILES CC(=O)CCC=C(C)CCC=C(C)CCC=C(C)C
REMARK SMILES IDX 10 1 11 2 12 3 13 4 14 5 15 6 16 7 18 8 17 9 19 10 9 11 7 12
REMARK SMILES IDX 6 13 8 14 5 15 4 16 2 17 3 18 1 19
REMARK H PARENT
REMARK Flexibility Score: inf
ROOT
ATOM      1  C   UNL     1     -12.570 -19.074  32.009  1.00  0.00     0.032 C 
ENDROOT
BRANCH   1   2
ATOM      2  C   UNL     1     -13.512 -17.894  31.978  1.00  0.00    -0.028 C 
ATOM      3  C   UNL     1     -13.122 -16.596  31.961  1.00  0.00    -0.077 C 
ATOM      4  C   UNL     1     -14.182 -15.531  32.042  1.00  0.00     0.039 C 
BRANCH   3   5
ATOM      5  C   UNL     1     -11.669 -16.174  31.826  1.00  0.00     0.034 C 
BRANCH   5   6
ATOM      6  C   UNL     1     -11.005 -15.995  33.202  1.00  0.00     0.032 C 
BRANCH   6   7
ATOM      7  C   UNL     1     -11.854 -15.143  34.115  1.00  0.00    -0.028 C 
ATOM      8  C   UNL     1      -9.875 -14.059  35.215  1.00  0.00     0.039 C 
ATOM      9  C   UNL     1     -11.361 -14.293  35.047  1.00  0.00    -0.080 C 
ATOM     10  C   UNL     1     -12.334 -13.560  35.935  1.00  0.00     0.039 C 
ENDBRANCH   6   7
ENDBRANCH   5   6
ENDBRANCH   3   5
ENDBRANCH   1   2
BRANCH   1  11
ATOM     11  C   UNL     1     -12.830 -20.031  30.833  1.00  0.00     0.034 C 
BRANCH  11  12
ATOM     12  C   UNL     1     -12.841 -19.294  29.509  1.00  0.00    -0.077 C 
ATOM     13  C   UNL     1     -11.795 -18.510  29.173  1.00  0.00    -0.028 C 
ATOM     14  C   UNL     1     -14.009 -19.499  28.577  1.00  0.00     0.039 C 
BRANCH  13  15
ATOM     15  C   UNL     1     -11.688 -17.723  27.887  1.00  0.00     0.035 C 
BRANCH  15  16
ATOM     16  C   UNL     1     -11.934 -16.225  28.129  1.00  0.00     0.079 C 
BRANCH  16  17
ATOM     17  C   UNL     1     -13.251 -15.775  27.543  1.00  0.00     0.130 C 
ATOM     18  O   UNL     1     -13.749 -16.405  26.619  1.00  0.00    -0.300 OA
ATOM     19  C   UNL     1     -13.972 -14.572  28.074  1.00  0.00     0.087 C 
ENDBRANCH  16  17
ENDBRANCH  15  16
ENDBRANCH  13  15
ENDBRANCH  11  12
ENDBRANCH   1  11
TORSDOF 9
ENDMDL
