MODEL 1
REMARK VINA RESULT:    -5.642      0.000      0.000
REMARK INTER + INTRA:          -5.807
REMARK INTER:                  -5.807
REMARK INTRA:                   0.000
REMARK UNBOUND:                 0.000
REMARK SMILES Nc1ncnc2nc[nH]c12
REMARK SMILES IDX 8 1 7 2 6 3 5 4 4 5 3 6 2 7 10 8 9 9 1 11
REMARK H PARENT 9 10 1 12 1 13
REMARK Flexibility Score: inf
ROOT
ATOM      1  C   UNL     1      92.575 102.400  99.990  1.00  0.00     0.199 A 
ATOM      2  N   UNL     1      93.683 101.724  99.576  1.00  0.00    -0.217 NA
ATOM      3  C   UNL     1      94.611 102.693  99.541  1.00  0.00     0.182 A 
ATOM      4  N   UNL     1      95.912 102.553  99.188  1.00  0.00    -0.215 NA
ATOM      5  C   UNL     1      96.710 103.662  99.214  1.00  0.00     0.226 A 
ATOM      6  N   UNL     1      96.200 104.880  99.588  1.00  0.00    -0.217 NA
ATOM      7  C   UNL     1      94.888 105.023  99.944  1.00  0.00     0.152 A 
ATOM      8  C   UNL     1      94.088 103.884  99.913  1.00  0.00     0.127 A 
ATOM      9  N   UNL     1      92.792 103.723 100.204  1.00  0.00    -0.340 N 
ATOM     10  H   UNL     1      92.100 104.437 100.521  1.00  0.00     0.168 HD
ENDROOT
BRANCH   7  11
ATOM     11  N   UNL     1      94.378 106.300 100.331  1.00  0.00    -0.382 N 
ATOM     12  H   UNL     1      94.107 107.014  99.622  1.00  0.00     0.158 HD
ATOM     13  H   UNL     1      94.271 106.534 101.342  1.00  0.00     0.158 HD
ENDBRANCH   7  11
TORSDOF 1
ENDMDL
MODEL 2
REMARK VINA RESULT:    -5.534      1.510      3.973
REMARK INTER + INTRA:          -5.696
REMARK INTER:                  -5.696
REMARK INTRA:                   0.000
REMARK UNBOUND:                 0.000
REMARK SMILES Nc1ncnc2nc[nH]c12
REMARK SMILES IDX 8 1 7 2 6 3 5 4 4 5 3 6 2 7 10 8 9 9 1 11
REMARK H PARENT 9 10 1 12 1 13
REMARK Flexibility Score: inf
ROOT
ATOM      1  C   UNL     1      96.275 104.344  99.464  1.00  0.00     0.199 A 
ATOM      2  N   UNL     1      94.915 104.394  99.509  1.00  0.00    -0.217 NA
ATOM      3  C   UNL     1      94.592 103.120  99.781  1.00  0.00     0.182 A 
ATOM      4  N   UNL     1      93.343 102.618  99.934  1.00  0.00    -0.215 NA
ATOM      5  C   UNL     1      93.212 101.285 100.210  1.00  0.00     0.226 A 
ATOM      6  N   UNL     1      94.321 100.486 100.327  1.00  0.00    -0.217 NA
ATOM      7  C   UNL     1      95.582 100.991 100.172  1.00  0.00     0.152 A 
ATOM      8  C   UNL     1      95.698 102.349  99.892  1.00  0.00     0.127 A 
ATOM      9  N   UNL     1      96.783 103.107  99.694  1.00  0.00    -0.340 N 
ATOM     10  H   UNL     1      97.789 102.826  99.710  1.00  0.00     0.168 HD
ENDROOT
BRANCH   7  11
ATOM     11  N   UNL     1      96.722 100.140 100.299  1.00  0.00    -0.382 N 
ATOM     12  H   UNL     1      96.659  99.212 100.772  1.00  0.00     0.158 HD
ATOM     13  H   UNL     1      97.644 100.443  99.915  1.00  0.00     0.158 HD
ENDBRANCH   7  11
TORSDOF 1
ENDMDL
MODEL 3
REMARK VINA RESULT:    -5.439      1.263      3.104
REMARK INTER + INTRA:          -5.598
REMARK INTER:                  -5.598
REMARK INTRA:                   0.000
REMARK UNBOUND:                 0.000
REMARK SMILES Nc1ncnc2nc[nH]c12
REMARK SMILES IDX 8 1 7 2 6 3 5 4 4 5 3 6 2 7 10 8 9 9 1 11
REMARK H PARENT 9 10 1 12 1 13
REMARK Flexibility Score: inf
ROOT
ATOM      1  C   UNL     1      95.243 104.973  99.660  1.00  0.00     0.199 A 
ATOM      2  N   UNL     1      96.064 103.917  99.403  1.00  0.00    -0.217 NA
ATOM      3  C   UNL     1      95.314 102.873  99.790  1.00  0.00     0.182 A 
ATOM      4  N   UNL     1      95.666 101.565  99.745  1.00  0.00    -0.215 NA
ATOM      5  C   UNL     1      94.762 100.639 100.186  1.00  0.00     0.226 A 
ATOM      6  N   UNL     1      93.536 101.032 100.660  1.00  0.00    -0.217 NA
ATOM      7  C   UNL     1      93.180 102.351 100.706  1.00  0.00     0.152 A 
ATOM      8  C   UNL     1      94.111 103.282 100.254  1.00  0.00     0.127 A 
ATOM      9  N   UNL     1      94.042 104.616 100.181  1.00  0.00    -0.340 N 
ATOM     10  H   UNL     1      93.256 105.246 100.456  1.00  0.00     0.168 HD
ENDROOT
BRANCH   7  11
ATOM     11  N   UNL     1      91.898 102.737 101.203  1.00  0.00    -0.382 N 
ATOM     12  H   UNL     1      91.276 103.378 100.664  1.00  0.00     0.158 HD
ATOM     13  H   UNL     1      91.565 102.377 102.124  1.00  0.00     0.158 HD
ENDBRANCH   7  11
TORSDOF 1
ENDMDL
MODEL 4
REMARK VINA RESULT:    -5.420      3.019      3.478
REMARK INTER + INTRA:          -5.579
REMARK INTER:                  -5.579
REMARK INTRA:                   0.000
REMARK UNBOUND:                 0.000
REMARK SMILES Nc1ncnc2nc[nH]c12
REMARK SMILES IDX 8 1 7 2 6 3 5 4 4 5 3 6 2 7 10 8 9 9 1 11
REMARK H PARENT 9 10 1 12 1 13
REMARK Flexibility Score: inf
ROOT
ATOM      1  C   UNL     1      92.229 101.651 101.967  1.00  0.00     0.199 A 
ATOM      2  N   UNL     1      91.875 101.093 100.776  1.00  0.00    -0.217 NA
ATOM      3  C   UNL     1      93.066 100.896 100.189  1.00  0.00     0.182 A 
ATOM      4  N   UNL     1      93.284 100.357  98.966  1.00  0.00    -0.215 NA
ATOM      5  C   UNL     1      94.577 100.237  98.535  1.00  0.00     0.226 A 
ATOM      6  N   UNL     1      95.617 100.654  99.326  1.00  0.00    -0.217 NA
ATOM      7  C   UNL     1      95.398 101.198 100.561  1.00  0.00     0.152 A 
ATOM      8  C   UNL     1      94.077 101.314 100.985  1.00  0.00     0.127 A 
ATOM      9  N   UNL     1      93.569 101.798 102.124  1.00  0.00    -0.340 N 
ATOM     10  H   UNL     1      94.072 102.198 102.947  1.00  0.00     0.168 HD
ENDROOT
BRANCH   7  11
ATOM     11  N   UNL     1      96.497 101.624 101.368  1.00  0.00    -0.382 N 
ATOM     12  H   UNL     1      96.473 102.531 101.883  1.00  0.00     0.158 HD
ATOM     13  H   UNL     1      97.346 101.024 101.452  1.00  0.00     0.158 HD
ENDBRANCH   7  11
TORSDOF 1
ENDMDL
MODEL 5
REMARK VINA RESULT:    -5.163      1.614      3.016
REMARK INTER + INTRA:          -5.314
REMARK INTER:                  -5.314
REMARK INTRA:                   0.000
REMARK UNBOUND:                 0.000
REMARK SMILES Nc1ncnc2nc[nH]c12
REMARK SMILES IDX 8 1 7 2 6 3 5 4 4 5 3 6 2 7 10 8 9 9 1 11
REMARK H PARENT 9 10 1 12 1 13
REMARK Flexibility Score: inf
ROOT
ATOM      1  C   UNL     1      92.253 101.131 101.006  1.00  0.00     0.199 A 
ATOM      2  N   UNL     1      92.266 102.435 100.615  1.00  0.00    -0.217 NA
ATOM      3  C   UNL     1      93.550 102.615 100.266  1.00  0.00     0.182 A 
ATOM      4  N   UNL     1      94.107 103.758  99.798  1.00  0.00    -0.215 NA
ATOM      5  C   UNL     1      95.440 103.748  99.494  1.00  0.00     0.226 A 
ATOM      6  N   UNL     1      96.185 102.608  99.662  1.00  0.00    -0.217 NA
ATOM      7  C   UNL     1      95.624 101.454 100.134  1.00  0.00     0.152 A 
ATOM      8  C   UNL     1      94.266 101.480 100.439  1.00  0.00     0.127 A 
ATOM      9  N   UNL     1      93.461 100.520 100.909  1.00  0.00    -0.340 N 
ATOM     10  H   UNL     1      93.695  99.531 101.149  1.00  0.00     0.168 HD
ENDROOT
BRANCH   7  11
ATOM     11  N   UNL     1      96.418 100.279 100.299  1.00  0.00    -0.382 N 
ATOM     12  H   UNL     1      97.039 100.154 101.128  1.00  0.00     0.158 HD
ATOM     13  H   UNL     1      96.385  99.522  99.582  1.00  0.00     0.158 HD
ENDBRANCH   7  11
TORSDOF 1
ENDMDL
MODEL 6
REMARK VINA RESULT:    -5.123      2.008      3.155
REMARK INTER + INTRA:          -5.272
REMARK INTER:                  -5.272
REMARK INTRA:                   0.000
REMARK UNBOUND:                 0.000
REMARK SMILES Nc1ncnc2nc[nH]c12
REMARK SMILES IDX 8 1 7 2 6 3 5 4 4 5 3 6 2 7 10 8 9 9 1 11
REMARK H PARENT 9 10 1 12 1 13
REMARK Flexibility Score: inf
ROOT
ATOM      1  C   UNL     1      92.823  99.463  98.770  1.00  0.00     0.199 A 
ATOM      2  N   UNL     1      93.421 100.391  97.972  1.00  0.00    -0.217 NA
ATOM      3  C   UNL     1      93.673 101.388  98.835  1.00  0.00     0.182 A 
ATOM      4  N   UNL     1      94.269 102.571  98.550  1.00  0.00    -0.215 NA
ATOM      5  C   UNL     1      94.441 103.468  99.568  1.00  0.00     0.226 A 
ATOM      6  N   UNL     1      94.017 103.170 100.839  1.00  0.00    -0.217 NA
ATOM      7  C   UNL     1      93.415 101.978 101.127  1.00  0.00     0.152 A 
ATOM      8  C   UNL     1      93.248 101.075 100.081  1.00  0.00     0.127 A 
ATOM      9  N   UNL     1      92.703  99.853 100.065  1.00  0.00    -0.340 N 
ATOM     10  H   UNL     1      92.281  99.315 100.854  1.00  0.00     0.168 HD
ENDROOT
BRANCH   7  11
ATOM     11  N   UNL     1      92.983 101.689 102.457  1.00  0.00    -0.382 N 
ATOM     12  H   UNL     1      92.785 102.450 103.142  1.00  0.00     0.158 HD
ATOM     13  H   UNL     1      92.859 100.698 102.762  1.00  0.00     0.158 HD
ENDBRANCH   7  11
TORSDOF 1
ENDMDL
MODEL 7
REMARK VINA RESULT:    -5.118      1.536      1.670
REMARK INTER + INTRA:          -5.268
REMARK INTER:                  -5.268
REMARK INTRA:                   0.000
REMARK UNBOUND:                 0.000
REMARK SMILES Nc1ncnc2nc[nH]c12
REMARK SMILES IDX 8 1 7 2 6 3 5 4 4 5 3 6 2 7 10 8 9 9 1 11
REMARK H PARENT 9 10 1 12 1 13
REMARK Flexibility Score: inf
ROOT
ATOM      1  C   UNL     1      94.995 101.251 100.748  1.00  0.00     0.199 A 
ATOM      2  N   UNL     1      95.794 101.115  99.654  1.00  0.00    -0.217 NA
ATOM      3  C   UNL     1      95.799 102.360  99.149  1.00  0.00     0.182 A 
ATOM      4  N   UNL     1      96.454 102.778  98.040  1.00  0.00    -0.215 NA
ATOM      5  C   UNL     1      96.338 104.092  97.680  1.00  0.00     0.226 A 
ATOM      6  N   UNL     1      95.577 104.956  98.427  1.00  0.00    -0.217 NA
ATOM      7  C   UNL     1      94.915 104.534  99.546  1.00  0.00     0.152 A 
ATOM      8  C   UNL     1      95.043 103.194  99.900  1.00  0.00     0.127 A 
ATOM      9  N   UNL     1      94.521 102.510 100.925  1.00  0.00    -0.340 N 
ATOM     10  H   UNL     1      93.895 102.853 101.687  1.00  0.00     0.168 HD
ENDROOT
BRANCH   7  11
ATOM     11  N   UNL     1      94.129 105.450 100.310  1.00  0.00    -0.382 N 
ATOM     12  H   UNL     1      94.333 105.635 101.316  1.00  0.00     0.158 HD
ATOM     13  H   UNL     1      93.331 105.951  99.862  1.00  0.00     0.158 HD
ENDBRANCH   7  11
TORSDOF 1
ENDMDL
MODEL 8
REMARK VINA RESULT:    -5.015      2.393      3.435
REMARK INTER + INTRA:          -5.161
REMARK INTER:                  -5.161
REMARK INTRA:                   0.000
REMARK UNBOUND:                 0.000
REMARK SMILES Nc1ncnc2nc[nH]c12
REMARK SMILES IDX 8 1 7 2 6 3 5 4 4 5 3 6 2 7 10 8 9 9 1 11
REMARK H PARENT 9 10 1 12 1 13
REMARK Flexibility Score: inf
ROOT
ATOM      1  C   UNL     1      95.892 101.239 100.920  1.00  0.00     0.199 A 
ATOM      2  N   UNL     1      95.798 100.387  99.862  1.00  0.00    -0.217 NA
ATOM      3  C   UNL     1      94.660 100.789  99.273  1.00  0.00     0.182 A 
ATOM      4  N   UNL     1      94.098 100.264  98.158  1.00  0.00    -0.215 NA
ATOM      5  C   UNL     1      92.930 100.811  97.705  1.00  0.00     0.226 A 
ATOM      6  N   UNL     1      92.348 101.862  98.369  1.00  0.00    -0.217 NA
ATOM      7  C   UNL     1      92.914 102.392  99.495  1.00  0.00     0.152 A 
ATOM      8  C   UNL     1      94.104 101.825  99.943  1.00  0.00     0.127 A 
ATOM      9  N   UNL     1      94.871 102.130 100.996  1.00  0.00    -0.340 N 
ATOM     10  H   UNL     1      94.729 102.875 101.714  1.00  0.00     0.168 HD
ENDROOT
BRANCH   7  11
ATOM     11  N   UNL     1      92.292 103.487 100.170  1.00  0.00    -0.382 N 
ATOM     12  H   UNL     1      92.337 104.457  99.789  1.00  0.00     0.158 HD
ATOM     13  H   UNL     1      91.780 103.325 101.064  1.00  0.00     0.158 HD
ENDBRANCH   7  11
TORSDOF 1
ENDMDL
MODEL 9
REMARK VINA RESULT:    -4.894      2.625      3.023
REMARK INTER + INTRA:          -5.038
REMARK INTER:                  -5.038
REMARK INTRA:                   0.000
REMARK UNBOUND:                 0.000
REMARK SMILES Nc1ncnc2nc[nH]c12
REMARK SMILES IDX 8 1 7 2 6 3 5 4 4 5 3 6 2 7 10 8 9 9 1 11
REMARK H PARENT 9 10 1 12 1 13
REMARK Flexibility Score: inf
ROOT
ATOM      1  C   UNL     1      93.176  99.692  99.095  1.00  0.00     0.199 A 
ATOM      2  N   UNL     1      93.316 100.440  97.965  1.00  0.00    -0.217 NA
ATOM      3  C   UNL     1      94.330 101.257  98.289  1.00  0.00     0.182 A 
ATOM      4  N   UNL     1      94.876 102.217  97.503  1.00  0.00    -0.215 NA
ATOM      5  C   UNL     1      95.910 102.954  98.010  1.00  0.00     0.226 A 
ATOM      6  N   UNL     1      96.375 102.723  99.280  1.00  0.00    -0.217 NA
ATOM      7  C   UNL     1      95.824 101.756 100.074  1.00  0.00     0.152 A 
ATOM      8  C   UNL     1      94.773 101.013  99.544  1.00  0.00     0.127 A 
ATOM      9  N   UNL     1      94.053 100.020 100.078  1.00  0.00    -0.340 N 
ATOM     10  H   UNL     1      94.135  99.589 101.025  1.00  0.00     0.168 HD
ENDROOT
BRANCH   7  11
ATOM     11  N   UNL     1      96.324 101.531 101.393  1.00  0.00    -0.382 N 
ATOM     12  H   UNL     1      97.189 100.973 101.559  1.00  0.00     0.158 HD
ATOM     13  H   UNL     1      95.821 101.929 102.216  1.00  0.00     0.158 HD
ENDBRANCH   7  11
TORSDOF 1
ENDMDL
