MODEL 1
REMARK VINA RESULT:    -4.864      0.000      0.000
REMARK INTER + INTRA:          -5.305
REMARK INTER:                  -5.148
REMARK INTRA:                  -0.157
REMARK UNBOUND:                -0.157
REMARK SMILES CC1=CC=C(C(C)C)CC1
REMARK SMILES IDX 1 1 2 2 3 3 4 4 5 5 9 6 10 7 6 8 7 9 8 10
REMARK H PARENT
REMARK Flexibility Score: inf
ROOT
ATOM      1  C   UNL     1      -1.389  -1.340  13.942  1.00  0.00     0.039 C 
ATOM      2  C   UNL     1      -1.364  -0.019  13.230  1.00  0.00    -0.073 C 
ATOM      3  C   UNL     1      -1.284   0.017  11.891  1.00  0.00    -0.001 C 
ATOM      4  C   UNL     1      -1.253   1.304  11.170  1.00  0.00    -0.001 C 
ATOM      5  C   UNL     1      -1.074   2.464  11.831  1.00  0.00    -0.067 C 
ATOM      6  C   UNL     1      -0.794   2.429  13.319  1.00  0.00     0.035 C 
ATOM      7  C   UNL     1      -1.532   1.269  14.003  1.00  0.00     0.035 C 
ENDROOT
BRANCH   5   8
ATOM      8  C   UNL     1      -1.061   3.795  11.100  1.00  0.00     0.009 C 
ATOM      9  C   UNL     1      -2.458   4.169  10.590  1.00  0.00     0.012 C 
ATOM     10  C   UNL     1      -0.477   4.905  11.982  1.00  0.00     0.012 C 
ENDBRANCH   5   8
TORSDOF 1
ENDMDL
MODEL 2
REMARK VINA RESULT:    -4.642      1.663      4.468
REMARK INTER + INTRA:          -5.070
REMARK INTER:                  -4.902
REMARK INTRA:                  -0.168
REMARK UNBOUND:                -0.157
REMARK SMILES CC1=CC=C(C(C)C)CC1
REMARK SMILES IDX 1 1 2 2 3 3 4 4 5 5 9 6 10 7 6 8 7 9 8 10
REMARK H PARENT
REMARK Flexibility Score: inf
ROOT
ATOM      1  C   UNL     1      -0.812   5.620  15.221  1.00  0.00     0.039 C 
ATOM      2  C   UNL     1      -0.929   4.225  14.682  1.00  0.00    -0.073 C 
ATOM      3  C   UNL     1      -1.259   3.216  15.503  1.00  0.00    -0.001 C 
ATOM      4  C   UNL     1      -1.374   1.835  14.996  1.00  0.00    -0.001 C 
ATOM      5  C   UNL     1      -0.935   1.511  13.764  1.00  0.00    -0.067 C 
ATOM      6  C   UNL     1      -0.218   2.558  12.938  1.00  0.00     0.035 C 
ATOM      7  C   UNL     1      -0.778   3.963  13.201  1.00  0.00     0.035 C 
ENDROOT
BRANCH   5   8
ATOM      8  C   UNL     1      -1.067   0.098  13.226  1.00  0.00     0.009 C 
ATOM      9  C   UNL     1      -2.163  -0.683  13.963  1.00  0.00     0.012 C 
ATOM     10  C   UNL     1      -1.313   0.102  11.713  1.00  0.00     0.012 C 
ENDBRANCH   5   8
TORSDOF 1
ENDMDL
MODEL 3
REMARK VINA RESULT:    -4.563      1.813      4.345
REMARK INTER + INTRA:          -4.987
REMARK INTER:                  -4.842
REMARK INTRA:                  -0.145
REMARK UNBOUND:                -0.157
REMARK SMILES CC1=CC=C(C(C)C)CC1
REMARK SMILES IDX 1 1 2 2 3 3 4 4 5 5 9 6 10 7 6 8 7 9 8 10
REMARK H PARENT
REMARK Flexibility Score: inf
ROOT
ATOM      1  C   UNL     1      -0.433   5.710  15.105  1.00  0.00     0.039 C 
ATOM      2  C   UNL     1      -0.586   4.277  14.688  1.00  0.00    -0.073 C 
ATOM      3  C   UNL     1       0.011   3.838  13.570  1.00  0.00    -0.001 C 
ATOM      4  C   UNL     1      -0.130   2.435  13.138  1.00  0.00    -0.001 C 
ATOM      5  C   UNL     1      -1.033   1.620  13.716  1.00  0.00    -0.067 C 
ATOM      6  C   UNL     1      -1.987   2.189  14.746  1.00  0.00     0.035 C 
ATOM      7  C   UNL     1      -1.323   3.299  15.574  1.00  0.00     0.035 C 
ENDROOT
BRANCH   5   8
ATOM      8  C   UNL     1      -1.172   0.168  13.292  1.00  0.00     0.009 C 
ATOM      9  C   UNL     1      -2.357  -0.509  13.991  1.00  0.00     0.012 C 
ATOM     10  C   UNL     1      -1.284   0.045  11.768  1.00  0.00     0.012 C 
ENDBRANCH   5   8
TORSDOF 1
ENDMDL
MODEL 4
REMARK VINA RESULT:    -4.463      1.560      2.619
REMARK INTER + INTRA:          -4.881
REMARK INTER:                  -4.723
REMARK INTRA:                  -0.158
REMARK UNBOUND:                -0.157
REMARK SMILES CC1=CC=C(C(C)C)CC1
REMARK SMILES IDX 1 1 2 2 3 3 4 4 5 5 9 6 10 7 6 8 7 9 8 10
REMARK H PARENT
REMARK Flexibility Score: inf
ROOT
ATOM      1  C   UNL     1      -1.757  -0.934  14.121  1.00  0.00     0.039 C 
ATOM      2  C   UNL     1      -1.689   0.563  14.036  1.00  0.00    -0.073 C 
ATOM      3  C   UNL     1      -2.456   1.314  14.840  1.00  0.00    -0.001 C 
ATOM      4  C   UNL     1      -2.409   2.787  14.770  1.00  0.00    -0.001 C 
ATOM      5  C   UNL     1      -1.777   3.413  13.759  1.00  0.00    -0.067 C 
ATOM      6  C   UNL     1      -1.203   2.587  12.625  1.00  0.00     0.035 C 
ATOM      7  C   UNL     1      -0.686   1.230  13.124  1.00  0.00     0.035 C 
ENDROOT
BRANCH   5   8
ATOM      8  C   UNL     1      -1.706   4.927  13.689  1.00  0.00     0.009 C 
ATOM      9  C   UNL     1      -0.885   5.504  14.849  1.00  0.00     0.012 C 
ATOM     10  C   UNL     1      -1.156   5.394  12.336  1.00  0.00     0.012 C 
ENDBRANCH   5   8
TORSDOF 1
ENDMDL
MODEL 5
REMARK VINA RESULT:    -4.420      1.606      2.002
REMARK INTER + INTRA:          -4.836
REMARK INTER:                  -4.685
REMARK INTRA:                  -0.150
REMARK UNBOUND:                -0.157
REMARK SMILES CC1=CC=C(C(C)C)CC1
REMARK SMILES IDX 1 1 2 2 3 3 4 4 5 5 9 6 10 7 6 8 7 9 8 10
REMARK H PARENT
REMARK Flexibility Score: inf
ROOT
ATOM      1  C   UNL     1      -1.753  -1.018  14.117  1.00  0.00     0.039 C 
ATOM      2  C   UNL     1      -1.680   0.472  13.951  1.00  0.00    -0.073 C 
ATOM      3  C   UNL     1      -0.962   0.999  12.948  1.00  0.00    -0.001 C 
ATOM      4  C   UNL     1      -0.871   2.460  12.769  1.00  0.00    -0.001 C 
ATOM      5  C   UNL     1      -1.310   3.304  13.723  1.00  0.00    -0.067 C 
ATOM      6  C   UNL     1      -1.800   2.737  15.039  1.00  0.00     0.035 C 
ATOM      7  C   UNL     1      -2.494   1.381  14.844  1.00  0.00     0.035 C 
ENDROOT
BRANCH   5   8
ATOM      8  C   UNL     1      -1.239   4.809  13.539  1.00  0.00     0.009 C 
ATOM      9  C   UNL     1      -2.524   5.357  12.904  1.00  0.00     0.012 C 
ATOM     10  C   UNL     1      -0.932   5.515  14.865  1.00  0.00     0.012 C 
ENDBRANCH   5   8
TORSDOF 1
ENDMDL
MODEL 6
REMARK VINA RESULT:    -4.384      0.964      4.568
REMARK INTER + INTRA:          -4.797
REMARK INTER:                  -4.639
REMARK INTRA:                  -0.158
REMARK UNBOUND:                -0.157
REMARK SMILES CC1=CC=C(C(C)C)CC1
REMARK SMILES IDX 1 1 2 2 3 3 4 4 5 5 9 6 10 7 6 8 7 9 8 10
REMARK H PARENT
REMARK Flexibility Score: inf
ROOT
ATOM      1  C   UNL     1      -0.801   5.705  10.321  1.00  0.00     0.039 C 
ATOM      2  C   UNL     1      -0.920   4.440  11.119  1.00  0.00    -0.073 C 
ATOM      3  C   UNL     1      -0.299   4.335  12.303  1.00  0.00    -0.001 C 
ATOM      4  C   UNL     1      -0.398   3.099  13.102  1.00  0.00    -0.001 C 
ATOM      5  C   UNL     1      -0.916   1.973  12.575  1.00  0.00    -0.067 C 
ATOM      6  C   UNL     1      -1.299   1.954  11.109  1.00  0.00     0.035 C 
ATOM      7  C   UNL     1      -1.820   3.322  10.646  1.00  0.00     0.035 C 
ENDROOT
BRANCH   5   8
ATOM      8  C   UNL     1      -1.041   0.702  13.395  1.00  0.00     0.009 C 
ATOM      9  C   UNL     1      -2.038   0.874  14.549  1.00  0.00     0.012 C 
ATOM     10  C   UNL     1      -1.417  -0.493  12.512  1.00  0.00     0.012 C 
ENDBRANCH   5   8
TORSDOF 1
ENDMDL
MODEL 7
REMARK VINA RESULT:    -4.154      8.806      9.567
REMARK INTER + INTRA:          -4.554
REMARK INTER:                  -4.409
REMARK INTRA:                  -0.145
REMARK UNBOUND:                -0.157
REMARK SMILES CC1=CC=C(C(C)C)CC1
REMARK SMILES IDX 1 1 2 2 3 3 4 4 5 5 9 6 10 7 6 8 7 9 8 10
REMARK H PARENT
REMARK Flexibility Score: inf
ROOT
ATOM      1  C   UNL     1      -9.211  -1.614   9.903  1.00  0.00     0.039 C 
ATOM      2  C   UNL     1      -9.744  -0.231   9.667  1.00  0.00    -0.073 C 
ATOM      3  C   UNL     1     -10.155   0.127   8.442  1.00  0.00    -0.001 C 
ATOM      4  C   UNL     1     -10.678   1.483   8.186  1.00  0.00    -0.001 C 
ATOM      5  C   UNL     1     -10.549   2.460   9.104  1.00  0.00    -0.067 C 
ATOM      6  C   UNL     1      -9.760   2.184  10.368  1.00  0.00     0.035 C 
ATOM      7  C   UNL     1      -9.919   0.727  10.823  1.00  0.00     0.035 C 
ENDROOT
BRANCH   5   8
ATOM      8  C   UNL     1     -11.102   3.852   8.859  1.00  0.00     0.009 C 
ATOM      9  C   UNL     1     -10.685   4.825   9.969  1.00  0.00     0.012 C 
ATOM     10  C   UNL     1     -10.689   4.377   7.478  1.00  0.00     0.012 C 
ENDBRANCH   5   8
TORSDOF 1
ENDMDL
MODEL 8
REMARK VINA RESULT:    -4.103      1.597      4.680
REMARK INTER + INTRA:          -4.500
REMARK INTER:                  -4.355
REMARK INTRA:                  -0.145
REMARK UNBOUND:                -0.157
REMARK SMILES CC1=CC=C(C(C)C)CC1
REMARK SMILES IDX 1 1 2 2 3 3 4 4 5 5 9 6 10 7 6 8 7 9 8 10
REMARK H PARENT
REMARK Flexibility Score: inf
ROOT
ATOM      1  C   UNL     1      -2.969   5.604  10.159  1.00  0.00     0.039 C 
ATOM      2  C   UNL     1      -2.511   4.586  11.163  1.00  0.00    -0.073 C 
ATOM      3  C   UNL     1      -2.852   4.721  12.453  1.00  0.00    -0.001 C 
ATOM      4  C   UNL     1      -2.409   3.736  13.458  1.00  0.00    -0.001 C 
ATOM      5  C   UNL     1      -1.475   2.813  13.159  1.00  0.00    -0.067 C 
ATOM      6  C   UNL     1      -0.797   2.862  11.806  1.00  0.00     0.035 C 
ATOM      7  C   UNL     1      -1.757   3.356  10.713  1.00  0.00     0.035 C 
ENDROOT
BRANCH   5   8
ATOM      8  C   UNL     1      -1.028   1.782  14.180  1.00  0.00     0.009 C 
ATOM      9  C   UNL     1      -0.581   2.447  15.489  1.00  0.00     0.012 C 
ATOM     10  C   UNL     1      -2.125   0.741  14.434  1.00  0.00     0.012 C 
ENDBRANCH   5   8
TORSDOF 1
ENDMDL
MODEL 9
REMARK VINA RESULT:    -4.007      9.208     10.565
REMARK INTER + INTRA:          -4.398
REMARK INTER:                  -4.239
REMARK INTRA:                  -0.159
REMARK UNBOUND:                -0.157
REMARK SMILES CC1=CC=C(C(C)C)CC1
REMARK SMILES IDX 1 1 2 2 3 3 4 4 5 5 9 6 10 7 6 8 7 9 8 10
REMARK H PARENT
REMARK Flexibility Score: inf
ROOT
ATOM      1  C   UNL     1     -10.699   4.741   9.717  1.00  0.00     0.039 C 
ATOM      2  C   UNL     1     -10.609   3.251   9.567  1.00  0.00    -0.073 C 
ATOM      3  C   UNL     1     -10.533   2.705   8.343  1.00  0.00    -0.001 C 
ATOM      4  C   UNL     1     -10.449   1.242   8.172  1.00  0.00    -0.001 C 
ATOM      5  C   UNL     1     -10.673   0.409   9.206  1.00  0.00    -0.067 C 
ATOM      6  C   UNL     1     -11.124   0.986  10.532  1.00  0.00     0.035 C 
ATOM      7  C   UNL     1     -10.500   2.366  10.787  1.00  0.00     0.035 C 
ENDROOT
BRANCH   5   8
ATOM      8  C   UNL     1     -10.570  -1.096   9.044  1.00  0.00     0.009 C 
ATOM      9  C   UNL     1     -10.794  -1.520   7.587  1.00  0.00     0.012 C 
ATOM     10  C   UNL     1      -9.229  -1.619   9.573  1.00  0.00     0.012 C 
ENDBRANCH   5   8
TORSDOF 1
ENDMDL
