MODEL 1
REMARK VINA RESULT:    -3.086      0.000      0.000
REMARK INTER + INTRA:          -4.999
REMARK INTER:                  -4.710
REMARK INTRA:                  -0.289
REMARK UNBOUND:                -0.289
REMARK SMILES CC1=CCC[C@@H](C)C(=O)C[C@@H](C(C)C)C(=O)C1
REMARK SMILES IDX 8 1 9 2 6 3 7 4 5 5 4 6 3 7 2 8 1 9 10 11 11 12 15 13 16 14
REMARK SMILES IDX 17 15 12 17 13 18 14 19
REMARK H PARENT
REMARK Flexibility Score: 70.00
ROOT
ATOM      1  C   UNL     1       1.474   0.280  24.045  1.00  0.00     0.136 C 
ATOM      2  O   UNL     1       0.969   0.894  23.113  1.00  0.00    -0.299 OA
ENDROOT
BRANCH   1   3
ATOM      3  C   UNL     1       2.773   0.772  24.662  1.00  0.00     0.053 C 
ATOM      4  C   UNL     1       3.117   2.206  24.225  1.00  0.00     0.016 C 
BRANCH   3   5
ATOM      5  C   UNL     1       3.952  -0.189  24.385  1.00  0.00     0.015 C 
BRANCH   5   6
ATOM      6  C   UNL     1       4.686  -0.683  25.656  1.00  0.00     0.028 C 
BRANCH   6   7
ATOM      7  C   UNL     1       4.528  -2.176  25.824  1.00  0.00    -0.028 C 
ATOM      8  C   UNL     1       3.623  -2.788  26.628  1.00  0.00    -0.070 CG0
ATOM      9  C   UNL     1       3.711  -4.286  26.777  1.00  0.00     0.039 C 
ATOM     10  G   UNL     1       2.529  -2.044  27.378  1.00  0.00     0.000 G0
ENDBRANCH   6   7
ENDBRANCH   5   6
ENDBRANCH   3   5
ENDBRANCH   1   3
BRANCH   1  11
ATOM     11  C   UNL     1       0.798  -0.983  24.529  1.00  0.00     0.087 C 
BRANCH  11  12
ATOM     12  C   UNL     1       0.478  -0.945  26.048  1.00  0.00     0.066 C 
BRANCH  12  13
ATOM     13  C   UNL     1       1.134  -2.104  26.793  1.00  0.00     0.140 C 
ATOM     14  O   UNL     1       0.521  -3.156  26.897  1.00  0.00    -0.299 OA
BRANCH  13  15
ATOM     15  C   UNL     1       2.525  -2.047  27.397  1.00  0.00     0.106 CG0
ATOM     16  G   UNL     1       3.611  -2.784  26.629  1.00  0.00     0.000 G0
ENDBRANCH  13  15
ENDBRANCH  12  13
BRANCH  12  17
ATOM     17  C   UNL     1      -1.047  -0.857  26.373  1.00  0.00    -0.006 C 
ATOM     18  C   UNL     1      -1.920  -0.360  25.207  1.00  0.00     0.008 C 
ATOM     19  C   UNL     1      -1.311   0.001  27.621  1.00  0.00     0.008 C 
ENDBRANCH  12  17
ENDBRANCH  11  12
ENDBRANCH   1  11
TORSDOF 1
ENDMDL
MODEL 2
REMARK VINA RESULT:    -3.082      9.776     11.382
REMARK INTER + INTRA:          -4.992
REMARK INTER:                  -4.526
REMARK INTRA:                  -0.466
REMARK UNBOUND:                -0.289
REMARK SMILES CC1=CCC[C@@H](C)C(=O)C[C@@H](C(C)C)C(=O)C1
REMARK SMILES IDX 8 1 9 2 6 3 7 4 5 5 4 6 3 7 2 8 1 9 10 11 11 12 15 13 16 14
REMARK SMILES IDX 17 15 12 17 13 18 14 19
REMARK H PARENT
REMARK Flexibility Score: 70.00
ROOT
ATOM      1  C   UNL     1       0.513  -0.141  14.848  1.00  0.00     0.136 C 
ATOM      2  O   UNL     1      -0.418   0.146  14.106  1.00  0.00    -0.299 OA
ENDROOT
BRANCH   1   3
ATOM      3  C   UNL     1       1.120   0.923  15.749  1.00  0.00     0.053 C 
ATOM      4  C   UNL     1       0.062   1.614  16.625  1.00  0.00     0.016 C 
BRANCH   3   5
ATOM      5  C   UNL     1       1.946   1.960  14.955  1.00  0.00     0.015 C 
BRANCH   5   6
ATOM      6  C   UNL     1       2.520   1.430  13.618  1.00  0.00     0.028 C 
BRANCH   6   7
ATOM      7  C   UNL     1       4.015   1.231  13.714  1.00  0.00    -0.028 C 
ATOM      8  C   UNL     1       4.650   0.033  13.755  1.00  0.00    -0.070 CG0
ATOM      9  C   UNL     1       6.138   0.031  13.998  1.00  0.00     0.039 C 
ATOM     10  G   UNL     1       3.941  -1.298  13.563  1.00  0.00     0.000 G0
ENDBRANCH   6   7
ENDBRANCH   5   6
ENDBRANCH   3   5
ENDBRANCH   1   3
BRANCH   1  11
ATOM     11  C   UNL     1       1.057  -1.551  14.813  1.00  0.00     0.087 C 
BRANCH  11  12
ATOM     12  C   UNL     1       2.339  -1.718  15.673  1.00  0.00     0.066 C 
BRANCH  12  13
ATOM     13  C   UNL     1       3.553  -2.066  14.816  1.00  0.00     0.140 C 
ATOM     14  O   UNL     1       4.247  -3.019  15.141  1.00  0.00    -0.299 OA
BRANCH  13  15
ATOM     15  C   UNL     1       3.946  -1.317  13.556  1.00  0.00     0.106 CG0
ATOM     16  G   UNL     1       4.617   0.030  13.769  1.00  0.00     0.000 G0
ENDBRANCH  13  15
ENDBRANCH  12  13
BRANCH  12  17
ATOM     17  C   UNL     1       2.181  -2.720  16.860  1.00  0.00    -0.006 C 
ATOM     18  C   UNL     1       0.987  -3.682  16.728  1.00  0.00     0.008 C 
ATOM     19  C   UNL     1       2.113  -1.992  18.211  1.00  0.00     0.008 C 
ENDBRANCH  12  17
ENDBRANCH  11  12
ENDBRANCH   1  11
TORSDOF 1
ENDMDL
MODEL 3
REMARK VINA RESULT:    -3.056      7.828      9.566
REMARK INTER + INTRA:          -4.953
REMARK INTER:                  -4.472
REMARK INTRA:                  -0.481
REMARK UNBOUND:                -0.289
REMARK SMILES CC1=CCC[C@@H](C)C(=O)C[C@@H](C(C)C)C(=O)C1
REMARK SMILES IDX 8 1 9 2 6 3 7 4 5 5 4 6 3 7 2 8 1 9 10 11 11 12 15 13 16 14
REMARK SMILES IDX 17 15 12 17 13 18 14 19
REMARK H PARENT
REMARK Flexibility Score: 70.00
ROOT
ATOM      1  C   UNL     1       0.859  -2.776  18.770  1.00  0.00     0.136 C 
ATOM      2  O   UNL     1       1.783  -3.354  19.329  1.00  0.00    -0.299 OA
ENDROOT
BRANCH   1   3
ATOM      3  C   UNL     1       0.137  -3.444  17.611  1.00  0.00     0.053 C 
ATOM      4  C   UNL     1      -0.651  -4.687  18.056  1.00  0.00     0.016 C 
BRANCH   3   5
ATOM      5  C   UNL     1       1.094  -3.783  16.444  1.00  0.00     0.015 C 
BRANCH   5   6
ATOM      6  C   UNL     1       1.001  -2.814  15.240  1.00  0.00     0.028 C 
BRANCH   6   7
ATOM      7  C   UNL     1       2.099  -1.777  15.296  1.00  0.00    -0.028 C 
ATOM      8  C   UNL     1       1.921  -0.454  15.532  1.00  0.00    -0.070 CG0
ATOM      9  C   UNL     1       3.120   0.452  15.406  1.00  0.00     0.039 C 
ATOM     10  G   UNL     1       0.584   0.157  15.919  1.00  0.00     0.000 G0
ENDBRANCH   6   7
ENDBRANCH   5   6
ENDBRANCH   3   5
ENDBRANCH   1   3
BRANCH   1  11
ATOM     11  C   UNL     1       0.488  -1.386  19.235  1.00  0.00     0.087 C 
BRANCH  11  12
ATOM     12  C   UNL     1      -0.459  -0.657  18.244  1.00  0.00     0.066 C 
BRANCH  12  13
ATOM     13  C   UNL     1       0.295   0.352  17.381  1.00  0.00     0.140 C 
ATOM     14  O   UNL     1       0.725   1.368  17.907  1.00  0.00    -0.299 OA
BRANCH  13  15
ATOM     15  C   UNL     1       0.573   0.163  15.901  1.00  0.00     0.106 CG0
ATOM     16  G   UNL     1       1.921  -0.451  15.554  1.00  0.00     0.000 G0
ENDBRANCH  13  15
ENDBRANCH  12  13
BRANCH  12  17
ATOM     17  C   UNL     1      -1.703  -0.001  18.921  1.00  0.00    -0.006 C 
ATOM     18  C   UNL     1      -2.577  -0.976  19.731  1.00  0.00     0.008 C 
ATOM     19  C   UNL     1      -2.573   0.750  17.901  1.00  0.00     0.008 C 
ENDBRANCH  12  17
ENDBRANCH  11  12
ENDBRANCH   1  11
TORSDOF 1
ENDMDL
MODEL 4
REMARK VINA RESULT:    -2.908      8.865     10.971
REMARK INTER + INTRA:          -4.727
REMARK INTER:                  -4.464
REMARK INTRA:                  -0.263
REMARK UNBOUND:                -0.289
REMARK SMILES CC1=CCC[C@@H](C)C(=O)C[C@@H](C(C)C)C(=O)C1
REMARK SMILES IDX 8 1 9 2 6 3 7 4 5 5 4 6 3 7 2 8 1 9 10 11 11 12 15 13 16 14
REMARK SMILES IDX 17 15 12 17 13 18 14 19
REMARK H PARENT
REMARK Flexibility Score: 70.00
ROOT
ATOM      1  C   UNL     1       2.512  -2.772  16.191  1.00  0.00     0.136 C 
ATOM      2  O   UNL     1       3.708  -2.593  16.380  1.00  0.00    -0.299 OA
ENDROOT
BRANCH   1   3
ATOM      3  C   UNL     1       1.690  -3.545  17.211  1.00  0.00     0.053 C 
ATOM      4  C   UNL     1       0.380  -4.083  16.612  1.00  0.00     0.016 C 
BRANCH   3   5
ATOM      5  C   UNL     1       1.417  -2.718  18.488  1.00  0.00     0.015 C 
BRANCH   5   6
ATOM      6  C   UNL     1       0.222  -1.740  18.373  1.00  0.00     0.028 C 
BRANCH   6   7
ATOM      7  C   UNL     1       0.700  -0.306  18.352  1.00  0.00    -0.028 C 
ATOM      8  C   UNL     1       0.605   0.540  17.296  1.00  0.00    -0.070 CG0
ATOM      9  C   UNL     1       1.268   1.889  17.413  1.00  0.00     0.039 C 
ATOM     10  G   UNL     1      -0.134   0.199  16.012  1.00  0.00     0.000 G0
ENDBRANCH   6   7
ENDBRANCH   5   6
ENDBRANCH   3   5
ENDBRANCH   1   3
BRANCH   1  11
ATOM     11  C   UNL     1       1.893  -2.245  14.916  1.00  0.00     0.087 C 
BRANCH  11  12
ATOM     12  C   UNL     1       2.060  -0.709  14.761  1.00  0.00     0.066 C 
BRANCH  12  13
ATOM     13  C   UNL     1       0.712   0.008  14.761  1.00  0.00     0.140 C 
ATOM     14  O   UNL     1       0.278   0.440  13.703  1.00  0.00    -0.299 OA
BRANCH  13  15
ATOM     15  C   UNL     1      -0.149   0.198  15.996  1.00  0.00     0.106 CG0
ATOM     16  G   UNL     1       0.597   0.540  17.276  1.00  0.00     0.000 G0
ENDBRANCH  13  15
ENDBRANCH  12  13
BRANCH  12  17
ATOM     17  C   UNL     1       2.924  -0.285  13.532  1.00  0.00    -0.006 C 
ATOM     18  C   UNL     1       3.749  -1.425  12.909  1.00  0.00     0.008 C 
ATOM     19  C   UNL     1       3.845   0.898  13.868  1.00  0.00     0.008 C 
ENDBRANCH  12  17
ENDBRANCH  11  12
ENDBRANCH   1  11
TORSDOF 1
ENDMDL
MODEL 5
REMARK VINA RESULT:    -2.893      3.940      4.838
REMARK INTER + INTRA:          -4.705
REMARK INTER:                  -4.262
REMARK INTRA:                  -0.442
REMARK UNBOUND:                -0.289
REMARK SMILES CC1=CCC[C@@H](C)C(=O)C[C@@H](C(C)C)C(=O)C1
REMARK SMILES IDX 8 1 9 2 6 3 7 4 5 5 4 6 3 7 2 8 1 9 10 11 11 12 15 13 16 14
REMARK SMILES IDX 17 15 12 17 13 18 14 19
REMARK H PARENT
REMARK Flexibility Score: 70.00
ROOT
ATOM      1  C   UNL     1       2.147   2.956  21.060  1.00  0.00     0.136 C 
ATOM      2  O   UNL     1       2.867   3.770  20.496  1.00  0.00    -0.299 OA
ENDROOT
BRANCH   1   3
ATOM      3  C   UNL     1       1.547   3.286  22.417  1.00  0.00     0.053 C 
ATOM      4  C   UNL     1       0.670   4.548  22.373  1.00  0.00     0.016 C 
BRANCH   3   5
ATOM      5  C   UNL     1       2.625   3.398  23.520  1.00  0.00     0.015 C 
BRANCH   5   6
ATOM      6  C   UNL     1       2.892   2.081  24.289  1.00  0.00     0.028 C 
BRANCH   6   7
ATOM      7  C   UNL     1       4.207   1.468  23.867  1.00  0.00    -0.028 C 
ATOM      8  C   UNL     1       4.371   0.215  23.374  1.00  0.00    -0.070 CG0
ATOM      9  C   UNL     1       5.778  -0.274  23.144  1.00  0.00     0.039 C 
ATOM     10  G   UNL     1       3.213  -0.712  23.041  1.00  0.00     0.000 G0
ENDBRANCH   6   7
ENDBRANCH   5   6
ENDBRANCH   3   5
ENDBRANCH   1   3
BRANCH   1  11
ATOM     11  C   UNL     1       1.906   1.619  20.395  1.00  0.00     0.087 C 
BRANCH  11  12
ATOM     12  C   UNL     1       1.460   0.524  21.400  1.00  0.00     0.066 C 
BRANCH  12  13
ATOM     13  C   UNL     1       2.575  -0.482  21.671  1.00  0.00     0.140 C 
ATOM     14  O   UNL     1       3.010  -1.141  20.738  1.00  0.00    -0.299 OA
BRANCH  13  15
ATOM     15  C   UNL     1       3.207  -0.704  23.033  1.00  0.00     0.106 CG0
ATOM     16  G   UNL     1       4.371   0.210  23.379  1.00  0.00     0.000 G0
ENDBRANCH  13  15
ENDBRANCH  12  13
BRANCH  12  17
ATOM     17  C   UNL     1       0.133  -0.198  21.004  1.00  0.00    -0.006 C 
ATOM     18  C   UNL     1      -0.646   0.480  19.862  1.00  0.00     0.008 C 
ATOM     19  C   UNL     1      -0.790  -0.393  22.217  1.00  0.00     0.008 C 
ENDBRANCH  12  17
ENDBRANCH  11  12
ENDBRANCH   1  11
TORSDOF 1
ENDMDL
MODEL 6
REMARK VINA RESULT:    -2.869      5.791      6.648
REMARK INTER + INTRA:          -4.668
REMARK INTER:                  -4.348
REMARK INTRA:                  -0.320
REMARK UNBOUND:                -0.289
REMARK SMILES CC1=CCC[C@@H](C)C(=O)C[C@@H](C(C)C)C(=O)C1
REMARK SMILES IDX 8 1 9 2 6 3 7 4 5 5 4 6 3 7 2 8 1 9 10 11 11 12 15 13 16 14
REMARK SMILES IDX 17 15 12 17 13 18 14 19
REMARK H PARENT
REMARK Flexibility Score: 70.00
ROOT
ATOM      1  C   UNL     1      -1.146  -4.215  18.359  1.00  0.00     0.136 C 
ATOM      2  O   UNL     1      -1.630  -5.109  17.678  1.00  0.00    -0.299 OA
ENDROOT
BRANCH   1   3
ATOM      3  C   UNL     1       0.310  -3.820  18.170  1.00  0.00     0.053 C 
ATOM      4  C   UNL     1       0.680  -3.663  16.686  1.00  0.00     0.016 C 
BRANCH   3   5
ATOM      5  C   UNL     1       1.277  -4.794  18.882  1.00  0.00     0.015 C 
BRANCH   5   6
ATOM      6  C   UNL     1       1.963  -4.208  20.140  1.00  0.00     0.028 C 
BRANCH   6   7
ATOM      7  C   UNL     1       1.621  -5.018  21.369  1.00  0.00    -0.028 C 
ATOM      8  C   UNL     1       0.908  -4.573  22.433  1.00  0.00    -0.070 CG0
ATOM      9  C   UNL     1       0.790  -5.479  23.632  1.00  0.00     0.039 C 
ATOM     10  G   UNL     1       0.223  -3.216  22.475  1.00  0.00     0.000 G0
ENDBRANCH   6   7
ENDBRANCH   5   6
ENDBRANCH   3   5
ENDBRANCH   1   3
BRANCH   1  11
ATOM     11  C   UNL     1      -2.013  -3.551  19.405  1.00  0.00     0.087 C 
BRANCH  11  12
ATOM     12  C   UNL     1      -1.217  -2.572  20.310  1.00  0.00     0.066 C 
BRANCH  12  13
ATOM     13  C   UNL     1      -1.095  -3.096  21.738  1.00  0.00     0.140 C 
ATOM     14  O   UNL     1      -2.105  -3.475  22.312  1.00  0.00    -0.299 OA
BRANCH  13  15
ATOM     15  C   UNL     1       0.217  -3.205  22.494  1.00  0.00     0.106 CG0
ATOM     16  G   UNL     1       0.906  -4.558  22.430  1.00  0.00     0.000 G0
ENDBRANCH  13  15
ENDBRANCH  12  13
BRANCH  12  17
ATOM     17  C   UNL     1      -1.758  -1.108  20.290  1.00  0.00    -0.006 C 
ATOM     18  C   UNL     1      -1.956  -0.520  18.882  1.00  0.00     0.008 C 
ATOM     19  C   UNL     1      -0.875  -0.167  21.125  1.00  0.00     0.008 C 
ENDBRANCH  12  17
ENDBRANCH  11  12
ENDBRANCH   1  11
TORSDOF 1
ENDMDL
MODEL 7
REMARK VINA RESULT:    -2.768      7.670      9.376
REMARK INTER + INTRA:          -4.514
REMARK INTER:                  -4.475
REMARK INTRA:                  -0.040
REMARK UNBOUND:                -0.289
REMARK SMILES CC1=CCC[C@@H](C)C(=O)C[C@@H](C(C)C)C(=O)C1
REMARK SMILES IDX 8 1 9 2 6 3 7 4 5 5 4 6 3 7 2 8 1 9 10 11 11 12 15 13 16 14
REMARK SMILES IDX 17 15 12 17 13 18 14 19
REMARK H PARENT
REMARK Flexibility Score: 70.00
ROOT
ATOM      1  C   UNL     1       3.211  -2.223  15.356  1.00  0.00     0.136 C 
ATOM      2  O   UNL     1       4.062  -2.440  14.504  1.00  0.00    -0.299 OA
ENDROOT
BRANCH   1   3
ATOM      3  C   UNL     1       1.740  -2.427  15.029  1.00  0.00     0.053 C 
ATOM      4  C   UNL     1       0.959  -1.103  15.018  1.00  0.00     0.016 C 
BRANCH   3   5
ATOM      5  C   UNL     1       1.071  -3.458  15.966  1.00  0.00     0.015 C 
BRANCH   5   6
ATOM      6  C   UNL     1       0.294  -2.834  17.152  1.00  0.00     0.028 C 
BRANCH   6   7
ATOM      7  C   UNL     1       0.370  -3.722  18.372  1.00  0.00    -0.028 C 
ATOM      8  C   UNL     1       1.391  -3.751  19.264  1.00  0.00    -0.070 CG0
ATOM      9  C   UNL     1       1.358  -4.806  20.341  1.00  0.00     0.039 C 
ATOM     10  G   UNL     1       2.557  -2.776  19.236  1.00  0.00     0.000 G0
ENDBRANCH   6   7
ENDBRANCH   5   6
ENDBRANCH   3   5
ENDBRANCH   1   3
BRANCH   1  11
ATOM     11  C   UNL     1       3.655  -1.716  16.710  1.00  0.00     0.087 C 
BRANCH  11  12
ATOM     12  C   UNL     1       4.565  -2.726  17.458  1.00  0.00     0.066 C 
BRANCH  12  13
ATOM     13  C   UNL     1       3.871  -3.309  18.686  1.00  0.00     0.140 C 
ATOM     14  O   UNL     1       4.398  -4.247  19.268  1.00  0.00    -0.299 OA
BRANCH  13  15
ATOM     15  C   UNL     1       2.569  -2.780  19.258  1.00  0.00     0.106 CG0
ATOM     16  G   UNL     1       1.399  -3.752  19.250  1.00  0.00     0.000 G0
ENDBRANCH  13  15
ENDBRANCH  12  13
BRANCH  12  17
ATOM     17  C   UNL     1       5.975  -2.163  17.822  1.00  0.00    -0.006 C 
ATOM     18  C   UNL     1       5.995  -1.243  19.056  1.00  0.00     0.008 C 
ATOM     19  C   UNL     1       6.622  -1.443  16.629  1.00  0.00     0.008 C 
ENDBRANCH  12  17
ENDBRANCH  11  12
ENDBRANCH   1  11
TORSDOF 1
ENDMDL
MODEL 8
REMARK VINA RESULT:    -2.760      3.127      5.385
REMARK INTER + INTRA:          -4.502
REMARK INTER:                  -4.090
REMARK INTRA:                  -0.412
REMARK UNBOUND:                -0.289
REMARK SMILES CC1=CCC[C@@H](C)C(=O)C[C@@H](C(C)C)C(=O)C1
REMARK SMILES IDX 8 1 9 2 6 3 7 4 5 5 4 6 3 7 2 8 1 9 10 11 11 12 15 13 16 14
REMARK SMILES IDX 17 15 12 17 13 18 14 19
REMARK H PARENT
REMARK Flexibility Score: 70.00
ROOT
ATOM      1  C   UNL     1       1.888  -0.337  25.354  1.00  0.00     0.136 C 
ATOM      2  O   UNL     1       1.948  -0.704  26.521  1.00  0.00    -0.299 OA
ENDROOT
BRANCH   1   3
ATOM      3  C   UNL     1       3.163   0.017  24.605  1.00  0.00     0.053 C 
ATOM      4  C   UNL     1       4.392  -0.711  25.175  1.00  0.00     0.016 C 
BRANCH   3   5
ATOM      5  C   UNL     1       3.401   1.543  24.544  1.00  0.00     0.015 C 
BRANCH   5   6
ATOM      6  C   UNL     1       3.488   2.120  23.110  1.00  0.00     0.028 C 
BRANCH   6   7
ATOM      7  C   UNL     1       2.394   3.134  22.869  1.00  0.00    -0.028 C 
ATOM      8  C   UNL     1       1.281   2.930  22.121  1.00  0.00    -0.070 CG0
ATOM      9  C   UNL     1       0.371   4.107  21.875  1.00  0.00     0.039 C 
ATOM     10  G   UNL     1       0.906   1.582  21.526  1.00  0.00     0.000 G0
ENDBRANCH   6   7
ENDBRANCH   5   6
ENDBRANCH   3   5
ENDBRANCH   1   3
BRANCH   1  11
ATOM     11  C   UNL     1       0.529  -0.211  24.703  1.00  0.00     0.087 C 
BRANCH  11  12
ATOM     12  C   UNL     1       0.566  -0.508  23.180  1.00  0.00     0.066 C 
BRANCH  12  13
ATOM     13  C   UNL     1       0.037   0.667  22.363  1.00  0.00     0.140 C 
ATOM     14  O   UNL     1      -1.158   0.920  22.407  1.00  0.00    -0.299 OA
BRANCH  13  15
ATOM     15  C   UNL     1       0.909   1.569  21.509  1.00  0.00     0.106 CG0
ATOM     16  G   UNL     1       1.281   2.907  22.128  1.00  0.00     0.000 G0
ENDBRANCH  13  15
ENDBRANCH  12  13
BRANCH  12  17
ATOM     17  C   UNL     1      -0.141  -1.840  22.776  1.00  0.00    -0.006 C 
ATOM     18  C   UNL     1      -1.163  -2.357  23.804  1.00  0.00     0.008 C 
ATOM     19  C   UNL     1       0.877  -2.947  22.455  1.00  0.00     0.008 C 
ENDBRANCH  12  17
ENDBRANCH  11  12
ENDBRANCH   1  11
TORSDOF 1
ENDMDL
MODEL 9
REMARK VINA RESULT:    -2.726      7.222      8.726
REMARK INTER + INTRA:          -4.450
REMARK INTER:                  -3.995
REMARK INTRA:                  -0.455
REMARK UNBOUND:                -0.289
REMARK SMILES CC1=CCC[C@@H](C)C(=O)C[C@@H](C(C)C)C(=O)C1
REMARK SMILES IDX 8 1 9 2 6 3 7 4 5 5 4 6 3 7 2 8 1 9 10 11 11 12 15 13 16 14
REMARK SMILES IDX 17 15 12 17 13 18 14 19
REMARK H PARENT
REMARK Flexibility Score: 70.00
ROOT
ATOM      1  C   UNL     1       2.482  -4.161  19.592  1.00  0.00     0.136 C 
ATOM      2  O   UNL     1       2.087  -5.311  19.742  1.00  0.00    -0.299 OA
ENDROOT
BRANCH   1   3
ATOM      3  C   UNL     1       3.960  -3.890  19.362  1.00  0.00     0.053 C 
ATOM      4  C   UNL     1       4.494  -2.776  20.277  1.00  0.00     0.016 C 
BRANCH   3   5
ATOM      5  C   UNL     1       4.275  -3.589  17.879  1.00  0.00     0.015 C 
BRANCH   5   6
ATOM      6  C   UNL     1       4.675  -2.120  17.597  1.00  0.00     0.028 C 
BRANCH   6   7
ATOM      7  C   UNL     1       3.961  -1.593  16.373  1.00  0.00    -0.028 C 
ATOM      8  C   UNL     1       2.720  -1.046  16.359  1.00  0.00    -0.070 CG0
ATOM      9  C   UNL     1       2.114  -0.708  15.021  1.00  0.00     0.039 C 
ATOM     10  G   UNL     1       1.918  -0.753  17.617  1.00  0.00     0.000 G0
ENDBRANCH   6   7
ENDBRANCH   5   6
ENDBRANCH   3   5
ENDBRANCH   1   3
BRANCH   1  11
ATOM     11  C   UNL     1       1.477  -3.034  19.679  1.00  0.00     0.087 C 
BRANCH  11  12
ATOM     12  C   UNL     1       0.569  -2.943  18.424  1.00  0.00     0.066 C 
BRANCH  12  13
ATOM     13  C   UNL     1       0.622  -1.558  17.787  1.00  0.00     0.140 C 
ATOM     14  O   UNL     1      -0.420  -1.048  17.404  1.00  0.00    -0.299 OA
BRANCH  13  15
ATOM     15  C   UNL     1       1.895  -0.747  17.621  1.00  0.00     0.106 CG0
ATOM     16  G   UNL     1       2.708  -1.041  16.370  1.00  0.00     0.000 G0
ENDBRANCH  13  15
ENDBRANCH  12  13
BRANCH  12  17
ATOM     17  C   UNL     1      -0.905  -3.393  18.673  1.00  0.00    -0.006 C 
ATOM     18  C   UNL     1      -1.316  -3.440  20.156  1.00  0.00     0.008 C 
ATOM     19  C   UNL     1      -1.205  -4.746  18.009  1.00  0.00     0.008 C 
ENDBRANCH  12  17
ENDBRANCH  11  12
ENDBRANCH   1  11
TORSDOF 1
ENDMDL
