MODEL 1
REMARK VINA RESULT:    -0.788      0.000      0.000
REMARK INTER + INTRA:           0.599
REMARK INTER:                  -1.202
REMARK INTRA:                   1.801
REMARK UNBOUND:                 1.801
REMARK SMILES CC1=CCC[C@H](C)C(=O)C[C@H](C(C)C)C(=O)C1
REMARK SMILES IDX 8 1 9 2 6 3 7 4 5 5 4 6 3 7 2 8 1 9 10 11 11 12 15 13 16 14
REMARK SMILES IDX 17 15 12 17 13 18 14 19
REMARK H PARENT
REMARK Flexibility Score: 70.00
ROOT
ATOM      1  C   UNL     1      27.905  12.746  25.721  1.00  0.00     0.136 C 
ATOM      2  O   UNL     1      26.697  12.812  25.895  1.00  0.00    -0.299 OA
ENDROOT
BRANCH   1   3
ATOM      3  C   UNL     1      28.639  13.926  25.108  1.00  0.00     0.053 C 
ATOM      4  C   UNL     1      30.125  13.592  24.912  1.00  0.00     0.016 C 
BRANCH   3   5
ATOM      5  C   UNL     1      27.983  14.327  23.769  1.00  0.00     0.015 C 
BRANCH   5   6
ATOM      6  C   UNL     1      27.312  13.128  23.068  1.00  0.00     0.028 C 
BRANCH   6   7
ATOM      7  C   UNL     1      28.149  12.648  21.909  1.00  0.00    -0.028 C 
ATOM      8  C   UNL     1      29.224  11.834  22.021  1.00  0.00    -0.070 CG0
ATOM      9  C   UNL     1      30.004  11.516  20.770  1.00  0.00     0.039 C 
ATOM     10  G   UNL     1      29.660  11.216  23.341  1.00  0.00     0.000 G0
ENDBRANCH   6   7
ENDBRANCH   5   6
ENDBRANCH   3   5
ENDBRANCH   1   3
BRANCH   1  11
ATOM     11  C   UNL     1      28.647  11.490  26.125  1.00  0.00     0.087 C 
BRANCH  11  12
ATOM     12  C   UNL     1      28.246  10.201  25.342  1.00  0.00     0.066 C 
BRANCH  12  13
ATOM     13  C   UNL     1      28.608  10.233  23.860  1.00  0.00     0.140 C 
ATOM     14  O   UNL     1      28.011   9.521  23.065  1.00  0.00    -0.299 OA
BRANCH  13  15
ATOM     15  C   UNL     1      29.646  11.200  23.343  1.00  0.00     0.106 CG0
ATOM     16  G   UNL     1      29.229  11.852  22.033  1.00  0.00     0.000 G0
ENDBRANCH  13  15
ENDBRANCH  12  13
BRANCH  12  17
ATOM     17  C   UNL     1      28.667   8.880  26.062  1.00  0.00    -0.006 C 
ATOM     18  C   UNL     1      27.527   7.849  26.061  1.00  0.00     0.008 C 
ATOM     19  C   UNL     1      29.959   8.243  25.525  1.00  0.00     0.008 C 
ENDBRANCH  12  17
ENDBRANCH  11  12
ENDBRANCH   1  11
TORSDOF 1
ENDMDL
