MODEL 1
REMARK VINA RESULT:    -4.082      0.000      0.000
REMARK INTER + INTRA:          -5.594
REMARK INTER:                  -5.514
REMARK INTRA:                  -0.080
REMARK UNBOUND:                -0.080
REMARK SMILES CCCCCCCC=O
REMARK SMILES IDX 5 1 4 2 3 3 2 4 1 5 6 6 7 7 8 8 9 9
REMARK H PARENT
REMARK Flexibility Score: inf
ROOT
ATOM      1  C   UNL     1      27.645  45.229  -0.791  1.00  0.00     0.000 C 
ENDROOT
BRANCH   1   2
ATOM      2  C   UNL     1      28.645  45.139   0.377  1.00  0.00     0.000 C 
BRANCH   2   3
ATOM      3  C   UNL     1      29.975  44.483  -0.022  1.00  0.00    -0.000 C 
BRANCH   3   4
ATOM      4  C   UNL     1      31.061  44.767   1.023  1.00  0.00    -0.003 C 
ATOM      5  C   UNL     1      32.395  45.091   0.357  1.00  0.00     0.004 C 
ENDBRANCH   3   4
ENDBRANCH   2   3
ENDBRANCH   1   2
BRANCH   1   6
ATOM      6  C   UNL     1      26.919  46.581  -0.922  1.00  0.00     0.008 C 
BRANCH   6   7
ATOM      7  C   UNL     1      25.402  46.429  -1.097  1.00  0.00     0.072 C 
BRANCH   7   8
ATOM      8  C   UNL     1      24.912  47.259  -2.246  1.00  0.00     0.224 C 
ATOM      9  O   UNL     1      23.741  47.594  -2.313  1.00  0.00    -0.303 OA
ENDBRANCH   7   8
ENDBRANCH   6   7
ENDBRANCH   1   6
TORSDOF 6
ENDMDL
MODEL 2
REMARK VINA RESULT:    -4.078      3.168      6.176
REMARK INTER + INTRA:          -5.589
REMARK INTER:                  -5.491
REMARK INTRA:                  -0.098
REMARK UNBOUND:                -0.080
REMARK SMILES CCCCCCCC=O
REMARK SMILES IDX 5 1 4 2 3 3 2 4 1 5 6 6 7 7 8 8 9 9
REMARK H PARENT
REMARK Flexibility Score: inf
ROOT
ATOM      1  C   UNL     1      27.348  45.051  -0.658  1.00  0.00     0.000 C 
ENDROOT
BRANCH   1   2
ATOM      2  C   UNL     1      27.116  46.502  -1.120  1.00  0.00     0.000 C 
BRANCH   2   3
ATOM      3  C   UNL     1      25.630  46.891  -1.151  1.00  0.00    -0.000 C 
BRANCH   3   4
ATOM      4  C   UNL     1      25.178  47.213  -2.581  1.00  0.00    -0.003 C 
ATOM      5  C   UNL     1      23.689  47.539  -2.628  1.00  0.00     0.004 C 
ENDBRANCH   3   4
ENDBRANCH   2   3
ENDBRANCH   1   2
BRANCH   1   6
ATOM      6  C   UNL     1      28.826  44.635  -0.542  1.00  0.00     0.008 C 
BRANCH   6   7
ATOM      7  C   UNL     1      29.449  45.014   0.808  1.00  0.00     0.072 C 
BRANCH   7   8
ATOM      8  C   UNL     1      30.916  44.702   0.825  1.00  0.00     0.224 C 
ATOM      9  O   UNL     1      31.615  45.067   1.755  1.00  0.00    -0.303 OA
ENDBRANCH   7   8
ENDBRANCH   6   7
ENDBRANCH   1   6
TORSDOF 6
ENDMDL
MODEL 3
REMARK VINA RESULT:    -3.832      3.517      6.330
REMARK INTER + INTRA:          -5.256
REMARK INTER:                  -5.185
REMARK INTRA:                  -0.071
REMARK UNBOUND:                -0.080
REMARK SMILES CCCCCCCC=O
REMARK SMILES IDX 5 1 4 2 3 3 2 4 1 5 6 6 7 7 8 8 9 9
REMARK H PARENT
REMARK Flexibility Score: inf
ROOT
ATOM      1  C   UNL     1      28.627  45.196   0.324  1.00  0.00     0.000 C 
ENDROOT
BRANCH   1   2
ATOM      2  C   UNL     1      27.530  45.142  -0.756  1.00  0.00     0.000 C 
BRANCH   2   3
ATOM      3  C   UNL     1      26.825  46.491  -0.960  1.00  0.00    -0.000 C 
BRANCH   3   4
ATOM      4  C   UNL     1      25.304  46.308  -1.043  1.00  0.00    -0.003 C 
ATOM      5  C   UNL     1      24.682  47.305  -2.016  1.00  0.00     0.004 C 
ENDBRANCH   3   4
ENDBRANCH   2   3
ENDBRANCH   1   2
BRANCH   1   6
ATOM      6  C   UNL     1      29.936  44.474  -0.045  1.00  0.00     0.008 C 
BRANCH   6   7
ATOM      7  C   UNL     1      30.981  44.521   1.078  1.00  0.00     0.072 C 
BRANCH   7   8
ATOM      8  C   UNL     1      32.257  45.143   0.594  1.00  0.00     0.224 C 
ATOM      9  O   UNL     1      33.318  44.878   1.134  1.00  0.00    -0.303 OA
ENDBRANCH   7   8
ENDBRANCH   6   7
ENDBRANCH   1   6
TORSDOF 6
ENDMDL
MODEL 4
REMARK VINA RESULT:    -3.723     13.011     15.124
REMARK INTER + INTRA:          -5.109
REMARK INTER:                  -5.012
REMARK INTRA:                  -0.097
REMARK UNBOUND:                -0.080
REMARK SMILES CCCCCCCC=O
REMARK SMILES IDX 5 1 4 2 3 3 2 4 1 5 6 6 7 7 8 8 9 9
REMARK H PARENT
REMARK Flexibility Score: inf
ROOT
ATOM      1  C   UNL     1      25.492  57.979  -9.506  1.00  0.00     0.000 C 
ENDROOT
BRANCH   1   2
ATOM      2  C   UNL     1      26.623  58.147 -10.538  1.00  0.00     0.000 C 
BRANCH   2   3
ATOM      3  C   UNL     1      27.364  59.485 -10.402  1.00  0.00    -0.000 C 
BRANCH   3   4
ATOM      4  C   UNL     1      28.786  59.384 -10.966  1.00  0.00    -0.003 C 
ATOM      5  C   UNL     1      29.822  59.353  -9.847  1.00  0.00     0.004 C 
ENDBRANCH   3   4
ENDBRANCH   2   3
ENDBRANCH   1   2
BRANCH   1   6
ATOM      6  C   UNL     1      25.237  56.529  -9.053  1.00  0.00     0.008 C 
BRANCH   6   7
ATOM      7  C   UNL     1      23.748  56.155  -9.060  1.00  0.00     0.072 C 
BRANCH   7   8
ATOM      8  C   UNL     1      23.539  54.789  -8.478  1.00  0.00     0.224 C 
ATOM      9  O   UNL     1      22.510  54.521  -7.880  1.00  0.00    -0.303 OA
ENDBRANCH   7   8
ENDBRANCH   6   7
ENDBRANCH   1   6
TORSDOF 6
ENDMDL
MODEL 5
REMARK VINA RESULT:    -3.498     13.017     15.228
REMARK INTER + INTRA:          -4.805
REMARK INTER:                  -4.720
REMARK INTRA:                  -0.085
REMARK UNBOUND:                -0.080
REMARK SMILES CCCCCCCC=O
REMARK SMILES IDX 5 1 4 2 3 3 2 4 1 5 6 6 7 7 8 8 9 9
REMARK H PARENT
REMARK Flexibility Score: inf
ROOT
ATOM      1  C   UNL     1      25.371  57.530  -9.346  1.00  0.00     0.000 C 
ENDROOT
BRANCH   1   2
ATOM      2  C   UNL     1      25.184  56.003  -9.270  1.00  0.00     0.000 C 
BRANCH   2   3
ATOM      3  C   UNL     1      24.520  55.546  -7.962  1.00  0.00    -0.000 C 
BRANCH   3   4
ATOM      4  C   UNL     1      23.166  54.882  -8.239  1.00  0.00    -0.003 C 
ATOM      5  C   UNL     1      22.514  54.401  -6.946  1.00  0.00     0.004 C 
ENDBRANCH   3   4
ENDBRANCH   2   3
ENDBRANCH   1   2
BRANCH   1   6
ATOM      6  C   UNL     1      26.357  58.010 -10.427  1.00  0.00     0.008 C 
BRANCH   6   7
ATOM      7  C   UNL     1      27.035  59.340 -10.070  1.00  0.00     0.072 C 
BRANCH   7   8
ATOM      8  C   UNL     1      28.409  59.416 -10.666  1.00  0.00     0.224 C 
ATOM      9  O   UNL     1      29.397  59.363  -9.952  1.00  0.00    -0.303 OA
ENDBRANCH   7   8
ENDBRANCH   6   7
ENDBRANCH   1   6
TORSDOF 6
ENDMDL
MODEL 6
REMARK VINA RESULT:    -3.301     13.589     14.666
REMARK INTER + INTRA:          -4.538
REMARK INTER:                  -4.256
REMARK INTRA:                  -0.282
REMARK UNBOUND:                -0.080
REMARK SMILES CCCCCCCC=O
REMARK SMILES IDX 5 1 4 2 3 3 2 4 1 5 6 6 7 7 8 8 9 9
REMARK H PARENT
REMARK Flexibility Score: inf
ROOT
ATOM      1  C   UNL     1      32.049  58.618  -0.964  1.00  0.00     0.000 C 
ENDROOT
BRANCH   1   2
ATOM      2  C   UNL     1      31.814  59.910  -0.159  1.00  0.00     0.000 C 
BRANCH   2   3
ATOM      3  C   UNL     1      31.195  61.036  -1.001  1.00  0.00    -0.000 C 
BRANCH   3   4
ATOM      4  C   UNL     1      30.062  60.500  -1.884  1.00  0.00    -0.003 C 
ATOM      5  C   UNL     1      28.713  61.068  -1.455  1.00  0.00     0.004 C 
ENDBRANCH   3   4
ENDBRANCH   2   3
ENDBRANCH   1   2
BRANCH   1   6
ATOM      6  C   UNL     1      32.716  57.475  -0.177  1.00  0.00     0.008 C 
BRANCH   6   7
ATOM      7  C   UNL     1      31.831  56.934   0.954  1.00  0.00     0.072 C 
BRANCH   7   8
ATOM      8  C   UNL     1      32.557  56.975   2.266  1.00  0.00     0.224 C 
ATOM      9  O   UNL     1      33.239  57.941   2.566  1.00  0.00    -0.303 OA
ENDBRANCH   7   8
ENDBRANCH   6   7
ENDBRANCH   1   6
TORSDOF 6
ENDMDL
MODEL 7
REMARK VINA RESULT:    -3.271     10.402     12.394
REMARK INTER + INTRA:          -4.498
REMARK INTER:                  -3.862
REMARK INTRA:                  -0.636
REMARK UNBOUND:                -0.080
REMARK SMILES CCCCCCCC=O
REMARK SMILES IDX 5 1 4 2 3 3 2 4 1 5 6 6 7 7 8 8 9 9
REMARK H PARENT
REMARK Flexibility Score: inf
ROOT
ATOM      1  C   UNL     1      15.264  42.239  -0.175  1.00  0.00     0.000 C 
ENDROOT
BRANCH   1   2
ATOM      2  C   UNL     1      14.939  43.163   1.014  1.00  0.00     0.000 C 
BRANCH   2   3
ATOM      3  C   UNL     1      15.729  44.479   0.983  1.00  0.00    -0.000 C 
BRANCH   3   4
ATOM      4  C   UNL     1      15.928  44.966  -0.457  1.00  0.00    -0.003 C 
ATOM      5  C   UNL     1      17.379  45.361  -0.711  1.00  0.00     0.004 C 
ENDBRANCH   3   4
ENDBRANCH   2   3
ENDBRANCH   1   2
BRANCH   1   6
ATOM      6  C   UNL     1      16.362  41.195   0.095  1.00  0.00     0.008 C 
BRANCH   6   7
ATOM      7  C   UNL     1      17.616  41.412  -0.764  1.00  0.00     0.072 C 
BRANCH   7   8
ATOM      8  C   UNL     1      18.704  42.064   0.036  1.00  0.00     0.224 C 
ATOM      9  O   UNL     1      18.550  42.287   1.225  1.00  0.00    -0.303 OA
ENDBRANCH   7   8
ENDBRANCH   6   7
ENDBRANCH   1   6
TORSDOF 6
ENDMDL
MODEL 8
REMARK VINA RESULT:    -3.224     11.064     12.240
REMARK INTER + INTRA:          -4.435
REMARK INTER:                  -4.182
REMARK INTRA:                  -0.253
REMARK UNBOUND:                -0.080
REMARK SMILES CCCCCCCC=O
REMARK SMILES IDX 5 1 4 2 3 3 2 4 1 5 6 6 7 7 8 8 9 9
REMARK H PARENT
REMARK Flexibility Score: inf
ROOT
ATOM      1  C   UNL     1      15.001  44.952   1.005  1.00  0.00     0.000 C 
ENDROOT
BRANCH   1   2
ATOM      2  C   UNL     1      15.741  43.601   0.961  1.00  0.00     0.000 C 
BRANCH   2   3
ATOM      3  C   UNL     1      17.250  43.737   1.210  1.00  0.00    -0.000 C 
BRANCH   3   4
ATOM      4  C   UNL     1      17.970  42.409   0.951  1.00  0.00    -0.003 C 
ATOM      5  C   UNL     1      17.531  41.793  -0.374  1.00  0.00     0.004 C 
ENDBRANCH   3   4
ENDBRANCH   2   3
ENDBRANCH   1   2
BRANCH   1   6
ATOM      6  C   UNL     1      14.356  45.382  -0.325  1.00  0.00     0.008 C 
BRANCH   6   7
ATOM      7  C   UNL     1      15.383  45.587  -1.448  1.00  0.00     0.072 C 
BRANCH   7   8
ATOM      8  C   UNL     1      14.699  45.766  -2.770  1.00  0.00     0.224 C 
ATOM      9  O   UNL     1      15.312  46.203  -3.730  1.00  0.00    -0.303 OA
ENDBRANCH   7   8
ENDBRANCH   6   7
ENDBRANCH   1   6
TORSDOF 6
ENDMDL
MODEL 9
REMARK VINA RESULT:    -3.198     10.982     12.524
REMARK INTER + INTRA:          -4.399
REMARK INTER:                  -3.814
REMARK INTRA:                  -0.585
REMARK UNBOUND:                -0.080
REMARK SMILES CCCCCCCC=O
REMARK SMILES IDX 5 1 4 2 3 3 2 4 1 5 6 6 7 7 8 8 9 9
REMARK H PARENT
REMARK Flexibility Score: inf
ROOT
ATOM      1  C   UNL     1      18.198  42.386   0.721  1.00  0.00     0.000 C 
ENDROOT
BRANCH   1   2
ATOM      2  C   UNL     1      17.364  43.610   1.145  1.00  0.00     0.000 C 
BRANCH   2   3
ATOM      3  C   UNL     1      17.003  44.526  -0.033  1.00  0.00    -0.000 C 
BRANCH   3   4
ATOM      4  C   UNL     1      15.541  44.980   0.054  1.00  0.00    -0.003 C 
ATOM      5  C   UNL     1      14.921  44.590   1.392  1.00  0.00     0.004 C 
ENDBRANCH   3   4
ENDBRANCH   2   3
ENDBRANCH   1   2
BRANCH   1   6
ATOM      6  C   UNL     1      17.572  41.530  -0.395  1.00  0.00     0.008 C 
BRANCH   6   7
ATOM      7  C   UNL     1      16.236  40.895   0.017  1.00  0.00     0.072 C 
BRANCH   7   8
ATOM      8  C   UNL     1      15.192  41.118  -1.035  1.00  0.00     0.224 C 
ATOM      9  O   UNL     1      15.328  42.002  -1.865  1.00  0.00    -0.303 OA
ENDBRANCH   7   8
ENDBRANCH   6   7
ENDBRANCH   1   6
TORSDOF 6
ENDMDL
