MODEL 1
REMARK VINA RESULT:    -1.854      0.000      0.000
REMARK INTER + INTRA:          -1.010
REMARK INTER:                  -2.613
REMARK INTRA:                   1.603
REMARK UNBOUND:                 1.603
REMARK SMILES CC1=CCC(=C(C)C)C(=O)CC(C)=CCC1
REMARK SMILES IDX 12 1 14 2 13 3 15 4 16 5 2 6 1 7 3 8 11 10 9 11 10 12 5 13
REMARK SMILES IDX 6 14 7 15 8 16 4 17
REMARK H PARENT
REMARK Flexibility Score: 60.00
ROOT
ATOM      1  C   UNL     1       9.073  24.150  24.774  1.00  0.00    -0.070 C 
ATOM      2  C   UNL     1       8.787  25.464  24.641  1.00  0.00    -0.027 C 
ATOM      3  C   UNL     1       9.722  23.696  26.057  1.00  0.00     0.039 C 
ENDROOT
BRANCH   2   4
ATOM      4  C   UNL     1       8.229  26.125  23.399  1.00  0.00     0.032 C 
BRANCH   4   5
ATOM      5  C   UNL     1       7.095  25.343  22.703  1.00  0.00     0.034 C 
BRANCH   5   6
ATOM      6  C   UNL     1       7.266  25.256  21.197  1.00  0.00    -0.077 C 
ATOM      7  C   UNL     1       6.024  25.326  20.346  1.00  0.00     0.039 C 
ATOM      8  C   UNL     1       8.451  25.050  20.574  1.00  0.00    -0.023 CG0
ATOM      9  G   UNL     1       9.822  24.967  21.218  1.00  0.00     0.000 G0
ENDBRANCH   5   6
ENDBRANCH   4   5
ENDBRANCH   2   4
BRANCH   1  10
ATOM     10  C   UNL     1       8.861  23.137  23.667  1.00  0.00     0.111 C 
BRANCH  10  11
ATOM     11  C   UNL     1      10.104  22.955  22.836  1.00  0.00     0.163 C 
ATOM     12  O   UNL     1      11.091  22.375  23.362  1.00  0.00    -0.294 OA
BRANCH  11  13
ATOM     13  C   UNL     1      10.223  23.488  21.446  1.00  0.00    -0.002 C 
ATOM     14  C   UNL     1      10.747  22.720  20.445  1.00  0.00    -0.069 C 
ATOM     15  C   UNL     1      11.079  21.260  20.667  1.00  0.00     0.039 C 
ATOM     16  C   UNL     1      11.028  23.280  19.067  1.00  0.00     0.039 C 
BRANCH  13  17
ATOM     17  C   UNL     1       9.827  24.939  21.221  1.00  0.00     0.066 CG0
ATOM     18  G   UNL     1       8.461  25.071  20.576  1.00  0.00     0.000 G0
ENDBRANCH  13  17
ENDBRANCH  11  13
ENDBRANCH  10  11
ENDBRANCH   1  10
TORSDOF 0
ENDMDL
MODEL 2
REMARK VINA RESULT:    -1.532      1.867      3.880
REMARK INTER + INTRA:          -0.555
REMARK INTER:                  -1.175
REMARK INTRA:                   0.619
REMARK UNBOUND:                 1.603
REMARK SMILES CC1=CCC(=C(C)C)C(=O)CC(C)=CCC1
REMARK SMILES IDX 12 1 14 2 13 3 15 4 16 5 2 6 1 7 3 8 11 10 9 11 10 12 5 13
REMARK SMILES IDX 6 14 7 15 8 16 4 17
REMARK H PARENT
REMARK Flexibility Score: 60.00
ROOT
ATOM      1  C   UNL     1       8.366  25.078  22.388  1.00  0.00    -0.070 C 
ATOM      2  C   UNL     1       9.156  25.682  21.474  1.00  0.00    -0.027 C 
ATOM      3  C   UNL     1       8.292  25.682  23.767  1.00  0.00     0.039 C 
ENDROOT
BRANCH   2   4
ATOM      4  C   UNL     1       9.435  25.176  20.076  1.00  0.00     0.032 C 
BRANCH   4   5
ATOM      5  C   UNL     1      10.894  24.740  19.823  1.00  0.00     0.034 C 
BRANCH   5   6
ATOM      6  C   UNL     1      11.070  23.233  19.786  1.00  0.00    -0.077 C 
ATOM      7  C   UNL     1      11.123  22.567  18.435  1.00  0.00     0.039 C 
ATOM      8  C   UNL     1      11.113  22.442  20.885  1.00  0.00    -0.023 CG0
ATOM      9  G   UNL     1      11.095  22.887  22.335  1.00  0.00     0.000 G0
ENDBRANCH   5   6
ENDBRANCH   4   5
ENDBRANCH   2   4
BRANCH   1  10
ATOM     10  C   UNL     1       7.631  23.779  22.123  1.00  0.00     0.111 C 
BRANCH  10  11
ATOM     11  C   UNL     1       8.558  22.593  22.187  1.00  0.00     0.163 C 
ATOM     12  O   UNL     1       8.244  21.558  21.542  1.00  0.00    -0.294 OA
BRANCH  11  13
ATOM     13  C   UNL     1       9.791  22.585  23.031  1.00  0.00    -0.002 C 
ATOM     14  C   UNL     1       9.710  22.400  24.383  1.00  0.00    -0.069 C 
ATOM     15  C   UNL     1       8.400  22.044  25.050  1.00  0.00     0.039 C 
ATOM     16  C   UNL     1      10.917  22.544  25.285  1.00  0.00     0.039 C 
BRANCH  13  17
ATOM     17  C   UNL     1      11.111  22.883  22.339  1.00  0.00     0.066 CG0
ATOM     18  G   UNL     1      11.113  22.442  20.888  1.00  0.00     0.000 G0
ENDBRANCH  13  17
ENDBRANCH  11  13
ENDBRANCH  10  11
ENDBRANCH   1  10
TORSDOF 0
ENDMDL
MODEL 3
REMARK VINA RESULT:    -0.733      1.948      3.861
REMARK INTER + INTRA:           0.571
REMARK INTER:                  -1.666
REMARK INTRA:                   2.237
REMARK UNBOUND:                 1.603
REMARK SMILES CC1=CCC(=C(C)C)C(=O)CC(C)=CCC1
REMARK SMILES IDX 12 1 14 2 13 3 15 4 16 5 2 6 1 7 3 8 11 10 9 11 10 12 5 13
REMARK SMILES IDX 6 14 7 15 8 16 4 17
REMARK H PARENT
REMARK Flexibility Score: 60.00
ROOT
ATOM      1  C   UNL     1       7.549  25.021  21.424  1.00  0.00    -0.070 C 
ATOM      2  C   UNL     1       6.903  25.771  22.343  1.00  0.00    -0.027 C 
ATOM      3  C   UNL     1       7.699  25.583  20.033  1.00  0.00     0.039 C 
ENDROOT
BRANCH   2   4
ATOM      4  C   UNL     1       6.569  25.343  23.756  1.00  0.00     0.032 C 
BRANCH   4   5
ATOM      5  C   UNL     1       7.690  24.568  24.480  1.00  0.00     0.034 C 
BRANCH   5   6
ATOM      6  C   UNL     1       8.667  25.472  25.209  1.00  0.00    -0.077 C 
ATOM      7  C   UNL     1       8.224  26.072  26.519  1.00  0.00     0.039 C 
ATOM      8  C   UNL     1       9.882  25.830  24.726  1.00  0.00    -0.023 CG0
ATOM      9  G   UNL     1      10.540  25.342  23.450  1.00  0.00     0.000 G0
ENDBRANCH   5   6
ENDBRANCH   4   5
ENDBRANCH   2   4
BRANCH   1  10
ATOM     10  C   UNL     1       8.044  23.615  21.698  1.00  0.00     0.111 C 
BRANCH  10  11
ATOM     11  C   UNL     1       9.542  23.573  21.851  1.00  0.00     0.163 C 
ATOM     12  O   UNL     1      10.231  23.217  20.859  1.00  0.00    -0.294 OA
BRANCH  11  13
ATOM     13  C   UNL     1      10.223  23.874  23.146  1.00  0.00    -0.002 C 
ATOM     14  C   UNL     1      10.467  22.883  24.055  1.00  0.00    -0.069 C 
ATOM     15  C   UNL     1      10.203  21.431  23.722  1.00  0.00     0.039 C 
ATOM     16  C   UNL     1      11.009  23.179  25.436  1.00  0.00     0.039 C 
BRANCH  13  17
ATOM     17  C   UNL     1      10.540  25.331  23.443  1.00  0.00     0.066 CG0
ATOM     18  G   UNL     1       9.879  25.818  24.718  1.00  0.00     0.000 G0
ENDBRANCH  13  17
ENDBRANCH  11  13
ENDBRANCH  10  11
ENDBRANCH   1  10
TORSDOF 0
ENDMDL
MODEL 4
REMARK VINA RESULT:    -0.659      1.510      3.973
REMARK INTER + INTRA:           0.674
REMARK INTER:                  -0.078
REMARK INTRA:                   0.752
REMARK UNBOUND:                 1.603
REMARK SMILES CC1=CCC(=C(C)C)C(=O)CC(C)=CCC1
REMARK SMILES IDX 12 1 14 2 13 3 15 4 16 5 2 6 1 7 3 8 11 10 9 11 10 12 5 13
REMARK SMILES IDX 6 14 7 15 8 16 4 17
REMARK H PARENT
REMARK Flexibility Score: 60.00
ROOT
ATOM      1  C   UNL     1       7.237  24.913  23.523  1.00  0.00    -0.070 C 
ATOM      2  C   UNL     1       7.376  25.191  22.208  1.00  0.00    -0.027 C 
ATOM      3  C   UNL     1       6.997  26.064  24.467  1.00  0.00     0.039 C 
ENDROOT
BRANCH   2   4
ATOM      4  C   UNL     1       7.717  24.191  21.125  1.00  0.00     0.032 C 
BRANCH   4   5
ATOM      5  C   UNL     1       9.092  24.403  20.457  1.00  0.00     0.034 C 
BRANCH   5   6
ATOM      6  C   UNL     1      10.185  23.533  21.052  1.00  0.00    -0.077 C 
ATOM      7  C   UNL     1      10.651  22.346  20.248  1.00  0.00     0.039 C 
ATOM      8  C   UNL     1      10.719  23.714  22.284  1.00  0.00    -0.023 CG0
ATOM      9  G   UNL     1      10.421  24.840  23.254  1.00  0.00     0.000 G0
ENDBRANCH   5   6
ENDBRANCH   4   5
ENDBRANCH   2   4
BRANCH   1  10
ATOM     10  C   UNL     1       7.405  23.522  24.100  1.00  0.00     0.111 C 
BRANCH  10  11
ATOM     11  C   UNL     1       8.830  23.259  24.511  1.00  0.00     0.163 C 
ATOM     12  O   UNL     1       9.146  22.086  24.843  1.00  0.00    -0.294 OA
BRANCH  11  13
ATOM     13  C   UNL     1       9.852  24.345  24.597  1.00  0.00    -0.002 C 
ATOM     14  C   UNL     1      10.172  24.910  25.799  1.00  0.00    -0.069 C 
ATOM     15  C   UNL     1       9.626  24.357  27.097  1.00  0.00     0.039 C 
ATOM     16  C   UNL     1      11.082  26.115  25.901  1.00  0.00     0.039 C 
BRANCH  13  17
ATOM     17  C   UNL     1      10.441  24.851  23.289  1.00  0.00     0.066 CG0
ATOM     18  G   UNL     1      10.696  23.730  22.300  1.00  0.00     0.000 G0
ENDBRANCH  13  17
ENDBRANCH  11  13
ENDBRANCH  10  11
ENDBRANCH   1  10
TORSDOF 0
ENDMDL
