MODEL 1
REMARK VINA RESULT:    -4.416      0.000      0.000
REMARK INTER + INTRA:         -12.275
REMARK INTER:                  -9.580
REMARK INTRA:                  -2.695
REMARK UNBOUND:                -2.695
REMARK SMILES CCCCCCCCCCCCCCCCCCCCCC(=O)[O-]
REMARK SMILES IDX 12 1 11 2 10 3 9 4 8 5 7 6 6 7 5 8 4 9 3 10 2 11 1 12 13 13
REMARK SMILES IDX 14 14 15 15 16 16 17 17 18 18 19 19 20 20 21 21 22 22 23 23
REMARK SMILES IDX 24 24
REMARK H PARENT
REMARK Flexibility Score: inf
ROOT
ATOM      1  C   UNL     1      22.773   4.237  20.250  1.00  0.00     0.000 C 
ENDROOT
BRANCH   1   2
ATOM      2  C   UNL     1      22.753   2.707  20.418  1.00  0.00     0.000 C 
BRANCH   2   3
ATOM      3  C   UNL     1      24.148   2.118  20.693  1.00  0.00     0.000 C 
BRANCH   3   4
ATOM      4  C   UNL     1      24.613   1.137  19.602  1.00  0.00    -0.000 C 
BRANCH   4   5
ATOM      5  C   UNL     1      26.096   0.713  19.682  1.00  0.00    -0.000 C 
BRANCH   5   6
ATOM      6  C   UNL     1      26.973   1.181  18.509  1.00  0.00    -0.000 C 
BRANCH   6   7
ATOM      7  C   UNL     1      27.743   2.477  18.821  1.00  0.00    -0.000 C 
BRANCH   7   8
ATOM      8  C   UNL     1      26.971   3.739  18.402  1.00  0.00    -0.000 C 
BRANCH   8   9
ATOM      9  C   UNL     1      26.223   3.554  17.070  1.00  0.00    -0.000 C 
BRANCH   9  10
ATOM     10  C   UNL     1      26.581   4.630  16.028  1.00  0.00    -0.000 C 
BRANCH  10  11
ATOM     11  C   UNL     1      28.077   4.719  15.677  1.00  0.00    -0.003 C 
ATOM     12  C   UNL     1      28.639   6.134  15.808  1.00  0.00     0.004 C 
ENDBRANCH  10  11
ENDBRANCH   9  10
ENDBRANCH   8   9
ENDBRANCH   7   8
ENDBRANCH   6   7
ENDBRANCH   5   6
ENDBRANCH   4   5
ENDBRANCH   3   4
ENDBRANCH   2   3
ENDBRANCH   1   2
BRANCH   1  13
ATOM     13  C   UNL     1      23.197   4.734  18.857  1.00  0.00     0.000 C 
BRANCH  13  14
ATOM     14  C   UNL     1      22.662   3.848  17.718  1.00  0.00     0.000 C 
BRANCH  14  15
ATOM     15  C   UNL     1      22.284   4.663  16.469  1.00  0.00     0.000 C 
BRANCH  15  16
ATOM     16  C   UNL     1      22.714   6.136  16.579  1.00  0.00     0.000 C 
BRANCH  16  17
ATOM     17  C   UNL     1      22.907   6.797  15.205  1.00  0.00     0.000 C 
BRANCH  17  18
ATOM     18  C   UNL     1      24.391   6.981  14.837  1.00  0.00     0.000 C 
BRANCH  18  19
ATOM     19  C   UNL     1      24.736   6.365  13.471  1.00  0.00     0.000 C 
BRANCH  19  20
ATOM     20  C   UNL     1      23.493   6.140  12.593  1.00  0.00     0.006 C 
BRANCH  20  21
ATOM     21  C   UNL     1      23.489   7.043  11.352  1.00  0.00     0.053 C 
BRANCH  21  22
ATOM     22  C   UNL     1      22.156   7.694  11.144  1.00  0.00     0.041 C 
ATOM     23  O   UNL     1      21.802   8.058   9.991  1.00  0.00    -0.550 OA
ATOM     24  O   UNL     1      21.317   7.928  12.226  1.00  0.00    -0.550 OA
ENDBRANCH  21  22
ENDBRANCH  20  21
ENDBRANCH  19  20
ENDBRANCH  18  19
ENDBRANCH  17  18
ENDBRANCH  16  17
ENDBRANCH  15  16
ENDBRANCH  14  15
ENDBRANCH  13  14
ENDBRANCH   1  13
TORSDOF 20
ENDMDL
MODEL 2
REMARK VINA RESULT:    -4.363      2.904      6.108
REMARK INTER + INTRA:         -12.160
REMARK INTER:                  -9.201
REMARK INTRA:                  -2.959
REMARK UNBOUND:                -2.695
REMARK SMILES CCCCCCCCCCCCCCCCCCCCCC(=O)[O-]
REMARK SMILES IDX 12 1 11 2 10 3 9 4 8 5 7 6 6 7 5 8 4 9 3 10 2 11 1 12 13 13
REMARK SMILES IDX 14 14 15 15 16 16 17 17 18 18 19 19 20 20 21 21 22 22 23 23
REMARK SMILES IDX 24 24
REMARK H PARENT
REMARK Flexibility Score: inf
ROOT
ATOM      1  C   UNL     1      28.905   0.892  17.305  1.00  0.00     0.000 C 
ENDROOT
BRANCH   1   2
ATOM      2  C   UNL     1      27.786   0.875  16.248  1.00  0.00     0.000 C 
BRANCH   2   3
ATOM      3  C   UNL     1      26.439   1.376  16.797  1.00  0.00     0.000 C 
BRANCH   3   4
ATOM      4  C   UNL     1      26.105   0.803  18.186  1.00  0.00    -0.000 C 
BRANCH   4   5
ATOM      5  C   UNL     1      25.770   1.849  19.272  1.00  0.00    -0.000 C 
BRANCH   5   6
ATOM      6  C   UNL     1      25.524   3.275  18.751  1.00  0.00    -0.000 C 
BRANCH   6   7
ATOM      7  C   UNL     1      24.091   3.768  19.019  1.00  0.00    -0.000 C 
BRANCH   7   8
ATOM      8  C   UNL     1      23.048   2.645  18.907  1.00  0.00    -0.000 C 
BRANCH   8   9
ATOM      9  C   UNL     1      22.135   2.565  20.144  1.00  0.00    -0.000 C 
BRANCH   9  10
ATOM     10  C   UNL     1      22.749   3.239  21.385  1.00  0.00    -0.000 C 
BRANCH  10  11
ATOM     11  C   UNL     1      23.558   2.300  22.298  1.00  0.00    -0.003 C 
ATOM     12  C   UNL     1      23.100   0.844  22.216  1.00  0.00     0.004 C 
ENDBRANCH  10  11
ENDBRANCH   9  10
ENDBRANCH   8   9
ENDBRANCH   7   8
ENDBRANCH   6   7
ENDBRANCH   5   6
ENDBRANCH   4   5
ENDBRANCH   3   4
ENDBRANCH   2   3
ENDBRANCH   1   2
BRANCH   1  13
ATOM     13  C   UNL     1      29.646   2.232  17.449  1.00  0.00     0.000 C 
BRANCH  13  14
ATOM     14  C   UNL     1      29.249   3.002  18.721  1.00  0.00     0.000 C 
BRANCH  14  15
ATOM     15  C   UNL     1      30.256   4.108  19.076  1.00  0.00     0.000 C 
BRANCH  15  16
ATOM     16  C   UNL     1      29.769   5.503  18.647  1.00  0.00     0.000 C 
BRANCH  16  17
ATOM     17  C   UNL     1      30.394   5.964  17.321  1.00  0.00     0.000 C 
BRANCH  17  18
ATOM     18  C   UNL     1      29.344   6.214  16.224  1.00  0.00     0.000 C 
BRANCH  18  19
ATOM     19  C   UNL     1      28.936   4.921  15.497  1.00  0.00     0.000 C 
BRANCH  19  20
ATOM     20  C   UNL     1      27.413   4.797  15.323  1.00  0.00     0.006 C 
BRANCH  20  21
ATOM     21  C   UNL     1      26.765   6.129  14.920  1.00  0.00     0.053 C 
BRANCH  21  22
ATOM     22  C   UNL     1      26.900   6.390  13.450  1.00  0.00     0.041 C 
ATOM     23  O   UNL     1      27.384   7.478  13.042  1.00  0.00    -0.550 OA
ATOM     24  O   UNL     1      26.462   5.444  12.532  1.00  0.00    -0.550 OA
ENDBRANCH  21  22
ENDBRANCH  20  21
ENDBRANCH  19  20
ENDBRANCH  18  19
ENDBRANCH  17  18
ENDBRANCH  16  17
ENDBRANCH  15  16
ENDBRANCH  14  15
ENDBRANCH  13  14
ENDBRANCH   1  13
TORSDOF 20
ENDMDL
MODEL 3
REMARK VINA RESULT:    -4.339      4.171      9.151
REMARK INTER + INTRA:         -12.108
REMARK INTER:                  -8.712
REMARK INTRA:                  -3.395
REMARK UNBOUND:                -2.695
REMARK SMILES CCCCCCCCCCCCCCCCCCCCCC(=O)[O-]
REMARK SMILES IDX 12 1 11 2 10 3 9 4 8 5 7 6 6 7 5 8 4 9 3 10 2 11 1 12 13 13
REMARK SMILES IDX 14 14 15 15 16 16 17 17 18 18 19 19 20 20 21 21 22 22 23 23
REMARK SMILES IDX 24 24
REMARK H PARENT
REMARK Flexibility Score: inf
ROOT
ATOM      1  C   UNL     1      24.229   6.671   9.828  1.00  0.00     0.000 C 
ENDROOT
BRANCH   1   2
ATOM      2  C   UNL     1      24.106   5.465   8.878  1.00  0.00     0.000 C 
BRANCH   2   3
ATOM      3  C   UNL     1      22.749   4.750   8.994  1.00  0.00     0.000 C 
BRANCH   3   4
ATOM      4  C   UNL     1      22.632   3.882  10.260  1.00  0.00    -0.000 C 
BRANCH   4   5
ATOM      5  C   UNL     1      21.193   3.518  10.683  1.00  0.00    -0.000 C 
BRANCH   5   6
ATOM      6  C   UNL     1      20.136   4.601  10.404  1.00  0.00    -0.000 C 
BRANCH   6   7
ATOM      7  C   UNL     1      19.687   5.337  11.679  1.00  0.00    -0.000 C 
BRANCH   7   8
ATOM      8  C   UNL     1      18.867   6.601  11.374  1.00  0.00    -0.000 C 
BRANCH   8   9
ATOM      9  C   UNL     1      19.199   7.198   9.995  1.00  0.00    -0.000 C 
BRANCH   9  10
ATOM     10  C   UNL     1      18.209   8.296   9.565  1.00  0.00    -0.000 C 
BRANCH  10  11
ATOM     11  C   UNL     1      17.304   7.923   8.378  1.00  0.00    -0.003 C 
ATOM     12  C   UNL     1      17.893   6.820   7.499  1.00  0.00     0.004 C 
ENDBRANCH  10  11
ENDBRANCH   9  10
ENDBRANCH   8   9
ENDBRANCH   7   8
ENDBRANCH   6   7
ENDBRANCH   5   6
ENDBRANCH   4   5
ENDBRANCH   3   4
ENDBRANCH   2   3
ENDBRANCH   1   2
BRANCH   1  13
ATOM     13  C   UNL     1      22.964   7.540   9.944  1.00  0.00     0.000 C 
BRANCH  13  14
ATOM     14  C   UNL     1      22.479   7.698  11.396  1.00  0.00     0.000 C 
BRANCH  14  15
ATOM     15  C   UNL     1      23.269   6.816  12.378  1.00  0.00     0.000 C 
BRANCH  15  16
ATOM     16  C   UNL     1      22.488   6.540  13.675  1.00  0.00     0.000 C 
BRANCH  16  17
ATOM     17  C   UNL     1      22.575   5.070  14.114  1.00  0.00     0.000 C 
BRANCH  17  18
ATOM     18  C   UNL     1      23.958   4.449  13.844  1.00  0.00     0.000 C 
BRANCH  18  19
ATOM     19  C   UNL     1      24.749   4.195  15.137  1.00  0.00     0.000 C 
BRANCH  19  20
ATOM     20  C   UNL     1      25.239   5.497  15.795  1.00  0.00     0.006 C 
BRANCH  20  21
ATOM     21  C   UNL     1      26.187   6.287  14.882  1.00  0.00     0.053 C 
BRANCH  21  22
ATOM     22  C   UNL     1      27.601   6.241  15.376  1.00  0.00     0.041 C 
ATOM     23  O   UNL     1      27.993   5.277  16.085  1.00  0.00    -0.550 OA
ATOM     24  O   UNL     1      28.476   7.278  15.079  1.00  0.00    -0.550 OA
ENDBRANCH  21  22
ENDBRANCH  20  21
ENDBRANCH  19  20
ENDBRANCH  18  19
ENDBRANCH  17  18
ENDBRANCH  16  17
ENDBRANCH  15  16
ENDBRANCH  14  15
ENDBRANCH  13  14
ENDBRANCH   1  13
TORSDOF 20
ENDMDL
MODEL 4
REMARK VINA RESULT:    -4.313      2.521      5.142
REMARK INTER + INTRA:         -12.051
REMARK INTER:                  -8.752
REMARK INTRA:                  -3.299
REMARK UNBOUND:                -2.695
REMARK SMILES CCCCCCCCCCCCCCCCCCCCCC(=O)[O-]
REMARK SMILES IDX 12 1 11 2 10 3 9 4 8 5 7 6 6 7 5 8 4 9 3 10 2 11 1 12 13 13
REMARK SMILES IDX 14 14 15 15 16 16 17 17 18 18 19 19 20 20 21 21 22 22 23 23
REMARK SMILES IDX 24 24
REMARK H PARENT
REMARK Flexibility Score: inf
ROOT
ATOM      1  C   UNL     1      25.902   0.997  19.816  1.00  0.00     0.000 C 
ENDROOT
BRANCH   1   2
ATOM      2  C   UNL     1      24.467   1.327  19.366  1.00  0.00     0.000 C 
BRANCH   2   3
ATOM      3  C   UNL     1      23.569   1.790  20.526  1.00  0.00     0.000 C 
BRANCH   3   4
ATOM      4  C   UNL     1      23.114   3.254  20.387  1.00  0.00    -0.000 C 
BRANCH   4   5
ATOM      5  C   UNL     1      23.737   4.033  19.208  1.00  0.00    -0.000 C 
BRANCH   5   6
ATOM      6  C   UNL     1      22.858   5.156  18.631  1.00  0.00    -0.000 C 
BRANCH   6   7
ATOM      7  C   UNL     1      23.417   5.734  17.319  1.00  0.00    -0.000 C 
BRANCH   7   8
ATOM      8  C   UNL     1      24.532   4.864  16.717  1.00  0.00    -0.000 C 
BRANCH   8   9
ATOM      9  C   UNL     1      24.094   4.161  15.420  1.00  0.00    -0.000 C 
BRANCH   9  10
ATOM     10  C   UNL     1      22.704   3.509  15.533  1.00  0.00    -0.000 C 
BRANCH  10  11
ATOM     11  C   UNL     1      22.699   2.098  16.148  1.00  0.00    -0.003 C 
ATOM     12  C   UNL     1      23.917   1.267  15.748  1.00  0.00     0.004 C 
ENDBRANCH  10  11
ENDBRANCH   9  10
ENDBRANCH   8   9
ENDBRANCH   7   8
ENDBRANCH   6   7
ENDBRANCH   5   6
ENDBRANCH   4   5
ENDBRANCH   3   4
ENDBRANCH   2   3
ENDBRANCH   1   2
BRANCH   1  13
ATOM     13  C   UNL     1      26.958   1.029  18.697  1.00  0.00     0.000 C 
BRANCH  13  14
ATOM     14  C   UNL     1      26.897   2.314  17.854  1.00  0.00     0.000 C 
BRANCH  14  15
ATOM     15  C   UNL     1      27.383   3.550  18.631  1.00  0.00     0.000 C 
BRANCH  15  16
ATOM     16  C   UNL     1      28.895   3.786  18.469  1.00  0.00     0.000 C 
BRANCH  16  17
ATOM     17  C   UNL     1      29.250   5.277  18.353  1.00  0.00     0.000 C 
BRANCH  17  18
ATOM     18  C   UNL     1      30.173   5.578  17.159  1.00  0.00     0.000 C 
BRANCH  18  19
ATOM     19  C   UNL     1      29.498   5.287  15.808  1.00  0.00     0.000 C 
BRANCH  19  20
ATOM     20  C   UNL     1      28.083   5.885  15.714  1.00  0.00     0.006 C 
BRANCH  20  21
ATOM     21  C   UNL     1      27.373   5.493  14.412  1.00  0.00     0.053 C 
BRANCH  21  22
ATOM     22  C   UNL     1      26.932   6.695  13.635  1.00  0.00     0.041 C 
ATOM     23  O   UNL     1      27.623   7.114  12.668  1.00  0.00    -0.550 OA
ATOM     24  O   UNL     1      25.775   7.373  13.997  1.00  0.00    -0.550 OA
ENDBRANCH  21  22
ENDBRANCH  20  21
ENDBRANCH  19  20
ENDBRANCH  18  19
ENDBRANCH  17  18
ENDBRANCH  16  17
ENDBRANCH  15  16
ENDBRANCH  14  15
ENDBRANCH  13  14
ENDBRANCH   1  13
TORSDOF 20
ENDMDL
MODEL 5
REMARK VINA RESULT:    -4.294      3.662      6.967
REMARK INTER + INTRA:         -12.010
REMARK INTER:                  -8.897
REMARK INTRA:                  -3.113
REMARK UNBOUND:                -2.695
REMARK SMILES CCCCCCCCCCCCCCCCCCCCCC(=O)[O-]
REMARK SMILES IDX 12 1 11 2 10 3 9 4 8 5 7 6 6 7 5 8 4 9 3 10 2 11 1 12 13 13
REMARK SMILES IDX 14 14 15 15 16 16 17 17 18 18 19 19 20 20 21 21 22 22 23 23
REMARK SMILES IDX 24 24
REMARK H PARENT
REMARK Flexibility Score: inf
ROOT
ATOM      1  C   UNL     1      22.950   5.700  16.062  1.00  0.00     0.000 C 
ENDROOT
BRANCH   1   2
ATOM      2  C   UNL     1      23.667   6.568  15.012  1.00  0.00     0.000 C 
BRANCH   2   3
ATOM      3  C   UNL     1      24.957   7.210  15.548  1.00  0.00     0.000 C 
BRANCH   3   4
ATOM      4  C   UNL     1      26.223   6.710  14.829  1.00  0.00    -0.000 C 
BRANCH   4   5
ATOM      5  C   UNL     1      27.117   5.755  15.648  1.00  0.00    -0.000 C 
BRANCH   5   6
ATOM      6  C   UNL     1      27.305   4.354  15.040  1.00  0.00    -0.000 C 
BRANCH   6   7
ATOM      7  C   UNL     1      26.010   3.795  14.423  1.00  0.00    -0.000 C 
BRANCH   7   8
ATOM      8  C   UNL     1      26.111   3.616  12.900  1.00  0.00    -0.000 C 
BRANCH   8   9
ATOM      9  C   UNL     1      25.001   4.371  12.146  1.00  0.00    -0.000 C 
BRANCH   9  10
ATOM     10  C   UNL     1      25.486   5.703  11.544  1.00  0.00    -0.000 C 
BRANCH  10  11
ATOM     11  C   UNL     1      24.390   6.541  10.861  1.00  0.00    -0.003 C 
ATOM     12  C   UNL     1      24.239   6.231   9.373  1.00  0.00     0.004 C 
ENDBRANCH  10  11
ENDBRANCH   9  10
ENDBRANCH   8   9
ENDBRANCH   7   8
ENDBRANCH   6   7
ENDBRANCH   5   6
ENDBRANCH   4   5
ENDBRANCH   3   4
ENDBRANCH   2   3
ENDBRANCH   1   2
BRANCH   1  13
ATOM     13  C   UNL     1      22.982   6.254  17.497  1.00  0.00     0.000 C 
BRANCH  13  14
ATOM     14  C   UNL     1      22.982   5.147  18.565  1.00  0.00     0.000 C 
BRANCH  14  15
ATOM     15  C   UNL     1      23.667   3.859  18.077  1.00  0.00     0.000 C 
BRANCH  15  16
ATOM     16  C   UNL     1      25.192   3.894  18.279  1.00  0.00     0.000 C 
BRANCH  16  17
ATOM     17  C   UNL     1      25.717   2.650  19.014  1.00  0.00     0.000 C 
BRANCH  17  18
ATOM     18  C   UNL     1      27.209   2.386  18.743  1.00  0.00     0.000 C 
BRANCH  18  19
ATOM     19  C   UNL     1      28.025   3.684  18.639  1.00  0.00     0.000 C 
BRANCH  19  20
ATOM     20  C   UNL     1      29.542   3.434  18.694  1.00  0.00     0.006 C 
BRANCH  20  21
ATOM     21  C   UNL     1      30.302   4.238  17.631  1.00  0.00     0.053 C 
BRANCH  21  22
ATOM     22  C   UNL     1      30.472   5.671  18.035  1.00  0.00     0.041 C 
ATOM     23  O   UNL     1      30.461   6.580  17.164  1.00  0.00    -0.550 OA
ATOM     24  O   UNL     1      30.674   5.999  19.370  1.00  0.00    -0.550 OA
ENDBRANCH  21  22
ENDBRANCH  20  21
ENDBRANCH  19  20
ENDBRANCH  18  19
ENDBRANCH  17  18
ENDBRANCH  16  17
ENDBRANCH  15  16
ENDBRANCH  14  15
ENDBRANCH  13  14
ENDBRANCH   1  13
TORSDOF 20
ENDMDL
MODEL 6
REMARK VINA RESULT:    -4.284      3.825      6.212
REMARK INTER + INTRA:         -11.988
REMARK INTER:                  -8.842
REMARK INTRA:                  -3.145
REMARK UNBOUND:                -2.695
REMARK SMILES CCCCCCCCCCCCCCCCCCCCCC(=O)[O-]
REMARK SMILES IDX 12 1 11 2 10 3 9 4 8 5 7 6 6 7 5 8 4 9 3 10 2 11 1 12 13 13
REMARK SMILES IDX 14 14 15 15 16 16 17 17 18 18 19 19 20 20 21 21 22 22 23 23
REMARK SMILES IDX 24 24
REMARK H PARENT
REMARK Flexibility Score: inf
ROOT
ATOM      1  C   UNL     1      22.985   3.579  11.466  1.00  0.00     0.000 C 
ENDROOT
BRANCH   1   2
ATOM      2  C   UNL     1      21.766   3.576  12.407  1.00  0.00     0.000 C 
BRANCH   2   3
ATOM      3  C   UNL     1      22.015   4.359  13.708  1.00  0.00     0.000 C 
BRANCH   3   4
ATOM      4  C   UNL     1      21.174   5.645  13.807  1.00  0.00    -0.000 C 
BRANCH   4   5
ATOM      5  C   UNL     1      21.838   6.814  14.565  1.00  0.00    -0.000 C 
BRANCH   5   6
ATOM      6  C   UNL     1      22.409   6.455  15.948  1.00  0.00    -0.000 C 
BRANCH   6   7
ATOM      7  C   UNL     1      23.778   7.107  16.213  1.00  0.00    -0.000 C 
BRANCH   7   8
ATOM      8  C   UNL     1      24.732   6.989  15.014  1.00  0.00    -0.000 C 
BRANCH   8   9
ATOM      9  C   UNL     1      25.631   5.742  15.099  1.00  0.00    -0.000 C 
BRANCH   9  10
ATOM     10  C   UNL     1      27.083   6.022  14.672  1.00  0.00    -0.000 C 
BRANCH  10  11
ATOM     11  C   UNL     1      28.157   5.417  15.594  1.00  0.00    -0.003 C 
ATOM     12  C   UNL     1      29.294   6.389  15.906  1.00  0.00     0.004 C 
ENDBRANCH  10  11
ENDBRANCH   9  10
ENDBRANCH   8   9
ENDBRANCH   7   8
ENDBRANCH   6   7
ENDBRANCH   5   6
ENDBRANCH   4   5
ENDBRANCH   3   4
ENDBRANCH   2   3
ENDBRANCH   1   2
BRANCH   1  13
ATOM     13  C   UNL     1      24.268   4.180  12.064  1.00  0.00     0.000 C 
BRANCH  13  14
ATOM     14  C   UNL     1      24.869   5.296  11.191  1.00  0.00     0.000 C 
BRANCH  14  15
ATOM     15  C   UNL     1      24.137   6.638  11.369  1.00  0.00     0.000 C 
BRANCH  15  16
ATOM     16  C   UNL     1      23.344   7.042  10.114  1.00  0.00     0.000 C 
BRANCH  16  17
ATOM     17  C   UNL     1      21.956   7.610  10.452  1.00  0.00     0.000 C 
BRANCH  17  18
ATOM     18  C   UNL     1      20.822   6.600  10.199  1.00  0.00     0.000 C 
BRANCH  18  19
ATOM     19  C   UNL     1      19.509   7.009  10.886  1.00  0.00     0.000 C 
BRANCH  19  20
ATOM     20  C   UNL     1      18.594   7.834   9.964  1.00  0.00     0.006 C 
BRANCH  20  21
ATOM     21  C   UNL     1      17.548   6.963   9.256  1.00  0.00     0.053 C 
BRANCH  21  22
ATOM     22  C   UNL     1      17.854   6.802   7.798  1.00  0.00     0.041 C 
ATOM     23  O   UNL     1      18.529   5.817   7.397  1.00  0.00    -0.550 OA
ATOM     24  O   UNL     1      17.420   7.755   6.885  1.00  0.00    -0.550 OA
ENDBRANCH  21  22
ENDBRANCH  20  21
ENDBRANCH  19  20
ENDBRANCH  18  19
ENDBRANCH  17  18
ENDBRANCH  16  17
ENDBRANCH  15  16
ENDBRANCH  14  15
ENDBRANCH  13  14
ENDBRANCH   1  13
TORSDOF 20
ENDMDL
MODEL 7
REMARK VINA RESULT:    -4.253      2.570      5.503
REMARK INTER + INTRA:         -11.921
REMARK INTER:                  -8.527
REMARK INTRA:                  -3.394
REMARK UNBOUND:                -2.695
REMARK SMILES CCCCCCCCCCCCCCCCCCCCCC(=O)[O-]
REMARK SMILES IDX 12 1 11 2 10 3 9 4 8 5 7 6 6 7 5 8 4 9 3 10 2 11 1 12 13 13
REMARK SMILES IDX 14 14 15 15 16 16 17 17 18 18 19 19 20 20 21 21 22 22 23 23
REMARK SMILES IDX 24 24
REMARK H PARENT
REMARK Flexibility Score: inf
ROOT
ATOM      1  C   UNL     1      27.472   2.467  16.764  1.00  0.00     0.000 C 
ENDROOT
BRANCH   1   2
ATOM      2  C   UNL     1      26.131   2.314  16.024  1.00  0.00     0.000 C 
BRANCH   2   3
ATOM      3  C   UNL     1      25.736   0.843  15.804  1.00  0.00     0.000 C 
BRANCH   3   4
ATOM      4  C   UNL     1      25.448   0.094  17.118  1.00  0.00    -0.000 C 
BRANCH   4   5
ATOM      5  C   UNL     1      24.344   0.709  18.004  1.00  0.00    -0.000 C 
BRANCH   5   6
ATOM      6  C   UNL     1      24.788   1.101  19.424  1.00  0.00    -0.000 C 
BRANCH   6   7
ATOM      7  C   UNL     1      24.636   2.607  19.701  1.00  0.00    -0.000 C 
BRANCH   7   8
ATOM      8  C   UNL     1      23.165   3.050  19.769  1.00  0.00    -0.000 C 
BRANCH   8   9
ATOM      9  C   UNL     1      22.926   4.401  19.071  1.00  0.00    -0.000 C 
BRANCH   9  10
ATOM     10  C   UNL     1      23.941   4.682  17.948  1.00  0.00    -0.000 C 
BRANCH  10  11
ATOM     11  C   UNL     1      23.345   4.711  16.529  1.00  0.00    -0.003 C 
ATOM     12  C   UNL     1      24.025   5.729  15.615  1.00  0.00     0.004 C 
ENDBRANCH  10  11
ENDBRANCH   9  10
ENDBRANCH   8   9
ENDBRANCH   7   8
ENDBRANCH   6   7
ENDBRANCH   5   6
ENDBRANCH   4   5
ENDBRANCH   3   4
ENDBRANCH   2   3
ENDBRANCH   1   2
BRANCH   1  13
ATOM     13  C   UNL     1      27.552   3.666  17.726  1.00  0.00     0.000 C 
BRANCH  13  14
ATOM     14  C   UNL     1      28.413   3.378  18.969  1.00  0.00     0.000 C 
BRANCH  14  15
ATOM     15  C   UNL     1      29.918   3.371  18.651  1.00  0.00     0.000 C 
BRANCH  15  16
ATOM     16  C   UNL     1      30.660   4.549  19.307  1.00  0.00     0.000 C 
BRANCH  16  17
ATOM     17  C   UNL     1      30.406   5.881  18.584  1.00  0.00     0.000 C 
BRANCH  17  18
ATOM     18  C   UNL     1      30.579   5.773  17.058  1.00  0.00     0.000 C 
BRANCH  18  19
ATOM     19  C   UNL     1      29.507   6.562  16.289  1.00  0.00     0.000 C 
BRANCH  19  20
ATOM     20  C   UNL     1      29.120   5.892  14.960  1.00  0.00     0.006 C 
BRANCH  20  21
ATOM     21  C   UNL     1      27.605   5.920  14.716  1.00  0.00     0.053 C 
BRANCH  21  22
ATOM     22  C   UNL     1      27.274   6.364  13.324  1.00  0.00     0.041 C 
ATOM     23  O   UNL     1      27.815   7.395  12.843  1.00  0.00    -0.550 OA
ATOM     24  O   UNL     1      26.346   5.658  12.569  1.00  0.00    -0.550 OA
ENDBRANCH  21  22
ENDBRANCH  20  21
ENDBRANCH  19  20
ENDBRANCH  18  19
ENDBRANCH  17  18
ENDBRANCH  16  17
ENDBRANCH  15  16
ENDBRANCH  14  15
ENDBRANCH  13  14
ENDBRANCH   1  13
TORSDOF 20
ENDMDL
MODEL 8
REMARK VINA RESULT:    -4.224      2.344      4.365
REMARK INTER + INTRA:         -11.858
REMARK INTER:                  -7.918
REMARK INTRA:                  -3.940
REMARK UNBOUND:                -2.695
REMARK SMILES CCCCCCCCCCCCCCCCCCCCCC(=O)[O-]
REMARK SMILES IDX 12 1 11 2 10 3 9 4 8 5 7 6 6 7 5 8 4 9 3 10 2 11 1 12 13 13
REMARK SMILES IDX 14 14 15 15 16 16 17 17 18 18 19 19 20 20 21 21 22 22 23 23
REMARK SMILES IDX 24 24
REMARK H PARENT
REMARK Flexibility Score: inf
ROOT
ATOM      1  C   UNL     1      25.868   1.226  18.672  1.00  0.00     0.000 C 
ENDROOT
BRANCH   1   2
ATOM      2  C   UNL     1      27.320   1.736  18.629  1.00  0.00     0.000 C 
BRANCH   2   3
ATOM      3  C   UNL     1      27.415   3.272  18.659  1.00  0.00     0.000 C 
BRANCH   3   4
ATOM      4  C   UNL     1      28.865   3.787  18.613  1.00  0.00    -0.000 C 
BRANCH   4   5
ATOM      5  C   UNL     1      29.237   4.609  17.360  1.00  0.00    -0.000 C 
BRANCH   5   6
ATOM      6  C   UNL     1      28.062   4.940  16.424  1.00  0.00    -0.000 C 
BRANCH   6   7
ATOM      7  C   UNL     1      28.191   4.265  15.046  1.00  0.00    -0.000 C 
BRANCH   7   8
ATOM      8  C   UNL     1      27.058   3.265  14.770  1.00  0.00    -0.000 C 
BRANCH   8   9
ATOM      9  C   UNL     1      27.530   1.802  14.862  1.00  0.00    -0.000 C 
BRANCH   9  10
ATOM     10  C   UNL     1      29.031   1.677  15.178  1.00  0.00    -0.000 C 
BRANCH  10  11
ATOM     11  C   UNL     1      29.403   0.502  16.100  1.00  0.00    -0.003 C 
ATOM     12  C   UNL     1      30.616   0.794  16.983  1.00  0.00     0.004 C 
ENDBRANCH  10  11
ENDBRANCH   9  10
ENDBRANCH   8   9
ENDBRANCH   7   8
ENDBRANCH   6   7
ENDBRANCH   5   6
ENDBRANCH   4   5
ENDBRANCH   3   4
ENDBRANCH   2   3
ENDBRANCH   1   2
BRANCH   1  13
ATOM     13  C   UNL     1      25.242   1.162  20.076  1.00  0.00     0.000 C 
BRANCH  13  14
ATOM     14  C   UNL     1      24.107   2.183  20.271  1.00  0.00     0.000 C 
BRANCH  14  15
ATOM     15  C   UNL     1      23.099   2.169  19.110  1.00  0.00     0.000 C 
BRANCH  15  16
ATOM     16  C   UNL     1      22.624   3.582  18.729  1.00  0.00     0.000 C 
BRANCH  16  17
ATOM     17  C   UNL     1      23.789   4.572  18.569  1.00  0.00     0.000 C 
BRANCH  17  18
ATOM     18  C   UNL     1      24.538   4.397  17.236  1.00  0.00     0.000 C 
BRANCH  18  19
ATOM     19  C   UNL     1      23.595   4.440  16.023  1.00  0.00     0.000 C 
BRANCH  19  20
ATOM     20  C   UNL     1      23.464   5.853  15.426  1.00  0.00     0.006 C 
BRANCH  20  21
ATOM     21  C   UNL     1      24.305   6.025  14.155  1.00  0.00     0.053 C 
BRANCH  21  22
ATOM     22  C   UNL     1      25.492   6.909  14.390  1.00  0.00     0.041 C 
ATOM     23  O   UNL     1      25.634   7.499  15.493  1.00  0.00    -0.550 OA
ATOM     24  O   UNL     1      26.425   7.106  13.379  1.00  0.00    -0.550 OA
ENDBRANCH  21  22
ENDBRANCH  20  21
ENDBRANCH  19  20
ENDBRANCH  18  19
ENDBRANCH  17  18
ENDBRANCH  16  17
ENDBRANCH  15  16
ENDBRANCH  14  15
ENDBRANCH  13  14
ENDBRANCH   1  13
TORSDOF 20
ENDMDL
MODEL 9
REMARK VINA RESULT:    -4.199      1.844      3.893
REMARK INTER + INTRA:         -11.803
REMARK INTER:                  -8.115
REMARK INTRA:                  -3.688
REMARK UNBOUND:                -2.695
REMARK SMILES CCCCCCCCCCCCCCCCCCCCCC(=O)[O-]
REMARK SMILES IDX 12 1 11 2 10 3 9 4 8 5 7 6 6 7 5 8 4 9 3 10 2 11 1 12 13 13
REMARK SMILES IDX 14 14 15 15 16 16 17 17 18 18 19 19 20 20 21 21 22 22 23 23
REMARK SMILES IDX 24 24
REMARK H PARENT
REMARK Flexibility Score: inf
ROOT
ATOM      1  C   UNL     1      24.297   3.291  16.089  1.00  0.00     0.000 C 
ENDROOT
BRANCH   1   2
ATOM      2  C   UNL     1      25.665   3.996  16.113  1.00  0.00     0.000 C 
BRANCH   2   3
ATOM      3  C   UNL     1      26.597   3.529  14.981  1.00  0.00     0.000 C 
BRANCH   3   4
ATOM      4  C   UNL     1      27.286   4.695  14.249  1.00  0.00    -0.000 C 
BRANCH   4   5
ATOM      5  C   UNL     1      27.082   6.089  14.883  1.00  0.00    -0.000 C 
BRANCH   5   6
ATOM      6  C   UNL     1      28.312   6.664  15.606  1.00  0.00    -0.000 C 
BRANCH   6   7
ATOM      7  C   UNL     1      29.545   5.749  15.502  1.00  0.00    -0.000 C 
BRANCH   7   8
ATOM      8  C   UNL     1      30.123   5.378  16.877  1.00  0.00    -0.000 C 
BRANCH   8   9
ATOM      9  C   UNL     1      29.641   4.000  17.365  1.00  0.00    -0.000 C 
BRANCH   9  10
ATOM     10  C   UNL     1      28.520   4.097  18.415  1.00  0.00    -0.000 C 
BRANCH  10  11
ATOM     11  C   UNL     1      27.890   2.750  18.816  1.00  0.00    -0.003 C 
ATOM     12  C   UNL     1      28.140   1.644  17.791  1.00  0.00     0.004 C 
ENDBRANCH  10  11
ENDBRANCH   9  10
ENDBRANCH   8   9
ENDBRANCH   7   8
ENDBRANCH   6   7
ENDBRANCH   5   6
ENDBRANCH   4   5
ENDBRANCH   3   4
ENDBRANCH   2   3
ENDBRANCH   1   2
BRANCH   1  13
ATOM     13  C   UNL     1      23.326   3.716  17.205  1.00  0.00     0.000 C 
BRANCH  13  14
ATOM     14  C   UNL     1      23.791   4.978  17.953  1.00  0.00     0.000 C 
BRANCH  14  15
ATOM     15  C   UNL     1      22.954   6.217  17.591  1.00  0.00     0.000 C 
BRANCH  15  16
ATOM     16  C   UNL     1      23.537   6.988  16.394  1.00  0.00     0.000 C 
BRANCH  16  17
ATOM     17  C   UNL     1      22.812   6.668  15.077  1.00  0.00     0.000 C 
BRANCH  17  18
ATOM     18  C   UNL     1      23.778   6.518  13.888  1.00  0.00     0.000 C 
BRANCH  18  19
ATOM     19  C   UNL     1      23.443   5.300  13.011  1.00  0.00     0.000 C 
BRANCH  19  20
ATOM     20  C   UNL     1      24.243   5.281  11.697  1.00  0.00     0.006 C 
BRANCH  20  21
ATOM     21  C   UNL     1      24.131   6.607  10.931  1.00  0.00     0.053 C 
BRANCH  21  22
ATOM     22  C   UNL     1      22.747   6.827  10.401  1.00  0.00     0.041 C 
ATOM     23  O   UNL     1      22.190   7.949  10.532  1.00  0.00    -0.550 OA
ATOM     24  O   UNL     1      22.061   5.785   9.791  1.00  0.00    -0.550 OA
ENDBRANCH  21  22
ENDBRANCH  20  21
ENDBRANCH  19  20
ENDBRANCH  18  19
ENDBRANCH  17  18
ENDBRANCH  16  17
ENDBRANCH  15  16
ENDBRANCH  14  15
ENDBRANCH  13  14
ENDBRANCH   1  13
TORSDOF 20
ENDMDL
