MODEL 1
REMARK VINA RESULT:    -4.124      0.000      0.000
REMARK INTER + INTRA:          -4.865
REMARK INTER:                  -4.847
REMARK INTRA:                  -0.018
REMARK UNBOUND:                -0.018
REMARK SMILES CCCCC(=O)[O-]
REMARK SMILES IDX 4 1 5 2 6 3 7 4 3 5 2 6 1 7
REMARK H PARENT
REMARK Flexibility Score: inf
ROOT
ATOM      1  C   UNL     1      -5.209   1.601  -1.534  1.00  0.00     0.053 C 
ENDROOT
BRANCH   1   2
ATOM      2  C   UNL     1      -5.363   1.464  -3.017  1.00  0.00     0.041 C 
ATOM      3  O   UNL     1      -4.351   1.291  -3.747  1.00  0.00    -0.550 OA
ATOM      4  O   UNL     1      -6.627   1.494  -3.591  1.00  0.00    -0.550 OA
ENDBRANCH   1   2
BRANCH   1   5
ATOM      5  C   UNL     1      -5.931   2.847  -0.995  1.00  0.00     0.006 C 
BRANCH   5   6
ATOM      6  C   UNL     1      -5.351   3.390   0.323  1.00  0.00    -0.003 C 
ATOM      7  C   UNL     1      -5.220   2.316   1.403  1.00  0.00     0.004 C 
ENDBRANCH   5   6
ENDBRANCH   1   5
TORSDOF 3
ENDMDL
MODEL 2
REMARK VINA RESULT:    -3.260      1.355      1.655
REMARK INTER + INTRA:          -3.850
REMARK INTER:                  -3.826
REMARK INTRA:                  -0.024
REMARK UNBOUND:                -0.018
REMARK SMILES CCCCC(=O)[O-]
REMARK SMILES IDX 4 1 5 2 6 3 7 4 3 5 2 6 1 7
REMARK H PARENT
REMARK Flexibility Score: inf
ROOT
ATOM      1  C   UNL     1      -5.696   1.950  -2.400  1.00  0.00     0.053 C 
ENDROOT
BRANCH   1   2
ATOM      2  C   UNL     1      -7.003   1.967  -3.131  1.00  0.00     0.041 C 
ATOM      3  O   UNL     1      -7.197   1.190  -4.103  1.00  0.00    -0.550 OA
ATOM      4  O   UNL     1      -8.020   2.819  -2.719  1.00  0.00    -0.550 OA
ENDBRANCH   1   2
BRANCH   1   5
ATOM      5  C   UNL     1      -5.786   2.675  -1.047  1.00  0.00     0.006 C 
BRANCH   5   6
ATOM      6  C   UNL     1      -5.120   1.919   0.117  1.00  0.00    -0.003 C 
ATOM      7  C   UNL     1      -5.341   2.596   1.469  1.00  0.00     0.004 C 
ENDBRANCH   5   6
ENDBRANCH   1   5
TORSDOF 3
ENDMDL
MODEL 3
REMARK VINA RESULT:    -3.201      2.879      3.991
REMARK INTER + INTRA:          -3.781
REMARK INTER:                  -3.752
REMARK INTRA:                  -0.029
REMARK UNBOUND:                -0.018
REMARK SMILES CCCCC(=O)[O-]
REMARK SMILES IDX 4 1 5 2 6 3 7 4 3 5 2 6 1 7
REMARK H PARENT
REMARK Flexibility Score: inf
ROOT
ATOM      1  C   UNL     1      -5.325   1.779  -0.645  1.00  0.00     0.053 C 
ENDROOT
BRANCH   1   2
ATOM      2  C   UNL     1      -5.270   2.804   0.444  1.00  0.00     0.041 C 
ATOM      3  O   UNL     1      -5.127   4.023   0.161  1.00  0.00    -0.550 OA
ATOM      4  O   UNL     1      -5.409   2.418   1.771  1.00  0.00    -0.550 OA
ENDBRANCH   1   2
BRANCH   1   5
ATOM      5  C   UNL     1      -5.809   2.379  -1.975  1.00  0.00     0.006 C 
BRANCH   5   6
ATOM      6  C   UNL     1      -5.613   1.456  -3.191  1.00  0.00    -0.003 C 
ATOM      7  C   UNL     1      -4.196   0.891  -3.288  1.00  0.00     0.004 C 
ENDBRANCH   5   6
ENDBRANCH   1   5
TORSDOF 3
ENDMDL
MODEL 4
REMARK VINA RESULT:    -3.037     12.354     12.983
REMARK INTER + INTRA:          -3.588
REMARK INTER:                  -3.528
REMARK INTRA:                  -0.060
REMARK UNBOUND:                -0.018
REMARK SMILES CCCCC(=O)[O-]
REMARK SMILES IDX 4 1 5 2 6 3 7 4 3 5 2 6 1 7
REMARK H PARENT
REMARK Flexibility Score: inf
ROOT
ATOM      1  C   UNL     1       5.590   8.403  -3.561  1.00  0.00     0.053 C 
ENDROOT
BRANCH   1   2
ATOM      2  C   UNL     1       5.724   6.979  -3.117  1.00  0.00     0.041 C 
ATOM      3  O   UNL     1       4.744   6.383  -2.595  1.00  0.00    -0.550 OA
ATOM      4  O   UNL     1       6.919   6.299  -3.309  1.00  0.00    -0.550 OA
ENDBRANCH   1   2
BRANCH   1   5
ATOM      5  C   UNL     1       4.287   8.641  -4.340  1.00  0.00     0.006 C 
BRANCH   5   6
ATOM      6  C   UNL     1       4.497   9.017  -5.818  1.00  0.00    -0.003 C 
ATOM      7  C   UNL     1       5.961   8.939  -6.250  1.00  0.00     0.004 C 
ENDBRANCH   5   6
ENDBRANCH   1   5
TORSDOF 3
ENDMDL
MODEL 5
REMARK VINA RESULT:    -3.019     12.436     13.039
REMARK INTER + INTRA:          -3.567
REMARK INTER:                  -3.493
REMARK INTRA:                  -0.074
REMARK UNBOUND:                -0.018
REMARK SMILES CCCCC(=O)[O-]
REMARK SMILES IDX 4 1 5 2 6 3 7 4 3 5 2 6 1 7
REMARK H PARENT
REMARK Flexibility Score: inf
ROOT
ATOM      1  C   UNL     1       4.882   7.082  -2.952  1.00  0.00     0.053 C 
ENDROOT
BRANCH   1   2
ATOM      2  C   UNL     1       6.359   7.176  -2.729  1.00  0.00     0.041 C 
ATOM      3  O   UNL     1       7.141   6.376  -3.309  1.00  0.00    -0.550 OA
ATOM      4  O   UNL     1       6.878   8.168  -1.906  1.00  0.00    -0.550 OA
ENDBRANCH   1   2
BRANCH   1   5
ATOM      5  C   UNL     1       4.324   8.338  -3.640  1.00  0.00     0.006 C 
BRANCH   5   6
ATOM      6  C   UNL     1       5.108   8.769  -4.894  1.00  0.00    -0.003 C 
ATOM      7  C   UNL     1       4.203   9.055  -6.092  1.00  0.00     0.004 C 
ENDBRANCH   5   6
ENDBRANCH   1   5
TORSDOF 3
ENDMDL
MODEL 6
REMARK VINA RESULT:    -2.967     12.801     13.392
REMARK INTER + INTRA:          -3.506
REMARK INTER:                  -3.409
REMARK INTRA:                  -0.097
REMARK UNBOUND:                -0.018
REMARK SMILES CCCCC(=O)[O-]
REMARK SMILES IDX 4 1 5 2 6 3 7 4 3 5 2 6 1 7
REMARK H PARENT
REMARK Flexibility Score: inf
ROOT
ATOM      1  C   UNL     1       6.380   7.794  -2.478  1.00  0.00     0.053 C 
ENDROOT
BRANCH   1   2
ATOM      2  C   UNL     1       7.562   7.119  -3.103  1.00  0.00     0.041 C 
ATOM      3  O   UNL     1       7.889   7.383  -4.290  1.00  0.00    -0.550 OA
ATOM      4  O   UNL     1       8.322   6.221  -2.364  1.00  0.00    -0.550 OA
ENDBRANCH   1   2
BRANCH   1   5
ATOM      5  C   UNL     1       5.055   7.151  -2.915  1.00  0.00     0.006 C 
BRANCH   5   6
ATOM      6  C   UNL     1       4.083   8.122  -3.610  1.00  0.00    -0.003 C 
ATOM      7  C   UNL     1       4.668   8.746  -4.876  1.00  0.00     0.004 C 
ENDBRANCH   5   6
ENDBRANCH   1   5
TORSDOF 3
ENDMDL
MODEL 7
REMARK VINA RESULT:    -2.821     13.386     14.479
REMARK INTER + INTRA:          -3.334
REMARK INTER:                  -3.210
REMARK INTRA:                  -0.124
REMARK UNBOUND:                -0.018
REMARK SMILES CCCCC(=O)[O-]
REMARK SMILES IDX 4 1 5 2 6 3 7 4 3 5 2 6 1 7
REMARK H PARENT
REMARK Flexibility Score: inf
ROOT
ATOM      1  C   UNL     1      -5.179  -8.565   9.214  1.00  0.00     0.053 C 
ENDROOT
BRANCH   1   2
ATOM      2  C   UNL     1      -4.851  -7.150   9.578  1.00  0.00     0.041 C 
ATOM      3  O   UNL     1      -5.741  -6.261   9.534  1.00  0.00    -0.550 OA
ATOM      4  O   UNL     1      -3.568  -6.819   9.996  1.00  0.00    -0.550 OA
ENDBRANCH   1   2
BRANCH   1   5
ATOM      5  C   UNL     1      -4.470  -9.004   7.922  1.00  0.00     0.006 C 
BRANCH   5   6
ATOM      6  C   UNL     1      -4.783  -8.121   6.701  1.00  0.00    -0.003 C 
ATOM      7  C   UNL     1      -3.529  -7.534   6.054  1.00  0.00     0.004 C 
ENDBRANCH   5   6
ENDBRANCH   1   5
TORSDOF 3
ENDMDL
MODEL 8
REMARK VINA RESULT:    -2.796     13.415     13.914
REMARK INTER + INTRA:          -3.305
REMARK INTER:                  -3.286
REMARK INTRA:                  -0.019
REMARK UNBOUND:                -0.018
REMARK SMILES CCCCC(=O)[O-]
REMARK SMILES IDX 4 1 5 2 6 3 7 4 3 5 2 6 1 7
REMARK H PARENT
REMARK Flexibility Score: inf
ROOT
ATOM      1  C   UNL     1       6.527   8.387  -2.262  1.00  0.00     0.053 C 
ENDROOT
BRANCH   1   2
ATOM      2  C   UNL     1       6.367   7.032  -2.878  1.00  0.00     0.041 C 
ATOM      3  O   UNL     1       7.371   6.416  -3.326  1.00  0.00    -0.550 OA
ATOM      4  O   UNL     1       5.114   6.434  -2.929  1.00  0.00    -0.550 OA
ENDBRANCH   1   2
BRANCH   1   5
ATOM      5  C   UNL     1       7.785   8.473  -1.383  1.00  0.00     0.006 C 
BRANCH   5   6
ATOM      6  C   UNL     1       7.582   9.243  -0.066  1.00  0.00    -0.003 C 
ATOM      7  C   UNL     1       8.897   9.678   0.579  1.00  0.00     0.004 C 
ENDBRANCH   5   6
ENDBRANCH   1   5
TORSDOF 3
ENDMDL
MODEL 9
REMARK VINA RESULT:    -2.660     12.239     12.628
REMARK INTER + INTRA:          -3.144
REMARK INTER:                  -3.082
REMARK INTRA:                  -0.063
REMARK UNBOUND:                -0.018
REMARK SMILES CCCCC(=O)[O-]
REMARK SMILES IDX 4 1 5 2 6 3 7 4 3 5 2 6 1 7
REMARK H PARENT
REMARK Flexibility Score: inf
ROOT
ATOM      1  C   UNL     1       5.038   9.079  -4.438  1.00  0.00     0.053 C 
ENDROOT
BRANCH   1   2
ATOM      2  C   UNL     1       4.730   8.960  -5.898  1.00  0.00     0.041 C 
ATOM      3  O   UNL     1       5.661   8.804  -6.732  1.00  0.00    -0.550 OA
ATOM      4  O   UNL     1       3.412   8.990  -6.337  1.00  0.00    -0.550 OA
ENDBRANCH   1   2
BRANCH   1   5
ATOM      5  C   UNL     1       4.204   8.101  -3.595  1.00  0.00     0.006 C 
BRANCH   5   6
ATOM      6  C   UNL     1       5.036   7.024  -2.874  1.00  0.00    -0.003 C 
ATOM      7  C   UNL     1       6.541   7.275  -2.965  1.00  0.00     0.004 C 
ENDBRANCH   5   6
ENDBRANCH   1   5
TORSDOF 3
ENDMDL
