MODEL 1
REMARK VINA RESULT:    -4.068      0.000      0.000
REMARK INTER + INTRA:          -5.203
REMARK INTER:                  -5.020
REMARK INTRA:                  -0.184
REMARK UNBOUND:                -0.184
REMARK SMILES [NH3+][C@@H](Cc1ccc(O)cc1)C(=O)[O-]
REMARK SMILES IDX 3 1 2 2 1 3 11 7 12 8 13 9 4 10 5 11 10 12 6 13 9 14 7 15
REMARK SMILES IDX 8 16
REMARK H PARENT 1 4 1 5 1 6 8 17
REMARK Flexibility Score: inf
ROOT
ATOM      1  C   UNL     1      27.273  24.732 -19.080  1.00  0.00     0.107 C 
ENDROOT
BRANCH   1   2
ATOM      2  C   UNL     1      27.643  24.774 -17.583  1.00  0.00     0.232 C 
BRANCH   2   3
ATOM      3  N   UNL     1      28.446  23.608 -17.193  1.00  0.00    -0.350 N 
ATOM      4  H   UNL     1      28.220  22.798 -17.814  1.00  0.00     0.345 HD
ATOM      5  H   UNL     1      28.220  23.331 -16.210  1.00  0.00     0.345 HD
ATOM      6  H   UNL     1      29.468  23.820 -17.264  1.00  0.00     0.345 HD
ENDBRANCH   2   3
BRANCH   2   7
ATOM      7  C   UNL     1      26.386  24.838 -16.754  1.00  0.00     0.099 C 
ATOM      8  O   UNL     1      25.377  24.161 -17.082  1.00  0.00    -0.544 OA
ATOM      9  O   UNL     1      26.340  25.628 -15.612  1.00  0.00    -0.544 OA
ENDBRANCH   2   7
ENDBRANCH   1   2
BRANCH   1  10
ATOM     10  C   UNL     1      28.259  25.499 -19.924  1.00  0.00    -0.041 A 
ATOM     11  C   UNL     1      28.742  26.744 -19.489  1.00  0.00     0.008 A 
ATOM     12  C   UNL     1      28.729  24.963 -21.135  1.00  0.00     0.008 A 
ATOM     13  C   UNL     1      29.674  27.447 -20.258  1.00  0.00     0.046 A 
ATOM     14  C   UNL     1      29.661  25.668 -21.903  1.00  0.00     0.046 A 
ATOM     15  C   UNL     1      30.135  26.913 -21.467  1.00  0.00     0.115 A 
BRANCH  15  16
ATOM     16  O   UNL     1      31.064  27.625 -22.223  1.00  0.00    -0.508 OA
ATOM     17  H   UNL     1      30.825  28.508 -22.658  1.00  0.00     0.293 HD
ENDBRANCH  15  16
ENDBRANCH   1  10
TORSDOF 5
ENDMDL
MODEL 2
REMARK VINA RESULT:    -3.847     13.735     14.181
REMARK INTER + INTRA:          -4.931
REMARK INTER:                  -4.704
REMARK INTRA:                  -0.227
REMARK UNBOUND:                -0.184
REMARK SMILES [NH3+][C@@H](Cc1ccc(O)cc1)C(=O)[O-]
REMARK SMILES IDX 3 1 2 2 1 3 11 7 12 8 13 9 4 10 5 11 10 12 6 13 9 14 7 15
REMARK SMILES IDX 8 16
REMARK H PARENT 1 4 1 5 1 6 8 17
REMARK Flexibility Score: inf
ROOT
ATOM      1  C   UNL     1      40.510  17.132 -17.112  1.00  0.00     0.107 C 
ENDROOT
BRANCH   1   2
ATOM      2  C   UNL     1      39.812  17.829 -15.925  1.00  0.00     0.232 C 
BRANCH   2   3
ATOM      3  N   UNL     1      40.514  19.058 -15.534  1.00  0.00    -0.350 N 
ATOM      4  H   UNL     1      40.576  19.707 -16.351  1.00  0.00     0.345 HD
ATOM      5  H   UNL     1      41.489  18.832 -15.230  1.00  0.00     0.345 HD
ATOM      6  H   UNL     1      40.013  19.539 -14.751  1.00  0.00     0.345 HD
ENDBRANCH   2   3
BRANCH   2   7
ATOM      7  C   UNL     1      39.737  16.882 -14.756  1.00  0.00     0.099 C 
ATOM      8  O   UNL     1      39.842  17.318 -13.580  1.00  0.00    -0.544 OA
ATOM      9  O   UNL     1      39.532  15.524 -14.968  1.00  0.00    -0.544 OA
ENDBRANCH   2   7
ENDBRANCH   1   2
BRANCH   1  10
ATOM     10  C   UNL     1      39.661  17.159 -18.357  1.00  0.00    -0.041 A 
ATOM     11  C   UNL     1      38.281  16.905 -18.277  1.00  0.00     0.008 A 
ATOM     12  C   UNL     1      40.232  17.472 -19.602  1.00  0.00     0.008 A 
ATOM     13  C   UNL     1      37.487  16.953 -19.427  1.00  0.00     0.046 A 
ATOM     14  C   UNL     1      39.436  17.518 -20.751  1.00  0.00     0.046 A 
ATOM     15  C   UNL     1      38.061  17.258 -20.666  1.00  0.00     0.115 A 
BRANCH  15  16
ATOM     16  O   UNL     1      37.257  17.302 -21.804  1.00  0.00    -0.508 OA
ATOM     17  H   UNL     1      37.372  16.634 -22.558  1.00  0.00     0.293 HD
ENDBRANCH  15  16
ENDBRANCH   1  10
TORSDOF 5
ENDMDL
MODEL 3
REMARK VINA RESULT:    -3.810      2.384      5.637
REMARK INTER + INTRA:          -4.885
REMARK INTER:                  -4.658
REMARK INTRA:                  -0.227
REMARK UNBOUND:                -0.184
REMARK SMILES [NH3+][C@@H](Cc1ccc(O)cc1)C(=O)[O-]
REMARK SMILES IDX 3 1 2 2 1 3 11 7 12 8 13 9 4 10 5 11 10 12 6 13 9 14 7 15
REMARK SMILES IDX 8 16
REMARK H PARENT 1 4 1 5 1 6 8 17
REMARK Flexibility Score: inf
ROOT
ATOM      1  C   UNL     1      28.415  26.554 -21.107  1.00  0.00     0.107 C 
ENDROOT
BRANCH   1   2
ATOM      2  C   UNL     1      29.738  26.017 -21.693  1.00  0.00     0.232 C 
BRANCH   2   3
ATOM      3  N   UNL     1      30.762  27.067 -21.762  1.00  0.00    -0.350 N 
ATOM      4  H   UNL     1      30.503  27.768 -22.493  1.00  0.00     0.345 HD
ATOM      5  H   UNL     1      31.683  26.651 -22.030  1.00  0.00     0.345 HD
ATOM      6  H   UNL     1      30.859  27.552 -20.840  1.00  0.00     0.345 HD
ENDBRANCH   2   3
BRANCH   2   7
ATOM      7  C   UNL     1      29.488  25.447 -23.064  1.00  0.00     0.099 C 
ATOM      8  O   UNL     1      28.329  25.086 -23.398  1.00  0.00    -0.544 OA
ATOM      9  O   UNL     1      30.530  25.334 -23.976  1.00  0.00    -0.544 OA
ENDBRANCH   2   7
ENDBRANCH   1   2
BRANCH   1  10
ATOM     10  C   UNL     1      28.026  25.831 -19.843  1.00  0.00    -0.041 A 
ATOM     11  C   UNL     1      27.498  24.530 -19.907  1.00  0.00     0.008 A 
ATOM     12  C   UNL     1      28.218  26.434 -18.588  1.00  0.00     0.008 A 
ATOM     13  C   UNL     1      27.159  23.848 -18.735  1.00  0.00     0.046 A 
ATOM     14  C   UNL     1      27.876  25.750 -17.417  1.00  0.00     0.046 A 
ATOM     15  C   UNL     1      27.345  24.455 -17.488  1.00  0.00     0.115 A 
BRANCH  15  16
ATOM     16  O   UNL     1      27.002  23.763 -16.328  1.00  0.00    -0.508 OA
ATOM     17  H   UNL     1      27.180  24.151 -15.409  1.00  0.00     0.293 HD
ENDBRANCH  15  16
ENDBRANCH   1  10
TORSDOF 5
ENDMDL
MODEL 4
REMARK VINA RESULT:    -3.797     14.026     14.694
REMARK INTER + INTRA:          -4.868
REMARK INTER:                  -4.640
REMARK INTRA:                  -0.229
REMARK UNBOUND:                -0.184
REMARK SMILES [NH3+][C@@H](Cc1ccc(O)cc1)C(=O)[O-]
REMARK SMILES IDX 3 1 2 2 1 3 11 7 12 8 13 9 4 10 5 11 10 12 6 13 9 14 7 15
REMARK SMILES IDX 8 16
REMARK H PARENT 1 4 1 5 1 6 8 17
REMARK Flexibility Score: inf
ROOT
ATOM      1  C   UNL     1      35.013  18.751  -9.013  1.00  0.00     0.107 C 
ENDROOT
BRANCH   1   2
ATOM      2  C   UNL     1      35.643  19.430  -7.779  1.00  0.00     0.232 C 
BRANCH   2   3
ATOM      3  N   UNL     1      35.054  18.930  -6.530  1.00  0.00    -0.350 N 
ATOM      4  H   UNL     1      35.024  17.885  -6.545  1.00  0.00     0.345 HD
ATOM      5  H   UNL     1      34.072  19.278  -6.433  1.00  0.00     0.345 HD
ATOM      6  H   UNL     1      35.614  19.245  -5.703  1.00  0.00     0.345 HD
ENDBRANCH   2   3
BRANCH   2   7
ATOM      7  C   UNL     1      35.460  20.922  -7.876  1.00  0.00     0.099 C 
ATOM      8  O   UNL     1      35.104  21.583  -6.866  1.00  0.00    -0.544 OA
ATOM      9  O   UNL     1      35.703  21.581  -9.075  1.00  0.00    -0.544 OA
ENDBRANCH   2   7
ENDBRANCH   1   2
BRANCH   1  10
ATOM     10  C   UNL     1      36.056  18.133  -9.908  1.00  0.00    -0.041 A 
ATOM     11  C   UNL     1      35.669  17.340 -11.001  1.00  0.00     0.008 A 
ATOM     12  C   UNL     1      37.422  18.370  -9.680  1.00  0.00     0.008 A 
ATOM     13  C   UNL     1      36.634  16.785 -11.847  1.00  0.00     0.046 A 
ATOM     14  C   UNL     1      38.385  17.813 -10.527  1.00  0.00     0.046 A 
ATOM     15  C   UNL     1      37.993  17.018 -11.613  1.00  0.00     0.115 A 
BRANCH  15  16
ATOM     16  O   UNL     1      38.944  16.459 -12.464  1.00  0.00    -0.508 OA
ATOM     17  H   UNL     1      39.877  16.846 -12.541  1.00  0.00     0.293 HD
ENDBRANCH  15  16
ENDBRANCH   1  10
TORSDOF 5
ENDMDL
MODEL 5
REMARK VINA RESULT:    -3.793     13.570     15.114
REMARK INTER + INTRA:          -4.863
REMARK INTER:                  -4.690
REMARK INTRA:                  -0.174
REMARK UNBOUND:                -0.184
REMARK SMILES [NH3+][C@@H](Cc1ccc(O)cc1)C(=O)[O-]
REMARK SMILES IDX 3 1 2 2 1 3 11 7 12 8 13 9 4 10 5 11 10 12 6 13 9 14 7 15
REMARK SMILES IDX 8 16
REMARK H PARENT 1 4 1 5 1 6 8 17
REMARK Flexibility Score: inf
ROOT
ATOM      1  C   UNL     1      38.682  23.378  -9.902  1.00  0.00     0.107 C 
ENDROOT
BRANCH   1   2
ATOM      2  C   UNL     1      38.927  22.460 -11.118  1.00  0.00     0.232 C 
BRANCH   2   3
ATOM      3  N   UNL     1      39.548  21.191 -10.718  1.00  0.00    -0.350 N 
ATOM      4  H   UNL     1      38.986  20.389 -11.086  1.00  0.00     0.345 HD
ATOM      5  H   UNL     1      39.569  21.115  -9.675  1.00  0.00     0.345 HD
ATOM      6  H   UNL     1      40.525  21.122 -11.087  1.00  0.00     0.345 HD
ENDBRANCH   2   3
BRANCH   2   7
ATOM      7  C   UNL     1      39.800  23.171 -12.119  1.00  0.00     0.099 C 
ATOM      8  O   UNL     1      40.438  24.202 -11.782  1.00  0.00    -0.544 OA
ATOM      9  O   UNL     1      39.922  22.681 -13.413  1.00  0.00    -0.544 OA
ENDBRANCH   2   7
ENDBRANCH   1   2
BRANCH   1  10
ATOM     10  C   UNL     1      37.689  22.780  -8.938  1.00  0.00    -0.041 A 
ATOM     11  C   UNL     1      36.350  22.599  -9.325  1.00  0.00     0.008 A 
ATOM     12  C   UNL     1      38.097  22.367  -7.658  1.00  0.00     0.008 A 
ATOM     13  C   UNL     1      35.432  22.024  -8.442  1.00  0.00     0.046 A 
ATOM     14  C   UNL     1      37.177  21.793  -6.776  1.00  0.00     0.046 A 
ATOM     15  C   UNL     1      35.841  21.620  -7.166  1.00  0.00     0.115 A 
BRANCH  15  16
ATOM     16  O   UNL     1      34.915  21.048  -6.296  1.00  0.00    -0.508 OA
ATOM     17  H   UNL     1      34.230  20.375  -6.621  1.00  0.00     0.293 HD
ENDBRANCH  15  16
ENDBRANCH   1  10
TORSDOF 5
ENDMDL
MODEL 6
REMARK VINA RESULT:    -3.746     12.846     13.496
REMARK INTER + INTRA:          -4.806
REMARK INTER:                  -4.568
REMARK INTRA:                  -0.238
REMARK UNBOUND:                -0.184
REMARK SMILES [NH3+][C@@H](Cc1ccc(O)cc1)C(=O)[O-]
REMARK SMILES IDX 3 1 2 2 1 3 11 7 12 8 13 9 4 10 5 11 10 12 6 13 9 14 7 15
REMARK SMILES IDX 8 16
REMARK H PARENT 1 4 1 5 1 6 8 17
REMARK Flexibility Score: inf
ROOT
ATOM      1  C   UNL     1      39.008  17.066 -19.301  1.00  0.00     0.107 C 
ENDROOT
BRANCH   1   2
ATOM      2  C   UNL     1      37.541  16.591 -19.242  1.00  0.00     0.232 C 
BRANCH   2   3
ATOM      3  N   UNL     1      36.887  17.015 -17.997  1.00  0.00    -0.350 N 
ATOM      4  H   UNL     1      37.114  16.342 -17.229  1.00  0.00     0.345 HD
ATOM      5  H   UNL     1      35.848  17.019 -18.122  1.00  0.00     0.345 HD
ATOM      6  H   UNL     1      37.203  17.973 -17.718  1.00  0.00     0.345 HD
ENDBRANCH   2   3
BRANCH   2   7
ATOM      7  C   UNL     1      37.491  15.091 -19.368  1.00  0.00     0.099 C 
ATOM      8  O   UNL     1      37.592  14.548 -20.499  1.00  0.00    -0.544 OA
ATOM      9  O   UNL     1      37.353  14.298 -18.236  1.00  0.00    -0.544 OA
ENDBRANCH   2   7
ENDBRANCH   1   2
BRANCH   1  10
ATOM     10  C   UNL     1      39.296  17.845 -20.559  1.00  0.00    -0.041 A 
ATOM     11  C   UNL     1      38.239  18.317 -21.355  1.00  0.00     0.008 A 
ATOM     12  C   UNL     1      40.619  18.135 -20.931  1.00  0.00     0.008 A 
ATOM     13  C   UNL     1      38.502  19.059 -22.510  1.00  0.00     0.046 A 
ATOM     14  C   UNL     1      40.881  18.876 -22.087  1.00  0.00     0.046 A 
ATOM     15  C   UNL     1      39.822  19.340 -22.880  1.00  0.00     0.115 A 
BRANCH  15  16
ATOM     16  O   UNL     1      40.070  20.081 -24.034  1.00  0.00    -0.508 OA
ATOM     17  H   UNL     1      40.284  19.629 -24.916  1.00  0.00     0.293 HD
ENDBRANCH  15  16
ENDBRANCH   1  10
TORSDOF 5
ENDMDL
MODEL 7
REMARK VINA RESULT:    -3.731     13.874     14.558
REMARK INTER + INTRA:          -4.788
REMARK INTER:                  -4.676
REMARK INTRA:                  -0.112
REMARK UNBOUND:                -0.184
REMARK SMILES [NH3+][C@@H](Cc1ccc(O)cc1)C(=O)[O-]
REMARK SMILES IDX 3 1 2 2 1 3 11 7 12 8 13 9 4 10 5 11 10 12 6 13 9 14 7 15
REMARK SMILES IDX 8 16
REMARK H PARENT 1 4 1 5 1 6 8 17
REMARK Flexibility Score: inf
ROOT
ATOM      1  C   UNL     1      36.473  19.503  -8.475  1.00  0.00     0.107 C 
ENDROOT
BRANCH   1   2
ATOM      2  C   UNL     1      36.489  20.979  -8.924  1.00  0.00     0.232 C 
BRANCH   2   3
ATOM      3  N   UNL     1      37.825  21.572  -8.781  1.00  0.00    -0.350 N 
ATOM      4  H   UNL     1      38.191  21.853  -9.720  1.00  0.00     0.345 HD
ATOM      5  H   UNL     1      38.486  20.870  -8.377  1.00  0.00     0.345 HD
ATOM      6  H   UNL     1      37.794  22.413  -8.160  1.00  0.00     0.345 HD
ENDBRANCH   2   3
BRANCH   2   7
ATOM      7  C   UNL     1      35.486  21.763  -8.118  1.00  0.00     0.099 C 
ATOM      8  O   UNL     1      35.041  22.857  -8.553  1.00  0.00    -0.544 OA
ATOM      9  O   UNL     1      35.032  21.273  -6.900  1.00  0.00    -0.544 OA
ENDBRANCH   2   7
ENDBRANCH   1   2
BRANCH   1  10
ATOM     10  C   UNL     1      36.753  18.565  -9.621  1.00  0.00    -0.041 A 
ATOM     11  C   UNL     1      38.075  18.325 -10.032  1.00  0.00     0.008 A 
ATOM     12  C   UNL     1      35.700  17.895 -10.268  1.00  0.00     0.008 A 
ATOM     13  C   UNL     1      38.339  17.437 -11.079  1.00  0.00     0.046 A 
ATOM     14  C   UNL     1      35.967  17.008 -11.315  1.00  0.00     0.046 A 
ATOM     15  C   UNL     1      37.288  16.778 -11.724  1.00  0.00     0.115 A 
BRANCH  15  16
ATOM     16  O   UNL     1      37.566  15.895 -12.766  1.00  0.00    -0.508 OA
ATOM     17  H   UNL     1      37.278  14.924 -12.727  1.00  0.00     0.293 HD
ENDBRANCH  15  16
ENDBRANCH   1  10
TORSDOF 5
ENDMDL
MODEL 8
REMARK VINA RESULT:    -3.698     14.381     15.873
REMARK INTER + INTRA:          -4.746
REMARK INTER:                  -4.564
REMARK INTRA:                  -0.183
REMARK UNBOUND:                -0.184
REMARK SMILES [NH3+][C@@H](Cc1ccc(O)cc1)C(=O)[O-]
REMARK SMILES IDX 3 1 2 2 1 3 11 7 12 8 13 9 4 10 5 11 10 12 6 13 9 14 7 15
REMARK SMILES IDX 8 16
REMARK H PARENT 1 4 1 5 1 6 8 17
REMARK Flexibility Score: inf
ROOT
ATOM      1  C   UNL     1      36.622  16.826 -11.725  1.00  0.00     0.107 C 
ENDROOT
BRANCH   1   2
ATOM      2  C   UNL     1      38.153  16.637 -11.752  1.00  0.00     0.232 C 
BRANCH   2   3
ATOM      3  N   UNL     1      38.856  17.881 -11.411  1.00  0.00    -0.350 N 
ATOM      4  H   UNL     1      39.544  17.701 -10.644  1.00  0.00     0.345 HD
ATOM      5  H   UNL     1      38.172  18.595 -11.067  1.00  0.00     0.345 HD
ATOM      6  H   UNL     1      39.362  18.262 -12.243  1.00  0.00     0.345 HD
ENDBRANCH   2   3
BRANCH   2   7
ATOM      7  C   UNL     1      38.579  16.159 -13.115  1.00  0.00     0.099 C 
ATOM      8  O   UNL     1      38.832  16.990 -14.026  1.00  0.00    -0.544 OA
ATOM      9  O   UNL     1      38.715  14.800 -13.370  1.00  0.00    -0.544 OA
ENDBRANCH   2   7
ENDBRANCH   1   2
BRANCH   1  10
ATOM     10  C   UNL     1      36.114  17.099 -10.333  1.00  0.00    -0.041 A 
ATOM     11  C   UNL     1      36.387  16.196  -9.292  1.00  0.00     0.008 A 
ATOM     12  C   UNL     1      35.392  18.272 -10.054  1.00  0.00     0.008 A 
ATOM     13  C   UNL     1      35.937  16.457  -7.994  1.00  0.00     0.046 A 
ATOM     14  C   UNL     1      34.942  18.531  -8.756  1.00  0.00     0.046 A 
ATOM     15  C   UNL     1      35.213  17.624  -7.722  1.00  0.00     0.115 A 
BRANCH  15  16
ATOM     16  O   UNL     1      34.771  17.872  -6.424  1.00  0.00    -0.508 OA
ATOM     17  H   UNL     1      33.999  17.353  -6.021  1.00  0.00     0.293 HD
ENDBRANCH  15  16
ENDBRANCH   1  10
TORSDOF 5
ENDMDL
MODEL 9
REMARK VINA RESULT:    -3.518     13.524     14.367
REMARK INTER + INTRA:          -4.524
REMARK INTER:                  -4.308
REMARK INTRA:                  -0.216
REMARK UNBOUND:                -0.184
REMARK SMILES [NH3+][C@@H](Cc1ccc(O)cc1)C(=O)[O-]
REMARK SMILES IDX 3 1 2 2 1 3 11 7 12 8 13 9 4 10 5 11 10 12 6 13 9 14 7 15
REMARK SMILES IDX 8 16
REMARK H PARENT 1 4 1 5 1 6 8 17
REMARK Flexibility Score: inf
ROOT
ATOM      1  C   UNL     1      35.815  21.951  -8.860  1.00  0.00     0.107 C 
ENDROOT
BRANCH   1   2
ATOM      2  C   UNL     1      36.048  20.520  -8.330  1.00  0.00     0.232 C 
BRANCH   2   3
ATOM      3  N   UNL     1      35.487  19.511  -9.238  1.00  0.00    -0.350 N 
ATOM      4  H   UNL     1      35.983  19.545 -10.158  1.00  0.00     0.345 HD
ATOM      5  H   UNL     1      34.475  19.711  -9.413  1.00  0.00     0.345 HD
ATOM      6  H   UNL     1      35.583  18.552  -8.832  1.00  0.00     0.345 HD
ENDBRANCH   2   3
BRANCH   2   7
ATOM      7  C   UNL     1      35.435  20.383  -6.961  1.00  0.00     0.099 C 
ATOM      8  O   UNL     1      35.322  19.248  -6.429  1.00  0.00    -0.544 OA
ATOM      9  O   UNL     1      35.009  21.510  -6.269  1.00  0.00    -0.544 OA
ENDBRANCH   2   7
ENDBRANCH   1   2
BRANCH   1  10
ATOM     10  C   UNL     1      37.112  22.661  -9.151  1.00  0.00    -0.041 A 
ATOM     11  C   UNL     1      37.432  23.037 -10.466  1.00  0.00     0.008 A 
ATOM     12  C   UNL     1      37.998  22.983  -8.109  1.00  0.00     0.008 A 
ATOM     13  C   UNL     1      38.624  23.716 -10.736  1.00  0.00     0.046 A 
ATOM     14  C   UNL     1      39.190  23.661  -8.381  1.00  0.00     0.046 A 
ATOM     15  C   UNL     1      39.506  24.029  -9.696  1.00  0.00     0.115 A 
BRANCH  15  16
ATOM     16  O   UNL     1      40.690  24.707  -9.980  1.00  0.00    -0.508 OA
ATOM     17  H   UNL     1      40.685  25.668 -10.302  1.00  0.00     0.293 HD
ENDBRANCH  15  16
ENDBRANCH   1  10
TORSDOF 5
ENDMDL
