MODEL 1
REMARK VINA RESULT:    -3.666      0.000      0.000
REMARK INTER + INTRA:          -3.891
REMARK INTER:                  -4.523
REMARK INTRA:                   0.632
REMARK UNBOUND:                 0.632
REMARK SMILES C=C1[C@H]2CC[C@@H]3[C@H]2C(C)(C)CCC[C@]13C
REMARK SMILES IDX 14 1 6 2 7 3 3 4 2 5 1 6 4 7 5 8 15 9 8 10 9 11 10 12 11 13
REMARK SMILES IDX 13 15 12 16
REMARK H PARENT
REMARK Flexibility Score: 80.00
ROOT
ATOM      1  C   UNL     1     134.795 138.379 134.844  1.00  0.00    -0.008 C 
ATOM      2  C   UNL     1     135.124 138.572 136.377  1.00  0.00     0.003 C 
ATOM      3  C   UNL     1     136.391 139.452 136.397  1.00  0.00     0.006 C 
ATOM      4  C   UNL     1     135.784 140.519 135.483  1.00  0.00     0.019 C 
ATOM      5  C   UNL     1     135.302 139.699 134.319  1.00  0.00    -0.068 C 
ATOM      6  C   UNL     1     135.252 140.121 133.050  1.00  0.00     0.009 C 
ATOM      7  C   UNL     1     134.527 140.916 136.293  1.00  0.00     0.008 C 
ATOM      8  C   UNL     1     134.130 139.594 136.995  1.00  0.00     0.005 C 
ATOM      9  C   UNL     1     133.279 138.218 134.550  1.00  0.00     0.016 C 
ENDROOT
BRANCH   3  10
ATOM     10  C   UNL     1     137.804 138.817 136.039  1.00  0.00    -0.032 C 
ATOM     11  C   UNL     1     138.645 139.766 135.148  1.00  0.00     0.011 C 
ATOM     12  C   UNL     1     138.599 138.650 137.364  1.00  0.00     0.011 C 
BRANCH  10  13
ATOM     13  C   UNL     1     137.743 137.393 135.417  1.00  0.00     0.007 CG0
ATOM     14  G   UNL     1     137.036 137.286 134.068  1.00  0.00     0.000 G0
ENDBRANCH  10  13
ENDBRANCH   3  10
BRANCH   1  15
ATOM     15  C   UNL     1     135.520 137.154 134.223  1.00  0.00     0.011 C 
BRANCH  15  16
ATOM     16  C   UNL     1     137.033 137.280 134.069  1.00  0.00     0.001 CG0
ATOM     17  G   UNL     1     137.748 137.396 135.413  1.00  0.00     0.000 G0
ENDBRANCH  15  16
ENDBRANCH   1  15
TORSDOF 0
ENDMDL
MODEL 2
REMARK VINA RESULT:    -3.627      2.895      4.571
REMARK INTER + INTRA:          -3.843
REMARK INTER:                  -4.480
REMARK INTRA:                   0.638
REMARK UNBOUND:                 0.632
REMARK SMILES C=C1[C@H]2CC[C@@H]3[C@H]2C(C)(C)CCC[C@]13C
REMARK SMILES IDX 14 1 6 2 7 3 3 4 2 5 1 6 4 7 5 8 15 9 8 10 9 11 10 12 11 13
REMARK SMILES IDX 13 15 12 16
REMARK H PARENT
REMARK Flexibility Score: 80.00
ROOT
ATOM      1  C   UNL     1     138.390 137.584 134.687  1.00  0.00    -0.008 C 
ATOM      2  C   UNL     1     138.506 137.310 136.238  1.00  0.00     0.003 C 
ATOM      3  C   UNL     1     139.383 136.045 136.346  1.00  0.00     0.006 C 
ATOM      4  C   UNL     1     140.494 136.621 135.466  1.00  0.00     0.019 C 
ATOM      5  C   UNL     1     139.734 137.061 134.247  1.00  0.00    -0.068 C 
ATOM      6  C   UNL     1     140.218 137.067 132.999  1.00  0.00     0.009 C 
ATOM      7  C   UNL     1     140.851 137.906 136.250  1.00  0.00     0.008 C 
ATOM      8  C   UNL     1     139.496 138.325 136.871  1.00  0.00     0.005 C 
ATOM      9  C   UNL     1     138.245 139.089 134.333  1.00  0.00     0.016 C 
ENDROOT
BRANCH   3  10
ATOM     10  C   UNL     1     138.765 134.620 136.007  1.00  0.00    -0.032 C 
ATOM     11  C   UNL     1     139.757 133.749 135.193  1.00  0.00     0.011 C 
ATOM     12  C   UNL     1     138.533 133.871 137.349  1.00  0.00     0.011 C 
BRANCH  10  13
ATOM     13  C   UNL     1     137.374 134.657 135.313  1.00  0.00     0.007 CG0
ATOM     14  G   UNL     1     137.335 135.313 133.935  1.00  0.00     0.000 G0
ENDBRANCH  10  13
ENDBRANCH   3  10
BRANCH   1  15
ATOM     15  C   UNL     1     137.196 136.837 134.032  1.00  0.00     0.011 C 
BRANCH  15  16
ATOM     16  C   UNL     1     137.329 135.320 133.937  1.00  0.00     0.001 CG0
ATOM     17  G   UNL     1     137.373 134.652 135.309  1.00  0.00     0.000 G0
ENDBRANCH  15  16
ENDBRANCH   1  15
TORSDOF 0
ENDMDL
MODEL 3
REMARK VINA RESULT:    -3.622      3.958      6.292
REMARK INTER + INTRA:          -3.836
REMARK INTER:                  -4.469
REMARK INTRA:                   0.632
REMARK UNBOUND:                 0.632
REMARK SMILES C=C1[C@H]2CC[C@@H]3[C@H]2C(C)(C)CCC[C@]13C
REMARK SMILES IDX 14 1 6 2 7 3 3 4 2 5 1 6 4 7 5 8 15 9 8 10 9 11 10 12 11 13
REMARK SMILES IDX 13 15 12 16
REMARK H PARENT
REMARK Flexibility Score: 80.00
ROOT
ATOM      1  C   UNL     1     137.925 134.343 134.854  1.00  0.00    -0.008 C 
ATOM      2  C   UNL     1     137.485 134.092 136.350  1.00  0.00     0.003 C 
ATOM      3  C   UNL     1     136.253 133.169 136.245  1.00  0.00     0.006 C 
ATOM      4  C   UNL     1     136.969 132.152 135.353  1.00  0.00     0.019 C 
ATOM      5  C   UNL     1     137.509 133.023 134.254  1.00  0.00    -0.068 C 
ATOM      6  C   UNL     1     137.674 132.643 132.982  1.00  0.00     0.009 C 
ATOM      7  C   UNL     1     138.173 131.774 136.248  1.00  0.00     0.008 C 
ATOM      8  C   UNL     1     138.464 133.086 137.016  1.00  0.00     0.005 C 
ATOM      9  C   UNL     1     139.453 134.565 134.686  1.00  0.00     0.016 C 
ENDROOT
BRANCH   3  10
ATOM     10  C   UNL     1     134.851 133.766 135.795  1.00  0.00    -0.032 C 
ATOM     11  C   UNL     1     134.116 132.816 134.815  1.00  0.00     0.011 C 
ATOM     12  C   UNL     1     133.949 133.866 137.058  1.00  0.00     0.011 C 
BRANCH  10  13
ATOM     13  C   UNL     1     134.907 135.209 135.218  1.00  0.00     0.007 CG0
ATOM     14  G   UNL     1     135.720 135.382 133.938  1.00  0.00     0.000 G0
ENDBRANCH  10  13
ENDBRANCH   3  10
BRANCH   1  15
ATOM     15  C   UNL     1     137.207 135.561 134.213  1.00  0.00     0.011 C 
BRANCH  15  16
ATOM     16  C   UNL     1     135.717 135.387 133.934  1.00  0.00     0.001 CG0
ATOM     17  G   UNL     1     134.901 135.212 135.213  1.00  0.00     0.000 G0
ENDBRANCH  15  16
ENDBRANCH   1  15
TORSDOF 0
ENDMDL
MODEL 4
REMARK VINA RESULT:    -3.619      1.389      1.749
REMARK INTER + INTRA:          -3.832
REMARK INTER:                  -4.462
REMARK INTRA:                   0.630
REMARK UNBOUND:                 0.632
REMARK SMILES C=C1[C@H]2CC[C@@H]3[C@H]2C(C)(C)CCC[C@]13C
REMARK SMILES IDX 14 1 6 2 7 3 3 4 2 5 1 6 4 7 5 8 15 9 8 10 9 11 10 12 11 13
REMARK SMILES IDX 13 15 12 16
REMARK H PARENT
REMARK Flexibility Score: 80.00
ROOT
ATOM      1  C   UNL     1     134.859 137.840 135.976  1.00  0.00    -0.008 C 
ATOM      2  C   UNL     1     136.125 138.038 136.899  1.00  0.00     0.003 C 
ATOM      3  C   UNL     1     136.700 139.409 136.486  1.00  0.00     0.006 C 
ATOM      4  C   UNL     1     135.362 140.131 136.656  1.00  0.00     0.019 C 
ATOM      5  C   UNL     1     134.438 139.281 135.830  1.00  0.00    -0.068 C 
ATOM      6  C   UNL     1     133.370 139.732 135.161  1.00  0.00     0.009 C 
ATOM      7  C   UNL     1     135.046 139.814 138.138  1.00  0.00     0.008 C 
ATOM      8  C   UNL     1     135.666 138.410 138.336  1.00  0.00     0.005 C 
ATOM      9  C   UNL     1     133.732 137.003 136.640  1.00  0.00     0.016 C 
ENDROOT
BRANCH   3  10
ATOM     10  C   UNL     1     137.507 139.553 135.124  1.00  0.00    -0.032 C 
ATOM     11  C   UNL     1     137.137 140.860 134.379  1.00  0.00     0.011 C 
ATOM     12  C   UNL     1     139.016 139.669 135.476  1.00  0.00     0.011 C 
BRANCH  10  13
ATOM     13  C   UNL     1     137.403 138.331 134.168  1.00  0.00     0.007 CG0
ATOM     14  G   UNL     1     136.006 138.018 133.638  1.00  0.00     0.000 G0
ENDBRANCH  10  13
ENDBRANCH   3  10
BRANCH   1  15
ATOM     15  C   UNL     1     135.203 137.162 134.622  1.00  0.00     0.011 C 
BRANCH  15  16
ATOM     16  C   UNL     1     136.013 138.004 133.640  1.00  0.00     0.001 CG0
ATOM     17  G   UNL     1     137.404 138.340 134.172  1.00  0.00     0.000 G0
ENDBRANCH  15  16
ENDBRANCH   1  15
TORSDOF 0
ENDMDL
MODEL 5
REMARK VINA RESULT:    -3.584      2.647      4.495
REMARK INTER + INTRA:          -3.790
REMARK INTER:                  -4.428
REMARK INTRA:                   0.638
REMARK UNBOUND:                 0.632
REMARK SMILES C=C1[C@H]2CC[C@@H]3[C@H]2C(C)(C)CCC[C@]13C
REMARK SMILES IDX 14 1 6 2 7 3 3 4 2 5 1 6 4 7 5 8 15 9 8 10 9 11 10 12 11 13
REMARK SMILES IDX 13 15 12 16
REMARK H PARENT
REMARK Flexibility Score: 80.00
ROOT
ATOM      1  C   UNL     1     134.713 135.048 135.831  1.00  0.00    -0.008 C 
ATOM      2  C   UNL     1     133.886 135.834 136.923  1.00  0.00     0.003 C 
ATOM      3  C   UNL     1     132.955 136.761 136.114  1.00  0.00     0.006 C 
ATOM      4  C   UNL     1     132.413 135.623 135.247  1.00  0.00     0.019 C 
ATOM      5  C   UNL     1     133.676 134.987 134.738  1.00  0.00    -0.068 C 
ATOM      6  C   UNL     1     133.810 134.389 133.548  1.00  0.00     0.009 C 
ATOM      7  C   UNL     1     131.846 134.675 136.330  1.00  0.00     0.008 C 
ATOM      8  C   UNL     1     132.803 134.898 137.526  1.00  0.00     0.005 C 
ATOM      9  C   UNL     1     135.125 133.618 136.276  1.00  0.00     0.016 C 
ENDROOT
BRANCH   3  10
ATOM     10  C   UNL     1     133.540 138.070 135.427  1.00  0.00    -0.032 C 
ATOM     11  C   UNL     1     132.963 138.269 134.002  1.00  0.00     0.011 C 
ATOM     12  C   UNL     1     133.070 139.295 136.259  1.00  0.00     0.011 C 
BRANCH  10  13
ATOM     13  C   UNL     1     135.092 138.160 135.406  1.00  0.00     0.007 CG0
ATOM     14  G   UNL     1     135.811 137.077 134.605  1.00  0.00     0.000 G0
ENDBRANCH  10  13
ENDBRANCH   3  10
BRANCH   1  15
ATOM     15  C   UNL     1     136.008 135.792 135.406  1.00  0.00     0.011 C 
BRANCH  15  16
ATOM     16  C   UNL     1     135.808 137.076 134.606  1.00  0.00     0.001 CG0
ATOM     17  G   UNL     1     135.091 138.158 135.409  1.00  0.00     0.000 G0
ENDBRANCH  15  16
ENDBRANCH   1  15
TORSDOF 0
ENDMDL
MODEL 6
REMARK VINA RESULT:    -3.507      1.907      4.463
REMARK INTER + INTRA:          -3.695
REMARK INTER:                  -4.321
REMARK INTRA:                   0.626
REMARK UNBOUND:                 0.632
REMARK SMILES C=C1[C@H]2CC[C@@H]3[C@H]2C(C)(C)CCC[C@]13C
REMARK SMILES IDX 14 1 6 2 7 3 3 4 2 5 1 6 4 7 5 8 15 9 8 10 9 11 10 12 11 13
REMARK SMILES IDX 13 15 12 16
REMARK H PARENT
REMARK Flexibility Score: 80.00
ROOT
ATOM      1  C   UNL     1     139.403 136.412 134.688  1.00  0.00    -0.008 C 
ATOM      2  C   UNL     1     139.924 137.874 134.982  1.00  0.00     0.003 C 
ATOM      3  C   UNL     1     138.728 138.589 135.644  1.00  0.00     0.006 C 
ATOM      4  C   UNL     1     138.529 137.495 136.695  1.00  0.00     0.019 C 
ATOM      5  C   UNL     1     138.452 136.256 135.848  1.00  0.00    -0.068 C 
ATOM      6  C   UNL     1     137.728 135.169 136.140  1.00  0.00     0.009 C 
ATOM      7  C   UNL     1     139.921 137.483 137.370  1.00  0.00     0.008 C 
ATOM      8  C   UNL     1     140.877 137.848 136.208  1.00  0.00     0.005 C 
ATOM      9  C   UNL     1     140.519 135.334 134.744  1.00  0.00     0.016 C 
ENDROOT
BRANCH   3  10
ATOM     10  C   UNL     1     137.498 139.065 134.756  1.00  0.00    -0.032 C 
ATOM     11  C   UNL     1     136.146 138.791 135.463  1.00  0.00     0.011 C 
ATOM     12  C   UNL     1     137.596 140.608 134.595  1.00  0.00     0.011 C 
BRANCH  10  13
ATOM     13  C   UNL     1     137.480 138.503 133.306  1.00  0.00     0.007 CG0
ATOM     14  G   UNL     1     137.350 136.987 133.182  1.00  0.00     0.000 G0
ENDBRANCH  10  13
ENDBRANCH   3  10
BRANCH   1  15
ATOM     15  C   UNL     1     138.708 136.289 133.305  1.00  0.00     0.011 C 
BRANCH  15  16
ATOM     16  C   UNL     1     137.358 136.988 133.171  1.00  0.00     0.001 CG0
ATOM     17  G   UNL     1     137.472 138.504 133.305  1.00  0.00     0.000 G0
ENDBRANCH  15  16
ENDBRANCH   1  15
TORSDOF 0
ENDMDL
MODEL 7
REMARK VINA RESULT:    -3.488      1.857      4.429
REMARK INTER + INTRA:          -3.672
REMARK INTER:                  -4.304
REMARK INTRA:                   0.632
REMARK UNBOUND:                 0.632
REMARK SMILES C=C1[C@H]2CC[C@@H]3[C@H]2C(C)(C)CCC[C@]13C
REMARK SMILES IDX 14 1 6 2 7 3 3 4 2 5 1 6 4 7 5 8 15 9 8 10 9 11 10 12 11 13
REMARK SMILES IDX 13 15 12 16
REMARK H PARENT
REMARK Flexibility Score: 80.00
ROOT
ATOM      1  C   UNL     1     138.243 136.981 137.090  1.00  0.00    -0.008 C 
ATOM      2  C   UNL     1     138.828 136.831 135.631  1.00  0.00     0.003 C 
ATOM      3  C   UNL     1     138.858 138.269 135.072  1.00  0.00     0.006 C 
ATOM      4  C   UNL     1     139.620 138.826 136.276  1.00  0.00     0.019 C 
ATOM      5  C   UNL     1     138.782 138.348 137.428  1.00  0.00    -0.068 C 
ATOM      6  C   UNL     1     138.627 138.998 138.588  1.00  0.00     0.009 C 
ATOM      7  C   UNL     1     140.888 137.938 136.255  1.00  0.00     0.008 C 
ATOM      8  C   UNL     1     140.361 136.589 135.709  1.00  0.00     0.005 C 
ATOM      9  C   UNL     1     138.782 135.918 138.086  1.00  0.00     0.016 C 
ENDROOT
BRANCH   3  10
ATOM     10  C   UNL     1     137.508 138.965 134.602  1.00  0.00    -0.032 C 
ATOM     11  C   UNL     1     137.449 140.449 135.044  1.00  0.00     0.011 C 
ATOM     12  C   UNL     1     137.496 138.976 133.047  1.00  0.00     0.011 C 
BRANCH  10  13
ATOM     13  C   UNL     1     136.208 138.219 135.015  1.00  0.00     0.007 CG0
ATOM     14  G   UNL     1     135.961 138.095 136.517  1.00  0.00     0.000 G0
ENDBRANCH  10  13
ENDBRANCH   3  10
BRANCH   1  15
ATOM     15  C   UNL     1     136.693 136.906 137.127  1.00  0.00     0.011 C 
BRANCH  15  16
ATOM     16  C   UNL     1     135.953 138.093 136.515  1.00  0.00     0.001 CG0
ATOM     17  G   UNL     1     136.206 138.227 135.016  1.00  0.00     0.000 G0
ENDBRANCH  15  16
ENDBRANCH   1  15
TORSDOF 0
ENDMDL
MODEL 8
REMARK VINA RESULT:    -3.470      1.965      3.987
REMARK INTER + INTRA:          -3.649
REMARK INTER:                  -4.287
REMARK INTRA:                   0.637
REMARK UNBOUND:                 0.632
REMARK SMILES C=C1[C@H]2CC[C@@H]3[C@H]2C(C)(C)CCC[C@]13C
REMARK SMILES IDX 14 1 6 2 7 3 3 4 2 5 1 6 4 7 5 8 15 9 8 10 9 11 10 12 11 13
REMARK SMILES IDX 13 15 12 16
REMARK H PARENT
REMARK Flexibility Score: 80.00
ROOT
ATOM      1  C   UNL     1     134.495 139.468 135.788  1.00  0.00    -0.008 C 
ATOM      2  C   UNL     1     133.407 138.746 136.677  1.00  0.00     0.003 C 
ATOM      3  C   UNL     1     133.718 137.242 136.528  1.00  0.00     0.006 C 
ATOM      4  C   UNL     1     135.192 137.410 136.901  1.00  0.00     0.019 C 
ATOM      5  C   UNL     1     135.634 138.494 135.959  1.00  0.00    -0.068 C 
ATOM      6  C   UNL     1     136.863 138.611 135.443  1.00  0.00     0.009 C 
ATOM      7  C   UNL     1     135.069 138.062 138.298  1.00  0.00     0.008 C 
ATOM      8  C   UNL     1     133.776 138.905 138.177  1.00  0.00     0.005 C 
ATOM      9  C   UNL     1     134.893 140.874 136.315  1.00  0.00     0.016 C 
ENDROOT
BRANCH   3  10
ATOM     10  C   UNL     1     133.322 136.478 135.191  1.00  0.00    -0.032 C 
ATOM     11  C   UNL     1     134.440 135.503 134.742  1.00  0.00     0.011 C 
ATOM     12  C   UNL     1     132.078 135.599 135.497  1.00  0.00     0.011 C 
BRANCH  10  13
ATOM     13  C   UNL     1     132.894 137.399 134.013  1.00  0.00     0.007 CG0
ATOM     14  G   UNL     1     133.963 138.358 133.495  1.00  0.00     0.000 G0
ENDBRANCH  10  13
ENDBRANCH   3  10
BRANCH   1  15
ATOM     15  C   UNL     1     134.049 139.636 134.310  1.00  0.00     0.011 C 
BRANCH  15  16
ATOM     16  C   UNL     1     133.967 138.354 133.487  1.00  0.00     0.001 CG0
ATOM     17  G   UNL     1     132.894 137.398 134.003  1.00  0.00     0.000 G0
ENDBRANCH  15  16
ENDBRANCH   1  15
TORSDOF 0
ENDMDL
MODEL 9
REMARK VINA RESULT:    -3.465      1.594      4.184
REMARK INTER + INTRA:          -3.643
REMARK INTER:                  -4.280
REMARK INTRA:                   0.637
REMARK UNBOUND:                 0.632
REMARK SMILES C=C1[C@H]2CC[C@@H]3[C@H]2C(C)(C)CCC[C@]13C
REMARK SMILES IDX 14 1 6 2 7 3 3 4 2 5 1 6 4 7 5 8 15 9 8 10 9 11 10 12 11 13
REMARK SMILES IDX 13 15 12 16
REMARK H PARENT
REMARK Flexibility Score: 80.00
ROOT
ATOM      1  C   UNL     1     139.473 138.213 135.841  1.00  0.00    -0.008 C 
ATOM      2  C   UNL     1     138.754 139.275 136.764  1.00  0.00     0.003 C 
ATOM      3  C   UNL     1     137.257 138.911 136.682  1.00  0.00     0.006 C 
ATOM      4  C   UNL     1     137.493 137.443 137.043  1.00  0.00     0.019 C 
ATOM      5  C   UNL     1     138.549 137.041 136.053  1.00  0.00    -0.068 C 
ATOM      6  C   UNL     1     138.686 135.817 135.529  1.00  0.00     0.009 C 
ATOM      7  C   UNL     1     138.203 137.589 138.410  1.00  0.00     0.008 C 
ATOM      8  C   UNL     1     138.993 138.911 138.255  1.00  0.00     0.005 C 
ATOM      9  C   UNL     1     140.915 137.866 136.303  1.00  0.00     0.016 C 
ENDROOT
BRANCH   3  10
ATOM     10  C   UNL     1     136.420 139.280 135.382  1.00  0.00    -0.032 C 
ATOM     11  C   UNL     1     135.464 138.130 134.976  1.00  0.00     0.011 C 
ATOM     12  C   UNL     1     135.514 140.494 135.729  1.00  0.00     0.011 C 
BRANCH  10  13
ATOM     13  C   UNL     1     137.271 139.740 134.164  1.00  0.00     0.007 CG0
ATOM     14  G   UNL     1     138.239 138.703 133.599  1.00  0.00     0.000 G0
ENDBRANCH  10  13
ENDBRANCH   3  10
BRANCH   1  15
ATOM     15  C   UNL     1     139.559 138.667 134.358  1.00  0.00     0.011 C 
BRANCH  15  16
ATOM     16  C   UNL     1     138.238 138.713 133.597  1.00  0.00     0.001 CG0
ATOM     17  G   UNL     1     137.272 139.747 134.168  1.00  0.00     0.000 G0
ENDBRANCH  15  16
ENDBRANCH   1  15
TORSDOF 0
ENDMDL
