MODEL 1
REMARK VINA RESULT:    -6.634      0.000      0.000
REMARK INTER + INTRA:          -8.990
REMARK INTER:                  -8.379
REMARK INTRA:                  -0.611
REMARK UNBOUND:                -0.611
REMARK SMILES O=C(C=Cc1ccc(O)cc1)c1ccc(O)cc1O
REMARK SMILES IDX 4 1 3 2 5 3 6 4 7 5 8 6 11 7 10 8 9 9 2 11 1 12 12 13 18 14
REMARK SMILES IDX 13 15 17 16 14 17 15 18 19 19 16 21
REMARK H PARENT 9 10 19 20 16 22
REMARK Flexibility Score: inf
ROOT
ATOM      1  C   UNL     1      20.402  -5.391  -7.157  1.00  0.00     0.012 C 
ATOM      2  C   UNL     1      21.593  -5.775  -6.677  1.00  0.00     0.053 C 
ENDROOT
BRANCH   1   3
ATOM      3  C   UNL     1      19.477  -4.486  -6.432  1.00  0.00    -0.025 A 
ATOM      4  C   UNL     1      19.874  -3.222  -5.952  1.00  0.00     0.012 A 
ATOM      5  C   UNL     1      18.961  -2.399  -5.285  1.00  0.00     0.047 A 
ATOM      6  C   UNL     1      17.639  -2.821  -5.096  1.00  0.00     0.115 A 
ATOM      7  C   UNL     1      18.143  -4.892  -6.252  1.00  0.00     0.012 A 
ATOM      8  C   UNL     1      17.233  -4.067  -5.584  1.00  0.00     0.047 A 
BRANCH   6   9
ATOM      9  O   UNL     1      16.722  -2.010  -4.432  1.00  0.00    -0.508 OA
ATOM     10  H   UNL     1      15.728  -2.209  -4.450  1.00  0.00     0.293 HD
ENDBRANCH   6   9
ENDBRANCH   1   3
BRANCH   2  11
ATOM     11  C   UNL     1      22.484  -6.692  -7.422  1.00  0.00     0.189 C 
ATOM     12  O   UNL     1      22.546  -6.624  -8.680  1.00  0.00    -0.289 OA
BRANCH  11  13
ATOM     13  C   UNL     1      23.273  -7.731  -6.719  1.00  0.00     0.064 A 
ATOM     14  C   UNL     1      23.272  -9.080  -7.140  1.00  0.00     0.130 A 
ATOM     15  C   UNL     1      24.021  -7.370  -5.585  1.00  0.00     0.020 A 
ATOM     16  C   UNL     1      24.046 -10.026  -6.451  1.00  0.00     0.093 A 
ATOM     17  C   UNL     1      24.784  -8.321  -4.903  1.00  0.00     0.047 A 
ATOM     18  C   UNL     1      24.801  -9.651  -5.337  1.00  0.00     0.119 A 
BRANCH  14  19
ATOM     19  O   UNL     1      22.488  -9.487  -8.219  1.00  0.00    -0.507 OA
ATOM     20  H   UNL     1      21.821  -8.863  -8.657  1.00  0.00     0.293 HD
ENDBRANCH  14  19
BRANCH  18  21
ATOM     21  O   UNL     1      25.560 -10.607  -4.667  1.00  0.00    -0.508 OA
ATOM     22  H   UNL     1      25.178 -11.516  -4.431  1.00  0.00     0.293 HD
ENDBRANCH  18  21
ENDBRANCH  11  13
ENDBRANCH   2  11
TORSDOF 6
ENDMDL
MODEL 2
REMARK VINA RESULT:    -6.600      1.111      1.676
REMARK INTER + INTRA:          -8.947
REMARK INTER:                  -8.531
REMARK INTRA:                  -0.416
REMARK UNBOUND:                -0.611
REMARK SMILES O=C(C=Cc1ccc(O)cc1)c1ccc(O)cc1O
REMARK SMILES IDX 4 1 3 2 5 3 6 4 7 5 8 6 11 7 10 8 9 9 2 11 1 12 12 13 18 14
REMARK SMILES IDX 13 15 17 16 14 17 15 18 19 19 16 21
REMARK H PARENT 9 10 19 20 16 22
REMARK Flexibility Score: inf
ROOT
ATOM      1  C   UNL     1      20.785  -5.748  -7.077  1.00  0.00     0.012 C 
ATOM      2  C   UNL     1      21.992  -6.103  -6.615  1.00  0.00     0.053 C 
ENDROOT
BRANCH   1   3
ATOM      3  C   UNL     1      19.885  -4.798  -6.378  1.00  0.00    -0.025 A 
ATOM      4  C   UNL     1      20.367  -3.688  -5.655  1.00  0.00     0.012 A 
ATOM      5  C   UNL     1      19.477  -2.814  -5.024  1.00  0.00     0.047 A 
ATOM      6  C   UNL     1      18.095  -3.028  -5.112  1.00  0.00     0.115 A 
ATOM      7  C   UNL     1      18.496  -4.993  -6.474  1.00  0.00     0.012 A 
ATOM      8  C   UNL     1      17.609  -4.117  -5.840  1.00  0.00     0.047 A 
BRANCH   6   9
ATOM      9  O   UNL     1      17.201  -2.164  -4.486  1.00  0.00    -0.508 OA
ATOM     10  H   UNL     1      17.499  -1.534  -3.750  1.00  0.00     0.293 HD
ENDBRANCH   6   9
ENDBRANCH   1   3
BRANCH   2  11
ATOM     11  C   UNL     1      22.857  -7.066  -7.332  1.00  0.00     0.189 C 
ATOM     12  O   UNL     1      23.150  -6.868  -8.543  1.00  0.00    -0.289 OA
BRANCH  11  13
ATOM     13  C   UNL     1      23.349  -8.294  -6.665  1.00  0.00     0.064 A 
ATOM     14  C   UNL     1      24.375  -8.256  -5.693  1.00  0.00     0.130 A 
ATOM     15  C   UNL     1      22.800  -9.537  -7.029  1.00  0.00     0.020 A 
ATOM     16  C   UNL     1      24.799  -9.443  -5.079  1.00  0.00     0.093 A 
ATOM     17  C   UNL     1      23.234 -10.713  -6.415  1.00  0.00     0.047 A 
ATOM     18  C   UNL     1      24.232 -10.669  -5.435  1.00  0.00     0.119 A 
BRANCH  14  19
ATOM     19  O   UNL     1      24.989  -7.049  -5.357  1.00  0.00    -0.507 OA
ATOM     20  H   UNL     1      24.688  -6.503  -4.559  1.00  0.00     0.293 HD
ENDBRANCH  14  19
BRANCH  18  21
ATOM     21  O   UNL     1      24.670 -11.836  -4.814  1.00  0.00    -0.508 OA
ATOM     22  H   UNL     1      25.045 -11.826  -3.872  1.00  0.00     0.293 HD
ENDBRANCH  18  21
ENDBRANCH  11  13
ENDBRANCH   2  11
TORSDOF 6
ENDMDL
MODEL 3
REMARK VINA RESULT:    -6.336      1.748      7.770
REMARK INTER + INTRA:          -8.613
REMARK INTER:                  -8.032
REMARK INTRA:                  -0.581
REMARK UNBOUND:                -0.611
REMARK SMILES O=C(C=Cc1ccc(O)cc1)c1ccc(O)cc1O
REMARK SMILES IDX 4 1 3 2 5 3 6 4 7 5 8 6 11 7 10 8 9 9 2 11 1 12 12 13 18 14
REMARK SMILES IDX 13 15 17 16 14 17 15 18 19 19 16 21
REMARK H PARENT 9 10 19 20 16 22
REMARK Flexibility Score: inf
ROOT
ATOM      1  C   UNL     1      22.507  -5.580  -6.225  1.00  0.00     0.012 C 
ATOM      2  C   UNL     1      22.109  -4.888  -5.149  1.00  0.00     0.053 C 
ENDROOT
BRANCH   1   3
ATOM      3  C   UNL     1      23.191  -6.895  -6.151  1.00  0.00    -0.025 A 
ATOM      4  C   UNL     1      24.143  -7.198  -5.157  1.00  0.00     0.012 A 
ATOM      5  C   UNL     1      24.752  -8.457  -5.122  1.00  0.00     0.047 A 
ATOM      6  C   UNL     1      24.413  -9.432  -6.069  1.00  0.00     0.115 A 
ATOM      7  C   UNL     1      22.847  -7.886  -7.086  1.00  0.00     0.012 A 
ATOM      8  C   UNL     1      23.458  -9.143  -7.048  1.00  0.00     0.047 A 
BRANCH   6   9
ATOM      9  O   UNL     1      25.015 -10.687  -6.044  1.00  0.00    -0.508 OA
ATOM     10  H   UNL     1      25.963 -10.814  -5.709  1.00  0.00     0.293 HD
ENDBRANCH   6   9
ENDBRANCH   1   3
BRANCH   2  11
ATOM     11  C   UNL     1      21.443  -3.572  -5.261  1.00  0.00     0.189 C 
ATOM     12  O   UNL     1      22.136  -2.518  -5.295  1.00  0.00    -0.289 OA
BRANCH  11  13
ATOM     13  C   UNL     1      19.966  -3.461  -5.283  1.00  0.00     0.064 A 
ATOM     14  C   UNL     1      19.290  -2.380  -4.673  1.00  0.00     0.130 A 
ATOM     15  C   UNL     1      19.213  -4.474  -5.903  1.00  0.00     0.020 A 
ATOM     16  C   UNL     1      17.890  -2.310  -4.731  1.00  0.00     0.093 A 
ATOM     17  C   UNL     1      17.820  -4.398  -5.951  1.00  0.00     0.047 A 
ATOM     18  C   UNL     1      17.155  -3.314  -5.368  1.00  0.00     0.119 A 
BRANCH  14  19
ATOM     19  O   UNL     1      20.000  -1.393  -3.990  1.00  0.00    -0.507 OA
ATOM     20  H   UNL     1      21.012  -1.366  -3.996  1.00  0.00     0.293 HD
ENDBRANCH  14  19
BRANCH  18  21
ATOM     21  O   UNL     1      15.765  -3.226  -5.412  1.00  0.00    -0.508 OA
ATOM     22  H   UNL     1      15.294  -2.604  -6.059  1.00  0.00     0.293 HD
ENDBRANCH  18  21
ENDBRANCH  11  13
ENDBRANCH   2  11
TORSDOF 6
ENDMDL
MODEL 4
REMARK VINA RESULT:    -6.309      1.413      7.681
REMARK INTER + INTRA:          -8.579
REMARK INTER:                  -8.148
REMARK INTRA:                  -0.431
REMARK UNBOUND:                -0.611
REMARK SMILES O=C(C=Cc1ccc(O)cc1)c1ccc(O)cc1O
REMARK SMILES IDX 4 1 3 2 5 3 6 4 7 5 8 6 11 7 10 8 9 9 2 11 1 12 12 13 18 14
REMARK SMILES IDX 13 15 17 16 14 17 15 18 19 19 16 21
REMARK H PARENT 9 10 19 20 16 22
REMARK Flexibility Score: inf
ROOT
ATOM      1  C   UNL     1      22.114  -6.601  -7.156  1.00  0.00     0.012 C 
ATOM      2  C   UNL     1      21.194  -5.854  -6.532  1.00  0.00     0.053 C 
ENDROOT
BRANCH   1   3
ATOM      3  C   UNL     1      23.122  -7.427  -6.447  1.00  0.00    -0.025 A 
ATOM      4  C   UNL     1      23.947  -6.907  -5.429  1.00  0.00     0.012 A 
ATOM      5  C   UNL     1      24.874  -7.730  -4.781  1.00  0.00     0.047 A 
ATOM      6  C   UNL     1      24.985  -9.082  -5.131  1.00  0.00     0.115 A 
ATOM      7  C   UNL     1      23.230  -8.788  -6.778  1.00  0.00     0.012 A 
ATOM      8  C   UNL     1      24.159  -9.608  -6.129  1.00  0.00     0.047 A 
BRANCH   6   9
ATOM      9  O   UNL     1      25.906  -9.908  -4.493  1.00  0.00    -0.508 OA
ATOM     10  H   UNL     1      26.788 -10.154  -4.929  1.00  0.00     0.293 HD
ENDBRANCH   6   9
ENDBRANCH   1   3
BRANCH   2  11
ATOM     11  C   UNL     1      20.214  -5.030  -7.273  1.00  0.00     0.189 C 
ATOM     12  O   UNL     1      20.278  -4.955  -8.531  1.00  0.00    -0.289 OA
BRANCH  11  13
ATOM     13  C   UNL     1      19.181  -4.243  -6.559  1.00  0.00     0.064 A 
ATOM     14  C   UNL     1      19.418  -2.917  -6.129  1.00  0.00     0.130 A 
ATOM     15  C   UNL     1      17.940  -4.841  -6.275  1.00  0.00     0.020 A 
ATOM     16  C   UNL     1      18.405  -2.206  -5.469  1.00  0.00     0.093 A 
ATOM     17  C   UNL     1      16.941  -4.126  -5.612  1.00  0.00     0.047 A 
ATOM     18  C   UNL     1      17.169  -2.805  -5.210  1.00  0.00     0.119 A 
BRANCH  14  19
ATOM     19  O   UNL     1      20.660  -2.316  -6.333  1.00  0.00    -0.507 OA
ATOM     20  H   UNL     1      21.509  -2.701  -5.936  1.00  0.00     0.293 HD
ENDBRANCH  14  19
BRANCH  18  21
ATOM     21  O   UNL     1      16.179  -2.081  -4.551  1.00  0.00    -0.508 OA
ATOM     22  H   UNL     1      16.390  -1.220  -4.059  1.00  0.00     0.293 HD
ENDBRANCH  18  21
ENDBRANCH  11  13
ENDBRANCH   2  11
TORSDOF 6
ENDMDL
MODEL 5
REMARK VINA RESULT:    -5.954      1.527      7.616
REMARK INTER + INTRA:          -8.132
REMARK INTER:                  -7.543
REMARK INTRA:                  -0.589
REMARK UNBOUND:                -0.611
REMARK SMILES O=C(C=Cc1ccc(O)cc1)c1ccc(O)cc1O
REMARK SMILES IDX 4 1 3 2 5 3 6 4 7 5 8 6 11 7 10 8 9 9 2 11 1 12 12 13 18 14
REMARK SMILES IDX 13 15 17 16 14 17 15 18 19 19 16 21
REMARK H PARENT 9 10 19 20 16 22
REMARK Flexibility Score: inf
ROOT
ATOM      1  C   UNL     1      22.880  -8.292  -7.173  1.00  0.00     0.012 C 
ATOM      2  C   UNL     1      22.531  -7.113  -6.640  1.00  0.00     0.053 C 
ENDROOT
BRANCH   1   3
ATOM      3  C   UNL     1      23.666  -9.322  -6.449  1.00  0.00    -0.025 A 
ATOM      4  C   UNL     1      23.705 -10.671  -6.856  1.00  0.00     0.012 A 
ATOM      5  C   UNL     1      24.470 -11.602  -6.147  1.00  0.00     0.047 A 
ATOM      6  C   UNL     1      25.214 -11.201  -5.030  1.00  0.00     0.115 A 
ATOM      7  C   UNL     1      24.428  -8.927  -5.336  1.00  0.00     0.012 A 
ATOM      8  C   UNL     1      25.192  -9.862  -4.629  1.00  0.00     0.047 A 
BRANCH   6   9
ATOM      9  O   UNL     1      25.977 -12.120  -4.316  1.00  0.00    -0.508 OA
ATOM     10  H   UNL     1      25.686 -12.458  -3.406  1.00  0.00     0.293 HD
ENDBRANCH   6   9
ENDBRANCH   1   3
BRANCH   2  11
ATOM     11  C   UNL     1      21.760  -6.104  -7.399  1.00  0.00     0.189 C 
ATOM     12  O   UNL     1      21.750  -6.139  -8.660  1.00  0.00    -0.289 OA
BRANCH  11  13
ATOM     13  C   UNL     1      21.035  -5.015  -6.704  1.00  0.00     0.064 A 
ATOM     14  C   UNL     1      19.876  -4.422  -7.253  1.00  0.00     0.130 A 
ATOM     15  C   UNL     1      21.530  -4.538  -5.477  1.00  0.00     0.020 A 
ATOM     16  C   UNL     1      19.214  -3.403  -6.551  1.00  0.00     0.093 A 
ATOM     17  C   UNL     1      20.867  -3.519  -4.790  1.00  0.00     0.047 A 
ATOM     18  C   UNL     1      19.706  -2.951  -5.323  1.00  0.00     0.119 A 
BRANCH  14  19
ATOM     19  O   UNL     1      19.395  -4.823  -8.499  1.00  0.00    -0.507 OA
ATOM     20  H   UNL     1      19.771  -5.632  -8.978  1.00  0.00     0.293 HD
ENDBRANCH  14  19
BRANCH  18  21
ATOM     21  O   UNL     1      19.034  -1.936  -4.645  1.00  0.00    -0.508 OA
ATOM     22  H   UNL     1      18.954  -1.003  -5.033  1.00  0.00     0.293 HD
ENDBRANCH  18  21
ENDBRANCH  11  13
ENDBRANCH   2  11
TORSDOF 6
ENDMDL
MODEL 6
REMARK VINA RESULT:    -5.540      1.776      2.799
REMARK INTER + INTRA:          -7.608
REMARK INTER:                  -7.058
REMARK INTRA:                  -0.551
REMARK UNBOUND:                -0.611
REMARK SMILES O=C(C=Cc1ccc(O)cc1)c1ccc(O)cc1O
REMARK SMILES IDX 4 1 3 2 5 3 6 4 7 5 8 6 11 7 10 8 9 9 2 11 1 12 12 13 18 14
REMARK SMILES IDX 13 15 17 16 14 17 15 18 19 19 16 21
REMARK H PARENT 9 10 19 20 16 22
REMARK Flexibility Score: inf
ROOT
ATOM      1  C   UNL     1      22.193  -5.012  -5.010  1.00  0.00     0.012 C 
ATOM      2  C   UNL     1      22.622  -5.953  -5.862  1.00  0.00     0.053 C 
ENDROOT
BRANCH   1   3
ATOM      3  C   UNL     1      21.110  -4.048  -5.324  1.00  0.00    -0.025 A 
ATOM      4  C   UNL     1      20.093  -4.330  -6.259  1.00  0.00     0.012 A 
ATOM      5  C   UNL     1      19.086  -3.393  -6.513  1.00  0.00     0.047 A 
ATOM      6  C   UNL     1      19.074  -2.168  -5.832  1.00  0.00     0.115 A 
ATOM      7  C   UNL     1      21.078  -2.823  -4.636  1.00  0.00     0.012 A 
ATOM      8  C   UNL     1      20.070  -1.889  -4.893  1.00  0.00     0.047 A 
BRANCH   6   9
ATOM      9  O   UNL     1      18.077  -1.228  -6.079  1.00  0.00    -0.508 OA
ATOM     10  H   UNL     1      18.180  -0.260  -5.797  1.00  0.00     0.293 HD
ENDBRANCH   6   9
ENDBRANCH   1   3
BRANCH   2  11
ATOM     11  C   UNL     1      23.716  -6.887  -5.519  1.00  0.00     0.189 C 
ATOM     12  O   UNL     1      24.598  -6.543  -4.686  1.00  0.00    -0.289 OA
BRANCH  11  13
ATOM     13  C   UNL     1      23.825  -8.211  -6.177  1.00  0.00     0.064 A 
ATOM     14  C   UNL     1      24.479  -9.300  -5.557  1.00  0.00     0.130 A 
ATOM     15  C   UNL     1      23.288  -8.381  -7.465  1.00  0.00     0.020 A 
ATOM     16  C   UNL     1      24.545 -10.538  -6.211  1.00  0.00     0.093 A 
ATOM     17  C   UNL     1      23.364  -9.617  -8.110  1.00  0.00     0.047 A 
ATOM     18  C   UNL     1      23.990 -10.700  -7.484  1.00  0.00     0.119 A 
BRANCH  14  19
ATOM     19  O   UNL     1      25.082  -9.148  -4.308  1.00  0.00    -0.507 OA
ATOM     20  H   UNL     1      25.476  -9.936  -3.808  1.00  0.00     0.293 HD
ENDBRANCH  14  19
BRANCH  18  21
ATOM     21  O   UNL     1      24.070 -11.938  -8.117  1.00  0.00    -0.508 OA
ATOM     22  H   UNL     1      23.947 -12.030  -9.119  1.00  0.00     0.293 HD
ENDBRANCH  18  21
ENDBRANCH  11  13
ENDBRANCH   2  11
TORSDOF 6
ENDMDL
MODEL 7
REMARK VINA RESULT:    -4.560      1.343      1.906
REMARK INTER + INTRA:          -6.371
REMARK INTER:                  -6.041
REMARK INTRA:                  -0.329
REMARK UNBOUND:                -0.611
REMARK SMILES O=C(C=Cc1ccc(O)cc1)c1ccc(O)cc1O
REMARK SMILES IDX 4 1 3 2 5 3 6 4 7 5 8 6 11 7 10 8 9 9 2 11 1 12 12 13 18 14
REMARK SMILES IDX 13 15 17 16 14 17 15 18 19 19 16 21
REMARK H PARENT 9 10 19 20 16 22
REMARK Flexibility Score: inf
ROOT
ATOM      1  C   UNL     1      20.970  -4.161  -5.615  1.00  0.00     0.012 C 
ATOM      2  C   UNL     1      21.300  -5.409  -5.975  1.00  0.00     0.053 C 
ENDROOT
BRANCH   1   3
ATOM      3  C   UNL     1      19.572  -3.703  -5.422  1.00  0.00    -0.025 A 
ATOM      4  C   UNL     1      19.255  -2.399  -4.991  1.00  0.00     0.012 A 
ATOM      5  C   UNL     1      17.921  -2.010  -4.835  1.00  0.00     0.047 A 
ATOM      6  C   UNL     1      16.886  -2.911  -5.115  1.00  0.00     0.115 A 
ATOM      7  C   UNL     1      18.525  -4.593  -5.716  1.00  0.00     0.012 A 
ATOM      8  C   UNL     1      17.192  -4.201  -5.558  1.00  0.00     0.047 A 
BRANCH   6   9
ATOM      9  O   UNL     1      15.554  -2.535  -4.961  1.00  0.00    -0.508 OA
ATOM     10  H   UNL     1      14.875  -3.152  -4.530  1.00  0.00     0.293 HD
ENDBRANCH   6   9
ENDBRANCH   1   3
BRANCH   2  11
ATOM     11  C   UNL     1      22.705  -5.826  -6.174  1.00  0.00     0.189 C 
ATOM     12  O   UNL     1      23.641  -5.008  -5.956  1.00  0.00    -0.289 OA
BRANCH  11  13
ATOM     13  C   UNL     1      23.037  -7.180  -6.677  1.00  0.00     0.064 A 
ATOM     14  C   UNL     1      22.735  -7.579  -7.998  1.00  0.00     0.130 A 
ATOM     15  C   UNL     1      23.645  -8.103  -5.806  1.00  0.00     0.020 A 
ATOM     16  C   UNL     1      23.082  -8.867  -8.434  1.00  0.00     0.093 A 
ATOM     17  C   UNL     1      23.980  -9.384  -6.249  1.00  0.00     0.047 A 
ATOM     18  C   UNL     1      23.702  -9.768  -7.565  1.00  0.00     0.119 A 
BRANCH  14  19
ATOM     19  O   UNL     1      22.073  -6.713  -8.868  1.00  0.00    -0.507 OA
ATOM     20  H   UNL     1      22.384  -6.575  -9.821  1.00  0.00     0.293 HD
ENDBRANCH  14  19
BRANCH  18  21
ATOM     21  O   UNL     1      24.035 -11.043  -8.019  1.00  0.00    -0.508 OA
ATOM     22  H   UNL     1      25.001 -11.330  -8.129  1.00  0.00     0.293 HD
ENDBRANCH  18  21
ENDBRANCH  11  13
ENDBRANCH   2  11
TORSDOF 6
ENDMDL
MODEL 8
REMARK VINA RESULT:    -4.480      2.231      7.571
REMARK INTER + INTRA:          -6.270
REMARK INTER:                  -6.356
REMARK INTRA:                   0.086
REMARK UNBOUND:                -0.611
REMARK SMILES O=C(C=Cc1ccc(O)cc1)c1ccc(O)cc1O
REMARK SMILES IDX 4 1 3 2 5 3 6 4 7 5 8 6 11 7 10 8 9 9 2 11 1 12 12 13 18 14
REMARK SMILES IDX 13 15 17 16 14 17 15 18 19 19 16 21
REMARK H PARENT 9 10 19 20 16 22
REMARK Flexibility Score: inf
ROOT
ATOM      1  C   UNL     1      23.677  -6.811  -4.541  1.00  0.00     0.012 C 
ATOM      2  C   UNL     1      23.610  -6.668  -5.872  1.00  0.00     0.053 C 
ENDROOT
BRANCH   1   3
ATOM      3  C   UNL     1      24.868  -7.333  -3.828  1.00  0.00    -0.025 A 
ATOM      4  C   UNL     1      24.777  -8.017  -2.599  1.00  0.00     0.012 A 
ATOM      5  C   UNL     1      25.928  -8.501  -1.971  1.00  0.00     0.047 A 
ATOM      6  C   UNL     1      27.185  -8.320  -2.564  1.00  0.00     0.115 A 
ATOM      7  C   UNL     1      26.132  -7.172  -4.422  1.00  0.00     0.012 A 
ATOM      8  C   UNL     1      27.282  -7.657  -3.791  1.00  0.00     0.047 A 
BRANCH   6   9
ATOM      9  O   UNL     1      28.338  -8.797  -1.946  1.00  0.00    -0.508 OA
ATOM     10  H   UNL     1      28.324  -9.145  -0.994  1.00  0.00     0.293 HD
ENDBRANCH   6   9
ENDBRANCH   1   3
BRANCH   2  11
ATOM     11  C   UNL     1      22.398  -6.158  -6.550  1.00  0.00     0.189 C 
ATOM     12  O   UNL     1      22.031  -6.665  -7.646  1.00  0.00    -0.289 OA
BRANCH  11  13
ATOM     13  C   UNL     1      21.630  -5.022  -5.989  1.00  0.00     0.064 A 
ATOM     14  C   UNL     1      20.448  -4.547  -6.602  1.00  0.00     0.130 A 
ATOM     15  C   UNL     1      22.103  -4.381  -4.831  1.00  0.00     0.020 A 
ATOM     16  C   UNL     1      19.746  -3.478  -6.028  1.00  0.00     0.093 A 
ATOM     17  C   UNL     1      21.399  -3.314  -4.270  1.00  0.00     0.047 A 
ATOM     18  C   UNL     1      20.217  -2.861  -4.865  1.00  0.00     0.119 A 
BRANCH  14  19
ATOM     19  O   UNL     1      19.986  -5.115  -7.790  1.00  0.00    -0.507 OA
ATOM     20  H   UNL     1      19.470  -5.986  -7.797  1.00  0.00     0.293 HD
ENDBRANCH  14  19
BRANCH  18  21
ATOM     21  O   UNL     1      19.504  -1.799  -4.313  1.00  0.00    -0.508 OA
ATOM     22  H   UNL     1      18.999  -1.897  -3.439  1.00  0.00     0.293 HD
ENDBRANCH  18  21
ENDBRANCH  11  13
ENDBRANCH   2  11
TORSDOF 6
ENDMDL
MODEL 9
REMARK VINA RESULT:    -4.241      3.920      9.040
REMARK INTER + INTRA:          -5.968
REMARK INTER:                  -6.228
REMARK INTRA:                   0.260
REMARK UNBOUND:                -0.611
REMARK SMILES O=C(C=Cc1ccc(O)cc1)c1ccc(O)cc1O
REMARK SMILES IDX 4 1 3 2 5 3 6 4 7 5 8 6 11 7 10 8 9 9 2 11 1 12 12 13 18 14
REMARK SMILES IDX 13 15 17 16 14 17 15 18 19 19 16 21
REMARK H PARENT 9 10 19 20 16 22
REMARK Flexibility Score: inf
ROOT
ATOM      1  C   UNL     1      26.415 -10.612  -5.408  1.00  0.00     0.012 C 
ATOM      2  C   UNL     1      25.578 -11.472  -6.004  1.00  0.00     0.053 C 
ENDROOT
BRANCH   1   3
ATOM      3  C   UNL     1      27.527 -11.028  -4.519  1.00  0.00    -0.025 A 
ATOM      4  C   UNL     1      28.681 -11.680  -5.001  1.00  0.00     0.012 A 
ATOM      5  C   UNL     1      29.708 -12.042  -4.124  1.00  0.00     0.047 A 
ATOM      6  C   UNL     1      29.604 -11.752  -2.757  1.00  0.00     0.115 A 
ATOM      7  C   UNL     1      27.441 -10.728  -3.148  1.00  0.00     0.012 A 
ATOM      8  C   UNL     1      28.470 -11.092  -2.274  1.00  0.00     0.047 A 
BRANCH   6   9
ATOM      9  O   UNL     1      30.620 -12.110  -1.875  1.00  0.00    -0.508 OA
ATOM     10  H   UNL     1      31.324 -11.443  -1.578  1.00  0.00     0.293 HD
ENDBRANCH   6   9
ENDBRANCH   1   3
BRANCH   2  11
ATOM     11  C   UNL     1      24.470 -11.019  -6.873  1.00  0.00     0.189 C 
ATOM     12  O   UNL     1      23.973 -11.810  -7.721  1.00  0.00    -0.289 OA
BRANCH  11  13
ATOM     13  C   UNL     1      23.962  -9.629  -6.802  1.00  0.00     0.064 A 
ATOM     14  C   UNL     1      23.121  -9.091  -7.802  1.00  0.00     0.130 A 
ATOM     15  C   UNL     1      24.348  -8.814  -5.723  1.00  0.00     0.020 A 
ATOM     16  C   UNL     1      22.653  -7.774  -7.685  1.00  0.00     0.093 A 
ATOM     17  C   UNL     1      23.881  -7.502  -5.620  1.00  0.00     0.047 A 
ATOM     18  C   UNL     1      23.029  -6.980  -6.599  1.00  0.00     0.119 A 
BRANCH  14  19
ATOM     19  O   UNL     1      22.772  -9.848  -8.920  1.00  0.00    -0.507 OA
ATOM     20  H   UNL     1      21.817  -9.897  -9.254  1.00  0.00     0.293 HD
ENDBRANCH  14  19
BRANCH  18  21
ATOM     21  O   UNL     1      22.554  -5.674  -6.504  1.00  0.00    -0.508 OA
ATOM     22  H   UNL     1      22.698  -5.117  -5.669  1.00  0.00     0.293 HD
ENDBRANCH  18  21
ENDBRANCH  11  13
ENDBRANCH   2  11
TORSDOF 6
ENDMDL
