MODEL 1
REMARK VINA RESULT:    -3.815      0.000      0.000
REMARK INTER + INTRA:          -5.198
REMARK INTER:                  -4.930
REMARK INTRA:                  -0.268
REMARK UNBOUND:                -0.268
REMARK SMILES CCO[C@@H]1O[C@H](CO)[C@@H](O)[C@@H](O)[C@@H]1O
REMARK SMILES IDX 4 1 13 2 11 3 9 4 6 5 5 6 3 7 2 8 1 9 14 10 12 12 7 14 8 15
REMARK SMILES IDX 10 17
REMARK H PARENT 14 11 12 13 8 16 10 18
REMARK Flexibility Score: inf
ROOT
ATOM      1  C   UNL     1     -18.067  -7.269  18.342  1.00  0.00     0.281 C 
ATOM      2  C   UNL     1     -16.542  -7.434  18.229  1.00  0.00     0.202 C 
ATOM      3  C   UNL     1     -15.973  -6.481  17.174  1.00  0.00     0.179 C 
ATOM      4  C   UNL     1     -16.441  -5.037  17.445  1.00  0.00     0.177 C 
ATOM      5  C   UNL     1     -17.968  -4.955  17.721  1.00  0.00     0.178 C 
ATOM      6  O   UNL     1     -18.446  -5.930  18.643  1.00  0.00    -0.341 OA
ENDROOT
BRANCH   1   7
ATOM      7  O   UNL     1     -18.707  -7.739  17.169  1.00  0.00    -0.350 OA
BRANCH   7   8
ATOM      8  C   UNL     1     -19.817  -8.544  17.504  1.00  0.00     0.160 C 
ATOM      9  C   UNL     1     -21.098  -7.791  17.176  1.00  0.00     0.035 C 
ENDBRANCH   7   8
ENDBRANCH   1   7
BRANCH   2  10
ATOM     10  O   UNL     1     -16.248  -8.766  17.886  1.00  0.00    -0.385 OA
ATOM     11  H   UNL     1     -15.944  -8.759  16.941  1.00  0.00     0.211 HD
ENDBRANCH   2  10
BRANCH   3  12
ATOM     12  O   UNL     1     -14.568  -6.546  17.192  1.00  0.00    -0.387 OA
ATOM     13  H   UNL     1     -14.267  -6.473  16.249  1.00  0.00     0.211 HD
ENDBRANCH   3  12
BRANCH   5  14
ATOM     14  C   UNL     1     -18.856  -4.831  16.458  1.00  0.00     0.191 C 
BRANCH  14  15
ATOM     15  O   UNL     1     -18.662  -3.618  15.779  1.00  0.00    -0.394 OA
ATOM     16  H   UNL     1     -18.480  -3.842  14.829  1.00  0.00     0.210 HD
ENDBRANCH  14  15
ENDBRANCH   5  14
BRANCH   4  17
ATOM     17  O   UNL     1     -15.709  -4.467  18.505  1.00  0.00    -0.387 OA
ATOM     18  H   UNL     1     -16.326  -3.898  19.035  1.00  0.00     0.211 HD
ENDBRANCH   4  17
TORSDOF 7
ENDMDL
MODEL 2
REMARK VINA RESULT:    -3.655      1.427      3.988
REMARK INTER + INTRA:          -4.991
REMARK INTER:                  -4.517
REMARK INTRA:                  -0.475
REMARK UNBOUND:                -0.268
REMARK SMILES CCO[C@@H]1O[C@H](CO)[C@@H](O)[C@@H](O)[C@@H]1O
REMARK SMILES IDX 4 1 13 2 11 3 9 4 6 5 5 6 3 7 2 8 1 9 14 10 12 12 7 14 8 15
REMARK SMILES IDX 10 17
REMARK H PARENT 14 11 12 13 8 16 10 18
REMARK Flexibility Score: inf
ROOT
ATOM      1  C   UNL     1     -17.544  -6.211  18.759  1.00  0.00     0.281 C 
ATOM      2  C   UNL     1     -17.581  -4.885  17.981  1.00  0.00     0.202 C 
ATOM      3  C   UNL     1     -18.459  -5.018  16.732  1.00  0.00     0.179 C 
ATOM      4  C   UNL     1     -19.845  -5.579  17.105  1.00  0.00     0.177 C 
ATOM      5  C   UNL     1     -19.748  -6.821  18.035  1.00  0.00     0.178 C 
ATOM      6  O   UNL     1     -18.844  -6.661  19.125  1.00  0.00    -0.341 OA
ENDROOT
BRANCH   1   7
ATOM      7  O   UNL     1     -16.839  -7.198  18.027  1.00  0.00    -0.350 OA
BRANCH   7   8
ATOM      8  C   UNL     1     -15.914  -7.862  18.863  1.00  0.00     0.160 C 
ATOM      9  C   UNL     1     -14.508  -7.389  18.527  1.00  0.00     0.035 C 
ENDBRANCH   7   8
ENDBRANCH   1   7
BRANCH   2  10
ATOM     10  O   UNL     1     -16.271  -4.530  17.614  1.00  0.00    -0.385 OA
ATOM     11  H   UNL     1     -16.267  -4.423  16.628  1.00  0.00     0.211 HD
ENDBRANCH   2  10
BRANCH   3  12
ATOM     12  O   UNL     1     -18.594  -3.759  16.119  1.00  0.00    -0.387 OA
ATOM     13  H   UNL     1     -19.450  -3.778  15.615  1.00  0.00     0.211 HD
ENDBRANCH   3  12
BRANCH   5  14
ATOM     14  C   UNL     1     -19.579  -8.175  17.302  1.00  0.00     0.191 C 
BRANCH  14  15
ATOM     15  O   UNL     1     -19.169  -9.205  18.161  1.00  0.00    -0.394 OA
ATOM     16  H   UNL     1     -19.440  -8.945  19.080  1.00  0.00     0.210 HD
ENDBRANCH  14  15
ENDBRANCH   5  14
BRANCH   4  17
ATOM     17  O   UNL     1     -20.647  -4.578  17.690  1.00  0.00    -0.387 OA
ATOM     18  H   UNL     1     -20.967  -3.978  16.967  1.00  0.00     0.211 HD
ENDBRANCH   4  17
TORSDOF 7
ENDMDL
MODEL 3
REMARK VINA RESULT:    -3.512      1.335      3.317
REMARK INTER + INTRA:          -4.806
REMARK INTER:                  -4.329
REMARK INTRA:                  -0.477
REMARK UNBOUND:                -0.268
REMARK SMILES CCO[C@@H]1O[C@H](CO)[C@@H](O)[C@@H](O)[C@@H]1O
REMARK SMILES IDX 4 1 13 2 11 3 9 4 6 5 5 6 3 7 2 8 1 9 14 10 12 12 7 14 8 15
REMARK SMILES IDX 10 17
REMARK H PARENT 14 11 12 13 8 16 10 18
REMARK Flexibility Score: inf
ROOT
ATOM      1  C   UNL     1     -18.832  -6.585  17.147  1.00  0.00     0.281 C 
ATOM      2  C   UNL     1     -17.894  -5.372  17.031  1.00  0.00     0.202 C 
ATOM      3  C   UNL     1     -16.641  -5.576  17.889  1.00  0.00     0.179 C 
ATOM      4  C   UNL     1     -15.979  -6.929  17.562  1.00  0.00     0.177 C 
ATOM      5  C   UNL     1     -17.008  -8.094  17.526  1.00  0.00     0.178 C 
ATOM      6  O   UNL     1     -18.190  -7.803  16.786  1.00  0.00    -0.341 OA
ENDROOT
BRANCH   1   7
ATOM      7  O   UNL     1     -19.393  -6.658  18.445  1.00  0.00    -0.350 OA
BRANCH   7   8
ATOM      8  C   UNL     1     -20.712  -7.160  18.383  1.00  0.00     0.160 C 
ATOM      9  C   UNL     1     -21.439  -6.512  17.214  1.00  0.00     0.035 C 
ENDBRANCH   7   8
ENDBRANCH   1   7
BRANCH   2  10
ATOM     10  O   UNL     1     -18.581  -4.217  17.446  1.00  0.00    -0.385 OA
ATOM     11  H   UNL     1     -19.285  -4.041  16.769  1.00  0.00     0.211 HD
ENDBRANCH   2  10
BRANCH   3  12
ATOM     12  O   UNL     1     -15.737  -4.525  17.654  1.00  0.00    -0.387 OA
ATOM     13  H   UNL     1     -14.957  -4.680  18.250  1.00  0.00     0.211 HD
ENDBRANCH   3  12
BRANCH   5  14
ATOM     14  C   UNL     1     -17.299  -8.753  18.897  1.00  0.00     0.191 C 
BRANCH  14  15
ATOM     15  O   UNL     1     -18.378  -9.647  18.847  1.00  0.00    -0.394 OA
ATOM     16  H   UNL     1     -18.009 -10.539  18.616  1.00  0.00     0.210 HD
ENDBRANCH  14  15
ENDBRANCH   5  14
BRANCH   4  17
ATOM     17  O   UNL     1     -15.265  -6.855  16.351  1.00  0.00    -0.387 OA
ATOM     18  H   UNL     1     -15.028  -5.905  16.190  1.00  0.00     0.211 HD
ENDBRANCH   4  17
TORSDOF 7
ENDMDL
MODEL 4
REMARK VINA RESULT:    -3.467      1.544      2.193
REMARK INTER + INTRA:          -4.748
REMARK INTER:                  -4.470
REMARK INTRA:                  -0.278
REMARK UNBOUND:                -0.268
REMARK SMILES CCO[C@@H]1O[C@H](CO)[C@@H](O)[C@@H](O)[C@@H]1O
REMARK SMILES IDX 4 1 13 2 11 3 9 4 6 5 5 6 3 7 2 8 1 9 14 10 12 12 7 14 8 15
REMARK SMILES IDX 10 17
REMARK H PARENT 14 11 12 13 8 16 10 18
REMARK Flexibility Score: inf
ROOT
ATOM      1  C   UNL     1     -19.766  -6.382  18.398  1.00  0.00     0.281 C 
ATOM      2  C   UNL     1     -18.879  -7.638  18.402  1.00  0.00     0.202 C 
ATOM      3  C   UNL     1     -17.870  -7.589  17.250  1.00  0.00     0.179 C 
ATOM      4  C   UNL     1     -17.093  -6.258  17.272  1.00  0.00     0.177 C 
ATOM      5  C   UNL     1     -18.032  -5.030  17.442  1.00  0.00     0.178 C 
ATOM      6  O   UNL     1     -19.005  -5.181  18.471  1.00  0.00    -0.341 OA
ENDROOT
BRANCH   1   7
ATOM      7  O   UNL     1     -20.628  -6.384  17.273  1.00  0.00    -0.350 OA
BRANCH   7   8
ATOM      8  C   UNL     1     -21.934  -6.004  17.654  1.00  0.00     0.160 C 
ATOM      9  C   UNL     1     -22.917  -7.075  17.208  1.00  0.00     0.035 C 
ENDBRANCH   7   8
ENDBRANCH   1   7
BRANCH   2  10
ATOM     10  O   UNL     1     -19.694  -8.778  18.280  1.00  0.00    -0.385 OA
ATOM     11  H   UNL     1     -19.110  -9.567  18.423  1.00  0.00     0.211 HD
ENDBRANCH   2  10
BRANCH   3  12
ATOM     12  O   UNL     1     -16.980  -8.672  17.360  1.00  0.00    -0.387 OA
ATOM     13  H   UNL     1     -17.508  -9.443  17.695  1.00  0.00     0.211 HD
ENDBRANCH   3  12
BRANCH   5  14
ATOM     14  C   UNL     1     -18.625  -4.473  16.125  1.00  0.00     0.191 C 
BRANCH  14  15
ATOM     15  O   UNL     1     -19.000  -5.486  15.231  1.00  0.00    -0.394 OA
ATOM     16  H   UNL     1     -18.443  -6.281  15.440  1.00  0.00     0.210 HD
ENDBRANCH  14  15
ENDBRANCH   5  14
BRANCH   4  17
ATOM     17  O   UNL     1     -16.105  -6.274  18.275  1.00  0.00    -0.387 OA
ATOM     18  H   UNL     1     -16.371  -5.631  18.982  1.00  0.00     0.211 HD
ENDBRANCH   4  17
TORSDOF 7
ENDMDL
MODEL 5
REMARK VINA RESULT:    -3.453      1.682      3.567
REMARK INTER + INTRA:          -4.730
REMARK INTER:                  -4.240
REMARK INTRA:                  -0.491
REMARK UNBOUND:                -0.268
REMARK SMILES CCO[C@@H]1O[C@H](CO)[C@@H](O)[C@@H](O)[C@@H]1O
REMARK SMILES IDX 4 1 13 2 11 3 9 4 6 5 5 6 3 7 2 8 1 9 14 10 12 12 7 14 8 15
REMARK SMILES IDX 10 17
REMARK H PARENT 14 11 12 13 8 16 10 18
REMARK Flexibility Score: inf
ROOT
ATOM      1  C   UNL     1     -17.699  -7.442  17.210  1.00  0.00     0.281 C 
ATOM      2  C   UNL     1     -19.111  -6.857  17.037  1.00  0.00     0.202 C 
ATOM      3  C   UNL     1     -19.270  -5.579  17.867  1.00  0.00     0.179 C 
ATOM      4  C   UNL     1     -18.127  -4.592  17.559  1.00  0.00     0.177 C 
ATOM      5  C   UNL     1     -16.733  -5.279  17.581  1.00  0.00     0.178 C 
ATOM      6  O   UNL     1     -16.681  -6.510  16.865  1.00  0.00    -0.341 OA
ENDROOT
BRANCH   1   7
ATOM      7  O   UNL     1     -17.524  -7.940  18.524  1.00  0.00    -0.350 OA
BRANCH   7   8
ATOM      8  C   UNL     1     -16.747  -9.120  18.503  1.00  0.00     0.160 C 
ATOM      9  C   UNL     1     -17.188  -9.987  17.333  1.00  0.00     0.035 C 
ENDBRANCH   7   8
ENDBRANCH   1   7
BRANCH   2  10
ATOM     10  O   UNL     1     -20.058  -7.815  17.440  1.00  0.00    -0.385 OA
ATOM     11  H   UNL     1     -19.601  -8.423  18.078  1.00  0.00     0.211 HD
ENDBRANCH   2  10
BRANCH   3  12
ATOM     12  O   UNL     1     -20.513  -4.987  17.581  1.00  0.00    -0.387 OA
ATOM     13  H   UNL     1     -21.025  -4.973  18.432  1.00  0.00     0.211 HD
ENDBRANCH   3  12
BRANCH   5  14
ATOM     14  C   UNL     1     -16.065  -5.361  18.975  1.00  0.00     0.191 C 
BRANCH  14  15
ATOM     15  O   UNL     1     -14.939  -6.197  18.985  1.00  0.00    -0.394 OA
ATOM     16  H   UNL     1     -14.297  -5.815  19.639  1.00  0.00     0.210 HD
ENDBRANCH  14  15
ENDBRANCH   5  14
BRANCH   4  17
ATOM     17  O   UNL     1     -18.347  -3.944  16.328  1.00  0.00    -0.387 OA
ATOM     18  H   UNL     1     -18.727  -3.047  16.514  1.00  0.00     0.211 HD
ENDBRANCH   4  17
TORSDOF 7
ENDMDL
MODEL 6
REMARK VINA RESULT:    -3.445      2.867      4.954
REMARK INTER + INTRA:          -4.721
REMARK INTER:                  -4.273
REMARK INTRA:                  -0.448
REMARK UNBOUND:                -0.268
REMARK SMILES CCO[C@@H]1O[C@H](CO)[C@@H](O)[C@@H](O)[C@@H]1O
REMARK SMILES IDX 4 1 13 2 11 3 9 4 6 5 5 6 3 7 2 8 1 9 14 10 12 12 7 14 8 15
REMARK SMILES IDX 10 17
REMARK H PARENT 14 11 12 13 8 16 10 18
REMARK Flexibility Score: inf
ROOT
ATOM      1  C   UNL     1     -22.324  -6.262  17.734  1.00  0.00     0.281 C 
ATOM      2  C   UNL     1     -21.313  -5.108  17.837  1.00  0.00     0.202 C 
ATOM      3  C   UNL     1     -19.941  -5.630  18.276  1.00  0.00     0.179 C 
ATOM      4  C   UNL     1     -19.493  -6.794  17.370  1.00  0.00     0.177 C 
ATOM      5  C   UNL     1     -20.617  -7.847  17.164  1.00  0.00     0.178 C 
ATOM      6  O   UNL     1     -21.888  -7.286  16.847  1.00  0.00    -0.341 OA
ENDROOT
BRANCH   1   7
ATOM      7  O   UNL     1     -22.622  -6.779  19.019  1.00  0.00    -0.350 OA
BRANCH   7   8
ATOM      8  C   UNL     1     -24.001  -7.066  19.125  1.00  0.00     0.160 C 
ATOM      9  C   UNL     1     -24.778  -6.131  18.210  1.00  0.00     0.035 C 
ENDBRANCH   7   8
ENDBRANCH   1   7
BRANCH   2  10
ATOM     10  O   UNL     1     -21.788  -4.161  18.762  1.00  0.00    -0.385 OA
ATOM     11  H   UNL     1     -21.173  -3.383  18.720  1.00  0.00     0.211 HD
ENDBRANCH   2  10
BRANCH   3  12
ATOM     12  O   UNL     1     -19.003  -4.585  18.223  1.00  0.00    -0.387 OA
ATOM     13  H   UNL     1     -19.436  -3.790  18.632  1.00  0.00     0.211 HD
ENDBRANCH   3  12
BRANCH   5  14
ATOM     14  C   UNL     1     -20.695  -8.943  18.254  1.00  0.00     0.191 C 
BRANCH  14  15
ATOM     15  O   UNL     1     -21.898  -9.662  18.212  1.00  0.00    -0.394 OA
ATOM     16  H   UNL     1     -21.989 -10.132  19.082  1.00  0.00     0.210 HD
ENDBRANCH  14  15
ENDBRANCH   5  14
BRANCH   4  17
ATOM     17  O   UNL     1     -19.028  -6.310  16.132  1.00  0.00    -0.387 OA
ATOM     18  H   UNL     1     -19.700  -6.538  15.438  1.00  0.00     0.211 HD
ENDBRANCH   4  17
TORSDOF 7
ENDMDL
MODEL 7
REMARK VINA RESULT:    -3.301      1.837      3.924
REMARK INTER + INTRA:          -4.534
REMARK INTER:                  -4.202
REMARK INTRA:                  -0.332
REMARK UNBOUND:                -0.268
REMARK SMILES CCO[C@@H]1O[C@H](CO)[C@@H](O)[C@@H](O)[C@@H]1O
REMARK SMILES IDX 4 1 13 2 11 3 9 4 6 5 5 6 3 7 2 8 1 9 14 10 12 12 7 14 8 15
REMARK SMILES IDX 10 17
REMARK H PARENT 14 11 12 13 8 16 10 18
REMARK Flexibility Score: inf
ROOT
ATOM      1  C   UNL     1     -18.485  -6.931  16.921  1.00  0.00     0.281 C 
ATOM      2  C   UNL     1     -19.899  -7.289  17.409  1.00  0.00     0.202 C 
ATOM      3  C   UNL     1     -20.179  -6.642  18.769  1.00  0.00     0.179 C 
ATOM      4  C   UNL     1     -19.885  -5.130  18.717  1.00  0.00     0.177 C 
ATOM      5  C   UNL     1     -18.512  -4.819  18.056  1.00  0.00     0.178 C 
ATOM      6  O   UNL     1     -18.279  -5.525  16.841  1.00  0.00    -0.341 OA
ENDROOT
BRANCH   1   7
ATOM      7  O   UNL     1     -17.506  -7.555  17.733  1.00  0.00    -0.350 OA
BRANCH   7   8
ATOM      8  C   UNL     1     -16.588  -8.271  16.932  1.00  0.00     0.160 C 
ATOM      9  C   UNL     1     -15.278  -7.502  16.865  1.00  0.00     0.035 C 
ENDBRANCH   7   8
ENDBRANCH   1   7
BRANCH   2  10
ATOM     10  O   UNL     1     -20.012  -8.687  17.507  1.00  0.00    -0.385 OA
ATOM     11  H   UNL     1     -20.898  -8.932  17.132  1.00  0.00     0.211 HD
ENDBRANCH   2  10
BRANCH   3  12
ATOM     12  O   UNL     1     -21.522  -6.862  19.125  1.00  0.00    -0.387 OA
ATOM     13  H   UNL     1     -21.547  -6.930  20.115  1.00  0.00     0.211 HD
ENDBRANCH   3  12
BRANCH   5  14
ATOM     14  C   UNL     1     -17.300  -4.855  19.019  1.00  0.00     0.191 C 
BRANCH  14  15
ATOM     15  O   UNL     1     -16.107  -4.452  18.400  1.00  0.00    -0.394 OA
ATOM     16  H   UNL     1     -16.250  -4.520  17.419  1.00  0.00     0.210 HD
ENDBRANCH  14  15
ENDBRANCH   5  14
BRANCH   4  17
ATOM     17  O   UNL     1     -20.923  -4.442  18.059  1.00  0.00    -0.387 OA
ATOM     18  H   UNL     1     -21.709  -5.046  18.008  1.00  0.00     0.211 HD
ENDBRANCH   4  17
TORSDOF 7
ENDMDL
MODEL 8
REMARK VINA RESULT:    -3.226      2.485      4.587
REMARK INTER + INTRA:          -4.437
REMARK INTER:                  -3.956
REMARK INTRA:                  -0.481
REMARK UNBOUND:                -0.268
REMARK SMILES CCO[C@@H]1O[C@H](CO)[C@@H](O)[C@@H](O)[C@@H]1O
REMARK SMILES IDX 4 1 13 2 11 3 9 4 6 5 5 6 3 7 2 8 1 9 14 10 12 12 7 14 8 15
REMARK SMILES IDX 10 17
REMARK H PARENT 14 11 12 13 8 16 10 18
REMARK Flexibility Score: inf
ROOT
ATOM      1  C   UNL     1     -21.172  -7.679  17.260  1.00  0.00     0.281 C 
ATOM      2  C   UNL     1     -21.840  -6.297  17.351  1.00  0.00     0.202 C 
ATOM      3  C   UNL     1     -21.110  -5.412  18.367  1.00  0.00     0.179 C 
ATOM      4  C   UNL     1     -19.600  -5.373  18.060  1.00  0.00     0.177 C 
ATOM      5  C   UNL     1     -19.014  -6.791  17.808  1.00  0.00     0.178 C 
ATOM      6  O   UNL     1     -19.792  -7.594  16.925  1.00  0.00    -0.341 OA
ENDROOT
BRANCH   1   7
ATOM      7  O   UNL     1     -21.372  -8.408  18.459  1.00  0.00    -0.350 OA
BRANCH   7   8
ATOM      8  C   UNL     1     -21.623  -9.768  18.171  1.00  0.00     0.160 C 
ATOM      9  C   UNL     1     -23.121  -9.977  18.013  1.00  0.00     0.035 C 
ENDBRANCH   7   8
ENDBRANCH   1   7
BRANCH   2  10
ATOM     10  O   UNL     1     -23.184  -6.458  17.731  1.00  0.00    -0.385 OA
ATOM     11  H   UNL     1     -23.301  -5.977  18.591  1.00  0.00     0.211 HD
ENDBRANCH   2  10
BRANCH   3  12
ATOM     12  O   UNL     1     -21.646  -4.112  18.326  1.00  0.00    -0.387 OA
ATOM     13  H   UNL     1     -22.634  -4.209  18.360  1.00  0.00     0.211 HD
ENDBRANCH   3  12
BRANCH   5  14
ATOM     14  C   UNL     1     -18.569  -7.551  19.082  1.00  0.00     0.191 C 
BRANCH  14  15
ATOM     15  O   UNL     1     -18.282  -8.901  18.832  1.00  0.00    -0.394 OA
ATOM     16  H   UNL     1     -18.635  -9.421  19.601  1.00  0.00     0.210 HD
ENDBRANCH  14  15
ENDBRANCH   5  14
BRANCH   4  17
ATOM     17  O   UNL     1     -19.334  -4.522  16.970  1.00  0.00    -0.387 OA
ATOM     18  H   UNL     1     -18.369  -4.292  16.985  1.00  0.00     0.211 HD
ENDBRANCH   4  17
TORSDOF 7
ENDMDL
