MODEL 1
REMARK VINA RESULT:    -3.211      0.000      0.000
REMARK INTER + INTRA:          -5.195
REMARK INTER:                  -4.432
REMARK INTRA:                  -0.763
REMARK UNBOUND:                -0.763
REMARK SMILES OC[C@@H](O)[C@@H](O)[C@@H](O)CO
REMARK SMILES IDX 5 1 3 2 2 3 1 4 4 6 7 8 9 9 10 10 8 12 6 14
REMARK H PARENT 1 5 4 7 10 11 8 13 6 15
REMARK Flexibility Score: inf
ROOT
ATOM      1  C   UNL     1       0.170   7.333  -2.977  1.00  0.00     0.176 C 
ENDROOT
BRANCH   1   2
ATOM      2  C   UNL     1       0.510   8.307  -1.815  1.00  0.00     0.171 C 
BRANCH   2   3
ATOM      3  C   UNL     1      -0.678   9.156  -1.313  1.00  0.00     0.190 C 
BRANCH   3   4
ATOM      4  O   UNL     1      -1.009  10.175  -2.218  1.00  0.00    -0.394 OA
ATOM      5  H   UNL     1      -1.382   9.735  -3.026  1.00  0.00     0.210 HD
ENDBRANCH   3   4
ENDBRANCH   2   3
BRANCH   2   6
ATOM      6  O   UNL     1       1.110   7.615  -0.746  1.00  0.00    -0.388 OA
ATOM      7  H   UNL     1       2.085   7.564  -0.923  1.00  0.00     0.211 HD
ENDBRANCH   2   6
ENDBRANCH   1   2
BRANCH   1   8
ATOM      8  C   UNL     1       1.060   7.552  -4.229  1.00  0.00     0.171 C 
BRANCH   8   9
ATOM      9  C   UNL     1       1.052   9.025  -4.683  1.00  0.00     0.190 C 
BRANCH   9  10
ATOM     10  O   UNL     1      -0.208   9.378  -5.185  1.00  0.00    -0.394 OA
ATOM     11  H   UNL     1      -0.800   9.511  -4.401  1.00  0.00     0.210 HD
ENDBRANCH   9  10
ENDBRANCH   8   9
BRANCH   8  12
ATOM     12  O   UNL     1       0.656   6.720  -5.289  1.00  0.00    -0.388 OA
ATOM     13  H   UNL     1       1.464   6.513  -5.830  1.00  0.00     0.211 HD
ENDBRANCH   8  12
ENDBRANCH   1   8
BRANCH   1  14
ATOM     14  O   UNL     1      -1.186   7.465  -3.328  1.00  0.00    -0.388 OA
ATOM     15  H   UNL     1      -1.271   8.280  -3.889  1.00  0.00     0.211 HD
ENDBRANCH   1  14
TORSDOF 9
ENDMDL
MODEL 2
REMARK VINA RESULT:    -3.189      1.744      2.925
REMARK INTER + INTRA:          -5.163
REMARK INTER:                  -4.429
REMARK INTRA:                  -0.734
REMARK UNBOUND:                -0.763
REMARK SMILES OC[C@@H](O)[C@@H](O)[C@@H](O)CO
REMARK SMILES IDX 5 1 3 2 2 3 1 4 4 6 7 8 9 9 10 10 8 12 6 14
REMARK H PARENT 1 5 4 7 10 11 8 13 6 15
REMARK Flexibility Score: inf
ROOT
ATOM      1  C   UNL     1      -0.144   6.988  -2.310  1.00  0.00     0.176 C 
ENDROOT
BRANCH   1   2
ATOM      2  C   UNL     1       0.442   8.180  -1.504  1.00  0.00     0.171 C 
BRANCH   2   3
ATOM      3  C   UNL     1      -0.566   9.305  -1.187  1.00  0.00     0.190 C 
BRANCH   3   4
ATOM      4  O   UNL     1      -0.797  10.127  -2.299  1.00  0.00    -0.394 OA
ATOM      5  H   UNL     1      -0.970  11.041  -1.953  1.00  0.00     0.210 HD
ENDBRANCH   3   4
ENDBRANCH   2   3
BRANCH   2   6
ATOM      6  O   UNL     1       1.064   7.726  -0.327  1.00  0.00    -0.388 OA
ATOM      7  H   UNL     1       0.372   7.667   0.382  1.00  0.00     0.211 HD
ENDBRANCH   2   6
ENDBRANCH   1   2
BRANCH   1   8
ATOM      8  C   UNL     1       0.937   5.965  -2.750  1.00  0.00     0.171 C 
BRANCH   8   9
ATOM      9  C   UNL     1       0.908   4.695  -1.878  1.00  0.00     0.190 C 
BRANCH   9  10
ATOM     10  O   UNL     1       1.747   4.846  -0.764  1.00  0.00    -0.394 OA
ATOM     11  H   UNL     1       2.002   3.932  -0.475  1.00  0.00     0.210 HD
ENDBRANCH   9  10
ENDBRANCH   8   9
BRANCH   8  12
ATOM     12  O   UNL     1       2.220   6.540  -2.721  1.00  0.00    -0.388 OA
ATOM     13  H   UNL     1       2.318   7.008  -1.849  1.00  0.00     0.211 HD
ENDBRANCH   8  12
ENDBRANCH   1   8
BRANCH   1  14
ATOM     14  O   UNL     1      -0.833   7.468  -3.439  1.00  0.00    -0.388 OA
ATOM     15  H   UNL     1      -0.290   8.201  -3.830  1.00  0.00     0.211 HD
ENDBRANCH   1  14
TORSDOF 9
ENDMDL
MODEL 3
REMARK VINA RESULT:    -3.173      1.023      2.300
REMARK INTER + INTRA:          -5.142
REMARK INTER:                  -4.475
REMARK INTRA:                  -0.667
REMARK UNBOUND:                -0.763
REMARK SMILES OC[C@@H](O)[C@@H](O)[C@@H](O)CO
REMARK SMILES IDX 5 1 3 2 2 3 1 4 4 6 7 8 9 9 10 10 8 12 6 14
REMARK H PARENT 1 5 4 7 10 11 8 13 6 15
REMARK Flexibility Score: inf
ROOT
ATOM      1  C   UNL     1       0.571   8.434  -1.921  1.00  0.00     0.176 C 
ENDROOT
BRANCH   1   2
ATOM      2  C   UNL     1      -0.703   9.125  -1.360  1.00  0.00     0.171 C 
BRANCH   2   3
ATOM      3  C   UNL     1      -0.608   9.557   0.118  1.00  0.00     0.190 C 
BRANCH   3   4
ATOM      4  O   UNL     1      -0.822   8.480   0.991  1.00  0.00    -0.394 OA
ATOM      5  H   UNL     1      -1.001   8.865   1.888  1.00  0.00     0.210 HD
ENDBRANCH   3   4
ENDBRANCH   2   3
BRANCH   2   6
ATOM      6  O   UNL     1      -1.075  10.214  -2.171  1.00  0.00    -0.388 OA
ATOM      7  H   UNL     1      -1.874   9.947  -2.695  1.00  0.00     0.211 HD
ENDBRANCH   2   6
ENDBRANCH   1   2
BRANCH   1   8
ATOM      8  C   UNL     1       0.327   7.724  -3.279  1.00  0.00     0.171 C 
BRANCH   8   9
ATOM      9  C   UNL     1       0.831   8.571  -4.463  1.00  0.00     0.190 C 
BRANCH   9  10
ATOM     10  O   UNL     1      -0.237   9.233  -5.084  1.00  0.00    -0.394 OA
ATOM     11  H   UNL     1      -0.139   9.080  -6.059  1.00  0.00     0.210 HD
ENDBRANCH   9  10
ENDBRANCH   8   9
BRANCH   8  12
ATOM     12  O   UNL     1      -1.035   7.417  -3.452  1.00  0.00    -0.388 OA
ATOM     13  H   UNL     1      -1.155   6.457  -3.225  1.00  0.00     0.211 HD
ENDBRANCH   8  12
ENDBRANCH   1   8
BRANCH   1  14
ATOM     14  O   UNL     1       1.064   7.510  -0.982  1.00  0.00    -0.388 OA
ATOM     15  H   UNL     1       2.012   7.743  -0.803  1.00  0.00     0.211 HD
ENDBRANCH   1  14
TORSDOF 9
ENDMDL
MODEL 4
REMARK VINA RESULT:    -3.148      2.344      3.805
REMARK INTER + INTRA:          -5.106
REMARK INTER:                  -4.295
REMARK INTRA:                  -0.811
REMARK UNBOUND:                -0.763
REMARK SMILES OC[C@@H](O)[C@@H](O)[C@@H](O)CO
REMARK SMILES IDX 5 1 3 2 2 3 1 4 4 6 7 8 9 9 10 10 8 12 6 14
REMARK H PARENT 1 5 4 7 10 11 8 13 6 15
REMARK Flexibility Score: inf
ROOT
ATOM      1  C   UNL     1       1.236   6.166  -3.177  1.00  0.00     0.176 C 
ENDROOT
BRANCH   1   2
ATOM      2  C   UNL     1       0.040   6.966  -2.588  1.00  0.00     0.171 C 
BRANCH   2   3
ATOM      3  C   UNL     1       0.438   8.151  -1.683  1.00  0.00     0.190 C 
BRANCH   3   4
ATOM      4  O   UNL     1       1.074   7.719  -0.510  1.00  0.00    -0.394 OA
ATOM      5  H   UNL     1       1.036   6.728  -0.508  1.00  0.00     0.210 HD
ENDBRANCH   3   4
ENDBRANCH   2   3
BRANCH   2   6
ATOM      6  O   UNL     1      -0.823   7.395  -3.614  1.00  0.00    -0.388 OA
ATOM      7  H   UNL     1      -1.430   6.643  -3.838  1.00  0.00     0.211 HD
ENDBRANCH   2   6
ENDBRANCH   1   2
BRANCH   1   8
ATOM      8  C   UNL     1       1.494   4.829  -2.432  1.00  0.00     0.171 C 
BRANCH   8   9
ATOM      9  C   UNL     1       2.878   4.812  -1.754  1.00  0.00     0.190 C 
BRANCH   9  10
ATOM     10  O   UNL     1       2.861   5.587  -0.585  1.00  0.00    -0.394 OA
ATOM     11  H   UNL     1       1.938   5.538  -0.225  1.00  0.00     0.210 HD
ENDBRANCH   9  10
ENDBRANCH   8   9
BRANCH   8  12
ATOM     12  O   UNL     1       1.371   3.732  -3.303  1.00  0.00    -0.388 OA
ATOM     13  H   UNL     1       0.975   2.982  -2.785  1.00  0.00     0.211 HD
ENDBRANCH   8  12
ENDBRANCH   1   8
BRANCH   1  14
ATOM     14  O   UNL     1       2.398   6.958  -3.150  1.00  0.00    -0.388 OA
ATOM     15  H   UNL     1       2.831   6.821  -2.267  1.00  0.00     0.211 HD
ENDBRANCH   1  14
TORSDOF 9
ENDMDL
MODEL 5
REMARK VINA RESULT:    -3.133      1.679      3.090
REMARK INTER + INTRA:          -5.086
REMARK INTER:                  -4.385
REMARK INTRA:                  -0.702
REMARK UNBOUND:                -0.763
REMARK SMILES OC[C@@H](O)[C@@H](O)[C@@H](O)CO
REMARK SMILES IDX 5 1 3 2 2 3 1 4 4 6 7 8 9 9 10 10 8 12 6 14
REMARK H PARENT 1 5 4 7 10 11 8 13 6 15
REMARK Flexibility Score: inf
ROOT
ATOM      1  C   UNL     1      -0.706   9.141  -1.363  1.00  0.00     0.176 C 
ENDROOT
BRANCH   1   2
ATOM      2  C   UNL     1      -0.637   9.856   0.015  1.00  0.00     0.171 C 
BRANCH   2   3
ATOM      3  C   UNL     1      -1.238  11.278   0.037  1.00  0.00     0.190 C 
BRANCH   3   4
ATOM      4  O   UNL     1      -0.403  12.206  -0.601  1.00  0.00    -0.394 OA
ATOM      5  H   UNL     1       0.297  12.464   0.053  1.00  0.00     0.210 HD
ENDBRANCH   3   4
ENDBRANCH   2   3
BRANCH   2   6
ATOM      6  O   UNL     1      -1.218   9.058   1.018  1.00  0.00    -0.388 OA
ATOM      7  H   UNL     1      -2.065   9.490   1.301  1.00  0.00     0.211 HD
ENDBRANCH   2   6
ENDBRANCH   1   2
BRANCH   1   8
ATOM      8  C   UNL     1       0.497   8.193  -1.613  1.00  0.00     0.171 C 
BRANCH   8   9
ATOM      9  C   UNL     1       0.126   7.043  -2.569  1.00  0.00     0.190 C 
BRANCH   9  10
ATOM     10  O   UNL     1      -0.959   7.407  -3.379  1.00  0.00    -0.394 OA
ATOM     11  H   UNL     1      -1.105   6.659  -4.013  1.00  0.00     0.210 HD
ENDBRANCH   9  10
ENDBRANCH   8   9
BRANCH   8  12
ATOM     12  O   UNL     1       0.992   7.673  -0.404  1.00  0.00    -0.388 OA
ATOM     13  H   UNL     1       1.709   7.023  -0.630  1.00  0.00     0.211 HD
ENDBRANCH   8  12
ENDBRANCH   1   8
BRANCH   1  14
ATOM     14  O   UNL     1      -0.781  10.097  -2.392  1.00  0.00    -0.388 OA
ATOM     15  H   UNL     1      -1.074  10.953  -1.983  1.00  0.00     0.211 HD
ENDBRANCH   1  14
TORSDOF 9
ENDMDL
MODEL 6
REMARK VINA RESULT:    -3.111      1.567      3.946
REMARK INTER + INTRA:          -5.056
REMARK INTER:                  -4.302
REMARK INTRA:                  -0.754
REMARK UNBOUND:                -0.763
REMARK SMILES OC[C@@H](O)[C@@H](O)[C@@H](O)CO
REMARK SMILES IDX 5 1 3 2 2 3 1 4 4 6 7 8 9 9 10 10 8 12 6 14
REMARK H PARENT 1 5 4 7 10 11 8 13 6 15
REMARK Flexibility Score: inf
ROOT
ATOM      1  C   UNL     1      -0.106   7.875  -1.310  1.00  0.00     0.176 C 
ENDROOT
BRANCH   1   2
ATOM      2  C   UNL     1       0.182   7.469  -2.782  1.00  0.00     0.171 C 
BRANCH   2   3
ATOM      3  C   UNL     1       0.972   6.153  -2.948  1.00  0.00     0.190 C 
BRANCH   3   4
ATOM      4  O   UNL     1       2.346   6.340  -2.733  1.00  0.00    -0.394 OA
ATOM      5  H   UNL     1       2.455   6.628  -1.790  1.00  0.00     0.210 HD
ENDBRANCH   3   4
ENDBRANCH   2   3
BRANCH   2   6
ATOM      6  O   UNL     1      -1.010   7.427  -3.528  1.00  0.00    -0.388 OA
ATOM      7  H   UNL     1      -1.626   6.788  -3.085  1.00  0.00     0.211 HD
ENDBRANCH   2   6
ENDBRANCH   1   2
BRANCH   1   8
ATOM      8  C   UNL     1      -0.645   9.324  -1.177  1.00  0.00     0.171 C 
BRANCH   8   9
ATOM      9  C   UNL     1      -2.084   9.347  -0.625  1.00  0.00     0.190 C 
BRANCH   9  10
ATOM     10  O   UNL     1      -2.911   8.497  -1.373  1.00  0.00    -0.394 OA
ATOM     11  H   UNL     1      -3.103   8.966  -2.226  1.00  0.00     0.210 HD
ENDBRANCH   9  10
ENDBRANCH   8   9
BRANCH   8  12
ATOM     12  O   UNL     1      -0.591  10.000  -2.409  1.00  0.00    -0.388 OA
ATOM     13  H   UNL     1      -1.355  10.635  -2.435  1.00  0.00     0.211 HD
ENDBRANCH   8  12
ENDBRANCH   1   8
BRANCH   1  14
ATOM     14  O   UNL     1       1.062   7.729  -0.538  1.00  0.00    -0.388 OA
ATOM     15  H   UNL     1       0.893   8.157   0.341  1.00  0.00     0.211 HD
ENDBRANCH   1  14
TORSDOF 9
ENDMDL
MODEL 7
REMARK VINA RESULT:    -3.102      1.776      3.449
REMARK INTER + INTRA:          -5.044
REMARK INTER:                  -4.381
REMARK INTRA:                  -0.662
REMARK UNBOUND:                -0.763
REMARK SMILES OC[C@@H](O)[C@@H](O)[C@@H](O)CO
REMARK SMILES IDX 5 1 3 2 2 3 1 4 4 6 7 8 9 9 10 10 8 12 6 14
REMARK H PARENT 1 5 4 7 10 11 8 13 6 15
REMARK Flexibility Score: inf
ROOT
ATOM      1  C   UNL     1       0.138   7.327  -2.663  1.00  0.00     0.176 C 
ENDROOT
BRANCH   1   2
ATOM      2  C   UNL     1       1.139   7.571  -3.827  1.00  0.00     0.171 C 
BRANCH   2   3
ATOM      3  C   UNL     1       1.011   8.949  -4.512  1.00  0.00     0.190 C 
BRANCH   3   4
ATOM      4  O   UNL     1      -0.232   9.103  -5.143  1.00  0.00    -0.394 OA
ATOM      5  H   UNL     1      -0.533  10.033  -4.968  1.00  0.00     0.210 HD
ENDBRANCH   3   4
ENDBRANCH   2   3
BRANCH   2   6
ATOM      6  O   UNL     1       2.461   7.352  -3.400  1.00  0.00    -0.388 OA
ATOM      7  H   UNL     1       3.054   7.958  -3.915  1.00  0.00     0.211 HD
ENDBRANCH   2   6
ENDBRANCH   1   2
BRANCH   1   8
ATOM      8  C   UNL     1       0.306   5.931  -2.005  1.00  0.00     0.171 C 
BRANCH   8   9
ATOM      9  C   UNL     1       1.049   6.023  -0.658  1.00  0.00     0.190 C 
BRANCH   9  10
ATOM     10  O   UNL     1       2.405   5.708  -0.823  1.00  0.00    -0.394 OA
ATOM     11  H   UNL     1       2.841   6.516  -1.198  1.00  0.00     0.210 HD
ENDBRANCH   9  10
ENDBRANCH   8   9
BRANCH   8  12
ATOM     12  O   UNL     1       0.976   5.043  -2.865  1.00  0.00    -0.388 OA
ATOM     13  H   UNL     1       1.897   4.922  -2.511  1.00  0.00     0.211 HD
ENDBRANCH   8  12
ENDBRANCH   1   8
BRANCH   1  14
ATOM     14  O   UNL     1      -1.181   7.478  -3.129  1.00  0.00    -0.388 OA
ATOM     15  H   UNL     1      -1.689   6.671  -2.852  1.00  0.00     0.211 HD
ENDBRANCH   1  14
TORSDOF 9
ENDMDL
MODEL 8
REMARK VINA RESULT:    -3.086      1.670      2.558
REMARK INTER + INTRA:          -5.021
REMARK INTER:                  -4.310
REMARK INTRA:                  -0.711
REMARK UNBOUND:                -0.763
REMARK SMILES OC[C@@H](O)[C@@H](O)[C@@H](O)CO
REMARK SMILES IDX 5 1 3 2 2 3 1 4 4 6 7 8 9 9 10 10 8 12 6 14
REMARK H PARENT 1 5 4 7 10 11 8 13 6 15
REMARK Flexibility Score: inf
ROOT
ATOM      1  C   UNL     1       0.306   7.068  -3.300  1.00  0.00     0.176 C 
ENDROOT
BRANCH   1   2
ATOM      2  C   UNL     1       0.537   6.684  -1.812  1.00  0.00     0.171 C 
BRANCH   2   3
ATOM      3  C   UNL     1       1.361   5.397  -1.596  1.00  0.00     0.190 C 
BRANCH   3   4
ATOM      4  O   UNL     1       2.739   5.660  -1.567  1.00  0.00    -0.394 OA
ATOM      5  H   UNL     1       2.906   6.402  -2.204  1.00  0.00     0.210 HD
ENDBRANCH   3   4
ENDBRANCH   2   3
BRANCH   2   6
ATOM      6  O   UNL     1       1.105   7.760  -1.104  1.00  0.00    -0.388 OA
ATOM      7  H   UNL     1       2.066   7.559  -0.961  1.00  0.00     0.211 HD
ENDBRANCH   2   6
ENDBRANCH   1   2
BRANCH   1   8
ATOM      8  C   UNL     1       1.229   8.220  -3.778  1.00  0.00     0.171 C 
BRANCH   8   9
ATOM      9  C   UNL     1       0.963   8.589  -5.250  1.00  0.00     0.190 C 
BRANCH   9  10
ATOM     10  O   UNL     1      -0.250   9.281  -5.371  1.00  0.00    -0.394 OA
ATOM     11  H   UNL     1      -0.127   9.946  -6.096  1.00  0.00     0.210 HD
ENDBRANCH   9  10
ENDBRANCH   8   9
BRANCH   8  12
ATOM     12  O   UNL     1       2.585   7.889  -3.602  1.00  0.00    -0.388 OA
ATOM     13  H   UNL     1       2.795   7.148  -4.231  1.00  0.00     0.211 HD
ENDBRANCH   8  12
ENDBRANCH   1   8
BRANCH   1  14
ATOM     14  O   UNL     1      -1.041   7.424  -3.497  1.00  0.00    -0.388 OA
ATOM     15  H   UNL     1      -1.528   6.605  -3.774  1.00  0.00     0.211 HD
ENDBRANCH   1  14
TORSDOF 9
ENDMDL
MODEL 9
REMARK VINA RESULT:    -3.079      1.938      3.323
REMARK INTER + INTRA:          -5.012
REMARK INTER:                  -4.358
REMARK INTRA:                  -0.653
REMARK UNBOUND:                -0.763
REMARK SMILES OC[C@@H](O)[C@@H](O)[C@@H](O)CO
REMARK SMILES IDX 5 1 3 2 2 3 1 4 4 6 7 8 9 9 10 10 8 12 6 14
REMARK H PARENT 1 5 4 7 10 11 8 13 6 15
REMARK Flexibility Score: inf
ROOT
ATOM      1  C   UNL     1       0.389   6.934  -1.853  1.00  0.00     0.176 C 
ENDROOT
BRANCH   1   2
ATOM      2  C   UNL     1       1.033   5.525  -1.982  1.00  0.00     0.171 C 
BRANCH   2   3
ATOM      3  C   UNL     1       0.464   4.463  -1.017  1.00  0.00     0.190 C 
BRANCH   3   4
ATOM      4  O   UNL     1       0.464   4.913   0.311  1.00  0.00    -0.394 OA
ATOM      5  H   UNL     1       1.372   5.269   0.496  1.00  0.00     0.210 HD
ENDBRANCH   3   4
ENDBRANCH   2   3
BRANCH   2   6
ATOM      6  O   UNL     1       0.969   5.070  -3.312  1.00  0.00    -0.388 OA
ATOM      7  H   UNL     1       0.880   5.862  -3.903  1.00  0.00     0.211 HD
ENDBRANCH   2   6
ENDBRANCH   1   2
BRANCH   1   8
ATOM      8  C   UNL     1       0.421   7.737  -3.180  1.00  0.00     0.171 C 
BRANCH   8   9
ATOM      9  C   UNL     1       0.605   9.246  -2.928  1.00  0.00     0.190 C 
BRANCH   9  10
ATOM     10  O   UNL     1      -0.593   9.817  -2.474  1.00  0.00    -0.394 OA
ATOM     11  H   UNL     1      -0.552   9.811  -1.483  1.00  0.00     0.210 HD
ENDBRANCH   9  10
ENDBRANCH   8   9
BRANCH   8  12
ATOM     12  O   UNL     1      -0.743   7.514  -3.937  1.00  0.00    -0.388 OA
ATOM     13  H   UNL     1      -0.512   7.662  -4.892  1.00  0.00     0.211 HD
ENDBRANCH   8  12
ENDBRANCH   1   8
BRANCH   1  14
ATOM     14  O   UNL     1       1.036   7.663  -0.839  1.00  0.00    -0.388 OA
ATOM     15  H   UNL     1       1.398   7.008  -0.186  1.00  0.00     0.211 HD
ENDBRANCH   1  14
TORSDOF 9
ENDMDL
