MODEL 1
REMARK VINA RESULT:    -4.777      0.000      0.000
REMARK INTER + INTRA:          -6.659
REMARK INTER:                  -6.033
REMARK INTRA:                  -0.626
REMARK UNBOUND:                -0.626
REMARK SMILES O=C(C=Cc1ccc(O)cc1)c1ccc(O)cc1O
REMARK SMILES IDX 4 1 3 2 5 3 6 4 7 5 8 6 11 7 10 8 9 9 2 11 1 12 12 13 18 14
REMARK SMILES IDX 13 15 17 16 14 17 15 18 19 19 16 21
REMARK H PARENT 9 10 19 20 16 22
REMARK Flexibility Score: inf
ROOT
ATOM      1  C   UNL     1       6.614  18.531   2.123  1.00  0.00     0.012 C 
ATOM      2  C   UNL     1       7.007  19.465   3.002  1.00  0.00     0.053 C 
ENDROOT
BRANCH   1   3
ATOM      3  C   UNL     1       6.644  18.722   0.652  1.00  0.00    -0.025 A 
ATOM      4  C   UNL     1       5.881  17.931  -0.231  1.00  0.00     0.012 A 
ATOM      5  C   UNL     1       5.934  18.158  -1.609  1.00  0.00     0.047 A 
ATOM      6  C   UNL     1       6.736  19.179  -2.126  1.00  0.00     0.115 A 
ATOM      7  C   UNL     1       7.435  19.757   0.124  1.00  0.00     0.012 A 
ATOM      8  C   UNL     1       7.486  19.980  -1.255  1.00  0.00     0.047 A 
BRANCH   6   9
ATOM      9  O   UNL     1       6.779  19.392  -3.502  1.00  0.00    -0.508 OA
ATOM     10  H   UNL     1       5.959  19.691  -4.016  1.00  0.00     0.293 HD
ENDBRANCH   6   9
ENDBRANCH   1   3
BRANCH   2  11
ATOM     11  C   UNL     1       6.947  19.246   4.464  1.00  0.00     0.189 C 
ATOM     12  O   UNL     1       5.964  18.636   4.967  1.00  0.00    -0.289 OA
BRANCH  11  13
ATOM     13  C   UNL     1       8.001  19.776   5.359  1.00  0.00     0.064 A 
ATOM     14  C   UNL     1       8.689  18.949   6.275  1.00  0.00     0.130 A 
ATOM     15  C   UNL     1       8.308  21.149   5.315  1.00  0.00     0.020 A 
ATOM     16  C   UNL     1       9.689  19.494   7.093  1.00  0.00     0.093 A 
ATOM     17  C   UNL     1       9.302  21.682   6.138  1.00  0.00     0.047 A 
ATOM     18  C   UNL     1       9.998  20.855   7.026  1.00  0.00     0.119 A 
BRANCH  14  19
ATOM     19  O   UNL     1       8.362  17.598   6.393  1.00  0.00    -0.507 OA
ATOM     20  H   UNL     1       8.946  16.953   6.911  1.00  0.00     0.293 HD
ENDBRANCH  14  19
BRANCH  18  21
ATOM     21  O   UNL     1      10.994  21.375   7.849  1.00  0.00    -0.508 OA
ATOM     22  H   UNL     1      11.850  21.760   7.467  1.00  0.00     0.293 HD
ENDBRANCH  18  21
ENDBRANCH  11  13
ENDBRANCH   2  11
TORSDOF 6
ENDMDL
MODEL 2
REMARK VINA RESULT:    -4.377     20.709     21.872
REMARK INTER + INTRA:          -6.155
REMARK INTER:                  -5.519
REMARK INTRA:                  -0.636
REMARK UNBOUND:                -0.626
REMARK SMILES O=C(C=Cc1ccc(O)cc1)c1ccc(O)cc1O
REMARK SMILES IDX 4 1 3 2 5 3 6 4 7 5 8 6 11 7 10 8 9 9 2 11 1 12 12 13 18 14
REMARK SMILES IDX 13 15 17 16 14 17 15 18 19 19 16 21
REMARK H PARENT 9 10 19 20 16 22
REMARK Flexibility Score: inf
ROOT
ATOM      1  C   UNL     1      23.147   9.738  -8.033  1.00  0.00     0.012 C 
ATOM      2  C   UNL     1      22.250   9.400  -7.095  1.00  0.00     0.053 C 
ENDROOT
BRANCH   1   3
ATOM      3  C   UNL     1      23.528  11.138  -8.340  1.00  0.00    -0.025 A 
ATOM      4  C   UNL     1      22.614  12.075  -8.862  1.00  0.00     0.012 A 
ATOM      5  C   UNL     1      23.018  13.388  -9.123  1.00  0.00     0.047 A 
ATOM      6  C   UNL     1      24.330  13.788  -8.859  1.00  0.00     0.115 A 
ATOM      7  C   UNL     1      24.841  11.555  -8.061  1.00  0.00     0.012 A 
ATOM      8  C   UNL     1      25.241  12.867  -8.324  1.00  0.00     0.047 A 
BRANCH   6   9
ATOM      9  O   UNL     1      24.718  15.099  -9.125  1.00  0.00    -0.508 OA
ATOM     10  H   UNL     1      25.693  15.351  -9.229  1.00  0.00     0.293 HD
ENDBRANCH   6   9
ENDBRANCH   1   3
BRANCH   2  11
ATOM     11  C   UNL     1      21.881   7.992  -6.827  1.00  0.00     0.189 C 
ATOM     12  O   UNL     1      20.757   7.556  -7.198  1.00  0.00    -0.289 OA
BRANCH  11  13
ATOM     13  C   UNL     1      22.793   7.092  -6.083  1.00  0.00     0.064 A 
ATOM     14  C   UNL     1      22.795   5.695  -6.289  1.00  0.00     0.130 A 
ATOM     15  C   UNL     1      23.663   7.642  -5.124  1.00  0.00     0.020 A 
ATOM     16  C   UNL     1      23.686   4.884  -5.571  1.00  0.00     0.093 A 
ATOM     17  C   UNL     1      24.542   6.826  -4.410  1.00  0.00     0.047 A 
ATOM     18  C   UNL     1      24.559   5.445  -4.635  1.00  0.00     0.119 A 
BRANCH  14  19
ATOM     19  O   UNL     1      21.898   5.108  -7.182  1.00  0.00    -0.507 OA
ATOM     20  H   UNL     1      20.973   4.814  -6.892  1.00  0.00     0.293 HD
ENDBRANCH  14  19
BRANCH  18  21
ATOM     21  O   UNL     1      25.435   4.621  -3.931  1.00  0.00    -0.508 OA
ATOM     22  H   UNL     1      25.458   4.616  -2.919  1.00  0.00     0.293 HD
ENDBRANCH  18  21
ENDBRANCH  11  13
ENDBRANCH   2  11
TORSDOF 6
ENDMDL
MODEL 3
REMARK VINA RESULT:    -3.973     21.413     22.931
REMARK INTER + INTRA:          -5.644
REMARK INTER:                  -4.989
REMARK INTRA:                  -0.655
REMARK UNBOUND:                -0.626
REMARK SMILES O=C(C=Cc1ccc(O)cc1)c1ccc(O)cc1O
REMARK SMILES IDX 4 1 3 2 5 3 6 4 7 5 8 6 11 7 10 8 9 9 2 11 1 12 12 13 18 14
REMARK SMILES IDX 13 15 17 16 14 17 15 18 19 19 16 21
REMARK H PARENT 9 10 19 20 16 22
REMARK Flexibility Score: inf
ROOT
ATOM      1  C   UNL     1      23.586   6.730  -6.335  1.00  0.00     0.012 C 
ATOM      2  C   UNL     1      22.684   7.472  -5.676  1.00  0.00     0.053 C 
ENDROOT
BRANCH   1   3
ATOM      3  C   UNL     1      24.128   5.448  -5.823  1.00  0.00    -0.025 A 
ATOM      4  C   UNL     1      23.645   4.195  -6.253  1.00  0.00     0.012 A 
ATOM      5  C   UNL     1      24.198   3.013  -5.749  1.00  0.00     0.047 A 
ATOM      6  C   UNL     1      25.243   3.062  -4.822  1.00  0.00     0.115 A 
ATOM      7  C   UNL     1      25.190   5.486  -4.903  1.00  0.00     0.012 A 
ATOM      8  C   UNL     1      25.739   4.303  -4.402  1.00  0.00     0.047 A 
BRANCH   6   9
ATOM      9  O   UNL     1      25.782   1.876  -4.329  1.00  0.00    -0.508 OA
ATOM     10  H   UNL     1      26.639   1.488  -4.706  1.00  0.00     0.293 HD
ENDBRANCH   6   9
ENDBRANCH   1   3
BRANCH   2  11
ATOM     11  C   UNL     1      22.177   8.755  -6.211  1.00  0.00     0.189 C 
ATOM     12  O   UNL     1      20.941   9.006  -6.172  1.00  0.00    -0.289 OA
BRANCH  11  13
ATOM     13  C   UNL     1      23.092   9.735  -6.839  1.00  0.00     0.064 A 
ATOM     14  C   UNL     1      22.813  10.317  -8.096  1.00  0.00     0.130 A 
ATOM     15  C   UNL     1      24.286  10.076  -6.179  1.00  0.00     0.020 A 
ATOM     16  C   UNL     1      23.703  11.251  -8.646  1.00  0.00     0.093 A 
ATOM     17  C   UNL     1      25.168  11.004  -6.737  1.00  0.00     0.047 A 
ATOM     18  C   UNL     1      24.877  11.597  -7.970  1.00  0.00     0.119 A 
BRANCH  14  19
ATOM     19  O   UNL     1      21.673   9.950  -8.810  1.00  0.00    -0.507 OA
ATOM     20  H   UNL     1      21.282   9.018  -8.747  1.00  0.00     0.293 HD
ENDBRANCH  14  19
BRANCH  18  21
ATOM     21  O   UNL     1      25.747  12.526  -8.535  1.00  0.00    -0.508 OA
ATOM     22  H   UNL     1      26.666  12.257  -8.867  1.00  0.00     0.293 HD
ENDBRANCH  18  21
ENDBRANCH  11  13
ENDBRANCH   2  11
TORSDOF 6
ENDMDL
MODEL 4
REMARK VINA RESULT:    -3.919     21.577     22.980
REMARK INTER + INTRA:          -5.576
REMARK INTER:                  -5.070
REMARK INTRA:                  -0.506
REMARK UNBOUND:                -0.626
REMARK SMILES O=C(C=Cc1ccc(O)cc1)c1ccc(O)cc1O
REMARK SMILES IDX 4 1 3 2 5 3 6 4 7 5 8 6 11 7 10 8 9 9 2 11 1 12 12 13 18 14
REMARK SMILES IDX 13 15 17 16 14 17 15 18 19 19 16 21
REMARK H PARENT 9 10 19 20 16 22
REMARK Flexibility Score: inf
ROOT
ATOM      1  C   UNL     1      23.930   8.148  -6.623  1.00  0.00     0.012 C 
ATOM      2  C   UNL     1      23.711   7.732  -5.367  1.00  0.00     0.053 C 
ENDROOT
BRANCH   1   3
ATOM      3  C   UNL     1      23.265   9.329  -7.226  1.00  0.00    -0.025 A 
ATOM      4  C   UNL     1      23.660   9.869  -8.467  1.00  0.00     0.012 A 
ATOM      5  C   UNL     1      22.993  10.977  -9.000  1.00  0.00     0.047 A 
ATOM      6  C   UNL     1      21.920  11.553  -8.313  1.00  0.00     0.115 A 
ATOM      7  C   UNL     1      22.175   9.905  -6.552  1.00  0.00     0.012 A 
ATOM      8  C   UNL     1      21.511  11.012  -7.087  1.00  0.00     0.047 A 
BRANCH   6   9
ATOM      9  O   UNL     1      21.267  12.656  -8.857  1.00  0.00    -0.508 OA
ATOM     10  H   UNL     1      21.206  12.793  -9.859  1.00  0.00     0.293 HD
ENDBRANCH   6   9
ENDBRANCH   1   3
BRANCH   2  11
ATOM     11  C   UNL     1      24.380   6.539  -4.804  1.00  0.00     0.189 C 
ATOM     12  O   UNL     1      24.825   6.568  -3.623  1.00  0.00    -0.289 OA
BRANCH  11  13
ATOM     13  C   UNL     1      24.584   5.321  -5.620  1.00  0.00     0.064 A 
ATOM     14  C   UNL     1      23.501   4.528  -6.061  1.00  0.00     0.130 A 
ATOM     15  C   UNL     1      25.895   4.926  -5.943  1.00  0.00     0.020 A 
ATOM     16  C   UNL     1      23.743   3.389  -6.844  1.00  0.00     0.093 A 
ATOM     17  C   UNL     1      26.125   3.787  -6.718  1.00  0.00     0.047 A 
ATOM     18  C   UNL     1      25.048   3.019  -7.175  1.00  0.00     0.119 A 
BRANCH  14  19
ATOM     19  O   UNL     1      22.193   4.851  -5.702  1.00  0.00    -0.507 OA
ATOM     20  H   UNL     1      21.906   4.912  -4.732  1.00  0.00     0.293 HD
ENDBRANCH  14  19
BRANCH  18  21
ATOM     21  O   UNL     1      25.265   1.883  -7.953  1.00  0.00    -0.508 OA
ATOM     22  H   UNL     1      25.443   0.979  -7.531  1.00  0.00     0.293 HD
ENDBRANCH  18  21
ENDBRANCH  11  13
ENDBRANCH   2  11
TORSDOF 6
ENDMDL
MODEL 5
REMARK VINA RESULT:    -3.830     20.693     21.926
REMARK INTER + INTRA:          -5.463
REMARK INTER:                  -4.850
REMARK INTRA:                  -0.613
REMARK UNBOUND:                -0.626
REMARK SMILES O=C(C=Cc1ccc(O)cc1)c1ccc(O)cc1O
REMARK SMILES IDX 4 1 3 2 5 3 6 4 7 5 8 6 11 7 10 8 9 9 2 11 1 12 12 13 18 14
REMARK SMILES IDX 13 15 17 16 14 17 15 18 19 19 16 21
REMARK H PARENT 9 10 19 20 16 22
REMARK Flexibility Score: inf
ROOT
ATOM      1  C   UNL     1      24.744  11.438  -8.513  1.00  0.00     0.012 C 
ATOM      2  C   UNL     1      24.415  10.669  -7.465  1.00  0.00     0.053 C 
ENDROOT
BRANCH   1   3
ATOM      3  C   UNL     1      24.648  12.918  -8.509  1.00  0.00    -0.025 A 
ATOM      4  C   UNL     1      25.664  13.743  -7.984  1.00  0.00     0.012 A 
ATOM      5  C   UNL     1      25.533  15.134  -8.015  1.00  0.00     0.047 A 
ATOM      6  C   UNL     1      24.396  15.723  -8.576  1.00  0.00     0.115 A 
ATOM      7  C   UNL     1      23.517  13.521  -9.086  1.00  0.00     0.012 A 
ATOM      8  C   UNL     1      23.389  14.912  -9.114  1.00  0.00     0.047 A 
BRANCH   6   9
ATOM      9  O   UNL     1      24.279  17.111  -8.598  1.00  0.00    -0.508 OA
ATOM     10  H   UNL     1      24.788  17.695  -7.945  1.00  0.00     0.293 HD
ENDBRANCH   6   9
ENDBRANCH   1   3
BRANCH   2  11
ATOM     11  C   UNL     1      24.508   9.193  -7.511  1.00  0.00     0.189 C 
ATOM     12  O   UNL     1      25.635   8.639  -7.629  1.00  0.00    -0.289 OA
BRANCH  11  13
ATOM     13  C   UNL     1      23.291   8.349  -7.470  1.00  0.00     0.064 A 
ATOM     14  C   UNL     1      22.978   7.543  -6.353  1.00  0.00     0.130 A 
ATOM     15  C   UNL     1      22.436   8.330  -8.587  1.00  0.00     0.020 A 
ATOM     16  C   UNL     1      21.807   6.771  -6.355  1.00  0.00     0.093 A 
ATOM     17  C   UNL     1      21.276   7.552  -8.582  1.00  0.00     0.047 A 
ATOM     18  C   UNL     1      20.956   6.775  -7.463  1.00  0.00     0.119 A 
BRANCH  14  19
ATOM     19  O   UNL     1      23.838   7.486  -5.257  1.00  0.00    -0.507 OA
ATOM     20  H   UNL     1      24.752   7.053  -5.319  1.00  0.00     0.293 HD
ENDBRANCH  14  19
BRANCH  18  21
ATOM     21  O   UNL     1      19.799   5.999  -7.445  1.00  0.00    -0.508 OA
ATOM     22  H   UNL     1      19.266   5.865  -6.594  1.00  0.00     0.293 HD
ENDBRANCH  18  21
ENDBRANCH  11  13
ENDBRANCH   2  11
TORSDOF 6
ENDMDL
MODEL 6
REMARK VINA RESULT:    -3.827     21.593     22.841
REMARK INTER + INTRA:          -5.460
REMARK INTER:                  -4.843
REMARK INTRA:                  -0.617
REMARK UNBOUND:                -0.626
REMARK SMILES O=C(C=Cc1ccc(O)cc1)c1ccc(O)cc1O
REMARK SMILES IDX 4 1 3 2 5 3 6 4 7 5 8 6 11 7 10 8 9 9 2 11 1 12 12 13 18 14
REMARK SMILES IDX 13 15 17 16 14 17 15 18 19 19 16 21
REMARK H PARENT 9 10 19 20 16 22
REMARK Flexibility Score: inf
ROOT
ATOM      1  C   UNL     1      23.337   9.224  -7.084  1.00  0.00     0.012 C 
ATOM      2  C   UNL     1      23.812   8.399  -6.140  1.00  0.00     0.053 C 
ENDROOT
BRANCH   1   3
ATOM      3  C   UNL     1      24.015  10.477  -7.498  1.00  0.00    -0.025 A 
ATOM      4  C   UNL     1      25.173  10.960  -6.855  1.00  0.00     0.012 A 
ATOM      5  C   UNL     1      25.783  12.140  -7.291  1.00  0.00     0.047 A 
ATOM      6  C   UNL     1      25.257  12.848  -8.375  1.00  0.00     0.115 A 
ATOM      7  C   UNL     1      23.505  11.187  -8.598  1.00  0.00     0.012 A 
ATOM      8  C   UNL     1      24.117  12.367  -9.030  1.00  0.00     0.047 A 
BRANCH   6   9
ATOM      9  O   UNL     1      25.877  14.023  -8.796  1.00  0.00    -0.508 OA
ATOM     10  H   UNL     1      26.792  14.290  -8.453  1.00  0.00     0.293 HD
ENDBRANCH   6   9
ENDBRANCH   1   3
BRANCH   2  11
ATOM     11  C   UNL     1      23.100   7.165  -5.741  1.00  0.00     0.189 C 
ATOM     12  O   UNL     1      21.842   7.171  -5.639  1.00  0.00    -0.289 OA
BRANCH  11  13
ATOM     13  C   UNL     1      23.843   5.928  -5.408  1.00  0.00     0.064 A 
ATOM     14  C   UNL     1      23.442   4.662  -5.891  1.00  0.00     0.130 A 
ATOM     15  C   UNL     1      24.965   6.012  -4.563  1.00  0.00     0.020 A 
ATOM     16  C   UNL     1      24.186   3.521  -5.560  1.00  0.00     0.093 A 
ATOM     17  C   UNL     1      25.695   4.867  -4.234  1.00  0.00     0.047 A 
ATOM     18  C   UNL     1      25.310   3.620  -4.736  1.00  0.00     0.119 A 
BRANCH  14  19
ATOM     19  O   UNL     1      22.296   4.534  -6.675  1.00  0.00    -0.507 OA
ATOM     20  H   UNL     1      22.231   3.847  -7.416  1.00  0.00     0.293 HD
ENDBRANCH  14  19
BRANCH  18  21
ATOM     21  O   UNL     1      26.033   2.472  -4.418  1.00  0.00    -0.508 OA
ATOM     22  H   UNL     1      25.679   1.547  -4.633  1.00  0.00     0.293 HD
ENDBRANCH  18  21
ENDBRANCH  11  13
ENDBRANCH   2  11
TORSDOF 6
ENDMDL
MODEL 7
REMARK VINA RESULT:    -3.814     21.562     23.000
REMARK INTER + INTRA:          -5.443
REMARK INTER:                  -4.789
REMARK INTRA:                  -0.654
REMARK UNBOUND:                -0.626
REMARK SMILES O=C(C=Cc1ccc(O)cc1)c1ccc(O)cc1O
REMARK SMILES IDX 4 1 3 2 5 3 6 4 7 5 8 6 11 7 10 8 9 9 2 11 1 12 12 13 18 14
REMARK SMILES IDX 13 15 17 16 14 17 15 18 19 19 16 21
REMARK H PARENT 9 10 19 20 16 22
REMARK Flexibility Score: inf
ROOT
ATOM      1  C   UNL     1      22.558   7.919  -7.817  1.00  0.00     0.012 C 
ATOM      2  C   UNL     1      22.532   7.431  -6.569  1.00  0.00     0.053 C 
ENDROOT
BRANCH   1   3
ATOM      3  C   UNL     1      22.925   9.318  -8.146  1.00  0.00    -0.025 A 
ATOM      4  C   UNL     1      21.979  10.265  -8.589  1.00  0.00     0.012 A 
ATOM      5  C   UNL     1      22.372  11.577  -8.874  1.00  0.00     0.047 A 
ATOM      6  C   UNL     1      23.705  11.965  -8.712  1.00  0.00     0.115 A 
ATOM      7  C   UNL     1      24.258   9.724  -7.969  1.00  0.00     0.012 A 
ATOM      8  C   UNL     1      24.647  11.035  -8.256  1.00  0.00     0.047 A 
BRANCH   6   9
ATOM      9  O   UNL     1      24.080  13.275  -9.000  1.00  0.00    -0.508 OA
ATOM     10  H   UNL     1      23.432  14.047  -8.895  1.00  0.00     0.293 HD
ENDBRANCH   6   9
ENDBRANCH   1   3
BRANCH   2  11
ATOM     11  C   UNL     1      22.145   6.033  -6.277  1.00  0.00     0.189 C 
ATOM     12  O   UNL     1      20.929   5.740  -6.111  1.00  0.00    -0.289 OA
BRANCH  11  13
ATOM     13  C   UNL     1      23.169   4.973  -6.125  1.00  0.00     0.064 A 
ATOM     14  C   UNL     1      23.255   3.884  -7.021  1.00  0.00     0.130 A 
ATOM     15  C   UNL     1      24.064   5.038  -5.041  1.00  0.00     0.020 A 
ATOM     16  C   UNL     1      24.250   2.911  -6.844  1.00  0.00     0.093 A 
ATOM     17  C   UNL     1      25.047   4.060  -4.871  1.00  0.00     0.047 A 
ATOM     18  C   UNL     1      25.145   2.997  -5.775  1.00  0.00     0.119 A 
BRANCH  14  19
ATOM     19  O   UNL     1      22.340   3.752  -8.065  1.00  0.00    -0.507 OA
ATOM     20  H   UNL     1      21.845   2.884  -8.234  1.00  0.00     0.293 HD
ENDBRANCH  14  19
BRANCH  18  21
ATOM     21  O   UNL     1      26.125   2.019  -5.618  1.00  0.00    -0.508 OA
ATOM     22  H   UNL     1      26.275   1.304  -6.319  1.00  0.00     0.293 HD
ENDBRANCH  18  21
ENDBRANCH  11  13
ENDBRANCH   2  11
TORSDOF 6
ENDMDL
MODEL 8
REMARK VINA RESULT:    -3.768     21.423     23.011
REMARK INTER + INTRA:          -5.385
REMARK INTER:                  -4.956
REMARK INTRA:                  -0.429
REMARK UNBOUND:                -0.626
REMARK SMILES O=C(C=Cc1ccc(O)cc1)c1ccc(O)cc1O
REMARK SMILES IDX 4 1 3 2 5 3 6 4 7 5 8 6 11 7 10 8 9 9 2 11 1 12 12 13 18 14
REMARK SMILES IDX 13 15 17 16 14 17 15 18 19 19 16 21
REMARK H PARENT 9 10 19 20 16 22
REMARK Flexibility Score: inf
ROOT
ATOM      1  C   UNL     1      24.442   7.466  -5.363  1.00  0.00     0.012 C 
ATOM      2  C   UNL     1      25.428   8.310  -5.698  1.00  0.00     0.053 C 
ENDROOT
BRANCH   1   3
ATOM      3  C   UNL     1      24.630   6.003  -5.202  1.00  0.00    -0.025 A 
ATOM      4  C   UNL     1      23.731   5.060  -5.737  1.00  0.00     0.012 A 
ATOM      5  C   UNL     1      23.959   3.690  -5.570  1.00  0.00     0.047 A 
ATOM      6  C   UNL     1      25.087   3.243  -4.877  1.00  0.00     0.115 A 
ATOM      7  C   UNL     1      25.771   5.542  -4.522  1.00  0.00     0.012 A 
ATOM      8  C   UNL     1      25.995   4.173  -4.356  1.00  0.00     0.047 A 
BRANCH   6   9
ATOM      9  O   UNL     1      25.300   1.875  -4.718  1.00  0.00    -0.508 OA
ATOM     10  H   UNL     1      24.538   1.243  -4.505  1.00  0.00     0.293 HD
ENDBRANCH   6   9
ENDBRANCH   1   3
BRANCH   2  11
ATOM     11  C   UNL     1      25.200   9.762  -5.866  1.00  0.00     0.189 C 
ATOM     12  O   UNL     1      25.922  10.587  -5.241  1.00  0.00    -0.289 OA
BRANCH  11  13
ATOM     13  C   UNL     1      24.102  10.269  -6.721  1.00  0.00     0.064 A 
ATOM     14  C   UNL     1      24.352  10.998  -7.905  1.00  0.00     0.130 A 
ATOM     15  C   UNL     1      22.770  10.041  -6.328  1.00  0.00     0.020 A 
ATOM     16  C   UNL     1      23.279  11.446  -8.689  1.00  0.00     0.093 A 
ATOM     17  C   UNL     1      21.709  10.497  -7.113  1.00  0.00     0.047 A 
ATOM     18  C   UNL     1      21.961  11.196  -8.298  1.00  0.00     0.119 A 
BRANCH  14  19
ATOM     19  O   UNL     1      25.658  11.301  -8.288  1.00  0.00    -0.507 OA
ATOM     20  H   UNL     1      26.243  10.627  -8.766  1.00  0.00     0.293 HD
ENDBRANCH  14  19
BRANCH  18  21
ATOM     21  O   UNL     1      20.910  11.652  -9.091  1.00  0.00    -0.508 OA
ATOM     22  H   UNL     1      20.267  12.361  -8.761  1.00  0.00     0.293 HD
ENDBRANCH  18  21
ENDBRANCH  11  13
ENDBRANCH   2  11
TORSDOF 6
ENDMDL
MODEL 9
REMARK VINA RESULT:    -3.658      3.869      7.368
REMARK INTER + INTRA:          -5.247
REMARK INTER:                  -4.625
REMARK INTRA:                  -0.622
REMARK UNBOUND:                -0.626
REMARK SMILES O=C(C=Cc1ccc(O)cc1)c1ccc(O)cc1O
REMARK SMILES IDX 4 1 3 2 5 3 6 4 7 5 8 6 11 7 10 8 9 9 2 11 1 12 12 13 18 14
REMARK SMILES IDX 13 15 17 16 14 17 15 18 19 19 16 21
REMARK H PARENT 9 10 19 20 16 22
REMARK Flexibility Score: inf
ROOT
ATOM      1  C   UNL     1       5.937  16.430   5.901  1.00  0.00     0.012 C 
ATOM      2  C   UNL     1       6.861  17.354   5.598  1.00  0.00     0.053 C 
ENDROOT
BRANCH   1   3
ATOM      3  C   UNL     1       6.265  15.067   6.386  1.00  0.00    -0.025 A 
ATOM      4  C   UNL     1       5.875  13.903   5.694  1.00  0.00     0.012 A 
ATOM      5  C   UNL     1       6.220  12.640   6.185  1.00  0.00     0.047 A 
ATOM      6  C   UNL     1       6.964  12.519   7.362  1.00  0.00     0.115 A 
ATOM      7  C   UNL     1       7.028  14.936   7.559  1.00  0.00     0.012 A 
ATOM      8  C   UNL     1       7.370  13.672   8.047  1.00  0.00     0.047 A 
BRANCH   6   9
ATOM      9  O   UNL     1       7.299  11.254   7.839  1.00  0.00    -0.508 OA
ATOM     10  H   UNL     1       7.785  11.132   8.719  1.00  0.00     0.293 HD
ENDBRANCH   6   9
ENDBRANCH   1   3
BRANCH   2  11
ATOM     11  C   UNL     1       6.497  18.699   5.101  1.00  0.00     0.189 C 
ATOM     12  O   UNL     1       6.038  19.561   5.901  1.00  0.00    -0.289 OA
BRANCH  11  13
ATOM     13  C   UNL     1       6.614  19.040   3.665  1.00  0.00     0.064 A 
ATOM     14  C   UNL     1       6.927  20.348   3.231  1.00  0.00     0.130 A 
ATOM     15  C   UNL     1       6.382  18.040   2.704  1.00  0.00     0.020 A 
ATOM     16  C   UNL     1       7.041  20.620   1.860  1.00  0.00     0.093 A 
ATOM     17  C   UNL     1       6.492  18.323   1.341  1.00  0.00     0.047 A 
ATOM     18  C   UNL     1       6.827  19.613   0.916  1.00  0.00     0.119 A 
BRANCH  14  19
ATOM     19  O   UNL     1       7.096  21.380   4.155  1.00  0.00    -0.507 OA
ATOM     20  H   UNL     1       6.451  22.158   4.208  1.00  0.00     0.293 HD
ENDBRANCH  14  19
BRANCH  18  21
ATOM     21  O   UNL     1       6.944  19.907  -0.441  1.00  0.00    -0.508 OA
ATOM     22  H   UNL     1       6.911  19.179  -1.145  1.00  0.00     0.293 HD
ENDBRANCH  18  21
ENDBRANCH  11  13
ENDBRANCH   2  11
TORSDOF 6
ENDMDL
