MODEL 1
REMARK VINA RESULT:    -4.500      0.000      0.000
REMARK INTER + INTRA:          -4.752
REMARK INTER:                  -4.895
REMARK INTRA:                   0.143
REMARK UNBOUND:                 0.143
REMARK SMILES C[C@H]1[C@H]2C3=CC[C@H]4[C@@]5(C)CC[C@@H](O)C(C)(C)[C@H]5CC[C@@]4(C)[C@@]3(C)CC[C@@]2(C(=O)[O-])CC[C@@H]1C
REMARK SMILES IDX 26 1 30 2 25 3 3 4 31 5 24 6 4 7 2 8 32 9 22 10 5 11 1 12
REMARK SMILES IDX 33 13 23 14 20 15 6 16 7 17 19 18 21 19 8 20 18 21 17 22
REMARK SMILES IDX 10 23 9 24 14 25 11 26 12 27 15 28 16 29 27 30 28 31 29 32
REMARK SMILES IDX 13 33
REMARK H PARENT 13 34
REMARK Flexibility Score: inf
ROOT
ATOM      1  C   UNL     1     108.839 138.753  58.283  1.00  0.00     0.017 C 
ATOM      2  C   UNL     1     109.119 140.210  57.817  1.00  0.00     0.014 C 
ATOM      3  C   UNL     1     107.486 138.276  57.652  1.00  0.00     0.014 C 
ATOM      4  C   UNL     1     108.781 138.736  59.850  1.00  0.00     0.030 C 
ATOM      5  C   UNL     1     110.432 140.767  58.386  1.00  0.00     0.004 C 
ATOM      6  C   UNL     1     106.573 137.490  58.615  1.00  0.00     0.013 C 
ATOM      7  C   UNL     1     107.376 139.169  60.323  1.00  0.00    -0.063 C 
ATOM      8  C   UNL     1     110.059 139.383  60.498  1.00  0.00    -0.003 C 
ATOM      9  C   UNL     1     110.422 140.789  59.925  1.00  0.00    -0.011 C 
ATOM     10  C   UNL     1     106.220 138.225  59.975  1.00  0.00    -0.006 C 
ATOM     11  C   UNL     1     107.156 140.293  61.024  1.00  0.00    -0.027 C 
ATOM     12  C   UNL     1     110.041 139.327  62.041  1.00  0.00     0.008 C 
ATOM     13  C   UNL     1     111.791 141.269  60.435  1.00  0.00     0.008 C 
ATOM     14  C   UNL     1     106.219 137.135  61.100  1.00  0.00     0.017 C 
ATOM     15  C   UNL     1     104.787 138.977  59.919  1.00  0.00    -0.020 C 
ATOM     16  C   UNL     1     105.805 140.864  61.320  1.00  0.00     0.032 C 
ATOM     17  C   UNL     1     104.589 139.902  61.179  1.00  0.00     0.006 C 
ATOM     18  C   UNL     1     104.684 139.896  58.660  1.00  0.00     0.008 C 
ATOM     19  C   UNL     1     103.671 137.876  59.868  1.00  0.00     0.012 C 
ATOM     20  C   UNL     1     103.154 140.658  61.247  1.00  0.00    -0.025 C 
ATOM     21  C   UNL     1     103.728 141.115  58.753  1.00  0.00     0.005 C 
ATOM     22  C   UNL     1     102.579 140.984  59.788  1.00  0.00     0.003 C 
ATOM     23  C   UNL     1     103.267 141.961  62.124  1.00  0.00     0.010 C 
ATOM     24  C   UNL     1     102.158 139.711  62.003  1.00  0.00     0.012 C 
ATOM     25  C   UNL     1     101.481 142.144  59.694  1.00  0.00    -0.006 C 
ATOM     26  C   UNL     1     102.063 142.900  62.059  1.00  0.00     0.033 C 
ATOM     27  C   UNL     1     101.811 143.348  60.618  1.00  0.00     0.120 C 
ATOM     28  C   UNL     1     101.312 142.688  58.245  1.00  0.00     0.014 C 
ATOM     29  C   UNL     1     100.074 141.583  60.058  1.00  0.00     0.014 C 
ENDROOT
BRANCH   1  30
ATOM     30  C   UNL     1     109.937 137.833  57.753  1.00  0.00     0.048 C 
ATOM     31  O   UNL     1     109.970 136.607  58.054  1.00  0.00    -0.550 OA
ATOM     32  O   UNL     1     110.867 138.320  56.840  1.00  0.00    -0.550 OA
ENDBRANCH   1  30
BRANCH  27  33
ATOM     33  O   UNL     1     102.936 144.041  60.134  1.00  0.00    -0.393 OA
ATOM     34  H   UNL     1     102.672 144.991  60.023  1.00  0.00     0.210 HD
ENDBRANCH  27  33
TORSDOF 2
ENDMDL
MODEL 2
REMARK VINA RESULT:    -4.454      2.918      7.927
REMARK INTER + INTRA:          -4.702
REMARK INTER:                  -5.170
REMARK INTRA:                   0.468
REMARK UNBOUND:                 0.143
REMARK SMILES C[C@H]1[C@H]2C3=CC[C@H]4[C@@]5(C)CC[C@@H](O)C(C)(C)[C@H]5CC[C@@]4(C)[C@@]3(C)CC[C@@]2(C(=O)[O-])CC[C@@H]1C
REMARK SMILES IDX 26 1 30 2 25 3 3 4 31 5 24 6 4 7 2 8 32 9 22 10 5 11 1 12
REMARK SMILES IDX 33 13 23 14 20 15 6 16 7 17 19 18 21 19 8 20 18 21 17 22
REMARK SMILES IDX 10 23 9 24 14 25 11 26 12 27 15 28 16 29 27 30 28 31 29 32
REMARK SMILES IDX 13 33
REMARK H PARENT 13 34
REMARK Flexibility Score: inf
ROOT
ATOM      1  C   UNL     1     107.133 137.741  59.065  1.00  0.00     0.017 C 
ATOM      2  C   UNL     1     107.713 137.881  60.501  1.00  0.00     0.014 C 
ATOM      3  C   UNL     1     108.272 137.240  58.111  1.00  0.00     0.014 C 
ATOM      4  C   UNL     1     106.578 139.137  58.616  1.00  0.00     0.030 C 
ATOM      5  C   UNL     1     106.666 138.367  61.512  1.00  0.00     0.004 C 
ATOM      6  C   UNL     1     108.312 137.943  56.738  1.00  0.00     0.013 C 
ATOM      7  C   UNL     1     107.734 140.007  58.076  1.00  0.00    -0.063 C 
ATOM      8  C   UNL     1     105.569 139.738  59.660  1.00  0.00    -0.003 C 
ATOM      9  C   UNL     1     106.099 139.745  61.128  1.00  0.00    -0.011 C 
ATOM     10  C   UNL     1     108.402 139.526  56.783  1.00  0.00    -0.006 C 
ATOM     11  C   UNL     1     108.135 141.142  58.674  1.00  0.00    -0.027 C 
ATOM     12  C   UNL     1     104.972 141.088  59.208  1.00  0.00     0.008 C 
ATOM     13  C   UNL     1     104.994 140.136  62.125  1.00  0.00     0.008 C 
ATOM     14  C   UNL     1     107.503 140.071  55.622  1.00  0.00     0.017 C 
ATOM     15  C   UNL     1     109.919 140.065  56.619  1.00  0.00    -0.020 C 
ATOM     16  C   UNL     1     109.374 141.901  58.319  1.00  0.00     0.032 C 
ATOM     17  C   UNL     1     110.004 141.608  56.926  1.00  0.00     0.006 C 
ATOM     18  C   UNL     1     110.881 139.349  57.622  1.00  0.00     0.008 C 
ATOM     19  C   UNL     1     110.374 139.774  55.146  1.00  0.00     0.012 C 
ATOM     20  C   UNL     1     111.478 142.259  56.732  1.00  0.00    -0.025 C 
ATOM     21  C   UNL     1     112.155 140.124  58.052  1.00  0.00     0.005 C 
ATOM     22  C   UNL     1     112.644 141.209  57.056  1.00  0.00     0.003 C 
ATOM     23  C   UNL     1     111.618 143.560  57.608  1.00  0.00     0.010 C 
ATOM     24  C   UNL     1     111.595 142.727  55.239  1.00  0.00     0.012 C 
ATOM     25  C   UNL     1     114.080 141.820  57.410  1.00  0.00    -0.006 C 
ATOM     26  C   UNL     1     113.033 144.125  57.720  1.00  0.00     0.033 C 
ATOM     27  C   UNL     1     113.981 143.080  58.313  1.00  0.00     0.120 C 
ATOM     28  C   UNL     1     115.004 140.792  58.126  1.00  0.00     0.014 C 
ATOM     29  C   UNL     1     114.848 142.179  56.103  1.00  0.00     0.014 C 
ENDROOT
BRANCH   1  30
ATOM     30  C   UNL     1     106.038 136.676  59.063  1.00  0.00     0.048 C 
ATOM     31  O   UNL     1     106.288 135.476  58.760  1.00  0.00    -0.550 OA
ATOM     32  O   UNL     1     104.757 137.000  59.501  1.00  0.00    -0.550 OA
ENDBRANCH   1  30
BRANCH  27  33
ATOM     33  O   UNL     1     113.546 142.723  59.602  1.00  0.00    -0.393 OA
ATOM     34  H   UNL     1     113.959 143.362  60.241  1.00  0.00     0.210 HD
ENDBRANCH  27  33
TORSDOF 2
ENDMDL
MODEL 3
REMARK VINA RESULT:    -4.294      3.303      5.864
REMARK INTER + INTRA:          -4.527
REMARK INTER:                  -4.518
REMARK INTRA:                  -0.009
REMARK UNBOUND:                 0.143
REMARK SMILES C[C@H]1[C@H]2C3=CC[C@H]4[C@@]5(C)CC[C@@H](O)C(C)(C)[C@H]5CC[C@@]4(C)[C@@]3(C)CC[C@@]2(C(=O)[O-])CC[C@@H]1C
REMARK SMILES IDX 26 1 30 2 25 3 3 4 31 5 24 6 4 7 2 8 32 9 22 10 5 11 1 12
REMARK SMILES IDX 33 13 23 14 20 15 6 16 7 17 19 18 21 19 8 20 18 21 17 22
REMARK SMILES IDX 10 23 9 24 14 25 11 26 12 27 15 28 16 29 27 30 28 31 29 32
REMARK SMILES IDX 13 33
REMARK H PARENT 13 34
REMARK Flexibility Score: inf
ROOT
ATOM      1  C   UNL     1     109.674 140.556  54.303  1.00  0.00     0.017 C 
ATOM      2  C   UNL     1     108.262 140.391  53.674  1.00  0.00     0.014 C 
ATOM      3  C   UNL     1     110.120 139.178  54.902  1.00  0.00     0.014 C 
ATOM      4  C   UNL     1     109.598 141.666  55.407  1.00  0.00     0.030 C 
ATOM      5  C   UNL     1     107.738 141.694  53.055  1.00  0.00     0.004 C 
ATOM      6  C   UNL     1     110.804 139.271  56.282  1.00  0.00     0.013 C 
ATOM      7  C   UNL     1     109.071 141.055  56.724  1.00  0.00    -0.063 C 
ATOM      8  C   UNL     1     108.978 143.004  54.862  1.00  0.00    -0.003 C 
ATOM      9  C   UNL     1     107.628 142.817  54.102  1.00  0.00    -0.011 C 
ATOM     10  C   UNL     1     109.976 140.023  57.406  1.00  0.00    -0.006 C 
ATOM     11  C   UNL     1     107.898 141.410  57.276  1.00  0.00    -0.027 C 
ATOM     12  C   UNL     1     108.945 144.125  55.923  1.00  0.00     0.008 C 
ATOM     13  C   UNL     1     107.186 144.117  53.409  1.00  0.00     0.008 C 
ATOM     14  C   UNL     1     110.997 140.857  58.250  1.00  0.00     0.017 C 
ATOM     15  C   UNL     1     109.159 139.003  58.361  1.00  0.00    -0.020 C 
ATOM     16  C   UNL     1     107.247 140.705  58.422  1.00  0.00     0.032 C 
ATOM     17  C   UNL     1     108.154 139.784  59.289  1.00  0.00     0.006 C 
ATOM     18  C   UNL     1     108.310 138.000  57.516  1.00  0.00     0.008 C 
ATOM     19  C   UNL     1     110.205 138.216  59.226  1.00  0.00     0.012 C 
ATOM     20  C   UNL     1     107.326 138.853  60.329  1.00  0.00    -0.025 C 
ATOM     21  C   UNL     1     107.042 137.408  58.187  1.00  0.00     0.005 C 
ATOM     22  C   UNL     1     107.057 137.388  59.739  1.00  0.00     0.003 C 
ATOM     23  C   UNL     1     105.982 139.561  60.743  1.00  0.00     0.010 C 
ATOM     24  C   UNL     1     108.178 138.739  61.642  1.00  0.00     0.012 C 
ATOM     25  C   UNL     1     105.852 136.563  60.393  1.00  0.00    -0.006 C 
ATOM     26  C   UNL     1     104.991 138.688  61.510  1.00  0.00     0.033 C 
ATOM     27  C   UNL     1     104.614 137.455  60.686  1.00  0.00     0.120 C 
ATOM     28  C   UNL     1     105.384 135.380  59.495  1.00  0.00     0.014 C 
ATOM     29  C   UNL     1     106.322 135.880  61.712  1.00  0.00     0.014 C 
ENDROOT
BRANCH   1  30
ATOM     30  C   UNL     1     110.676 140.921  53.209  1.00  0.00     0.048 C 
ATOM     31  O   UNL     1     110.635 140.376  52.071  1.00  0.00    -0.550 OA
ATOM     32  O   UNL     1     111.593 141.946  53.425  1.00  0.00    -0.550 OA
ENDBRANCH   1  30
BRANCH  27  33
ATOM     33  O   UNL     1     104.007 137.857  59.482  1.00  0.00    -0.393 OA
ATOM     34  H   UNL     1     104.734 138.098  58.851  1.00  0.00     0.210 HD
ENDBRANCH  27  33
TORSDOF 2
ENDMDL
MODEL 4
REMARK VINA RESULT:    -4.120      2.483      7.627
REMARK INTER + INTRA:          -4.338
REMARK INTER:                  -4.766
REMARK INTRA:                   0.427
REMARK UNBOUND:                 0.143
REMARK SMILES C[C@H]1[C@H]2C3=CC[C@H]4[C@@]5(C)CC[C@@H](O)C(C)(C)[C@H]5CC[C@@]4(C)[C@@]3(C)CC[C@@]2(C(=O)[O-])CC[C@@H]1C
REMARK SMILES IDX 26 1 30 2 25 3 3 4 31 5 24 6 4 7 2 8 32 9 22 10 5 11 1 12
REMARK SMILES IDX 33 13 23 14 20 15 6 16 7 17 19 18 21 19 8 20 18 21 17 22
REMARK SMILES IDX 10 23 9 24 14 25 11 26 12 27 15 28 16 29 27 30 28 31 29 32
REMARK SMILES IDX 13 33
REMARK H PARENT 13 34
REMARK Flexibility Score: inf
ROOT
ATOM      1  C   UNL     1     106.050 138.179  60.008  1.00  0.00     0.017 C 
ATOM      2  C   UNL     1     106.045 138.746  61.455  1.00  0.00     0.014 C 
ATOM      3  C   UNL     1     107.424 137.468  59.753  1.00  0.00     0.014 C 
ATOM      4  C   UNL     1     105.821 139.365  59.009  1.00  0.00     0.030 C 
ATOM      5  C   UNL     1     104.731 139.461  61.801  1.00  0.00     0.004 C 
ATOM      6  C   UNL     1     108.042 137.749  58.367  1.00  0.00     0.013 C 
ATOM      7  C   UNL     1     107.161 140.087  58.743  1.00  0.00    -0.063 C 
ATOM      8  C   UNL     1     104.539 140.202  59.366  1.00  0.00    -0.003 C 
ATOM      9  C   UNL     1     104.465 140.649  60.859  1.00  0.00    -0.011 C 
ATOM     10  C   UNL     1     108.232 139.281  58.001  1.00  0.00    -0.006 C 
ATOM     11  C   UNL     1     107.390 141.359  59.109  1.00  0.00    -0.027 C 
ATOM     12  C   UNL     1     104.270 141.343  58.361  1.00  0.00     0.008 C 
ATOM     13  C   UNL     1     103.098 141.268  61.195  1.00  0.00     0.008 C 
ATOM     14  C   UNL     1     107.894 139.436  56.481  1.00  0.00     0.017 C 
ATOM     15  C   UNL     1     109.735 139.806  58.299  1.00  0.00    -0.020 C 
ATOM     16  C   UNL     1     108.726 142.031  59.068  1.00  0.00     0.032 C 
ATOM     17  C   UNL     1     109.817 141.375  58.172  1.00  0.00     0.006 C 
ATOM     18  C   UNL     1     110.179 139.445  59.752  1.00  0.00     0.008 C 
ATOM     19  C   UNL     1     110.694 139.122  57.264  1.00  0.00     0.012 C 
ATOM     20  C   UNL     1     111.299 141.997  58.395  1.00  0.00    -0.025 C 
ATOM     21  C   UNL     1     111.247 140.357  60.411  1.00  0.00     0.005 C 
ATOM     22  C   UNL     1     112.165 141.129  59.425  1.00  0.00     0.003 C 
ATOM     23  C   UNL     1     111.194 143.499  58.857  1.00  0.00     0.010 C 
ATOM     24  C   UNL     1     112.015 142.021  56.999  1.00  0.00     0.012 C 
ATOM     25  C   UNL     1     113.399 141.869  60.126  1.00  0.00    -0.006 C 
ATOM     26  C   UNL     1     112.498 144.125  59.349  1.00  0.00     0.033 C 
ATOM     27  C   UNL     1     113.061 143.330  60.530  1.00  0.00     0.120 C 
ATOM     28  C   UNL     1     113.894 141.125  61.400  1.00  0.00     0.014 C 
ATOM     29  C   UNL     1     114.635 141.867  59.177  1.00  0.00     0.014 C 
ENDROOT
BRANCH   1  30
ATOM     30  C   UNL     1     104.959 137.117  59.876  1.00  0.00     0.048 C 
ATOM     31  O   UNL     1     103.754 137.435  59.675  1.00  0.00    -0.550 OA
ATOM     32  O   UNL     1     105.303 135.768  59.874  1.00  0.00    -0.550 OA
ENDBRANCH   1  30
BRANCH  27  33
ATOM     33  O   UNL     1     112.138 143.341  61.592  1.00  0.00    -0.393 OA
ATOM     34  H   UNL     1     112.659 143.404  62.434  1.00  0.00     0.210 HD
ENDBRANCH  27  33
TORSDOF 2
ENDMDL
MODEL 5
REMARK VINA RESULT:    -4.040      1.754      3.113
REMARK INTER + INTRA:          -4.251
REMARK INTER:                  -4.161
REMARK INTRA:                  -0.091
REMARK UNBOUND:                 0.143
REMARK SMILES C[C@H]1[C@H]2C3=CC[C@H]4[C@@]5(C)CC[C@@H](O)C(C)(C)[C@H]5CC[C@@]4(C)[C@@]3(C)CC[C@@]2(C(=O)[O-])CC[C@@H]1C
REMARK SMILES IDX 26 1 30 2 25 3 3 4 31 5 24 6 4 7 2 8 32 9 22 10 5 11 1 12
REMARK SMILES IDX 33 13 23 14 20 15 6 16 7 17 19 18 21 19 8 20 18 21 17 22
REMARK SMILES IDX 10 23 9 24 14 25 11 26 12 27 15 28 16 29 27 30 28 31 29 32
REMARK SMILES IDX 13 33
REMARK H PARENT 13 34
REMARK Flexibility Score: inf
ROOT
ATOM      1  C   UNL     1     111.303 141.303  58.092  1.00  0.00     0.017 C 
ATOM      2  C   UNL     1     110.905 142.796  58.262  1.00  0.00     0.014 C 
ATOM      3  C   UNL     1     110.270 140.614  57.135  1.00  0.00     0.014 C 
ATOM      4  C   UNL     1     111.315 140.629  59.507  1.00  0.00     0.030 C 
ATOM      5  C   UNL     1     111.866 143.558  59.186  1.00  0.00     0.004 C 
ATOM      6  C   UNL     1     109.823 139.206  57.582  1.00  0.00     0.013 C 
ATOM      7  C   UNL     1     109.880 140.213  59.898  1.00  0.00    -0.063 C 
ATOM      8  C   UNL     1     112.208 141.418  60.533  1.00  0.00    -0.003 C 
ATOM      9  C   UNL     1     111.904 142.947  60.598  1.00  0.00    -0.011 C 
ATOM     10  C   UNL     1     109.237 139.109  59.052  1.00  0.00    -0.006 C 
ATOM     11  C   UNL     1     109.219 140.756  60.934  1.00  0.00    -0.027 C 
ATOM     12  C   UNL     1     112.273 140.738  61.918  1.00  0.00     0.008 C 
ATOM     13  C   UNL     1     112.946 143.694  61.447  1.00  0.00     0.008 C 
ATOM     14  C   UNL     1     109.749 137.762  59.664  1.00  0.00     0.017 C 
ATOM     15  C   UNL     1     107.619 139.158  59.077  1.00  0.00    -0.020 C 
ATOM     16  C   UNL     1     107.766 140.547  61.223  1.00  0.00     0.032 C 
ATOM     17  C   UNL     1     107.084 139.321  60.550  1.00  0.00     0.006 C 
ATOM     18  C   UNL     1     107.081 140.378  58.262  1.00  0.00     0.008 C 
ATOM     19  C   UNL     1     107.090 137.822  58.447  1.00  0.00     0.012 C 
ATOM     20  C   UNL     1     105.467 139.322  60.690  1.00  0.00    -0.025 C 
ATOM     21  C   UNL     1     105.694 140.943  58.671  1.00  0.00     0.005 C 
ATOM     22  C   UNL     1     104.755 139.944  59.398  1.00  0.00     0.003 C 
ATOM     23  C   UNL     1     105.035 140.076  62.003  1.00  0.00     0.010 C 
ATOM     24  C   UNL     1     105.009 137.832  60.873  1.00  0.00     0.012 C 
ATOM     25  C   UNL     1     103.259 140.479  59.592  1.00  0.00    -0.006 C 
ATOM     26  C   UNL     1     103.541 140.374  62.125  1.00  0.00     0.033 C 
ATOM     27  C   UNL     1     103.067 141.223  60.943  1.00  0.00     0.120 C 
ATOM     28  C   UNL     1     102.818 141.443  58.452  1.00  0.00     0.014 C 
ATOM     29  C   UNL     1     102.250 139.296  59.505  1.00  0.00     0.014 C 
ENDROOT
BRANCH   1  30
ATOM     30  C   UNL     1     112.672 141.217  57.419  1.00  0.00     0.048 C 
ATOM     31  O   UNL     1     113.447 140.244  57.628  1.00  0.00    -0.550 OA
ATOM     32  O   UNL     1     113.040 142.173  56.476  1.00  0.00    -0.550 OA
ENDBRANCH   1  30
BRANCH  27  33
ATOM     33  O   UNL     1     103.762 142.446  60.929  1.00  0.00    -0.393 OA
ATOM     34  H   UNL     1     104.711 142.244  60.720  1.00  0.00     0.210 HD
ENDBRANCH  27  33
TORSDOF 2
ENDMDL
MODEL 6
REMARK VINA RESULT:    -4.011      2.870      7.362
REMARK INTER + INTRA:          -4.220
REMARK INTER:                  -4.683
REMARK INTRA:                   0.464
REMARK UNBOUND:                 0.143
REMARK SMILES C[C@H]1[C@H]2C3=CC[C@H]4[C@@]5(C)CC[C@@H](O)C(C)(C)[C@H]5CC[C@@]4(C)[C@@]3(C)CC[C@@]2(C(=O)[O-])CC[C@@H]1C
REMARK SMILES IDX 26 1 30 2 25 3 3 4 31 5 24 6 4 7 2 8 32 9 22 10 5 11 1 12
REMARK SMILES IDX 33 13 23 14 20 15 6 16 7 17 19 18 21 19 8 20 18 21 17 22
REMARK SMILES IDX 10 23 9 24 14 25 11 26 12 27 15 28 16 29 27 30 28 31 29 32
REMARK SMILES IDX 13 33
REMARK H PARENT 13 34
REMARK Flexibility Score: inf
ROOT
ATOM      1  C   UNL     1     104.301 139.965  60.289  1.00  0.00     0.017 C 
ATOM      2  C   UNL     1     103.358 139.735  59.074  1.00  0.00     0.014 C 
ATOM      3  C   UNL     1     104.892 141.414  60.198  1.00  0.00     0.014 C 
ATOM      4  C   UNL     1     105.430 138.879  60.253  1.00  0.00     0.030 C 
ATOM      5  C   UNL     1     102.726 138.337  59.078  1.00  0.00     0.004 C 
ATOM      6  C   UNL     1     106.394 141.515  60.535  1.00  0.00     0.013 C 
ATOM      7  C   UNL     1     106.550 139.325  59.286  1.00  0.00    -0.063 C 
ATOM      8  C   UNL     1     104.850 137.421  60.158  1.00  0.00    -0.003 C 
ATOM      9  C   UNL     1     103.793 137.229  59.026  1.00  0.00    -0.011 C 
ATOM     10  C   UNL     1     107.349 140.567  59.696  1.00  0.00    -0.006 C 
ATOM     11  C   UNL     1     106.844 138.663  58.154  1.00  0.00    -0.027 C 
ATOM     12  C   UNL     1     105.948 136.336  60.174  1.00  0.00     0.008 C 
ATOM     13  C   UNL     1     103.106 135.856  59.123  1.00  0.00     0.008 C 
ATOM     14  C   UNL     1     108.456 140.047  60.673  1.00  0.00     0.017 C 
ATOM     15  C   UNL     1     108.023 141.326  58.435  1.00  0.00    -0.020 C 
ATOM     16  C   UNL     1     107.762 139.165  57.087  1.00  0.00     0.032 C 
ATOM     17  C   UNL     1     108.749 140.301  57.484  1.00  0.00     0.006 C 
ATOM     18  C   UNL     1     106.942 142.056  57.575  1.00  0.00     0.008 C 
ATOM     19  C   UNL     1     109.048 142.371  58.999  1.00  0.00     0.012 C 
ATOM     20  C   UNL     1     109.510 140.972  56.217  1.00  0.00    -0.025 C 
ATOM     21  C   UNL     1     107.267 142.278  56.074  1.00  0.00     0.005 C 
ATOM     22  C   UNL     1     108.777 142.305  55.715  1.00  0.00     0.003 C 
ATOM     23  C   UNL     1     109.654 139.923  55.052  1.00  0.00     0.010 C 
ATOM     24  C   UNL     1     110.971 141.318  56.673  1.00  0.00     0.012 C 
ATOM     25  C   UNL     1     109.084 142.770  54.215  1.00  0.00    -0.006 C 
ATOM     26  C   UNL     1     110.117 140.493  53.712  1.00  0.00     0.033 C 
ATOM     27  C   UNL     1     109.147 141.573  53.226  1.00  0.00     0.120 C 
ATOM     28  C   UNL     1     108.026 143.776  53.676  1.00  0.00     0.014 C 
ATOM     29  C   UNL     1     110.426 143.558  54.161  1.00  0.00     0.014 C 
ENDROOT
BRANCH   1  30
ATOM     30  C   UNL     1     103.490 139.887  61.581  1.00  0.00     0.048 C 
ATOM     31  O   UNL     1     103.017 140.923  62.125  1.00  0.00    -0.550 OA
ATOM     32  O   UNL     1     103.173 138.645  62.125  1.00  0.00    -0.550 OA
ENDBRANCH   1  30
BRANCH  27  33
ATOM     33  O   UNL     1     107.867 141.016  53.050  1.00  0.00    -0.393 OA
ATOM     34  H   UNL     1     107.495 140.842  53.954  1.00  0.00     0.210 HD
ENDBRANCH  27  33
TORSDOF 2
ENDMDL
MODEL 7
REMARK VINA RESULT:    -3.963      2.521      4.605
REMARK INTER + INTRA:          -4.168
REMARK INTER:                  -4.186
REMARK INTRA:                   0.018
REMARK UNBOUND:                 0.143
REMARK SMILES C[C@H]1[C@H]2C3=CC[C@H]4[C@@]5(C)CC[C@@H](O)C(C)(C)[C@H]5CC[C@@]4(C)[C@@]3(C)CC[C@@]2(C(=O)[O-])CC[C@@H]1C
REMARK SMILES IDX 26 1 30 2 25 3 3 4 31 5 24 6 4 7 2 8 32 9 22 10 5 11 1 12
REMARK SMILES IDX 33 13 23 14 20 15 6 16 7 17 19 18 21 19 8 20 18 21 17 22
REMARK SMILES IDX 10 23 9 24 14 25 11 26 12 27 15 28 16 29 27 30 28 31 29 32
REMARK SMILES IDX 13 33
REMARK H PARENT 13 34
REMARK Flexibility Score: inf
ROOT
ATOM      1  C   UNL     1     111.173 142.239  56.706  1.00  0.00     0.017 C 
ATOM      2  C   UNL     1     110.658 143.461  57.518  1.00  0.00     0.014 C 
ATOM      3  C   UNL     1     109.975 141.634  55.896  1.00  0.00     0.014 C 
ATOM      4  C   UNL     1     111.775 141.195  57.709  1.00  0.00     0.030 C 
ATOM      5  C   UNL     1     111.767 144.125  58.346  1.00  0.00     0.004 C 
ATOM      6  C   UNL     1     109.913 140.092  55.900  1.00  0.00     0.013 C 
ATOM      7  C   UNL     1     110.640 140.334  58.307  1.00  0.00    -0.063 C 
ATOM      8  C   UNL     1     112.853 141.836  58.657  1.00  0.00    -0.003 C 
ATOM      9  C   UNL     1     112.383 143.147  59.362  1.00  0.00    -0.011 C 
ATOM     10  C   UNL     1     109.900 139.412  57.333  1.00  0.00    -0.006 C 
ATOM     11  C   UNL     1     110.318 140.355  59.611  1.00  0.00    -0.027 C 
ATOM     12  C   UNL     1     113.494 140.809  59.617  1.00  0.00     0.008 C 
ATOM     13  C   UNL     1     113.544 143.840  60.096  1.00  0.00     0.008 C 
ATOM     14  C   UNL     1     110.775 138.118  57.236  1.00  0.00     0.017 C 
ATOM     15  C   UNL     1     108.403 139.043  57.829  1.00  0.00    -0.020 C 
ATOM     16  C   UNL     1     109.103 139.711  60.200  1.00  0.00     0.032 C 
ATOM     17  C   UNL     1     108.404 138.614  59.345  1.00  0.00     0.006 C 
ATOM     18  C   UNL     1     107.451 140.275  57.706  1.00  0.00     0.008 C 
ATOM     19  C   UNL     1     107.877 137.871  56.928  1.00  0.00     0.012 C 
ATOM     20  C   UNL     1     106.955 138.166  59.924  1.00  0.00    -0.025 C 
ATOM     21  C   UNL     1     106.233 140.323  58.666  1.00  0.00     0.005 C 
ATOM     22  C   UNL     1     105.755 138.949  59.208  1.00  0.00     0.003 C 
ATOM     23  C   UNL     1     106.912 138.355  61.487  1.00  0.00     0.010 C 
ATOM     24  C   UNL     1     106.801 136.626  59.668  1.00  0.00     0.012 C 
ATOM     25  C   UNL     1     104.365 139.006  59.998  1.00  0.00    -0.006 C 
ATOM     26  C   UNL     1     105.531 138.217  62.125  1.00  0.00     0.033 C 
ATOM     27  C   UNL     1     104.560 139.235  61.523  1.00  0.00     0.120 C 
ATOM     28  C   UNL     1     103.423 140.125  59.465  1.00  0.00     0.014 C 
ATOM     29  C   UNL     1     103.563 137.690  59.770  1.00  0.00     0.014 C 
ENDROOT
BRANCH   1  30
ATOM     30  C   UNL     1     112.216 142.707  55.693  1.00  0.00     0.048 C 
ATOM     31  O   UNL     1     113.390 142.242  55.695  1.00  0.00    -0.550 OA
ATOM     32  O   UNL     1     111.849 143.587  54.679  1.00  0.00    -0.550 OA
ENDBRANCH   1  30
BRANCH  27  33
ATOM     33  O   UNL     1     105.029 140.539  61.764  1.00  0.00    -0.393 OA
ATOM     34  H   UNL     1     104.282 141.050  62.173  1.00  0.00     0.210 HD
ENDBRANCH  27  33
TORSDOF 2
ENDMDL
MODEL 8
REMARK VINA RESULT:    -3.912      2.401      4.146
REMARK INTER + INTRA:          -4.112
REMARK INTER:                  -4.096
REMARK INTRA:                  -0.016
REMARK UNBOUND:                 0.143
REMARK SMILES C[C@H]1[C@H]2C3=CC[C@H]4[C@@]5(C)CC[C@@H](O)C(C)(C)[C@H]5CC[C@@]4(C)[C@@]3(C)CC[C@@]2(C(=O)[O-])CC[C@@H]1C
REMARK SMILES IDX 26 1 30 2 25 3 3 4 31 5 24 6 4 7 2 8 32 9 22 10 5 11 1 12
REMARK SMILES IDX 33 13 23 14 20 15 6 16 7 17 19 18 21 19 8 20 18 21 17 22
REMARK SMILES IDX 10 23 9 24 14 25 11 26 12 27 15 28 16 29 27 30 28 31 29 32
REMARK SMILES IDX 13 33
REMARK H PARENT 13 34
REMARK Flexibility Score: inf
ROOT
ATOM      1  C   UNL     1     110.167 139.814  57.312  1.00  0.00     0.017 C 
ATOM      2  C   UNL     1     109.296 139.094  56.245  1.00  0.00     0.014 C 
ATOM      3  C   UNL     1     109.630 139.436  58.736  1.00  0.00     0.014 C 
ATOM      4  C   UNL     1     110.086 141.359  57.058  1.00  0.00     0.030 C 
ATOM      5  C   UNL     1     109.749 139.403  54.811  1.00  0.00     0.004 C 
ATOM      6  C   UNL     1     109.562 140.616  59.728  1.00  0.00     0.013 C 
ATOM      7  C   UNL     1     108.804 141.927  57.706  1.00  0.00    -0.063 C 
ATOM      8  C   UNL     1     110.446 141.737  55.575  1.00  0.00    -0.003 C 
ATOM      9  C   UNL     1     109.673 140.909  54.502  1.00  0.00    -0.011 C 
ATOM     10  C   UNL     1     108.734 141.876  59.236  1.00  0.00    -0.006 C 
ATOM     11  C   UNL     1     107.801 142.464  56.991  1.00  0.00    -0.027 C 
ATOM     12  C   UNL     1     110.422 143.260  55.322  1.00  0.00     0.008 C 
ATOM     13  C   UNL     1     110.223 141.166  53.088  1.00  0.00     0.008 C 
ATOM     14  C   UNL     1     109.498 143.150  59.731  1.00  0.00     0.017 C 
ATOM     15  C   UNL     1     107.216 141.878  59.798  1.00  0.00    -0.020 C 
ATOM     16  C   UNL     1     106.459 142.828  57.544  1.00  0.00     0.032 C 
ATOM     17  C   UNL     1     106.355 142.990  59.088  1.00  0.00     0.006 C 
ATOM     18  C   UNL     1     106.512 140.512  59.518  1.00  0.00     0.008 C 
ATOM     19  C   UNL     1     107.279 142.137  61.344  1.00  0.00     0.012 C 
ATOM     20  C   UNL     1     104.828 143.113  59.625  1.00  0.00    -0.025 C 
ATOM     21  C   UNL     1     104.964 140.527  59.397  1.00  0.00     0.005 C 
ATOM     22  C   UNL     1     104.251 141.703  60.117  1.00  0.00     0.003 C 
ATOM     23  C   UNL     1     103.912 143.753  58.516  1.00  0.00     0.010 C 
ATOM     24  C   UNL     1     104.830 144.125  60.825  1.00  0.00     0.012 C 
ATOM     25  C   UNL     1     102.658 141.561  60.176  1.00  0.00    -0.006 C 
ATOM     26  C   UNL     1     102.410 143.689  58.791  1.00  0.00     0.033 C 
ATOM     27  C   UNL     1     101.959 142.237  58.963  1.00  0.00     0.120 C 
ATOM     28  C   UNL     1     102.193 140.077  60.226  1.00  0.00     0.014 C 
ATOM     29  C   UNL     1     102.112 142.179  61.498  1.00  0.00     0.014 C 
ENDROOT
BRANCH   1  30
ATOM     30  C   UNL     1     111.605 139.306  57.220  1.00  0.00     0.048 C 
ATOM     31  O   UNL     1     111.862 138.123  56.864  1.00  0.00    -0.550 OA
ATOM     32  O   UNL     1     112.664 140.185  57.431  1.00  0.00    -0.550 OA
ENDBRANCH   1  30
BRANCH  27  33
ATOM     33  O   UNL     1     102.223 141.516  57.785  1.00  0.00    -0.393 OA
ATOM     34  H   UNL     1     101.466 140.888  57.648  1.00  0.00     0.210 HD
ENDBRANCH  27  33
TORSDOF 2
ENDMDL
