MODEL 1
REMARK VINA RESULT:    -4.767      0.000      0.000
REMARK INTER + INTRA:          -5.533
REMARK INTER:                  -5.324
REMARK INTRA:                  -0.209
REMARK UNBOUND:                -0.209
REMARK SMILES CC(C)c1ccc(C(=O)[O-])cc1
REMARK SMILES IDX 7 1 6 2 11 3 5 4 12 5 4 6 8 7 9 8 10 9 2 10 1 11 3 12
REMARK H PARENT
REMARK Flexibility Score: inf
ROOT
ATOM      1  C   UNL     1      -4.910  36.016  19.958  1.00  0.00    -0.003 A 
ATOM      2  C   UNL     1      -4.125  37.090  19.506  1.00  0.00     0.010 A 
ATOM      3  C   UNL     1      -5.100  34.909  19.114  1.00  0.00     0.010 A 
ATOM      4  C   UNL     1      -3.541  37.057  18.236  1.00  0.00     0.004 A 
ATOM      5  C   UNL     1      -4.516  34.877  17.845  1.00  0.00     0.004 A 
ATOM      6  C   UNL     1      -3.730  35.951  17.391  1.00  0.00    -0.045 A 
ENDROOT
BRANCH   1   7
ATOM      7  C   UNL     1      -5.530  36.045  21.301  1.00  0.00     0.071 C 
ATOM      8  O   UNL     1      -5.786  34.973  21.912  1.00  0.00    -0.545 OA
ATOM      9  O   UNL     1      -5.838  37.257  21.908  1.00  0.00    -0.545 OA
ENDBRANCH   1   7
BRANCH   6  10
ATOM     10  C   UNL     1      -3.090  35.930  16.015  1.00  0.00     0.013 C 
ATOM     11  C   UNL     1      -1.560  35.959  16.116  1.00  0.00     0.012 C 
ATOM     12  C   UNL     1      -3.608  37.083  15.148  1.00  0.00     0.012 C 
ENDBRANCH   6  10
TORSDOF 2
ENDMDL
MODEL 2
REMARK VINA RESULT:    -4.747      0.068      1.399
REMARK INTER + INTRA:          -5.510
REMARK INTER:                  -5.304
REMARK INTRA:                  -0.206
REMARK UNBOUND:                -0.209
REMARK SMILES CC(C)c1ccc(C(=O)[O-])cc1
REMARK SMILES IDX 7 1 6 2 11 3 5 4 12 5 4 6 8 7 9 8 10 9 2 10 1 11 3 12
REMARK H PARENT
REMARK Flexibility Score: inf
ROOT
ATOM      1  C   UNL     1      -4.939  36.016  20.016  1.00  0.00    -0.003 A 
ATOM      2  C   UNL     1      -5.121  34.910  19.169  1.00  0.00     0.010 A 
ATOM      3  C   UNL     1      -4.166  37.098  19.564  1.00  0.00     0.010 A 
ATOM      4  C   UNL     1      -4.542  34.887  17.897  1.00  0.00     0.004 A 
ATOM      5  C   UNL     1      -3.587  37.075  18.293  1.00  0.00     0.004 A 
ATOM      6  C   UNL     1      -3.768  35.969  17.444  1.00  0.00    -0.045 A 
ENDROOT
BRANCH   1   7
ATOM      7  C   UNL     1      -5.551  36.045  21.363  1.00  0.00     0.071 C 
ATOM      8  O   UNL     1      -5.804  34.973  21.974  1.00  0.00    -0.545 OA
ATOM      9  O   UNL     1      -5.853  37.256  21.973  1.00  0.00    -0.545 OA
ENDBRANCH   1   7
BRANCH   6  10
ATOM     10  C   UNL     1      -3.145  35.930  16.061  1.00  0.00     0.013 C 
ATOM     11  C   UNL     1      -1.614  35.906  16.145  1.00  0.00     0.012 C 
ATOM     12  C   UNL     1      -3.632  37.104  15.203  1.00  0.00     0.012 C 
ENDBRANCH   6  10
TORSDOF 2
ENDMDL
MODEL 3
REMARK VINA RESULT:    -4.246      3.044      5.048
REMARK INTER + INTRA:          -4.951
REMARK INTER:                  -4.745
REMARK INTRA:                  -0.206
REMARK UNBOUND:                -0.209
REMARK SMILES CC(C)c1ccc(C(=O)[O-])cc1
REMARK SMILES IDX 7 1 6 2 11 3 5 4 12 5 4 6 8 7 9 8 10 9 2 10 1 11 3 12
REMARK H PARENT
REMARK Flexibility Score: inf
ROOT
ATOM      1  C   UNL     1      -3.532  36.109  17.410  1.00  0.00    -0.003 A 
ATOM      2  C   UNL     1      -3.477  37.184  18.313  1.00  0.00     0.010 A 
ATOM      3  C   UNL     1      -4.294  34.978  17.744  1.00  0.00     0.010 A 
ATOM      4  C   UNL     1      -4.170  37.128  19.526  1.00  0.00     0.004 A 
ATOM      5  C   UNL     1      -4.987  34.922  18.956  1.00  0.00     0.004 A 
ATOM      6  C   UNL     1      -4.933  35.997  19.861  1.00  0.00    -0.045 A 
ENDROOT
BRANCH   1   7
ATOM      7  C   UNL     1      -2.800  36.164  16.125  1.00  0.00     0.071 C 
ATOM      8  O   UNL     1      -1.612  35.753  16.047  1.00  0.00    -0.545 OA
ATOM      9  O   UNL     1      -3.414  36.669  14.985  1.00  0.00    -0.545 OA
ENDBRANCH   1   7
BRANCH   6  10
ATOM     10  C   UNL     1      -5.680  35.950  21.181  1.00  0.00     0.013 C 
ATOM     11  C   UNL     1      -5.764  37.342  21.819  1.00  0.00     0.012 C 
ATOM     12  C   UNL     1      -5.039  34.941  22.143  1.00  0.00     0.012 C 
ENDBRANCH   6  10
TORSDOF 2
ENDMDL
MODEL 4
REMARK VINA RESULT:    -3.173      1.645      2.718
REMARK INTER + INTRA:          -3.753
REMARK INTER:                  -3.546
REMARK INTRA:                  -0.207
REMARK UNBOUND:                -0.209
REMARK SMILES CC(C)c1ccc(C(=O)[O-])cc1
REMARK SMILES IDX 7 1 6 2 11 3 5 4 12 5 4 6 8 7 9 8 10 9 2 10 1 11 3 12
REMARK H PARENT
REMARK Flexibility Score: inf
ROOT
ATOM      1  C   UNL     1      -5.249  35.821  22.123  1.00  0.00    -0.003 A 
ATOM      2  C   UNL     1      -4.251  35.047  21.506  1.00  0.00     0.010 A 
ATOM      3  C   UNL     1      -5.723  36.969  21.466  1.00  0.00     0.010 A 
ATOM      4  C   UNL     1      -3.739  35.414  20.258  1.00  0.00     0.004 A 
ATOM      5  C   UNL     1      -5.210  37.335  20.219  1.00  0.00     0.004 A 
ATOM      6  C   UNL     1      -4.212  36.562  19.600  1.00  0.00    -0.045 A 
ENDROOT
BRANCH   1   7
ATOM      7  C   UNL     1      -5.795  35.437  23.444  1.00  0.00     0.071 C 
ATOM      8  O   UNL     1      -5.969  34.224  23.736  1.00  0.00    -0.545 OA
ATOM      9  O   UNL     1      -6.122  36.410  24.380  1.00  0.00    -0.545 OA
ENDBRANCH   1   7
BRANCH   6  10
ATOM     10  C   UNL     1      -3.646  36.948  18.246  1.00  0.00     0.013 C 
ATOM     11  C   UNL     1      -3.820  35.812  17.230  1.00  0.00     0.012 C 
ATOM     12  C   UNL     1      -2.175  37.365  18.361  1.00  0.00     0.012 C 
ENDBRANCH   6  10
TORSDOF 2
ENDMDL
MODEL 5
REMARK VINA RESULT:    -2.302      2.468      3.794
REMARK INTER + INTRA:          -2.779
REMARK INTER:                  -2.565
REMARK INTRA:                  -0.214
REMARK UNBOUND:                -0.209
REMARK SMILES CC(C)c1ccc(C(=O)[O-])cc1
REMARK SMILES IDX 7 1 6 2 11 3 5 4 12 5 4 6 8 7 9 8 10 9 2 10 1 11 3 12
REMARK H PARENT
REMARK Flexibility Score: inf
ROOT
ATOM      1  C   UNL     1      -5.687  35.798  23.530  1.00  0.00    -0.003 A 
ATOM      2  C   UNL     1      -5.811  37.027  22.860  1.00  0.00     0.010 A 
ATOM      3  C   UNL     1      -5.345  34.653  22.793  1.00  0.00     0.010 A 
ATOM      4  C   UNL     1      -5.597  37.108  21.481  1.00  0.00     0.004 A 
ATOM      5  C   UNL     1      -5.132  34.734  21.414  1.00  0.00     0.004 A 
ATOM      6  C   UNL     1      -5.256  35.963  20.742  1.00  0.00    -0.045 A 
ENDROOT
BRANCH   1   7
ATOM      7  C   UNL     1      -5.912  35.708  24.990  1.00  0.00     0.071 C 
ATOM      8  O   UNL     1      -6.093  34.589  25.541  1.00  0.00    -0.545 OA
ATOM      9  O   UNL     1      -5.925  36.855  25.773  1.00  0.00    -0.545 OA
ENDBRANCH   1   7
BRANCH   6  10
ATOM     10  C   UNL     1      -5.027  36.066  19.245  1.00  0.00     0.013 C 
ATOM     11  C   UNL     1      -4.914  34.676  18.607  1.00  0.00     0.012 C 
ATOM     12  C   UNL     1      -3.791  36.918  18.933  1.00  0.00     0.012 C 
ENDBRANCH   6  10
TORSDOF 2
ENDMDL
MODEL 6
REMARK VINA RESULT:    -2.157      2.090      3.270
REMARK INTER + INTRA:          -2.617
REMARK INTER:                  -2.403
REMARK INTRA:                  -0.214
REMARK UNBOUND:                -0.209
REMARK SMILES CC(C)c1ccc(C(=O)[O-])cc1
REMARK SMILES IDX 7 1 6 2 11 3 5 4 12 5 4 6 8 7 9 8 10 9 2 10 1 11 3 12
REMARK H PARENT
REMARK Flexibility Score: inf
ROOT
ATOM      1  C   UNL     1      -5.438  38.127  21.249  1.00  0.00    -0.003 A 
ATOM      2  C   UNL     1      -4.855  38.274  19.979  1.00  0.00     0.010 A 
ATOM      3  C   UNL     1      -5.771  36.840  21.701  1.00  0.00     0.010 A 
ATOM      4  C   UNL     1      -4.610  37.154  19.178  1.00  0.00     0.004 A 
ATOM      5  C   UNL     1      -5.526  35.722  20.900  1.00  0.00     0.004 A 
ATOM      6  C   UNL     1      -4.943  35.866  19.628  1.00  0.00    -0.045 A 
ENDROOT
BRANCH   1   7
ATOM      7  C   UNL     1      -5.699  39.309  22.101  1.00  0.00     0.071 C 
ATOM      8  O   UNL     1      -5.537  39.246  23.349  1.00  0.00    -0.545 OA
ATOM      9  O   UNL     1      -6.125  40.504  21.536  1.00  0.00    -0.545 OA
ENDBRANCH   1   7
BRANCH   6  10
ATOM     10  C   UNL     1      -4.672  34.660  18.748  1.00  0.00     0.013 C 
ATOM     11  C   UNL     1      -3.983  35.074  17.441  1.00  0.00     0.012 C 
ATOM     12  C   UNL     1      -5.962  33.880  18.468  1.00  0.00     0.012 C 
ENDBRANCH   6  10
TORSDOF 2
ENDMDL
