MODEL 1
REMARK VINA RESULT:    -4.840      0.000      0.000
REMARK INTER + INTRA:          -5.934
REMARK INTER:                  -5.689
REMARK INTRA:                  -0.245
REMARK UNBOUND:                -0.245
REMARK SMILES COc1cc2ccc(=O)oc2c(OC)c1OC
REMARK SMILES IDX 3 1 15 2 12 3 11 4 5 5 4 6 6 7 7 8 8 9 9 10 10 11 2 12 1 13
REMARK SMILES IDX 16 14 17 15 13 16 14 17
REMARK H PARENT
REMARK Flexibility Score: inf
ROOT
ATOM      1  C   UNL     1      22.561   6.215 -21.717  1.00  0.00     0.165 A 
ATOM      2  C   UNL     1      22.447   6.981 -20.546  1.00  0.00     0.207 A 
ATOM      3  C   UNL     1      21.214   7.615 -20.224  1.00  0.00     0.208 A 
ATOM      4  C   UNL     1      20.111   7.460 -21.102  1.00  0.00     0.184 A 
ATOM      5  C   UNL     1      20.246   6.685 -22.275  1.00  0.00     0.025 A 
ATOM      6  C   UNL     1      21.462   6.069 -22.575  1.00  0.00     0.062 A 
ATOM      7  C   UNL     1      19.143   6.547 -23.125  1.00  0.00     0.020 A 
ATOM      8  C   UNL     1      17.943   7.171 -22.800  1.00  0.00     0.094 A 
ATOM      9  C   UNL     1      17.874   7.922 -21.627  1.00  0.00     0.336 A 
ATOM     10  O   UNL     1      16.800   8.498 -21.310  1.00  0.00    -0.246 OA
ATOM     11  O   UNL     1      18.939   8.036 -20.838  1.00  0.00    -0.419 OA
ENDROOT
BRANCH   1  12
ATOM     12  O   UNL     1      23.798   5.608 -21.992  1.00  0.00    -0.493 OA
ATOM     13  C   UNL     1      24.060   4.774 -23.117  1.00  0.00     0.278 C 
ENDBRANCH   1  12
BRANCH   2  14
ATOM     14  O   UNL     1      23.604   7.070 -19.746  1.00  0.00    -0.490 OA
ATOM     15  C   UNL     1      23.909   6.297 -18.591  1.00  0.00     0.278 C 
ENDBRANCH   2  14
BRANCH   3  16
ATOM     16  O   UNL     1      21.137   8.376 -19.042  1.00  0.00    -0.490 OA
ATOM     17  C   UNL     1      21.533   9.732 -18.866  1.00  0.00     0.278 C 
ENDBRANCH   3  16
TORSDOF 3
ENDMDL
MODEL 2
REMARK VINA RESULT:    -4.726     21.425     22.290
REMARK INTER + INTRA:          -5.799
REMARK INTER:                  -5.586
REMARK INTRA:                  -0.213
REMARK UNBOUND:                -0.245
REMARK SMILES COc1cc2ccc(=O)oc2c(OC)c1OC
REMARK SMILES IDX 3 1 15 2 12 3 11 4 5 5 4 6 6 7 7 8 8 9 9 10 10 11 2 12 1 13
REMARK SMILES IDX 16 14 17 15 13 16 14 17
REMARK H PARENT
REMARK Flexibility Score: inf
ROOT
ATOM      1  C   UNL     1       8.507  -8.259 -10.500  1.00  0.00     0.165 A 
ATOM      2  C   UNL     1       9.570  -7.359 -10.681  1.00  0.00     0.207 A 
ATOM      3  C   UNL     1       9.933  -6.464  -9.636  1.00  0.00     0.208 A 
ATOM      4  C   UNL     1       9.206  -6.496  -8.418  1.00  0.00     0.184 A 
ATOM      5  C   UNL     1       8.140  -7.408  -8.257  1.00  0.00     0.025 A 
ATOM      6  C   UNL     1       7.797  -8.280  -9.291  1.00  0.00     0.062 A 
ATOM      7  C   UNL     1       7.438  -7.421  -7.047  1.00  0.00     0.020 A 
ATOM      8  C   UNL     1       7.801  -6.540  -6.032  1.00  0.00     0.094 A 
ATOM      9  C   UNL     1       8.864  -5.664  -6.254  1.00  0.00     0.336 A 
ATOM     10  O   UNL     1       9.213  -4.857  -5.353  1.00  0.00    -0.246 OA
ATOM     11  O   UNL     1       9.513  -5.675  -7.415  1.00  0.00    -0.419 OA
ENDROOT
BRANCH   1  12
ATOM     12  O   UNL     1       8.186  -9.124 -11.560  1.00  0.00    -0.493 OA
ATOM     13  C   UNL     1       7.111  -8.926 -12.473  1.00  0.00     0.278 C 
ENDBRANCH   1  12
BRANCH   2  14
ATOM     14  O   UNL     1      10.223  -7.412 -11.928  1.00  0.00    -0.490 OA
ATOM     15  C   UNL     1      11.310  -8.255 -12.293  1.00  0.00     0.278 C 
ENDBRANCH   2  14
BRANCH   3  16
ATOM     16  O   UNL     1      11.003  -5.576  -9.852  1.00  0.00    -0.490 OA
ATOM     17  C   UNL     1      12.393  -5.856  -9.716  1.00  0.00     0.278 C 
ENDBRANCH   3  16
TORSDOF 3
ENDMDL
MODEL 3
REMARK VINA RESULT:    -4.666      1.475      3.481
REMARK INTER + INTRA:          -5.729
REMARK INTER:                  -5.456
REMARK INTRA:                  -0.273
REMARK UNBOUND:                -0.245
REMARK SMILES COc1cc2ccc(=O)oc2c(OC)c1OC
REMARK SMILES IDX 3 1 15 2 12 3 11 4 5 5 4 6 6 7 7 8 8 9 9 10 10 11 2 12 1 13
REMARK SMILES IDX 16 14 17 15 13 16 14 17
REMARK H PARENT
REMARK Flexibility Score: inf
ROOT
ATOM      1  C   UNL     1      21.437   8.524 -19.059  1.00  0.00     0.165 A 
ATOM      2  C   UNL     1      21.981   7.645 -20.010  1.00  0.00     0.207 A 
ATOM      3  C   UNL     1      21.157   7.105 -21.036  1.00  0.00     0.208 A 
ATOM      4  C   UNL     1      19.786   7.468 -21.082  1.00  0.00     0.184 A 
ATOM      5  C   UNL     1      19.259   8.354 -20.117  1.00  0.00     0.025 A 
ATOM      6  C   UNL     1      20.080   8.876 -19.117  1.00  0.00     0.062 A 
ATOM      7  C   UNL     1      17.904   8.697 -20.183  1.00  0.00     0.020 A 
ATOM      8  C   UNL     1      17.108   8.163 -21.191  1.00  0.00     0.094 A 
ATOM      9  C   UNL     1      17.690   7.294 -22.115  1.00  0.00     0.336 A 
ATOM     10  O   UNL     1      16.992   6.796 -23.036  1.00  0.00    -0.246 OA
ATOM     11  O   UNL     1      18.980   6.985 -22.027  1.00  0.00    -0.419 OA
ENDROOT
BRANCH   1  12
ATOM     12  O   UNL     1      22.289   9.032 -18.065  1.00  0.00    -0.493 OA
ATOM     13  C   UNL     1      22.259   8.646 -16.694  1.00  0.00     0.278 C 
ENDBRANCH   1  12
BRANCH   2  14
ATOM     14  O   UNL     1      23.352   7.352 -19.871  1.00  0.00    -0.490 OA
ATOM     15  C   UNL     1      23.928   6.255 -19.172  1.00  0.00     0.278 C 
ENDBRANCH   2  14
BRANCH   3  16
ATOM     16  O   UNL     1      21.736   6.226 -21.972  1.00  0.00    -0.490 OA
ATOM     17  C   UNL     1      22.496   6.577 -23.123  1.00  0.00     0.278 C 
ENDBRANCH   3  16
TORSDOF 3
ENDMDL
MODEL 4
REMARK VINA RESULT:    -4.545      1.578      5.495
REMARK INTER + INTRA:          -5.587
REMARK INTER:                  -5.308
REMARK INTRA:                  -0.279
REMARK UNBOUND:                -0.245
REMARK SMILES COc1cc2ccc(=O)oc2c(OC)c1OC
REMARK SMILES IDX 3 1 15 2 12 3 11 4 5 5 4 6 6 7 7 8 8 9 9 10 10 11 2 12 1 13
REMARK SMILES IDX 16 14 17 15 13 16 14 17
REMARK H PARENT
REMARK Flexibility Score: inf
ROOT
ATOM      1  C   UNL     1      19.674   8.505 -19.377  1.00  0.00     0.165 A 
ATOM      2  C   UNL     1      18.992   8.231 -20.574  1.00  0.00     0.207 A 
ATOM      3  C   UNL     1      19.626   7.479 -21.602  1.00  0.00     0.208 A 
ATOM      4  C   UNL     1      20.950   7.013 -21.398  1.00  0.00     0.184 A 
ATOM      5  C   UNL     1      21.619   7.299 -20.187  1.00  0.00     0.025 A 
ATOM      6  C   UNL     1      20.983   8.037 -19.188  1.00  0.00     0.062 A 
ATOM      7  C   UNL     1      22.925   6.829 -20.009  1.00  0.00     0.020 A 
ATOM      8  C   UNL     1      23.535   6.094 -21.021  1.00  0.00     0.094 A 
ATOM      9  C   UNL     1      22.820   5.846 -22.193  1.00  0.00     0.336 A 
ATOM     10  O   UNL     1      23.349   5.185 -23.125  1.00  0.00    -0.246 OA
ATOM     11  O   UNL     1      21.580   6.306 -22.334  1.00  0.00    -0.419 OA
ENDROOT
BRANCH   1  12
ATOM     12  O   UNL     1      19.007   9.250 -18.391  1.00  0.00    -0.493 OA
ATOM     13  C   UNL     1      19.269  10.618 -18.093  1.00  0.00     0.278 C 
ENDBRANCH   1  12
BRANCH   2  14
ATOM     14  O   UNL     1      17.682   8.741 -20.672  1.00  0.00    -0.490 OA
ATOM     15  C   UNL     1      16.469   8.044 -20.411  1.00  0.00     0.278 C 
ENDBRANCH   2  14
BRANCH   3  16
ATOM     16  O   UNL     1      18.912   7.225 -22.788  1.00  0.00    -0.490 OA
ATOM     17  C   UNL     1      18.098   6.092 -23.075  1.00  0.00     0.278 C 
ENDBRANCH   3  16
TORSDOF 3
ENDMDL
MODEL 5
REMARK VINA RESULT:    -4.507      9.164     10.198
REMARK INTER + INTRA:          -5.542
REMARK INTER:                  -5.278
REMARK INTRA:                  -0.264
REMARK UNBOUND:                -0.245
REMARK SMILES COc1cc2ccc(=O)oc2c(OC)c1OC
REMARK SMILES IDX 3 1 15 2 12 3 11 4 5 5 4 6 6 7 7 8 8 9 9 10 10 11 2 12 1 13
REMARK SMILES IDX 16 14 17 15 13 16 14 17
REMARK H PARENT
REMARK Flexibility Score: inf
ROOT
ATOM      1  C   UNL     1      18.333  -1.306 -15.210  1.00  0.00     0.165 A 
ATOM      2  C   UNL     1      19.285  -0.275 -15.271  1.00  0.00     0.207 A 
ATOM      3  C   UNL     1      20.074  -0.101 -16.442  1.00  0.00     0.208 A 
ATOM      4  C   UNL     1      19.882  -0.979 -17.539  1.00  0.00     0.184 A 
ATOM      5  C   UNL     1      18.919  -2.009 -17.457  1.00  0.00     0.025 A 
ATOM      6  C   UNL     1      18.153  -2.167 -16.302  1.00  0.00     0.062 A 
ATOM      7  C   UNL     1      18.748  -2.864 -18.552  1.00  0.00     0.020 A 
ATOM      8  C   UNL     1      19.525  -2.684 -19.693  1.00  0.00     0.094 A 
ATOM      9  C   UNL     1      20.459  -1.647 -19.710  1.00  0.00     0.336 A 
ATOM     10  O   UNL     1      21.175  -1.463 -20.729  1.00  0.00    -0.246 OA
ATOM     11  O   UNL     1      20.599  -0.851 -18.654  1.00  0.00    -0.419 OA
ENDROOT
BRANCH   1  12
ATOM     12  O   UNL     1      17.577  -1.438 -14.033  1.00  0.00    -0.493 OA
ATOM     13  C   UNL     1      16.159  -1.571 -13.989  1.00  0.00     0.278 C 
ENDBRANCH   1  12
BRANCH   2  14
ATOM     14  O   UNL     1      19.393   0.539 -14.126  1.00  0.00    -0.490 OA
ATOM     15  C   UNL     1      20.320   0.395 -13.056  1.00  0.00     0.278 C 
ENDBRANCH   2  14
BRANCH   3  16
ATOM     16  O   UNL     1      21.019   0.942 -16.468  1.00  0.00    -0.490 OA
ATOM     17  C   UNL     1      22.382   0.877 -16.059  1.00  0.00     0.278 C 
ENDBRANCH   3  16
TORSDOF 3
ENDMDL
MODEL 6
REMARK VINA RESULT:    -4.497     20.924     21.986
REMARK INTER + INTRA:          -5.530
REMARK INTER:                  -5.320
REMARK INTRA:                  -0.210
REMARK UNBOUND:                -0.245
REMARK SMILES COc1cc2ccc(=O)oc2c(OC)c1OC
REMARK SMILES IDX 3 1 15 2 12 3 11 4 5 5 4 6 6 7 7 8 8 9 9 10 10 11 2 12 1 13
REMARK SMILES IDX 16 14 17 15 13 16 14 17
REMARK H PARENT
REMARK Flexibility Score: inf
ROOT
ATOM      1  C   UNL     1       8.950  -6.674  -7.784  1.00  0.00     0.165 A 
ATOM      2  C   UNL     1       8.681  -5.727  -8.786  1.00  0.00     0.207 A 
ATOM      3  C   UNL     1       9.265  -5.866 -10.076  1.00  0.00     0.208 A 
ATOM      4  C   UNL     1      10.118  -6.970 -10.330  1.00  0.00     0.184 A 
ATOM      5  C   UNL     1      10.376  -7.912  -9.310  1.00  0.00     0.025 A 
ATOM      6  C   UNL     1       9.795  -7.762  -8.050  1.00  0.00     0.062 A 
ATOM      7  C   UNL     1      11.221  -8.993  -9.585  1.00  0.00     0.020 A 
ATOM      8  C   UNL     1      11.786  -9.119 -10.850  1.00  0.00     0.094 A 
ATOM      9  C   UNL     1      11.491  -8.155 -11.814  1.00  0.00     0.336 A 
ATOM     10  O   UNL     1      11.991  -8.244 -12.967  1.00  0.00    -0.246 OA
ATOM     11  O   UNL     1      10.685  -7.138 -11.524  1.00  0.00    -0.419 OA
ENDROOT
BRANCH   1  12
ATOM     12  O   UNL     1       8.350  -6.496  -6.527  1.00  0.00    -0.493 OA
ATOM     13  C   UNL     1       7.566  -7.477  -5.855  1.00  0.00     0.278 C 
ENDBRANCH   1  12
BRANCH   2  14
ATOM     14  O   UNL     1       7.821  -4.670  -8.426  1.00  0.00    -0.490 OA
ATOM     15  C   UNL     1       6.399  -4.683  -8.429  1.00  0.00     0.278 C 
ENDBRANCH   2  14
BRANCH   3  16
ATOM     16  O   UNL     1       8.974  -4.897 -11.055  1.00  0.00    -0.490 OA
ATOM     17  C   UNL     1       7.813  -4.829 -11.877  1.00  0.00     0.278 C 
ENDBRANCH   3  16
TORSDOF 3
ENDMDL
MODEL 7
REMARK VINA RESULT:    -4.487      7.675     10.405
REMARK INTER + INTRA:          -5.518
REMARK INTER:                  -5.223
REMARK INTRA:                  -0.295
REMARK UNBOUND:                -0.245
REMARK SMILES COc1cc2ccc(=O)oc2c(OC)c1OC
REMARK SMILES IDX 3 1 15 2 12 3 11 4 5 5 4 6 6 7 7 8 8 9 9 10 10 11 2 12 1 13
REMARK SMILES IDX 16 14 17 15 13 16 14 17
REMARK H PARENT
REMARK Flexibility Score: inf
ROOT
ATOM      1  C   UNL     1      11.468   3.588 -19.189  1.00  0.00     0.165 A 
ATOM      2  C   UNL     1      12.132   4.825 -19.145  1.00  0.00     0.207 A 
ATOM      3  C   UNL     1      13.211   5.024 -18.239  1.00  0.00     0.208 A 
ATOM      4  C   UNL     1      13.602   3.958 -17.389  1.00  0.00     0.184 A 
ATOM      5  C   UNL     1      12.922   2.722 -17.449  1.00  0.00     0.025 A 
ATOM      6  C   UNL     1      11.866   2.543 -18.343  1.00  0.00     0.062 A 
ATOM      7  C   UNL     1      13.326   1.686 -16.600  1.00  0.00     0.020 A 
ATOM      8  C   UNL     1      14.383   1.892 -15.719  1.00  0.00     0.094 A 
ATOM      9  C   UNL     1      15.014   3.136 -15.709  1.00  0.00     0.336 A 
ATOM     10  O   UNL     1      15.972   3.349 -14.920  1.00  0.00    -0.246 OA
ATOM     11  O   UNL     1      14.608   4.103 -16.527  1.00  0.00    -0.419 OA
ENDROOT
BRANCH   1  12
ATOM     12  O   UNL     1      10.409   3.438 -20.100  1.00  0.00    -0.493 OA
ATOM     13  C   UNL     1       9.046   3.239 -19.734  1.00  0.00     0.278 C 
ENDBRANCH   1  12
BRANCH   2  14
ATOM     14  O   UNL     1      11.662   5.814 -20.032  1.00  0.00    -0.490 OA
ATOM     15  C   UNL     1      10.793   6.898 -19.726  1.00  0.00     0.278 C 
ENDBRANCH   2  14
BRANCH   3  16
ATOM     16  O   UNL     1      13.853   6.277 -18.222  1.00  0.00    -0.490 OA
ATOM     17  C   UNL     1      14.978   6.676 -18.997  1.00  0.00     0.278 C 
ENDBRANCH   3  16
TORSDOF 3
ENDMDL
MODEL 8
REMARK VINA RESULT:    -4.391      2.270      4.295
REMARK INTER + INTRA:          -5.406
REMARK INTER:                  -5.131
REMARK INTRA:                  -0.275
REMARK UNBOUND:                -0.245
REMARK SMILES COc1cc2ccc(=O)oc2c(OC)c1OC
REMARK SMILES IDX 3 1 15 2 12 3 11 4 5 5 4 6 6 7 7 8 8 9 9 10 10 11 2 12 1 13
REMARK SMILES IDX 16 14 17 15 13 16 14 17
REMARK H PARENT
REMARK Flexibility Score: inf
ROOT
ATOM      1  C   UNL     1      20.645   8.763 -20.307  1.00  0.00     0.165 A 
ATOM      2  C   UNL     1      20.100   8.241 -21.493  1.00  0.00     0.207 A 
ATOM      3  C   UNL     1      18.763   7.756 -21.511  1.00  0.00     0.208 A 
ATOM      4  C   UNL     1      17.994   7.810 -20.320  1.00  0.00     0.184 A 
ATOM      5  C   UNL     1      18.561   8.338 -19.139  1.00  0.00     0.025 A 
ATOM      6  C   UNL     1      19.874   8.810 -19.137  1.00  0.00     0.062 A 
ATOM      7  C   UNL     1      17.783   8.379 -17.976  1.00  0.00     0.020 A 
ATOM      8  C   UNL     1      16.476   7.903 -18.006  1.00  0.00     0.094 A 
ATOM      9  C   UNL     1      15.976   7.394 -19.205  1.00  0.00     0.336 A 
ATOM     10  O   UNL     1      14.797   6.955 -19.259  1.00  0.00    -0.246 OA
ATOM     11  O   UNL     1      16.738   7.367 -20.294  1.00  0.00    -0.419 OA
ENDROOT
BRANCH   1  12
ATOM     12  O   UNL     1      21.970   9.230 -20.338  1.00  0.00    -0.493 OA
ATOM     13  C   UNL     1      22.967   8.905 -19.374  1.00  0.00     0.278 C 
ENDBRANCH   1  12
BRANCH   2  14
ATOM     14  O   UNL     1      20.950   8.236 -22.616  1.00  0.00    -0.490 OA
ATOM     15  C   UNL     1      21.820   7.188 -23.029  1.00  0.00     0.278 C 
ENDBRANCH   2  14
BRANCH   3  16
ATOM     16  O   UNL     1      18.250   7.240 -22.717  1.00  0.00    -0.490 OA
ATOM     17  C   UNL     1      18.225   5.876 -23.125  1.00  0.00     0.278 C 
ENDBRANCH   3  16
TORSDOF 3
ENDMDL
MODEL 9
REMARK VINA RESULT:    -4.327      1.733      5.846
REMARK INTER + INTRA:          -5.331
REMARK INTER:                  -5.070
REMARK INTRA:                  -0.261
REMARK UNBOUND:                -0.245
REMARK SMILES COc1cc2ccc(=O)oc2c(OC)c1OC
REMARK SMILES IDX 3 1 15 2 12 3 11 4 5 5 4 6 6 7 7 8 8 9 9 10 10 11 2 12 1 13
REMARK SMILES IDX 16 14 17 15 13 16 14 17
REMARK H PARENT
REMARK Flexibility Score: inf
ROOT
ATOM      1  C   UNL     1      18.116   8.524 -20.352  1.00  0.00     0.165 A 
ATOM      2  C   UNL     1      18.710   8.041 -21.530  1.00  0.00     0.207 A 
ATOM      3  C   UNL     1      20.091   7.698 -21.545  1.00  0.00     0.208 A 
ATOM      4  C   UNL     1      20.851   7.852 -20.358  1.00  0.00     0.184 A 
ATOM      5  C   UNL     1      20.236   8.340 -19.184  1.00  0.00     0.025 A 
ATOM      6  C   UNL     1      18.880   8.671 -19.185  1.00  0.00     0.062 A 
ATOM      7  C   UNL     1      21.007   8.483 -18.025  1.00  0.00     0.020 A 
ATOM      8  C   UNL     1      22.357   8.145 -18.051  1.00  0.00     0.094 A 
ATOM      9  C   UNL     1      22.905   7.668 -19.243  1.00  0.00     0.336 A 
ATOM     10  O   UNL     1      24.123   7.356 -19.294  1.00  0.00    -0.246 OA
ATOM     11  O   UNL     1      22.147   7.543 -20.329  1.00  0.00    -0.419 OA
ENDROOT
BRANCH   1  12
ATOM     12  O   UNL     1      16.750   8.849 -20.385  1.00  0.00    -0.493 OA
ATOM     13  C   UNL     1      15.981   9.241 -19.252  1.00  0.00     0.278 C 
ENDBRANCH   1  12
BRANCH   2  14
ATOM     14  O   UNL     1      17.863   7.927 -22.650  1.00  0.00    -0.490 OA
ATOM     15  C   UNL     1      17.222   6.749 -23.124  1.00  0.00     0.278 C 
ENDBRANCH   2  14
BRANCH   3  16
ATOM     16  O   UNL     1      20.652   7.217 -22.743  1.00  0.00    -0.490 OA
ATOM     17  C   UNL     1      20.841   5.856 -23.117  1.00  0.00     0.278 C 
ENDBRANCH   3  16
TORSDOF 3
ENDMDL
