MODEL 1
REMARK VINA RESULT:    -7.180      0.000      0.000
REMARK INTER + INTRA:         -12.921
REMARK INTER:                 -10.748
REMARK INTRA:                  -2.172
REMARK UNBOUND:                -2.172
REMARK SMILES C=C(CC[C@H](C(=O)[O-])[C@@H]1[C@@H](O)C[C@]2(C)C3=C(CC[C@]12C)[C@]1(C)CC[C@H](OC(C)=O)C(C)(C)[C@@H]1CC3)C(C)C
REMARK SMILES IDX 4 1 5 2 6 3 7 4 8 5 9 6 10 7 19 8 12 9 13 10 18 11 20 12
REMARK SMILES IDX 14 13 15 14 17 15 16 16 35 17 21 18 34 19 33 20 23 21 22 22
REMARK SMILES IDX 30 23 24 24 25 25 31 26 32 27 11 28 26 30 27 31 29 32 28 33
REMARK SMILES IDX 3 34 2 35 1 36 36 37 37 38 38 39
REMARK H PARENT 11 29
REMARK Flexibility Score: inf
ROOT
ATOM      1  C   UNL     1     -58.241 -77.270 214.733  1.00  0.00     0.014 C 
ENDROOT
BRANCH   1   2
ATOM      2  C   UNL     1     -56.923 -77.316 215.566  1.00  0.00     0.042 C 
BRANCH   2   3
ATOM      3  C   UNL     1     -55.756 -77.316 214.611  1.00  0.00     0.045 C 
ATOM      4  O   UNL     1     -55.312 -78.401 214.155  1.00  0.00    -0.550 OA
ATOM      5  O   UNL     1     -55.139 -76.121 214.266  1.00  0.00    -0.550 OA
ENDBRANCH   2   3
BRANCH   2   6
ATOM      6  C   UNL     1     -56.861 -78.541 216.548  1.00  0.00     0.033 C 
ATOM      7  C   UNL     1     -57.773 -79.699 216.098  1.00  0.00     0.119 C 
ATOM      8  C   UNL     1     -57.204 -78.299 218.067  1.00  0.00    -0.017 C 
ATOM      9  C   UNL     1     -58.168 -80.486 217.347  1.00  0.00     0.043 C 
ATOM     10  C   UNL     1     -57.595 -79.750 218.588  1.00  0.00    -0.003 C 
ATOM     11  C   UNL     1     -58.377 -77.276 218.297  1.00  0.00     0.012 C 
ATOM     12  C   UNL     1     -55.972 -77.717 218.824  1.00  0.00     0.013 C 
ATOM     13  C   UNL     1     -56.334 -80.553 219.042  1.00  0.00     0.017 C 
ATOM     14  C   UNL     1     -58.694 -79.697 219.687  1.00  0.00    -0.064 C 
ATOM     15  C   UNL     1     -59.757 -77.922 218.346  1.00  0.00     0.032 C 
ATOM     16  C   UNL     1     -59.799 -78.916 219.498  1.00  0.00    -0.064 C 
ATOM     17  C   UNL     1     -58.609 -80.500 220.961  1.00  0.00     0.032 C 
ATOM     18  C   UNL     1     -60.977 -78.873 220.514  1.00  0.00    -0.008 C 
ATOM     19  C   UNL     1     -59.936 -81.193 221.210  1.00  0.00     0.009 C 
ATOM     20  C   UNL     1     -61.078 -80.173 221.443  1.00  0.00     0.009 C 
ATOM     21  C   UNL     1     -60.784 -77.590 221.360  1.00  0.00     0.015 C 
ATOM     22  C   UNL     1     -62.301 -78.755 219.702  1.00  0.00     0.016 C 
ATOM     23  C   UNL     1     -61.406 -79.908 222.977  1.00  0.00     0.005 C 
ATOM     24  C   UNL     1     -61.816 -77.393 222.480  1.00  0.00     0.047 C 
ATOM     25  C   UNL     1     -62.373 -78.693 223.096  1.00  0.00     0.182 C 
ATOM     26  C   UNL     1     -62.141 -81.148 223.563  1.00  0.00     0.015 C 
ATOM     27  C   UNL     1     -60.147 -79.674 223.857  1.00  0.00     0.015 C 
BRANCH   7  28
ATOM     28  O   UNL     1     -57.097 -80.543 215.201  1.00  0.00    -0.393 OA
ATOM     29  H   UNL     1     -56.371 -80.984 215.713  1.00  0.00     0.210 HD
ENDBRANCH   7  28
BRANCH  25  30
ATOM     30  O   UNL     1     -62.729 -78.461 224.464  1.00  0.00    -0.462 OA
BRANCH  30  31
ATOM     31  C   UNL     1     -64.040 -78.231 224.893  1.00  0.00     0.302 C 
ATOM     32  O   UNL     1     -64.904 -77.758 224.107  1.00  0.00    -0.253 OA
ATOM     33  C   UNL     1     -64.415 -78.530 226.302  1.00  0.00     0.139 C 
ENDBRANCH  30  31
ENDBRANCH  25  30
ENDBRANCH   2   6
ENDBRANCH   1   2
BRANCH   1  34
ATOM     34  C   UNL     1     -58.582 -75.848 214.261  1.00  0.00     0.031 C 
BRANCH  34  35
ATOM     35  C   UNL     1     -58.925 -74.957 215.434  1.00  0.00    -0.075 C 
ATOM     36  C   UNL     1     -60.099 -75.124 216.071  1.00  0.00     0.008 C 
BRANCH  35  37
ATOM     37  C   UNL     1     -57.959 -73.850 215.834  1.00  0.00     0.008 C 
ATOM     38  C   UNL     1     -57.477 -73.060 214.612  1.00  0.00     0.012 C 
ATOM     39  C   UNL     1     -58.581 -72.924 216.885  1.00  0.00     0.012 C 
ENDBRANCH  35  37
ENDBRANCH  34  35
ENDBRANCH   1  34
TORSDOF 9
ENDMDL
MODEL 2
REMARK VINA RESULT:    -6.318      2.169      3.350
REMARK INTER + INTRA:         -11.629
REMARK INTER:                  -9.932
REMARK INTRA:                  -1.697
REMARK UNBOUND:                -2.172
REMARK SMILES C=C(CC[C@H](C(=O)[O-])[C@@H]1[C@@H](O)C[C@]2(C)C3=C(CC[C@]12C)[C@]1(C)CC[C@H](OC(C)=O)C(C)(C)[C@@H]1CC3)C(C)C
REMARK SMILES IDX 4 1 5 2 6 3 7 4 8 5 9 6 10 7 19 8 12 9 13 10 18 11 20 12
REMARK SMILES IDX 14 13 15 14 17 15 16 16 35 17 21 18 34 19 33 20 23 21 22 22
REMARK SMILES IDX 30 23 24 24 25 25 31 26 32 27 11 28 26 30 27 31 29 32 28 33
REMARK SMILES IDX 3 34 2 35 1 36 36 37 37 38 38 39
REMARK H PARENT 11 29
REMARK Flexibility Score: inf
ROOT
ATOM      1  C   UNL     1     -57.565 -78.037 217.257  1.00  0.00     0.014 C 
ENDROOT
BRANCH   1   2
ATOM      2  C   UNL     1     -57.263 -78.975 218.466  1.00  0.00     0.042 C 
BRANCH   2   3
ATOM      3  C   UNL     1     -55.905 -79.597 218.259  1.00  0.00     0.045 C 
ATOM      4  O   UNL     1     -55.614 -80.129 217.158  1.00  0.00    -0.550 OA
ATOM      5  O   UNL     1     -54.986 -79.623 219.299  1.00  0.00    -0.550 OA
ENDBRANCH   2   3
BRANCH   2   6
ATOM      6  C   UNL     1     -58.368 -80.072 218.682  1.00  0.00     0.033 C 
ATOM      7  C   UNL     1     -59.421 -80.071 217.558  1.00  0.00     0.119 C 
ATOM      8  C   UNL     1     -59.188 -80.051 220.029  1.00  0.00    -0.017 C 
ATOM      9  C   UNL     1     -60.721 -80.622 218.144  1.00  0.00     0.043 C 
ATOM     10  C   UNL     1     -60.509 -80.857 219.663  1.00  0.00    -0.003 C 
ATOM     11  C   UNL     1     -59.528 -78.602 220.541  1.00  0.00     0.012 C 
ATOM     12  C   UNL     1     -58.382 -80.734 221.175  1.00  0.00     0.013 C 
ATOM     13  C   UNL     1     -60.310 -82.395 219.855  1.00  0.00     0.017 C 
ATOM     14  C   UNL     1     -61.750 -80.317 220.430  1.00  0.00    -0.064 C 
ATOM     15  C   UNL     1     -60.852 -78.059 220.018  1.00  0.00     0.032 C 
ATOM     16  C   UNL     1     -61.980 -78.972 220.477  1.00  0.00    -0.064 C 
ATOM     17  C   UNL     1     -62.744 -81.226 221.111  1.00  0.00     0.032 C 
ATOM     18  C   UNL     1     -63.241 -78.362 221.154  1.00  0.00    -0.008 C 
ATOM     19  C   UNL     1     -64.152 -80.800 220.741  1.00  0.00     0.009 C 
ATOM     20  C   UNL     1     -64.474 -79.377 221.260  1.00  0.00     0.009 C 
ATOM     21  C   UNL     1     -62.797 -77.868 222.553  1.00  0.00     0.015 C 
ATOM     22  C   UNL     1     -63.694 -77.139 220.302  1.00  0.00     0.016 C 
ATOM     23  C   UNL     1     -65.278 -79.356 222.633  1.00  0.00     0.005 C 
ATOM     24  C   UNL     1     -63.922 -77.287 223.422  1.00  0.00     0.047 C 
ATOM     25  C   UNL     1     -65.318 -77.900 223.184  1.00  0.00     0.182 C 
ATOM     26  C   UNL     1     -66.747 -79.796 222.371  1.00  0.00     0.015 C 
ATOM     27  C   UNL     1     -64.706 -80.318 223.711  1.00  0.00     0.015 C 
BRANCH   7  28
ATOM     28  O   UNL     1     -59.004 -80.881 216.488  1.00  0.00    -0.393 OA
ATOM     29  H   UNL     1     -59.816 -81.325 216.130  1.00  0.00     0.210 HD
ENDBRANCH   7  28
BRANCH  25  30
ATOM     30  O   UNL     1     -66.080 -77.838 224.395  1.00  0.00    -0.462 OA
BRANCH  30  31
ATOM     31  C   UNL     1     -67.185 -76.999 224.572  1.00  0.00     0.302 C 
ATOM     32  O   UNL     1     -67.639 -76.761 225.723  1.00  0.00    -0.253 OA
ATOM     33  C   UNL     1     -67.845 -76.393 223.383  1.00  0.00     0.139 C 
ENDBRANCH  30  31
ENDBRANCH  25  30
ENDBRANCH   2   6
ENDBRANCH   1   2
BRANCH   1  34
ATOM     34  C   UNL     1     -57.161 -76.581 217.535  1.00  0.00     0.031 C 
BRANCH  34  35
ATOM     35  C   UNL     1     -58.267 -75.628 217.137  1.00  0.00    -0.075 C 
ATOM     36  C   UNL     1     -59.537 -75.907 217.485  1.00  0.00     0.008 C 
BRANCH  35  37
ATOM     37  C   UNL     1     -57.927 -74.401 216.303  1.00  0.00     0.008 C 
ATOM     38  C   UNL     1     -58.170 -74.655 214.811  1.00  0.00     0.012 C 
ATOM     39  C   UNL     1     -58.697 -73.168 216.790  1.00  0.00     0.012 C 
ENDBRANCH  35  37
ENDBRANCH  34  35
ENDBRANCH   1  34
TORSDOF 9
ENDMDL
MODEL 3
REMARK VINA RESULT:    -5.786      3.223      8.772
REMARK INTER + INTRA:         -10.833
REMARK INTER:                  -8.658
REMARK INTRA:                  -2.175
REMARK UNBOUND:                -2.172
REMARK SMILES C=C(CC[C@H](C(=O)[O-])[C@@H]1[C@@H](O)C[C@]2(C)C3=C(CC[C@]12C)[C@]1(C)CC[C@H](OC(C)=O)C(C)(C)[C@@H]1CC3)C(C)C
REMARK SMILES IDX 4 1 5 2 6 3 7 4 8 5 9 6 10 7 19 8 12 9 13 10 18 11 20 12
REMARK SMILES IDX 14 13 15 14 17 15 16 16 35 17 21 18 34 19 33 20 23 21 22 22
REMARK SMILES IDX 30 23 24 24 25 25 31 26 32 27 11 28 26 30 27 31 29 32 28 33
REMARK SMILES IDX 3 34 2 35 1 36 36 37 37 38 38 39
REMARK H PARENT 11 29
REMARK Flexibility Score: inf
ROOT
ATOM      1  C   UNL     1     -63.134 -77.577 223.764  1.00  0.00     0.014 C 
ENDROOT
BRANCH   1   2
ATOM      2  C   UNL     1     -63.359 -78.932 224.503  1.00  0.00     0.042 C 
BRANCH   2   3
ATOM      3  C   UNL     1     -63.953 -78.643 225.858  1.00  0.00     0.045 C 
ATOM      4  O   UNL     1     -64.849 -77.770 225.983  1.00  0.00    -0.550 OA
ATOM      5  O   UNL     1     -63.481 -79.309 226.981  1.00  0.00    -0.550 OA
ENDBRANCH   2   3
BRANCH   2   6
ATOM      6  C   UNL     1     -62.047 -79.789 224.624  1.00  0.00     0.033 C 
ATOM      7  C   UNL     1     -60.796 -78.916 224.843  1.00  0.00     0.119 C 
ATOM      8  C   UNL     1     -61.679 -80.764 223.441  1.00  0.00    -0.017 C 
ATOM      9  C   UNL     1     -59.595 -79.685 224.291  1.00  0.00     0.043 C 
ATOM     10  C   UNL     1     -60.116 -80.987 223.625  1.00  0.00    -0.003 C 
ATOM     11  C   UNL     1     -62.009 -80.183 222.016  1.00  0.00     0.012 C 
ATOM     12  C   UNL     1     -62.479 -82.097 223.558  1.00  0.00     0.013 C 
ATOM     13  C   UNL     1     -59.819 -82.151 224.624  1.00  0.00     0.017 C 
ATOM     14  C   UNL     1     -59.390 -81.173 222.261  1.00  0.00    -0.064 C 
ATOM     15  C   UNL     1     -60.863 -79.397 221.392  1.00  0.00     0.032 C 
ATOM     16  C   UNL     1     -59.658 -80.314 221.234  1.00  0.00    -0.064 C 
ATOM     17  C   UNL     1     -58.369 -82.257 222.025  1.00  0.00     0.032 C 
ATOM     18  C   UNL     1     -58.915 -80.386 219.868  1.00  0.00    -0.008 C 
ATOM     19  C   UNL     1     -57.147 -81.661 221.351  1.00  0.00     0.009 C 
ATOM     20  C   UNL     1     -57.486 -81.103 219.946  1.00  0.00     0.009 C 
ATOM     21  C   UNL     1     -59.862 -81.123 218.888  1.00  0.00     0.015 C 
ATOM     22  C   UNL     1     -58.697 -78.927 219.368  1.00  0.00     0.016 C 
ATOM     23  C   UNL     1     -57.141 -82.099 218.753  1.00  0.00     0.005 C 
ATOM     24  C   UNL     1     -59.283 -81.362 217.486  1.00  0.00     0.047 C 
ATOM     25  C   UNL     1     -57.753 -81.551 217.431  1.00  0.00     0.182 C 
ATOM     26  C   UNL     1     -55.597 -82.153 218.566  1.00  0.00     0.015 C 
ATOM     27  C   UNL     1     -57.616 -83.558 218.996  1.00  0.00     0.015 C 
BRANCH   7  28
ATOM     28  O   UNL     1     -60.604 -78.658 226.211  1.00  0.00    -0.393 OA
ATOM     29  H   UNL     1     -59.645 -78.824 226.404  1.00  0.00     0.210 HD
ENDBRANCH   7  28
BRANCH  25  30
ATOM     30  O   UNL     1     -57.415 -82.399 216.327  1.00  0.00    -0.462 OA
BRANCH  30  31
ATOM     31  C   UNL     1     -57.014 -81.918 215.076  1.00  0.00     0.302 C 
ATOM     32  O   UNL     1     -57.401 -82.475 214.015  1.00  0.00    -0.253 OA
ATOM     33  C   UNL     1     -56.101 -80.744 214.999  1.00  0.00     0.139 C 
ENDBRANCH  30  31
ENDBRANCH  25  30
ENDBRANCH   2   6
ENDBRANCH   1   2
BRANCH   1  34
ATOM     34  C   UNL     1     -64.147 -77.359 222.629  1.00  0.00     0.031 C 
BRANCH  34  35
ATOM     35  C   UNL     1     -63.670 -76.283 221.678  1.00  0.00    -0.075 C 
ATOM     36  C   UNL     1     -63.470 -75.034 222.140  1.00  0.00     0.008 C 
BRANCH  35  37
ATOM     37  C   UNL     1     -63.481 -76.622 220.207  1.00  0.00     0.008 C 
ATOM     38  C   UNL     1     -62.025 -76.423 219.770  1.00  0.00     0.012 C 
ATOM     39  C   UNL     1     -63.965 -78.044 219.899  1.00  0.00     0.012 C 
ENDBRANCH  35  37
ENDBRANCH  34  35
ENDBRANCH   1  34
TORSDOF 9
ENDMDL
MODEL 4
REMARK VINA RESULT:    -5.553      2.146      8.612
REMARK INTER + INTRA:         -10.484
REMARK INTER:                  -8.074
REMARK INTRA:                  -2.411
REMARK UNBOUND:                -2.172
REMARK SMILES C=C(CC[C@H](C(=O)[O-])[C@@H]1[C@@H](O)C[C@]2(C)C3=C(CC[C@]12C)[C@]1(C)CC[C@H](OC(C)=O)C(C)(C)[C@@H]1CC3)C(C)C
REMARK SMILES IDX 4 1 5 2 6 3 7 4 8 5 9 6 10 7 19 8 12 9 13 10 18 11 20 12
REMARK SMILES IDX 14 13 15 14 17 15 16 16 35 17 21 18 34 19 33 20 23 21 22 22
REMARK SMILES IDX 30 23 24 24 25 25 31 26 32 27 11 28 26 30 27 31 29 32 28 33
REMARK SMILES IDX 3 34 2 35 1 36 36 37 37 38 38 39
REMARK H PARENT 11 29
REMARK Flexibility Score: inf
ROOT
ATOM      1  C   UNL     1     -63.343 -79.426 222.917  1.00  0.00     0.014 C 
ENDROOT
BRANCH   1   2
ATOM      2  C   UNL     1     -62.857 -80.878 222.620  1.00  0.00     0.042 C 
BRANCH   2   3
ATOM      3  C   UNL     1     -63.474 -81.804 223.637  1.00  0.00     0.045 C 
ATOM      4  O   UNL     1     -62.790 -82.233 224.601  1.00  0.00    -0.550 OA
ATOM      5  O   UNL     1     -64.791 -82.222 223.489  1.00  0.00    -0.550 OA
ENDBRANCH   2   3
BRANCH   2   6
ATOM      6  C   UNL     1     -61.291 -81.009 222.603  1.00  0.00     0.033 C 
ATOM      7  C   UNL     1     -60.593 -79.776 223.209  1.00  0.00     0.119 C 
ATOM      8  C   UNL     1     -60.578 -81.259 221.219  1.00  0.00    -0.017 C 
ATOM      9  C   UNL     1     -59.208 -79.671 222.572  1.00  0.00     0.043 C 
ATOM     10  C   UNL     1     -59.088 -80.772 221.484  1.00  0.00    -0.003 C 
ATOM     11  C   UNL     1     -61.229 -80.477 220.019  1.00  0.00     0.012 C 
ATOM     12  C   UNL     1     -60.640 -82.769 220.832  1.00  0.00     0.013 C 
ATOM     13  C   UNL     1     -58.214 -81.912 222.096  1.00  0.00     0.017 C 
ATOM     14  C   UNL     1     -58.446 -80.146 220.212  1.00  0.00    -0.064 C 
ATOM     15  C   UNL     1     -60.635 -79.092 219.792  1.00  0.00     0.032 C 
ATOM     16  C   UNL     1     -59.151 -79.234 219.481  1.00  0.00    -0.064 C 
ATOM     17  C   UNL     1     -57.048 -80.486 219.756  1.00  0.00     0.032 C 
ATOM     18  C   UNL     1     -58.548 -78.506 218.244  1.00  0.00    -0.008 C 
ATOM     19  C   UNL     1     -56.300 -79.207 219.430  1.00  0.00     0.009 C 
ATOM     20  C   UNL     1     -56.948 -78.454 218.242  1.00  0.00     0.009 C 
ATOM     21  C   UNL     1     -59.089 -79.240 216.992  1.00  0.00     0.015 C 
ATOM     22  C   UNL     1     -59.079 -77.042 218.248  1.00  0.00     0.016 C 
ATOM     23  C   UNL     1     -56.245 -78.728 216.840  1.00  0.00     0.005 C 
ATOM     24  C   UNL     1     -58.553 -78.715 215.652  1.00  0.00     0.047 C 
ATOM     25  C   UNL     1     -57.123 -78.137 215.698  1.00  0.00     0.182 C 
ATOM     26  C   UNL     1     -54.875 -77.991 216.804  1.00  0.00     0.015 C 
ATOM     27  C   UNL     1     -55.955 -80.230 216.567  1.00  0.00     0.015 C 
BRANCH   7  28
ATOM     28  O   UNL     1     -60.464 -79.915 224.601  1.00  0.00    -0.393 OA
ATOM     29  H   UNL     1     -59.493 -79.956 224.798  1.00  0.00     0.210 HD
ENDBRANCH   7  28
BRANCH  25  30
ATOM     30  O   UNL     1     -56.491 -78.323 214.426  1.00  0.00    -0.462 OA
BRANCH  30  31
ATOM     31  C   UNL     1     -56.243 -77.280 213.527  1.00  0.00     0.302 C 
ATOM     32  O   UNL     1     -56.683 -76.120 213.745  1.00  0.00    -0.253 OA
ATOM     33  C   UNL     1     -55.465 -77.550 212.286  1.00  0.00     0.139 C 
ENDBRANCH  30  31
ENDBRANCH  25  30
ENDBRANCH   2   6
ENDBRANCH   1   2
BRANCH   1  34
ATOM     34  C   UNL     1     -64.236 -78.871 221.797  1.00  0.00     0.031 C 
BRANCH  34  35
ATOM     35  C   UNL     1     -63.654 -77.598 221.222  1.00  0.00    -0.075 C 
ATOM     36  C   UNL     1     -63.731 -77.375 219.897  1.00  0.00     0.008 C 
BRANCH  35  37
ATOM     37  C   UNL     1     -62.943 -76.621 222.148  1.00  0.00     0.008 C 
ATOM     38  C   UNL     1     -61.455 -76.504 221.800  1.00  0.00     0.012 C 
ATOM     39  C   UNL     1     -63.626 -75.249 222.137  1.00  0.00     0.012 C 
ENDBRANCH  35  37
ENDBRANCH  34  35
ENDBRANCH   1  34
TORSDOF 9
ENDMDL
MODEL 5
REMARK VINA RESULT:    -5.536      5.686     10.830
REMARK INTER + INTRA:         -10.459
REMARK INTER:                  -8.413
REMARK INTRA:                  -2.046
REMARK UNBOUND:                -2.172
REMARK SMILES C=C(CC[C@H](C(=O)[O-])[C@@H]1[C@@H](O)C[C@]2(C)C3=C(CC[C@]12C)[C@]1(C)CC[C@H](OC(C)=O)C(C)(C)[C@@H]1CC3)C(C)C
REMARK SMILES IDX 4 1 5 2 6 3 7 4 8 5 9 6 10 7 19 8 12 9 13 10 18 11 20 12
REMARK SMILES IDX 14 13 15 14 17 15 16 16 35 17 21 18 34 19 33 20 23 21 22 22
REMARK SMILES IDX 30 23 24 24 25 25 31 26 32 27 11 28 26 30 27 31 29 32 28 33
REMARK SMILES IDX 3 34 2 35 1 36 36 37 37 38 38 39
REMARK H PARENT 11 29
REMARK Flexibility Score: inf
ROOT
ATOM      1  C   UNL     1     -67.296 -79.720 225.787  1.00  0.00     0.014 C 
ENDROOT
BRANCH   1   2
ATOM      2  C   UNL     1     -66.697 -78.455 225.099  1.00  0.00     0.042 C 
BRANCH   2   3
ATOM      3  C   UNL     1     -67.776 -77.407 225.005  1.00  0.00     0.045 C 
ATOM      4  O   UNL     1     -67.643 -76.305 225.596  1.00  0.00    -0.550 OA
ATOM      5  O   UNL     1     -68.944 -77.672 224.301  1.00  0.00    -0.550 OA
ENDBRANCH   2   3
BRANCH   2   6
ATOM      6  C   UNL     1     -66.072 -78.761 223.689  1.00  0.00     0.033 C 
ATOM      7  C   UNL     1     -66.456 -80.161 223.171  1.00  0.00     0.119 C 
ATOM      8  C   UNL     1     -64.506 -78.667 223.529  1.00  0.00    -0.017 C 
ATOM      9  C   UNL     1     -65.347 -80.622 222.225  1.00  0.00     0.043 C 
ATOM     10  C   UNL     1     -64.217 -79.557 222.244  1.00  0.00    -0.003 C 
ATOM     11  C   UNL     1     -63.709 -79.193 224.780  1.00  0.00     0.012 C 
ATOM     12  C   UNL     1     -64.062 -77.186 223.328  1.00  0.00     0.013 C 
ATOM     13  C   UNL     1     -64.362 -78.726 220.930  1.00  0.00     0.017 C 
ATOM     14  C   UNL     1     -62.847 -80.288 222.340  1.00  0.00    -0.064 C 
ATOM     15  C   UNL     1     -63.375 -80.679 224.716  1.00  0.00     0.032 C 
ATOM     16  C   UNL     1     -62.511 -80.942 223.490  1.00  0.00    -0.064 C 
ATOM     17  C   UNL     1     -61.867 -80.331 221.193  1.00  0.00     0.032 C 
ATOM     18  C   UNL     1     -61.195 -81.761 223.633  1.00  0.00    -0.008 C 
ATOM     19  C   UNL     1     -61.376 -81.754 221.004  1.00  0.00     0.009 C 
ATOM     20  C   UNL     1     -60.585 -82.254 222.238  1.00  0.00     0.009 C 
ATOM     21  C   UNL     1     -60.194 -80.860 224.399  1.00  0.00     0.015 C 
ATOM     22  C   UNL     1     -61.510 -83.020 224.494  1.00  0.00     0.016 C 
ATOM     23  C   UNL     1     -59.005 -82.133 222.088  1.00  0.00     0.005 C 
ATOM     24  C   UNL     1     -58.794 -81.463 224.587  1.00  0.00     0.047 C 
ATOM     25  C   UNL     1     -58.333 -82.415 223.464  1.00  0.00     0.182 C 
ATOM     26  C   UNL     1     -58.503 -83.218 221.092  1.00  0.00     0.015 C 
ATOM     27  C   UNL     1     -58.530 -80.761 221.534  1.00  0.00     0.015 C 
BRANCH   7  28
ATOM     28  O   UNL     1     -67.678 -80.115 222.480  1.00  0.00    -0.393 OA
ATOM     29  H   UNL     1     -67.496 -80.416 221.552  1.00  0.00     0.210 HD
ENDBRANCH   7  28
BRANCH  25  30
ATOM     30  O   UNL     1     -56.906 -82.364 223.350  1.00  0.00    -0.462 OA
BRANCH  30  31
ATOM     31  C   UNL     1     -56.036 -82.978 224.256  1.00  0.00     0.302 C 
ATOM     32  O   UNL     1     -55.271 -82.290 224.984  1.00  0.00    -0.253 OA
ATOM     33  C   UNL     1     -55.998 -84.463 224.349  1.00  0.00     0.139 C 
ENDBRANCH  30  31
ENDBRANCH  25  30
ENDBRANCH   2   6
ENDBRANCH   1   2
BRANCH   1  34
ATOM     34  C   UNL     1     -66.469 -80.168 227.002  1.00  0.00     0.031 C 
BRANCH  34  35
ATOM     35  C   UNL     1     -66.471 -81.676 227.131  1.00  0.00    -0.075 C 
ATOM     36  C   UNL     1     -66.021 -82.427 226.109  1.00  0.00     0.008 C 
BRANCH  35  37
ATOM     37  C   UNL     1     -67.035 -82.313 228.393  1.00  0.00     0.008 C 
ATOM     38  C   UNL     1     -65.979 -83.160 229.111  1.00  0.00     0.012 C 
ATOM     39  C   UNL     1     -67.631 -81.256 229.329  1.00  0.00     0.012 C 
ENDBRANCH  35  37
ENDBRANCH  34  35
ENDBRANCH   1  34
TORSDOF 9
ENDMDL
MODEL 6
REMARK VINA RESULT:    -5.490      3.344      6.612
REMARK INTER + INTRA:         -10.390
REMARK INTER:                  -7.985
REMARK INTRA:                  -2.405
REMARK UNBOUND:                -2.172
REMARK SMILES C=C(CC[C@H](C(=O)[O-])[C@@H]1[C@@H](O)C[C@]2(C)C3=C(CC[C@]12C)[C@]1(C)CC[C@H](OC(C)=O)C(C)(C)[C@@H]1CC3)C(C)C
REMARK SMILES IDX 4 1 5 2 6 3 7 4 8 5 9 6 10 7 19 8 12 9 13 10 18 11 20 12
REMARK SMILES IDX 14 13 15 14 17 15 16 16 35 17 21 18 34 19 33 20 23 21 22 22
REMARK SMILES IDX 30 23 24 24 25 25 31 26 32 27 11 28 26 30 27 31 29 32 28 33
REMARK SMILES IDX 3 34 2 35 1 36 36 37 37 38 38 39
REMARK H PARENT 11 29
REMARK Flexibility Score: inf
ROOT
ATOM      1  C   UNL     1     -56.016 -82.702 221.392  1.00  0.00     0.014 C 
ENDROOT
BRANCH   1   2
ATOM      2  C   UNL     1     -56.864 -82.992 220.115  1.00  0.00     0.042 C 
BRANCH   2   3
ATOM      3  C   UNL     1     -56.000 -83.737 219.130  1.00  0.00     0.045 C 
ATOM      4  O   UNL     1     -55.077 -83.140 218.519  1.00  0.00    -0.550 OA
ATOM      5  O   UNL     1     -56.250 -85.076 218.858  1.00  0.00    -0.550 OA
ENDBRANCH   2   3
BRANCH   2   6
ATOM      6  C   UNL     1     -57.472 -81.691 219.475  1.00  0.00     0.033 C 
ATOM      7  C   UNL     1     -56.741 -80.415 219.936  1.00  0.00     0.119 C 
ATOM      8  C   UNL     1     -59.006 -81.400 219.692  1.00  0.00    -0.017 C 
ATOM      9  C   UNL     1     -57.735 -79.258 219.848  1.00  0.00     0.043 C 
ATOM     10  C   UNL     1     -59.118 -79.834 219.441  1.00  0.00    -0.003 C 
ATOM     11  C   UNL     1     -59.530 -81.788 221.124  1.00  0.00     0.012 C 
ATOM     12  C   UNL     1     -59.870 -82.218 218.683  1.00  0.00     0.013 C 
ATOM     13  C   UNL     1     -59.311 -79.510 217.925  1.00  0.00     0.017 C 
ATOM     14  C   UNL     1     -60.212 -79.179 220.334  1.00  0.00    -0.064 C 
ATOM     15  C   UNL     1     -59.428 -80.659 222.143  1.00  0.00     0.032 C 
ATOM     16  C   UNL     1     -60.264 -79.481 221.665  1.00  0.00    -0.064 C 
ATOM     17  C   UNL     1     -61.216 -78.191 219.795  1.00  0.00     0.032 C 
ATOM     18  C   UNL     1     -61.277 -78.806 222.636  1.00  0.00    -0.008 C 
ATOM     19  C   UNL     1     -61.292 -76.993 220.723  1.00  0.00     0.009 C 
ATOM     20  C   UNL     1     -61.817 -77.389 222.125  1.00  0.00     0.009 C 
ATOM     21  C   UNL     1     -62.437 -79.814 222.834  1.00  0.00     0.015 C 
ATOM     22  C   UNL     1     -60.554 -78.586 223.998  1.00  0.00     0.016 C 
ATOM     23  C   UNL     1     -63.372 -77.121 222.334  1.00  0.00     0.005 C 
ATOM     24  C   UNL     1     -63.589 -79.308 223.715  1.00  0.00     0.047 C 
ATOM     25  C   UNL     1     -63.836 -77.786 223.663  1.00  0.00     0.182 C 
ATOM     26  C   UNL     1     -63.611 -75.589 222.471  1.00  0.00     0.015 C 
ATOM     27  C   UNL     1     -64.258 -77.610 221.155  1.00  0.00     0.015 C 
BRANCH   7  28
ATOM     28  O   UNL     1     -55.635 -80.153 219.111  1.00  0.00    -0.393 OA
ATOM     29  H   UNL     1     -55.198 -79.336 219.466  1.00  0.00     0.210 HD
ENDBRANCH   7  28
BRANCH  25  30
ATOM     30  O   UNL     1     -65.222 -77.518 223.906  1.00  0.00    -0.462 OA
BRANCH  30  31
ATOM     31  C   UNL     1     -65.972 -78.160 224.897  1.00  0.00     0.302 C 
ATOM     32  O   UNL     1     -65.766 -77.923 226.118  1.00  0.00    -0.253 OA
ATOM     33  C   UNL     1     -67.014 -79.149 224.506  1.00  0.00     0.139 C 
ENDBRANCH  30  31
ENDBRANCH  25  30
ENDBRANCH   2   6
ENDBRANCH   1   2
BRANCH   1  34
ATOM     34  C   UNL     1     -56.047 -83.871 222.389  1.00  0.00     0.031 C 
BRANCH  34  35
ATOM     35  C   UNL     1     -57.210 -83.733 223.348  1.00  0.00    -0.075 C 
ATOM     36  C   UNL     1     -58.239 -84.597 223.268  1.00  0.00     0.008 C 
BRANCH  35  37
ATOM     37  C   UNL     1     -57.218 -82.584 224.346  1.00  0.00     0.008 C 
ATOM     38  C   UNL     1     -58.538 -82.527 225.122  1.00  0.00     0.012 C 
ATOM     39  C   UNL     1     -56.017 -82.668 225.297  1.00  0.00     0.012 C 
ENDBRANCH  35  37
ENDBRANCH  34  35
ENDBRANCH   1  34
TORSDOF 9
ENDMDL
MODEL 7
REMARK VINA RESULT:    -5.456      5.639      9.899
REMARK INTER + INTRA:         -10.339
REMARK INTER:                  -7.726
REMARK INTRA:                  -2.613
REMARK UNBOUND:                -2.172
REMARK SMILES C=C(CC[C@H](C(=O)[O-])[C@@H]1[C@@H](O)C[C@]2(C)C3=C(CC[C@]12C)[C@]1(C)CC[C@H](OC(C)=O)C(C)(C)[C@@H]1CC3)C(C)C
REMARK SMILES IDX 4 1 5 2 6 3 7 4 8 5 9 6 10 7 19 8 12 9 13 10 18 11 20 12
REMARK SMILES IDX 14 13 15 14 17 15 16 16 35 17 21 18 34 19 33 20 23 21 22 22
REMARK SMILES IDX 30 23 24 24 25 25 31 26 32 27 11 28 26 30 27 31 29 32 28 33
REMARK SMILES IDX 3 34 2 35 1 36 36 37 37 38 38 39
REMARK H PARENT 11 29
REMARK Flexibility Score: inf
ROOT
ATOM      1  C   UNL     1     -62.422 -79.103 223.571  1.00  0.00     0.014 C 
ENDROOT
BRANCH   1   2
ATOM      2  C   UNL     1     -63.830 -78.859 224.196  1.00  0.00     0.042 C 
BRANCH   2   3
ATOM      3  C   UNL     1     -63.666 -78.670 225.682  1.00  0.00     0.045 C 
ATOM      4  O   UNL     1     -64.319 -77.780 226.284  1.00  0.00    -0.550 OA
ATOM      5  O   UNL     1     -62.758 -79.451 226.386  1.00  0.00    -0.550 OA
ENDBRANCH   2   3
BRANCH   2   6
ATOM      6  C   UNL     1     -64.851 -80.010 223.874  1.00  0.00     0.033 C 
ATOM      7  C   UNL     1     -64.151 -81.357 223.609  1.00  0.00     0.119 C 
ATOM      8  C   UNL     1     -65.848 -79.809 222.669  1.00  0.00    -0.017 C 
ATOM      9  C   UNL     1     -65.060 -82.178 222.695  1.00  0.00     0.043 C 
ATOM     10  C   UNL     1     -66.274 -81.295 222.297  1.00  0.00    -0.003 C 
ATOM     11  C   UNL     1     -65.209 -79.073 221.434  1.00  0.00     0.012 C 
ATOM     12  C   UNL     1     -67.069 -78.941 223.103  1.00  0.00     0.013 C 
ATOM     13  C   UNL     1     -67.481 -81.777 223.164  1.00  0.00     0.017 C 
ATOM     14  C   UNL     1     -66.532 -81.462 220.772  1.00  0.00    -0.064 C 
ATOM     15  C   UNL     1     -64.568 -80.013 220.420  1.00  0.00     0.032 C 
ATOM     16  C   UNL     1     -65.631 -80.958 219.878  1.00  0.00    -0.064 C 
ATOM     17  C   UNL     1     -67.736 -82.188 220.226  1.00  0.00     0.032 C 
ATOM     18  C   UNL     1     -65.779 -81.155 218.341  1.00  0.00    -0.008 C 
ATOM     19  C   UNL     1     -67.293 -83.157 219.145  1.00  0.00     0.009 C 
ATOM     20  C   UNL     1     -66.676 -82.416 217.933  1.00  0.00     0.009 C 
ATOM     21  C   UNL     1     -66.373 -79.838 217.782  1.00  0.00     0.015 C 
ATOM     22  C   UNL     1     -64.354 -81.364 217.749  1.00  0.00     0.016 C 
ATOM     23  C   UNL     1     -67.690 -82.189 216.728  1.00  0.00     0.005 C 
ATOM     24  C   UNL     1     -66.664 -79.848 216.274  1.00  0.00     0.047 C 
ATOM     25  C   UNL     1     -67.048 -81.223 215.689  1.00  0.00     0.182 C 
ATOM     26  C   UNL     1     -67.941 -83.546 216.010  1.00  0.00     0.015 C 
ATOM     27  C   UNL     1     -69.079 -81.650 217.169  1.00  0.00     0.015 C 
BRANCH   7  28
ATOM     28  O   UNL     1     -63.940 -82.051 224.812  1.00  0.00    -0.393 OA
ATOM     29  H   UNL     1     -64.645 -81.753 225.443  1.00  0.00     0.210 HD
ENDBRANCH   7  28
BRANCH  25  30
ATOM     30  O   UNL     1     -67.917 -81.039 214.565  1.00  0.00    -0.462 OA
BRANCH  30  31
ATOM     31  C   UNL     1     -67.470 -80.995 213.241  1.00  0.00     0.302 C 
ATOM     32  O   UNL     1     -68.149 -80.422 212.347  1.00  0.00    -0.253 OA
ATOM     33  C   UNL     1     -66.183 -81.651 212.878  1.00  0.00     0.139 C 
ENDBRANCH  30  31
ENDBRANCH  25  30
ENDBRANCH   2   6
ENDBRANCH   1   2
BRANCH   1  34
ATOM     34  C   UNL     1     -61.721 -77.791 223.184  1.00  0.00     0.031 C 
BRANCH  34  35
ATOM     35  C   UNL     1     -61.789 -77.562 221.690  1.00  0.00    -0.075 C 
ATOM     36  C   UNL     1     -61.212 -78.448 220.858  1.00  0.00     0.008 C 
BRANCH  35  37
ATOM     37  C   UNL     1     -62.462 -76.303 221.161  1.00  0.00     0.008 C 
ATOM     38  C   UNL     1     -63.075 -76.536 219.776  1.00  0.00     0.012 C 
ATOM     39  C   UNL     1     -63.508 -75.776 222.151  1.00  0.00     0.012 C 
ENDBRANCH  35  37
ENDBRANCH  34  35
ENDBRANCH   1  34
TORSDOF 9
ENDMDL
MODEL 8
REMARK VINA RESULT:    -5.388      5.235      8.673
REMARK INTER + INTRA:         -10.237
REMARK INTER:                  -7.722
REMARK INTRA:                  -2.515
REMARK UNBOUND:                -2.172
REMARK SMILES C=C(CC[C@H](C(=O)[O-])[C@@H]1[C@@H](O)C[C@]2(C)C3=C(CC[C@]12C)[C@]1(C)CC[C@H](OC(C)=O)C(C)(C)[C@@H]1CC3)C(C)C
REMARK SMILES IDX 4 1 5 2 6 3 7 4 8 5 9 6 10 7 19 8 12 9 13 10 18 11 20 12
REMARK SMILES IDX 14 13 15 14 17 15 16 16 35 17 21 18 34 19 33 20 23 21 22 22
REMARK SMILES IDX 30 23 24 24 25 25 31 26 32 27 11 28 26 30 27 31 29 32 28 33
REMARK SMILES IDX 3 34 2 35 1 36 36 37 37 38 38 39
REMARK H PARENT 11 29
REMARK Flexibility Score: inf
ROOT
ATOM      1  C   UNL     1     -61.412 -79.461 220.946  1.00  0.00     0.014 C 
ENDROOT
BRANCH   1   2
ATOM      2  C   UNL     1     -62.096 -80.765 220.434  1.00  0.00     0.042 C 
BRANCH   2   3
ATOM      3  C   UNL     1     -61.519 -81.107 219.084  1.00  0.00     0.045 C 
ATOM      4  O   UNL     1     -60.406 -81.686 218.999  1.00  0.00    -0.550 OA
ATOM      5  O   UNL     1     -62.195 -80.743 217.926  1.00  0.00    -0.550 OA
ENDBRANCH   2   3
BRANCH   2   6
ATOM      6  C   UNL     1     -63.663 -80.653 220.376  1.00  0.00     0.033 C 
ATOM      7  C   UNL     1     -64.148 -79.192 220.435  1.00  0.00     0.119 C 
ATOM      8  C   UNL     1     -64.508 -81.423 221.462  1.00  0.00    -0.017 C 
ATOM      9  C   UNL     1     -65.554 -79.197 221.035  1.00  0.00     0.043 C 
ATOM     10  C   UNL     1     -65.898 -80.652 221.456  1.00  0.00    -0.003 C 
ATOM     11  C   UNL     1     -63.856 -81.413 222.895  1.00  0.00     0.012 C 
ATOM     12  C   UNL     1     -64.668 -82.924 221.073  1.00  0.00     0.013 C 
ATOM     13  C   UNL     1     -66.860 -81.218 220.364  1.00  0.00     0.017 C 
ATOM     14  C   UNL     1     -66.551 -80.620 222.867  1.00  0.00    -0.064 C 
ATOM     15  C   UNL     1     -64.285 -80.233 223.758  1.00  0.00     0.032 C 
ATOM     16  C   UNL     1     -65.794 -80.282 223.952  1.00  0.00    -0.064 C 
ATOM     17  C   UNL     1     -68.012 -80.922 223.094  1.00  0.00     0.032 C 
ATOM     18  C   UNL     1     -66.395 -80.150 225.383  1.00  0.00    -0.008 C 
ATOM     19  C   UNL     1     -68.614 -79.858 223.992  1.00  0.00     0.009 C 
ATOM     20  C   UNL     1     -67.970 -79.868 225.400  1.00  0.00     0.009 C 
ATOM     21  C   UNL     1     -66.050 -81.464 226.129  1.00  0.00     0.015 C 
ATOM     22  C   UNL     1     -65.682 -78.960 226.090  1.00  0.00     0.016 C 
ATOM     23  C   UNL     1     -68.809 -80.668 226.490  1.00  0.00     0.005 C 
ATOM     24  C   UNL     1     -66.617 -81.566 227.553  1.00  0.00     0.047 C 
ATOM     25  C   UNL     1     -67.954 -80.831 227.781  1.00  0.00     0.182 C 
ATOM     26  C   UNL     1     -70.072 -79.842 226.868  1.00  0.00     0.015 C 
ATOM     27  C   UNL     1     -69.309 -82.056 226.004  1.00  0.00     0.015 C 
BRANCH   7  28
ATOM     28  O   UNL     1     -64.185 -78.630 219.148  1.00  0.00    -0.393 OA
ATOM     29  H   UNL     1     -64.757 -77.821 219.203  1.00  0.00     0.210 HD
ENDBRANCH   7  28
BRANCH  25  30
ATOM     30  O   UNL     1     -68.701 -81.503 228.802  1.00  0.00    -0.462 OA
BRANCH  30  31
ATOM     31  C   UNL     1     -68.771 -81.060 230.127  1.00  0.00     0.302 C 
ATOM     32  O   UNL     1     -67.771 -81.141 230.889  1.00  0.00    -0.253 OA
ATOM     33  C   UNL     1     -70.050 -80.506 230.650  1.00  0.00     0.139 C 
ENDBRANCH  30  31
ENDBRANCH  25  30
ENDBRANCH   2   6
ENDBRANCH   1   2
BRANCH   1  34
ATOM     34  C   UNL     1     -60.623 -79.688 222.245  1.00  0.00     0.031 C 
BRANCH  34  35
ATOM     35  C   UNL     1     -61.055 -78.713 223.318  1.00  0.00    -0.075 C 
ATOM     36  C   UNL     1     -61.885 -77.703 222.998  1.00  0.00     0.008 C 
BRANCH  35  37
ATOM     37  C   UNL     1     -60.495 -78.860 224.726  1.00  0.00     0.008 C 
ATOM     38  C   UNL     1     -61.605 -79.153 225.741  1.00  0.00     0.012 C 
ATOM     39  C   UNL     1     -59.398 -79.931 224.777  1.00  0.00     0.012 C 
ENDBRANCH  35  37
ENDBRANCH  34  35
ENDBRANCH   1  34
TORSDOF 9
ENDMDL
MODEL 9
REMARK VINA RESULT:    -5.315      4.515      7.293
REMARK INTER + INTRA:         -10.128
REMARK INTER:                  -8.088
REMARK INTRA:                  -2.040
REMARK UNBOUND:                -2.172
REMARK SMILES C=C(CC[C@H](C(=O)[O-])[C@@H]1[C@@H](O)C[C@]2(C)C3=C(CC[C@]12C)[C@]1(C)CC[C@H](OC(C)=O)C(C)(C)[C@@H]1CC3)C(C)C
REMARK SMILES IDX 4 1 5 2 6 3 7 4 8 5 9 6 10 7 19 8 12 9 13 10 18 11 20 12
REMARK SMILES IDX 14 13 15 14 17 15 16 16 35 17 21 18 34 19 33 20 23 21 22 22
REMARK SMILES IDX 30 23 24 24 25 25 31 26 32 27 11 28 26 30 27 31 29 32 28 33
REMARK SMILES IDX 3 34 2 35 1 36 36 37 37 38 38 39
REMARK H PARENT 11 29
REMARK Flexibility Score: inf
ROOT
ATOM      1  C   UNL     1     -61.066 -78.484 220.802  1.00  0.00     0.014 C 
ENDROOT
BRANCH   1   2
ATOM      2  C   UNL     1     -60.131 -79.419 221.628  1.00  0.00     0.042 C 
BRANCH   2   3
ATOM      3  C   UNL     1     -58.834 -79.579 220.878  1.00  0.00     0.045 C 
ATOM      4  O   UNL     1     -58.489 -78.727 220.020  1.00  0.00    -0.550 OA
ATOM      5  O   UNL     1     -58.034 -80.693 221.100  1.00  0.00    -0.550 OA
ENDBRANCH   2   3
BRANCH   2   6
ATOM      6  C   UNL     1     -60.784 -80.813 221.947  1.00  0.00     0.033 C 
ATOM      7  C   UNL     1     -61.893 -81.183 220.942  1.00  0.00     0.119 C 
ATOM      8  C   UNL     1     -61.418 -81.033 223.374  1.00  0.00    -0.017 C 
ATOM      9  C   UNL     1     -62.869 -82.117 221.657  1.00  0.00     0.043 C 
ATOM     10  C   UNL     1     -62.431 -82.236 223.141  1.00  0.00    -0.003 C 
ATOM     11  C   UNL     1     -62.159 -79.765 223.940  1.00  0.00     0.012 C 
ATOM     12  C   UNL     1     -60.315 -81.388 224.417  1.00  0.00     0.013 C 
ATOM     13  C   UNL     1     -61.718 -83.618 223.289  1.00  0.00     0.017 C 
ATOM     14  C   UNL     1     -63.692 -82.117 224.044  1.00  0.00    -0.064 C 
ATOM     15  C   UNL     1     -63.636 -79.698 223.570  1.00  0.00     0.032 C 
ATOM     16  C   UNL     1     -64.345 -80.921 224.134  1.00  0.00    -0.064 C 
ATOM     17  C   UNL     1     -64.253 -83.286 224.815  1.00  0.00     0.032 C 
ATOM     18  C   UNL     1     -65.658 -80.745 224.951  1.00  0.00    -0.008 C 
ATOM     19  C   UNL     1     -65.754 -83.355 224.605  1.00  0.00     0.009 C 
ATOM     20  C   UNL     1     -66.469 -82.106 225.175  1.00  0.00     0.009 C 
ATOM     21  C   UNL     1     -65.254 -80.101 226.302  1.00  0.00     0.015 C 
ATOM     22  C   UNL     1     -66.575 -79.758 224.170  1.00  0.00     0.016 C 
ATOM     23  C   UNL     1     -67.085 -82.319 226.627  1.00  0.00     0.005 C 
ATOM     24  C   UNL     1     -66.410 -79.903 227.294  1.00  0.00     0.047 C 
ATOM     25  C   UNL     1     -67.543 -80.945 227.200  1.00  0.00     0.182 C 
ATOM     26  C   UNL     1     -68.346 -83.223 226.518  1.00  0.00     0.015 C 
ATOM     27  C   UNL     1     -66.117 -83.016 227.624  1.00  0.00     0.015 C 
BRANCH   7  28
ATOM     28  O   UNL     1     -61.348 -81.835 219.823  1.00  0.00    -0.393 OA
ATOM     29  H   UNL     1     -60.533 -82.308 220.133  1.00  0.00     0.210 HD
ENDBRANCH   7  28
BRANCH  25  30
ATOM     30  O   UNL     1     -68.150 -81.111 228.487  1.00  0.00    -0.462 OA
BRANCH  30  31
ATOM     31  C   UNL     1     -69.428 -80.639 228.805  1.00  0.00     0.302 C 
ATOM     32  O   UNL     1     -69.784 -80.499 230.006  1.00  0.00    -0.253 OA
ATOM     33  C   UNL     1     -70.385 -80.315 227.712  1.00  0.00     0.139 C 
ENDBRANCH  30  31
ENDBRANCH  25  30
ENDBRANCH   2   6
ENDBRANCH   1   2
BRANCH   1  34
ATOM     34  C   UNL     1     -61.261 -77.115 221.472  1.00  0.00     0.031 C 
BRANCH  34  35
ATOM     35  C   UNL     1     -62.647 -76.572 221.201  1.00  0.00    -0.075 C 
ATOM     36  C   UNL     1     -63.115 -76.556 219.940  1.00  0.00     0.008 C 
BRANCH  35  37
ATOM     37  C   UNL     1     -63.461 -76.003 222.355  1.00  0.00     0.008 C 
ATOM     38  C   UNL     1     -63.540 -74.474 222.282  1.00  0.00     0.012 C 
ATOM     39  C   UNL     1     -64.858 -76.631 222.410  1.00  0.00     0.012 C 
ENDBRANCH  35  37
ENDBRANCH  34  35
ENDBRANCH   1  34
TORSDOF 9
ENDMDL
