MODEL 1
REMARK VINA RESULT:    -6.700      0.000      0.000
REMARK INTER + INTRA:          -6.700
REMARK INTER:                  -6.700
REMARK INTRA:                   0.000
REMARK UNBOUND:                 0.000
REMARK SMILES C=C1CCC[C@@]2(C)CC(=O)C(=C(C)C)C[C@@H]12
REMARK SMILES IDX 13 1 12 2 11 3 15 4 16 5 2 6 1 7 3 8 4 9 5 10 6 11 8 12 9 13
REMARK SMILES IDX 10 14 7 15 14 16
REMARK H PARENT
REMARK Flexibility Score: inf
ROOT
ATOM      1  C   UNL     1      -8.928  72.903  23.482  1.00  0.00     0.039 C 
ATOM      2  C   UNL     1      -8.368  72.654  24.863  1.00  0.00    -0.070 C 
ATOM      3  C   UNL     1      -9.059  73.003  25.986  1.00  0.00    -0.006 C 
ATOM      4  C   UNL     1      -8.528  72.728  27.379  1.00  0.00     0.047 C 
ATOM      5  C   UNL     1      -9.639  72.395  28.408  1.00  0.00     0.025 C 
ATOM      6  C   UNL     1      -9.027  72.379  29.798  1.00  0.00    -0.073 C 
ATOM      7  C   UNL     1      -8.667  71.220  30.373  1.00  0.00     0.008 C 
ATOM      8  C   UNL     1      -8.682  73.699  30.457  1.00  0.00     0.031 C 
ATOM      9  C   UNL     1      -9.834  74.706  30.340  1.00  0.00     0.005 C 
ATOM     10  C   UNL     1     -10.424  74.776  28.919  1.00  0.00     0.008 C 
ATOM     11  C   UNL     1     -10.850  73.380  28.372  1.00  0.00    -0.018 C 
ATOM     12  C   UNL     1     -11.392  73.518  26.925  1.00  0.00     0.088 C 
ATOM     13  C   UNL     1     -10.311  73.792  25.930  1.00  0.00     0.159 C 
ATOM     14  O   UNL     1     -10.480  74.692  25.063  1.00  0.00    -0.295 OA
ATOM     15  C   UNL     1     -12.012  72.812  29.233  1.00  0.00     0.012 C 
ATOM     16  C   UNL     1      -7.024  71.966  24.951  1.00  0.00     0.039 C 
ENDROOT
TORSDOF 0
ENDMDL
MODEL 2
REMARK VINA RESULT:    -6.423      3.772      6.603
REMARK INTER + INTRA:          -6.423
REMARK INTER:                  -6.423
REMARK INTRA:                   0.000
REMARK UNBOUND:                 0.000
REMARK SMILES C=C1CCC[C@@]2(C)CC(=O)C(=C(C)C)C[C@@H]12
REMARK SMILES IDX 13 1 12 2 11 3 15 4 16 5 2 6 1 7 3 8 4 9 5 10 6 11 8 12 9 13
REMARK SMILES IDX 10 14 7 15 14 16
REMARK H PARENT
REMARK Flexibility Score: inf
ROOT
ATOM      1  C   UNL     1     -10.804  72.676  36.128  1.00  0.00     0.039 C 
ATOM      2  C   UNL     1     -10.355  71.910  34.904  1.00  0.00    -0.070 C 
ATOM      3  C   UNL     1     -10.573  72.388  33.646  1.00  0.00    -0.006 C 
ATOM      4  C   UNL     1     -10.098  71.650  32.410  1.00  0.00     0.047 C 
ATOM      5  C   UNL     1      -9.666  72.594  31.257  1.00  0.00     0.025 C 
ATOM      6  C   UNL     1      -9.445  71.763  30.004  1.00  0.00    -0.073 C 
ATOM      7  C   UNL     1      -8.209  71.377  29.649  1.00  0.00     0.008 C 
ATOM      8  C   UNL     1     -10.654  71.244  29.253  1.00  0.00     0.031 C 
ATOM      9  C   UNL     1     -11.704  72.344  29.044  1.00  0.00     0.005 C 
ATOM     10  C   UNL     1     -11.981  73.154  30.324  1.00  0.00     0.008 C 
ATOM     11  C   UNL     1     -10.685  73.740  30.961  1.00  0.00    -0.018 C 
ATOM     12  C   UNL     1     -11.032  74.503  32.266  1.00  0.00     0.088 C 
ATOM     13  C   UNL     1     -11.402  73.587  33.388  1.00  0.00     0.159 C 
ATOM     14  O   UNL     1     -12.414  73.848  34.093  1.00  0.00    -0.295 OA
ATOM     15  C   UNL     1     -10.045  74.773  29.995  1.00  0.00     0.012 C 
ATOM     16  C   UNL     1      -9.618  70.610  35.134  1.00  0.00     0.039 C 
ENDROOT
TORSDOF 0
ENDMDL
MODEL 3
REMARK VINA RESULT:    -5.500      2.213      5.859
REMARK INTER + INTRA:          -5.500
REMARK INTER:                  -5.500
REMARK INTRA:                   0.000
REMARK UNBOUND:                 0.000
REMARK SMILES C=C1CCC[C@@]2(C)CC(=O)C(=C(C)C)C[C@@H]12
REMARK SMILES IDX 13 1 12 2 11 3 15 4 16 5 2 6 1 7 3 8 4 9 5 10 6 11 8 12 9 13
REMARK SMILES IDX 10 14 7 15 14 16
REMARK H PARENT
REMARK Flexibility Score: inf
ROOT
ATOM      1  C   UNL     1     -10.480  74.488  25.583  1.00  0.00     0.039 C 
ATOM      2  C   UNL     1      -9.347  73.583  26.010  1.00  0.00    -0.070 C 
ATOM      3  C   UNL     1      -8.650  72.841  25.104  1.00  0.00    -0.006 C 
ATOM      4  C   UNL     1      -7.488  71.956  25.510  1.00  0.00     0.047 C 
ATOM      5  C   UNL     1      -6.367  71.880  24.439  1.00  0.00     0.025 C 
ATOM      6  C   UNL     1      -5.385  70.792  24.839  1.00  0.00    -0.073 C 
ATOM      7  C   UNL     1      -4.243  71.102  25.472  1.00  0.00     0.008 C 
ATOM      8  C   UNL     1      -5.789  69.344  24.654  1.00  0.00     0.031 C 
ATOM      9  C   UNL     1      -6.395  69.099  23.266  1.00  0.00     0.005 C 
ATOM     10  C   UNL     1      -7.438  70.163  22.875  1.00  0.00     0.008 C 
ATOM     11  C   UNL     1      -6.892  71.617  22.992  1.00  0.00    -0.018 C 
ATOM     12  C   UNL     1      -8.004  72.635  22.628  1.00  0.00     0.088 C 
ATOM     13  C   UNL     1      -9.057  72.739  23.684  1.00  0.00     0.159 C 
ATOM     14  O   UNL     1     -10.273  72.735  23.350  1.00  0.00    -0.295 OA
ATOM     15  C   UNL     1      -5.740  71.829  21.972  1.00  0.00     0.012 C 
ATOM     16  C   UNL     1      -8.993  73.565  27.479  1.00  0.00     0.039 C 
ENDROOT
TORSDOF 0
ENDMDL
MODEL 4
REMARK VINA RESULT:    -5.480      4.537      7.599
REMARK INTER + INTRA:          -5.480
REMARK INTER:                  -5.480
REMARK INTRA:                   0.000
REMARK UNBOUND:                 0.000
REMARK SMILES C=C1CCC[C@@]2(C)CC(=O)C(=C(C)C)C[C@@H]12
REMARK SMILES IDX 13 1 12 2 11 3 15 4 16 5 2 6 1 7 3 8 4 9 5 10 6 11 8 12 9 13
REMARK SMILES IDX 10 14 7 15 14 16
REMARK H PARENT
REMARK Flexibility Score: inf
ROOT
ATOM      1  C   UNL     1     -10.355  71.340  36.983  1.00  0.00     0.039 C 
ATOM      2  C   UNL     1     -10.257  72.618  36.182  1.00  0.00    -0.070 C 
ATOM      3  C   UNL     1     -10.265  72.606  34.819  1.00  0.00    -0.006 C 
ATOM      4  C   UNL     1     -10.203  73.881  34.000  1.00  0.00     0.047 C 
ATOM      5  C   UNL     1     -11.014  73.806  32.680  1.00  0.00     0.025 C 
ATOM      6  C   UNL     1     -10.687  75.027  31.838  1.00  0.00    -0.073 C 
ATOM      7  C   UNL     1     -11.500  76.095  31.839  1.00  0.00     0.008 C 
ATOM      8  C   UNL     1      -9.353  75.083  31.124  1.00  0.00     0.031 C 
ATOM      9  C   UNL     1      -9.050  73.771  30.388  1.00  0.00     0.005 C 
ATOM     10  C   UNL     1      -9.320  72.526  31.254  1.00  0.00     0.008 C 
ATOM     11  C   UNL     1     -10.758  72.506  31.853  1.00  0.00    -0.018 C 
ATOM     12  C   UNL     1     -10.945  71.252  32.747  1.00  0.00     0.088 C 
ATOM     13  C   UNL     1     -10.199  71.349  34.038  1.00  0.00     0.159 C 
ATOM     14  O   UNL     1      -9.525  70.363  34.441  1.00  0.00    -0.295 OA
ATOM     15  C   UNL     1     -11.802  72.401  30.709  1.00  0.00     0.012 C 
ATOM     16  C   UNL     1     -10.188  73.916  36.955  1.00  0.00     0.039 C 
ENDROOT
TORSDOF 0
ENDMDL
MODEL 5
REMARK VINA RESULT:    -5.416      3.762      6.570
REMARK INTER + INTRA:          -5.416
REMARK INTER:                  -5.416
REMARK INTRA:                   0.000
REMARK UNBOUND:                 0.000
REMARK SMILES C=C1CCC[C@@]2(C)CC(=O)C(=C(C)C)C[C@@H]12
REMARK SMILES IDX 13 1 12 2 11 3 15 4 16 5 2 6 1 7 3 8 4 9 5 10 6 11 8 12 9 13
REMARK SMILES IDX 10 14 7 15 14 16
REMARK H PARENT
REMARK Flexibility Score: inf
ROOT
ATOM      1  C   UNL     1      -9.360  74.249  22.990  1.00  0.00     0.039 C 
ATOM      2  C   UNL     1      -8.882  73.114  23.866  1.00  0.00    -0.070 C 
ATOM      3  C   UNL     1      -7.714  72.460  23.608  1.00  0.00    -0.006 C 
ATOM      4  C   UNL     1      -7.201  71.343  24.496  1.00  0.00     0.047 C 
ATOM      5  C   UNL     1      -5.654  71.301  24.602  1.00  0.00     0.025 C 
ATOM      6  C   UNL     1      -5.250  70.017  25.306  1.00  0.00    -0.073 C 
ATOM      7  C   UNL     1      -4.965  70.017  26.618  1.00  0.00     0.008 C 
ATOM      8  C   UNL     1      -5.328  68.711  24.541  1.00  0.00     0.031 C 
ATOM      9  C   UNL     1      -4.696  68.834  23.148  1.00  0.00     0.005 C 
ATOM     10  C   UNL     1      -5.147  70.102  22.399  1.00  0.00     0.008 C 
ATOM     11  C   UNL     1      -4.924  71.404  23.225  1.00  0.00    -0.018 C 
ATOM     12  C   UNL     1      -5.439  72.633  22.432  1.00  0.00     0.088 C 
ATOM     13  C   UNL     1      -6.931  72.696  22.373  1.00  0.00     0.159 C 
ATOM     14  O   UNL     1      -7.499  72.946  21.276  1.00  0.00    -0.295 OA
ATOM     15  C   UNL     1      -3.404  71.625  23.456  1.00  0.00     0.012 C 
ATOM     16  C   UNL     1      -9.732  72.760  25.065  1.00  0.00     0.039 C 
ENDROOT
TORSDOF 0
ENDMDL
MODEL 6
REMARK VINA RESULT:    -5.211      6.644      9.427
REMARK INTER + INTRA:          -5.211
REMARK INTER:                  -5.211
REMARK INTRA:                   0.000
REMARK UNBOUND:                 0.000
REMARK SMILES C=C1CCC[C@@]2(C)CC(=O)C(=C(C)C)C[C@@H]12
REMARK SMILES IDX 13 1 12 2 11 3 15 4 16 5 2 6 1 7 3 8 4 9 5 10 6 11 8 12 9 13
REMARK SMILES IDX 10 14 7 15 14 16
REMARK H PARENT
REMARK Flexibility Score: inf
ROOT
ATOM      1  C   UNL     1     -11.605  73.090  34.326  1.00  0.00     0.039 C 
ATOM      2  C   UNL     1     -10.598  72.004  34.027  1.00  0.00    -0.070 C 
ATOM      3  C   UNL     1      -9.927  71.362  35.024  1.00  0.00    -0.006 C 
ATOM      4  C   UNL     1      -8.939  70.246  34.744  1.00  0.00     0.047 C 
ATOM      5  C   UNL     1      -8.925  69.146  35.837  1.00  0.00     0.025 C 
ATOM      6  C   UNL     1      -7.747  68.222  35.582  1.00  0.00    -0.073 C 
ATOM      7  C   UNL     1      -7.920  67.055  34.941  1.00  0.00     0.008 C 
ATOM      8  C   UNL     1      -6.353  68.708  35.921  1.00  0.00     0.031 C 
ATOM      9  C   UNL     1      -6.301  69.346  37.316  1.00  0.00     0.005 C 
ATOM     10  C   UNL     1      -7.457  70.333  37.564  1.00  0.00     0.008 C 
ATOM     11  C   UNL     1      -8.857  69.704  37.295  1.00  0.00    -0.018 C 
ATOM     12  C   UNL     1      -9.968  70.762  37.520  1.00  0.00     0.088 C 
ATOM     13  C   UNL     1     -10.009  71.793  36.439  1.00  0.00     0.159 C 
ATOM     14  O   UNL     1     -10.109  73.012  36.747  1.00  0.00    -0.295 OA
ATOM     15  C   UNL     1      -9.120  68.555  38.306  1.00  0.00     0.012 C 
ATOM     16  C   UNL     1     -10.394  71.632  32.576  1.00  0.00     0.039 C 
ENDROOT
TORSDOF 0
ENDMDL
MODEL 7
REMARK VINA RESULT:    -5.210      4.900      6.795
REMARK INTER + INTRA:          -5.210
REMARK INTER:                  -5.210
REMARK INTRA:                   0.000
REMARK UNBOUND:                 0.000
REMARK SMILES C=C1CCC[C@@]2(C)CC(=O)C(=C(C)C)C[C@@H]12
REMARK SMILES IDX 13 1 12 2 11 3 15 4 16 5 2 6 1 7 3 8 4 9 5 10 6 11 8 12 9 13
REMARK SMILES IDX 10 14 7 15 14 16
REMARK H PARENT
REMARK Flexibility Score: inf
ROOT
ATOM      1  C   UNL     1      -9.813  74.625  21.642  1.00  0.00     0.039 C 
ATOM      2  C   UNL     1      -8.440  74.135  21.242  1.00  0.00    -0.070 C 
ATOM      3  C   UNL     1      -7.720  73.302  22.046  1.00  0.00    -0.006 C 
ATOM      4  C   UNL     1      -6.357  72.773  21.645  1.00  0.00     0.047 C 
ATOM      5  C   UNL     1      -6.080  71.334  22.155  1.00  0.00     0.025 C 
ATOM      6  C   UNL     1      -4.618  71.004  21.909  1.00  0.00    -0.073 C 
ATOM      7  C   UNL     1      -4.250  70.291  20.833  1.00  0.00     0.008 C 
ATOM      8  C   UNL     1      -3.570  71.625  22.809  1.00  0.00     0.031 C 
ATOM      9  C   UNL     1      -3.952  71.503  24.290  1.00  0.00     0.005 C 
ATOM     10  C   UNL     1      -5.417  71.895  24.562  1.00  0.00     0.008 C 
ATOM     11  C   UNL     1      -6.427  71.120  23.663  1.00  0.00    -0.018 C 
ATOM     12  C   UNL     1      -7.874  71.594  23.956  1.00  0.00     0.088 C 
ATOM     13  C   UNL     1      -8.151  72.962  23.422  1.00  0.00     0.159 C 
ATOM     14  O   UNL     1      -8.743  73.804  24.149  1.00  0.00    -0.295 OA
ATOM     15  C   UNL     1      -6.375  69.605  24.000  1.00  0.00     0.012 C 
ATOM     16  C   UNL     1      -7.914  74.575  19.895  1.00  0.00     0.039 C 
ENDROOT
TORSDOF 0
ENDMDL
MODEL 8
REMARK VINA RESULT:    -5.105      8.529     10.986
REMARK INTER + INTRA:          -5.105
REMARK INTER:                  -5.105
REMARK INTRA:                   0.000
REMARK UNBOUND:                 0.000
REMARK SMILES C=C1CCC[C@@]2(C)CC(=O)C(=C(C)C)C[C@@H]12
REMARK SMILES IDX 13 1 12 2 11 3 15 4 16 5 2 6 1 7 3 8 4 9 5 10 6 11 8 12 9 13
REMARK SMILES IDX 10 14 7 15 14 16
REMARK H PARENT
REMARK Flexibility Score: inf
ROOT
ATOM      1  C   UNL     1     -11.622  71.566  37.208  1.00  0.00     0.039 C 
ATOM      2  C   UNL     1     -10.389  71.246  36.394  1.00  0.00    -0.070 C 
ATOM      3  C   UNL     1      -9.533  70.251  36.761  1.00  0.00    -0.006 C 
ATOM      4  C   UNL     1      -8.311  69.894  35.937  1.00  0.00     0.047 C 
ATOM      5  C   UNL     1      -7.971  68.381  35.963  1.00  0.00     0.025 C 
ATOM      6  C   UNL     1      -6.611  68.176  35.317  1.00  0.00    -0.073 C 
ATOM      7  C   UNL     1      -6.515  67.793  34.033  1.00  0.00     0.008 C 
ATOM      8  C   UNL     1      -5.370  68.564  36.093  1.00  0.00     0.031 C 
ATOM      9  C   UNL     1      -5.415  68.034  37.533  1.00  0.00     0.005 C 
ATOM     10  C   UNL     1      -6.769  68.290  38.220  1.00  0.00     0.008 C 
ATOM     11  C   UNL     1      -7.978  67.755  37.394  1.00  0.00    -0.018 C 
ATOM     12  C   UNL     1      -9.307  68.086  38.121  1.00  0.00     0.088 C 
ATOM     13  C   UNL     1      -9.655  69.538  38.053  1.00  0.00     0.159 C 
ATOM     14  O   UNL     1     -10.044  70.132  39.094  1.00  0.00    -0.295 OA
ATOM     15  C   UNL     1      -7.897  66.208  37.289  1.00  0.00     0.012 C 
ATOM     16  C   UNL     1     -10.165  72.051  35.134  1.00  0.00     0.039 C 
ENDROOT
TORSDOF 0
ENDMDL
MODEL 9
REMARK VINA RESULT:    -5.038      5.516      7.358
REMARK INTER + INTRA:          -5.038
REMARK INTER:                  -5.038
REMARK INTRA:                   0.000
REMARK UNBOUND:                 0.000
REMARK SMILES C=C1CCC[C@@]2(C)CC(=O)C(=C(C)C)C[C@@H]12
REMARK SMILES IDX 13 1 12 2 11 3 15 4 16 5 2 6 1 7 3 8 4 9 5 10 6 11 8 12 9 13
REMARK SMILES IDX 10 14 7 15 14 16
REMARK H PARENT
REMARK Flexibility Score: inf
ROOT
ATOM      1  C   UNL     1      -7.101  65.535  23.065  1.00  0.00     0.039 C 
ATOM      2  C   UNL     1      -6.236  66.008  24.210  1.00  0.00    -0.070 C 
ATOM      3  C   UNL     1      -5.830  67.306  24.307  1.00  0.00    -0.006 C 
ATOM      4  C   UNL     1      -4.992  67.805  25.468  1.00  0.00     0.047 C 
ATOM      5  C   UNL     1      -5.311  69.267  25.875  1.00  0.00     0.025 C 
ATOM      6  C   UNL     1      -4.262  69.736  26.868  1.00  0.00    -0.073 C 
ATOM      7  C   UNL     1      -4.509  69.711  28.187  1.00  0.00     0.008 C 
ATOM      8  C   UNL     1      -2.879  70.082  26.357  1.00  0.00     0.031 C 
ATOM      9  C   UNL     1      -2.943  70.978  25.112  1.00  0.00     0.005 C 
ATOM     10  C   UNL     1      -3.961  70.478  24.070  1.00  0.00     0.008 C 
ATOM     11  C   UNL     1      -5.382  70.258  24.669  1.00  0.00    -0.018 C 
ATOM     12  C   UNL     1      -6.342  69.714  23.579  1.00  0.00     0.088 C 
ATOM     13  C   UNL     1      -6.060  68.289  23.224  1.00  0.00     0.159 C 
ATOM     14  O   UNL     1      -6.021  67.949  22.011  1.00  0.00    -0.295 OA
ATOM     15  C   UNL     1      -5.968  71.616  25.144  1.00  0.00     0.012 C 
ATOM     16  C   UNL     1      -5.871  64.991  25.268  1.00  0.00     0.039 C 
ENDROOT
TORSDOF 0
ENDMDL
