MODEL 1
REMARK VINA RESULT:    -7.321      0.000      0.000
REMARK INTER + INTRA:          -7.963
REMARK INTER:                  -7.963
REMARK INTRA:                   0.000
REMARK UNBOUND:                 0.000
REMARK SMILES Cc1cc(O)c2c(c1)C(=O)c1cc(O)cc(O)c1C2=O
REMARK SMILES IDX 1 1 2 2 8 3 7 4 6 5 4 6 3 7 19 8 20 9 18 10 11 11 9 12 10 13
REMARK SMILES IDX 12 14 13 15 15 16 16 17 5 18 17 20 14 22
REMARK H PARENT 5 19 17 21 14 23
REMARK Flexibility Score: inf
ROOT
ATOM      1  C   UNL     1     -13.924   4.239 -23.330  1.00  0.00     0.044 C 
ATOM      2  C   UNL     1     -12.936   3.112 -23.395  1.00  0.00    -0.047 A 
ATOM      3  C   UNL     1     -13.345   1.801 -23.122  1.00  0.00     0.016 A 
ATOM      4  C   UNL     1     -12.419   0.745 -23.138  1.00  0.00     0.038 A 
ATOM      5  C   UNL     1     -11.056   1.007 -23.403  1.00  0.00     0.076 A 
ATOM      6  C   UNL     1     -10.656   2.331 -23.723  1.00  0.00     0.127 A 
ATOM      7  C   UNL     1     -11.592   3.369 -23.683  1.00  0.00     0.050 A 
ATOM      8  C   UNL     1     -10.086  -0.110 -23.264  1.00  0.00     0.201 C 
ATOM      9  O   UNL     1      -8.898   0.130 -22.921  1.00  0.00    -0.288 OA
ATOM     10  C   UNL     1     -10.563  -1.515 -23.345  1.00  0.00     0.076 A 
ATOM     11  C   UNL     1     -11.926  -1.773 -23.078  1.00  0.00     0.041 A 
ATOM     12  C   UNL     1     -12.866  -0.644 -22.879  1.00  0.00     0.194 C 
ATOM     13  O   UNL     1     -14.054  -0.868 -22.516  1.00  0.00    -0.289 OA
ATOM     14  C   UNL     1     -12.387  -3.099 -23.008  1.00  0.00     0.059 A 
ATOM     15  C   UNL     1     -11.508  -4.166 -23.215  1.00  0.00     0.120 A 
ATOM     16  C   UNL     1     -10.171  -3.914 -23.518  1.00  0.00     0.093 A 
ATOM     17  C   UNL     1      -9.693  -2.604 -23.613  1.00  0.00     0.131 A 
ENDROOT
BRANCH   6  18
ATOM     18  O   UNL     1      -9.355   2.652 -24.117  1.00  0.00    -0.507 OA
ATOM     19  H   UNL     1      -9.129   3.435 -24.715  1.00  0.00     0.293 HD
ENDBRANCH   6  18
BRANCH  17  20
ATOM     20  O   UNL     1      -8.364  -2.429 -24.009  1.00  0.00    -0.507 OA
ATOM     21  H   UNL     1      -8.087  -1.869 -24.803  1.00  0.00     0.293 HD
ENDBRANCH  17  20
BRANCH  15  22
ATOM     22  O   UNL     1     -11.958  -5.482 -23.134  1.00  0.00    -0.508 OA
ATOM     23  H   UNL     1     -11.422  -6.197 -22.656  1.00  0.00     0.293 HD
ENDBRANCH  15  22
TORSDOF 3
ENDMDL
MODEL 2
REMARK VINA RESULT:    -6.859      2.331      6.932
REMARK INTER + INTRA:          -7.460
REMARK INTER:                  -7.460
REMARK INTRA:                   0.000
REMARK UNBOUND:                 0.000
REMARK SMILES Cc1cc(O)c2c(c1)C(=O)c1cc(O)cc(O)c1C2=O
REMARK SMILES IDX 1 1 2 2 8 3 7 4 6 5 4 6 3 7 19 8 20 9 18 10 11 11 9 12 10 13
REMARK SMILES IDX 12 14 13 15 15 16 16 17 5 18 17 20 14 22
REMARK H PARENT 5 19 17 21 14 23
REMARK Flexibility Score: inf
ROOT
ATOM      1  C   UNL     1     -11.534  -3.691 -22.586  1.00  0.00     0.044 C 
ATOM      2  C   UNL     1     -12.519  -2.580 -22.796  1.00  0.00    -0.047 A 
ATOM      3  C   UNL     1     -12.104  -1.246 -22.712  1.00  0.00     0.016 A 
ATOM      4  C   UNL     1     -13.026  -0.197 -22.864  1.00  0.00     0.038 A 
ATOM      5  C   UNL     1     -14.392  -0.488 -23.077  1.00  0.00     0.076 A 
ATOM      6  C   UNL     1     -14.800  -1.841 -23.206  1.00  0.00     0.127 A 
ATOM      7  C   UNL     1     -13.867  -2.868 -23.032  1.00  0.00     0.050 A 
ATOM      8  C   UNL     1     -15.358   0.643 -23.083  1.00  0.00     0.201 C 
ATOM      9  O   UNL     1     -16.543   0.458 -22.698  1.00  0.00    -0.288 OA
ATOM     10  C   UNL     1     -14.878   2.021 -23.362  1.00  0.00     0.076 A 
ATOM     11  C   UNL     1     -13.510   2.307 -23.147  1.00  0.00     0.041 A 
ATOM     12  C   UNL     1     -12.572   1.212 -22.804  1.00  0.00     0.194 C 
ATOM     13  O   UNL     1     -11.380   1.479 -22.487  1.00  0.00    -0.289 OA
ATOM     14  C   UNL     1     -13.046   3.628 -23.266  1.00  0.00     0.059 A 
ATOM     15  C   UNL     1     -13.923   4.660 -23.609  1.00  0.00     0.120 A 
ATOM     16  C   UNL     1     -15.264   4.374 -23.861  1.00  0.00     0.093 A 
ATOM     17  C   UNL     1     -15.747   3.066 -23.769  1.00  0.00     0.131 A 
ENDROOT
BRANCH   6  18
ATOM     18  O   UNL     1     -16.107  -2.207 -23.538  1.00  0.00    -0.507 OA
ATOM     19  H   UNL     1     -16.413  -2.387 -24.485  1.00  0.00     0.293 HD
ENDBRANCH   6  18
BRANCH  17  20
ATOM     20  O   UNL     1     -17.080   2.844 -24.124  1.00  0.00    -0.507 OA
ATOM     21  H   UNL     1     -17.864   3.238 -23.623  1.00  0.00     0.293 HD
ENDBRANCH  17  20
BRANCH  15  22
ATOM     22  O   UNL     1     -13.469   5.973 -23.716  1.00  0.00    -0.508 OA
ATOM     23  H   UNL     1     -12.480   6.192 -23.735  1.00  0.00     0.293 HD
ENDBRANCH  15  22
TORSDOF 3
ENDMDL
MODEL 3
REMARK VINA RESULT:    -6.837      3.436      6.334
REMARK INTER + INTRA:          -7.436
REMARK INTER:                  -7.436
REMARK INTRA:                   0.000
REMARK UNBOUND:                 0.000
REMARK SMILES Cc1cc(O)c2c(c1)C(=O)c1cc(O)cc(O)c1C2=O
REMARK SMILES IDX 1 1 2 2 8 3 7 4 6 5 4 6 3 7 19 8 20 9 18 10 11 11 9 12 10 13
REMARK SMILES IDX 12 14 13 15 15 16 16 17 5 18 17 20 14 22
REMARK H PARENT 5 19 17 21 14 23
REMARK Flexibility Score: inf
ROOT
ATOM      1  C   UNL     1     -17.248  -1.873 -18.996  1.00  0.00     0.044 C 
ATOM      2  C   UNL     1     -16.869  -1.020 -20.171  1.00  0.00    -0.047 A 
ATOM      3  C   UNL     1     -15.524  -0.722 -20.420  1.00  0.00     0.016 A 
ATOM      4  C   UNL     1     -15.162   0.111 -21.491  1.00  0.00     0.038 A 
ATOM      5  C   UNL     1     -16.163   0.678 -22.312  1.00  0.00     0.076 A 
ATOM      6  C   UNL     1     -17.521   0.336 -22.082  1.00  0.00     0.127 A 
ATOM      7  C   UNL     1     -17.859  -0.479 -20.998  1.00  0.00     0.050 A 
ATOM      8  C   UNL     1     -15.750   1.670 -23.339  1.00  0.00     0.201 C 
ATOM      9  O   UNL     1     -16.542   2.589 -23.677  1.00  0.00    -0.288 OA
ATOM     10  C   UNL     1     -14.346   1.687 -23.825  1.00  0.00     0.076 A 
ATOM     11  C   UNL     1     -13.348   1.119 -23.001  1.00  0.00     0.041 A 
ATOM     12  C   UNL     1     -13.734   0.396 -21.767  1.00  0.00     0.194 C 
ATOM     13  O   UNL     1     -12.844  -0.001 -20.964  1.00  0.00    -0.289 OA
ATOM     14  C   UNL     1     -11.995   1.239 -23.360  1.00  0.00     0.059 A 
ATOM     15  C   UNL     1     -11.628   1.903 -24.533  1.00  0.00     0.120 A 
ATOM     16  C   UNL     1     -12.613   2.430 -25.368  1.00  0.00     0.093 A 
ATOM     17  C   UNL     1     -13.967   2.306 -25.044  1.00  0.00     0.131 A 
ENDROOT
BRANCH   6  18
ATOM     18  O   UNL     1     -18.557   0.755 -22.920  1.00  0.00    -0.507 OA
ATOM     19  H   UNL     1     -19.255   0.130 -23.302  1.00  0.00     0.293 HD
ENDBRANCH   6  18
BRANCH  17  20
ATOM     20  O   UNL     1     -14.898   2.778 -25.974  1.00  0.00    -0.507 OA
ATOM     21  H   UNL     1     -14.884   3.715 -26.351  1.00  0.00     0.293 HD
ENDBRANCH  17  20
BRANCH  15  22
ATOM     22  O   UNL     1     -10.286   2.035 -24.885  1.00  0.00    -0.508 OA
ATOM     23  H   UNL     1     -10.008   2.405 -25.787  1.00  0.00     0.293 HD
ENDBRANCH  15  22
TORSDOF 3
ENDMDL
MODEL 4
REMARK VINA RESULT:    -6.832      2.690      5.023
REMARK INTER + INTRA:          -7.431
REMARK INTER:                  -7.431
REMARK INTRA:                   0.000
REMARK UNBOUND:                 0.000
REMARK SMILES Cc1cc(O)c2c(c1)C(=O)c1cc(O)cc(O)c1C2=O
REMARK SMILES IDX 1 1 2 2 8 3 7 4 6 5 4 6 3 7 19 8 20 9 18 10 11 11 9 12 10 13
REMARK SMILES IDX 12 14 13 15 15 16 16 17 5 18 17 20 14 22
REMARK H PARENT 5 19 17 21 14 23
REMARK Flexibility Score: inf
ROOT
ATOM      1  C   UNL     1      -8.102  -2.863 -25.370  1.00  0.00     0.044 C 
ATOM      2  C   UNL     1      -9.155  -2.244 -24.499  1.00  0.00    -0.047 A 
ATOM      3  C   UNL     1     -10.511  -2.447 -24.782  1.00  0.00     0.016 A 
ATOM      4  C   UNL     1     -11.505  -1.838 -23.999  1.00  0.00     0.038 A 
ATOM      5  C   UNL     1     -11.137  -0.987 -22.932  1.00  0.00     0.076 A 
ATOM      6  C   UNL     1      -9.762  -0.820 -22.622  1.00  0.00     0.127 A 
ATOM      7  C   UNL     1      -8.790  -1.423 -23.427  1.00  0.00     0.050 A 
ATOM      8  C   UNL     1     -12.212  -0.245 -22.223  1.00  0.00     0.201 C 
ATOM      9  O   UNL     1     -11.966   0.881 -21.713  1.00  0.00    -0.288 OA
ATOM     10  C   UNL     1     -13.612  -0.740 -22.280  1.00  0.00     0.076 A 
ATOM     11  C   UNL     1     -13.975  -1.590 -23.349  1.00  0.00     0.041 A 
ATOM     12  C   UNL     1     -12.938  -2.083 -24.285  1.00  0.00     0.194 C 
ATOM     13  O   UNL     1     -13.274  -2.736 -25.312  1.00  0.00    -0.289 OA
ATOM     14  C   UNL     1     -15.319  -1.968 -23.516  1.00  0.00     0.059 A 
ATOM     15  C   UNL     1     -16.296  -1.521 -22.623  1.00  0.00     0.120 A 
ATOM     16  C   UNL     1     -15.934  -0.715 -21.545  1.00  0.00     0.093 A 
ATOM     17  C   UNL     1     -14.602  -0.342 -21.345  1.00  0.00     0.131 A 
ENDROOT
BRANCH   6  18
ATOM     18  O   UNL     1      -9.320  -0.098 -21.512  1.00  0.00    -0.507 OA
ATOM     19  H   UNL     1      -9.157  -0.512 -20.604  1.00  0.00     0.293 HD
ENDBRANCH   6  18
BRANCH  17  20
ATOM     20  O   UNL     1     -14.303   0.390 -20.193  1.00  0.00    -0.507 OA
ATOM     21  H   UNL     1     -13.940   1.333 -20.209  1.00  0.00     0.293 HD
ENDBRANCH  17  20
BRANCH  15  22
ATOM     22  O   UNL     1     -17.631  -1.883 -22.793  1.00  0.00    -0.508 OA
ATOM     23  H   UNL     1     -18.247  -1.365 -23.408  1.00  0.00     0.293 HD
ENDBRANCH  15  22
TORSDOF 3
ENDMDL
MODEL 5
REMARK VINA RESULT:    -6.813      2.113      3.633
REMARK INTER + INTRA:          -7.411
REMARK INTER:                  -7.411
REMARK INTRA:                   0.000
REMARK UNBOUND:                 0.000
REMARK SMILES Cc1cc(O)c2c(c1)C(=O)c1cc(O)cc(O)c1C2=O
REMARK SMILES IDX 1 1 2 2 8 3 7 4 6 5 4 6 3 7 19 8 20 9 18 10 11 11 9 12 10 13
REMARK SMILES IDX 12 14 13 15 15 16 16 17 5 18 17 20 14 22
REMARK H PARENT 5 19 17 21 14 23
REMARK Flexibility Score: inf
ROOT
ATOM      1  C   UNL     1     -17.611  -1.284 -22.004  1.00  0.00     0.044 C 
ATOM      2  C   UNL     1     -16.167  -0.909 -22.165  1.00  0.00    -0.047 A 
ATOM      3  C   UNL     1     -15.206  -1.897 -22.411  1.00  0.00     0.016 A 
ATOM      4  C   UNL     1     -13.847  -1.563 -22.520  1.00  0.00     0.038 A 
ATOM      5  C   UNL     1     -13.437  -0.221 -22.352  1.00  0.00     0.076 A 
ATOM      6  C   UNL     1     -14.419   0.782 -22.148  1.00  0.00     0.127 A 
ATOM      7  C   UNL     1     -15.765   0.423 -22.024  1.00  0.00     0.050 A 
ATOM      8  C   UNL     1     -11.979   0.070 -22.326  1.00  0.00     0.201 C 
ATOM      9  O   UNL     1     -11.545   1.039 -21.647  1.00  0.00    -0.288 OA
ATOM     10  C   UNL     1     -11.025  -0.887 -22.943  1.00  0.00     0.076 A 
ATOM     11  C   UNL     1     -11.439  -2.228 -23.108  1.00  0.00     0.041 A 
ATOM     12  C   UNL     1     -12.840  -2.610 -22.812  1.00  0.00     0.194 C 
ATOM     13  O   UNL     1     -13.181  -3.825 -22.835  1.00  0.00    -0.289 OA
ATOM     14  C   UNL     1     -10.521  -3.193 -23.558  1.00  0.00     0.059 A 
ATOM     15  C   UNL     1      -9.205  -2.833 -23.857  1.00  0.00     0.120 A 
ATOM     16  C   UNL     1      -8.804  -1.504 -23.733  1.00  0.00     0.093 A 
ATOM     17  C   UNL     1      -9.703  -0.522 -23.307  1.00  0.00     0.131 A 
ENDROOT
BRANCH   6  18
ATOM     18  O   UNL     1     -14.109   2.144 -22.095  1.00  0.00    -0.507 OA
ATOM     19  H   UNL     1     -13.521   2.557 -21.385  1.00  0.00     0.293 HD
ENDBRANCH   6  18
BRANCH  17  20
ATOM     20  O   UNL     1      -9.255   0.802 -23.295  1.00  0.00    -0.507 OA
ATOM     21  H   UNL     1      -8.288   1.065 -23.426  1.00  0.00     0.293 HD
ENDBRANCH  17  20
BRANCH  15  22
ATOM     22  O   UNL     1      -8.288  -3.789 -24.292  1.00  0.00    -0.508 OA
ATOM     23  H   UNL     1      -7.576  -3.568 -24.978  1.00  0.00     0.293 HD
ENDBRANCH  15  22
TORSDOF 3
ENDMDL
MODEL 6
REMARK VINA RESULT:    -6.788      3.156      5.375
REMARK INTER + INTRA:          -7.384
REMARK INTER:                  -7.384
REMARK INTRA:                   0.000
REMARK UNBOUND:                 0.000
REMARK SMILES Cc1cc(O)c2c(c1)C(=O)c1cc(O)cc(O)c1C2=O
REMARK SMILES IDX 1 1 2 2 8 3 7 4 6 5 4 6 3 7 19 8 20 9 18 10 11 11 9 12 10 13
REMARK SMILES IDX 12 14 13 15 15 16 16 17 5 18 17 20 14 22
REMARK H PARENT 5 19 17 21 14 23
REMARK Flexibility Score: inf
ROOT
ATOM      1  C   UNL     1     -18.136  -1.241 -19.254  1.00  0.00     0.044 C 
ATOM      2  C   UNL     1     -17.202  -1.309 -20.425  1.00  0.00    -0.047 A 
ATOM      3  C   UNL     1     -15.916  -0.764 -20.332  1.00  0.00     0.016 A 
ATOM      4  C   UNL     1     -15.048  -0.783 -21.436  1.00  0.00     0.038 A 
ATOM      5  C   UNL     1     -15.482  -1.333 -22.663  1.00  0.00     0.076 A 
ATOM      6  C   UNL     1     -16.770  -1.925 -22.739  1.00  0.00     0.127 A 
ATOM      7  C   UNL     1     -17.624  -1.876 -21.632  1.00  0.00     0.050 A 
ATOM      8  C   UNL     1     -14.592  -1.201 -23.846  1.00  0.00     0.201 C 
ATOM      9  O   UNL     1     -15.091  -1.125 -25.001  1.00  0.00    -0.288 OA
ATOM     10  C   UNL     1     -13.137  -0.971 -23.653  1.00  0.00     0.076 A 
ATOM     11  C   UNL     1     -12.707  -0.420 -22.424  1.00  0.00     0.041 A 
ATOM     12  C   UNL     1     -13.677  -0.232 -21.320  1.00  0.00     0.194 C 
ATOM     13  O   UNL     1     -13.328   0.375 -20.270  1.00  0.00    -0.289 OA
ATOM     14  C   UNL     1     -11.359  -0.060 -22.254  1.00  0.00     0.059 A 
ATOM     15  C   UNL     1     -10.438  -0.255 -23.286  1.00  0.00     0.120 A 
ATOM     16  C   UNL     1     -10.851  -0.834 -24.484  1.00  0.00     0.093 A 
ATOM     17  C   UNL     1     -12.182  -1.220 -24.671  1.00  0.00     0.131 A 
ENDROOT
BRANCH   6  18
ATOM     18  O   UNL     1     -17.227  -2.597 -23.875  1.00  0.00    -0.507 OA
ATOM     19  H   UNL     1     -16.881  -3.501 -24.167  1.00  0.00     0.293 HD
ENDBRANCH   6  18
BRANCH  17  20
ATOM     20  O   UNL     1     -12.501  -1.877 -25.863  1.00  0.00    -0.507 OA
ATOM     21  H   UNL     1     -11.857  -2.476 -26.360  1.00  0.00     0.293 HD
ENDBRANCH  17  20
BRANCH  15  22
ATOM     22  O   UNL     1      -9.103   0.114 -23.125  1.00  0.00    -0.508 OA
ATOM     23  H   UNL     1      -8.443  -0.483 -22.641  1.00  0.00     0.293 HD
ENDBRANCH  15  22
TORSDOF 3
ENDMDL
MODEL 7
REMARK VINA RESULT:    -6.738      2.188      3.594
REMARK INTER + INTRA:          -7.328
REMARK INTER:                  -7.328
REMARK INTRA:                   0.000
REMARK UNBOUND:                 0.000
REMARK SMILES Cc1cc(O)c2c(c1)C(=O)c1cc(O)cc(O)c1C2=O
REMARK SMILES IDX 1 1 2 2 8 3 7 4 6 5 4 6 3 7 19 8 20 9 18 10 11 11 9 12 10 13
REMARK SMILES IDX 12 14 13 15 15 16 16 17 5 18 17 20 14 22
REMARK H PARENT 5 19 17 21 14 23
REMARK Flexibility Score: inf
ROOT
ATOM      1  C   UNL     1     -14.928  -0.940 -21.853  1.00  0.00     0.044 C 
ATOM      2  C   UNL     1     -13.575  -1.241 -22.427  1.00  0.00    -0.047 A 
ATOM      3  C   UNL     1     -13.196  -2.564 -22.681  1.00  0.00     0.016 A 
ATOM      4  C   UNL     1     -11.916  -2.860 -23.178  1.00  0.00     0.038 A 
ATOM      5  C   UNL     1     -10.989  -1.817 -23.399  1.00  0.00     0.076 A 
ATOM      6  C   UNL     1     -11.393  -0.474 -23.183  1.00  0.00     0.127 A 
ATOM      7  C   UNL     1     -12.666  -0.205 -22.670  1.00  0.00     0.050 A 
ATOM      8  C   UNL     1      -9.599  -2.182 -23.782  1.00  0.00     0.201 C 
ATOM      9  O   UNL     1      -8.640  -1.438 -23.446  1.00  0.00    -0.288 OA
ATOM     10  C   UNL     1      -9.327  -3.509 -24.392  1.00  0.00     0.076 A 
ATOM     11  C   UNL     1     -10.257  -4.550 -24.167  1.00  0.00     0.041 A 
ATOM     12  C   UNL     1     -11.534  -4.261 -23.473  1.00  0.00     0.194 C 
ATOM     13  O   UNL     1     -12.308  -5.207 -23.157  1.00  0.00    -0.289 OA
ATOM     14  C   UNL     1      -9.968  -5.852 -24.609  1.00  0.00     0.059 A 
ATOM     15  C   UNL     1      -8.774  -6.124 -25.282  1.00  0.00     0.120 A 
ATOM     16  C   UNL     1      -7.873  -5.092 -25.540  1.00  0.00     0.093 A 
ATOM     17  C   UNL     1      -8.146  -3.784 -25.129  1.00  0.00     0.131 A 
ENDROOT
BRANCH   6  18
ATOM     18  O   UNL     1     -10.581   0.619 -23.494  1.00  0.00    -0.507 OA
ATOM     19  H   UNL     1     -10.149   0.756 -24.398  1.00  0.00     0.293 HD
ENDBRANCH   6  18
BRANCH  17  20
ATOM     20  O   UNL     1      -7.240  -2.789 -25.503  1.00  0.00    -0.507 OA
ATOM     21  H   UNL     1      -7.513  -1.845 -25.739  1.00  0.00     0.293 HD
ENDBRANCH  17  20
BRANCH  15  22
ATOM     22  O   UNL     1      -8.479  -7.417 -25.710  1.00  0.00    -0.508 OA
ATOM     23  H   UNL     1      -8.965  -8.224 -25.336  1.00  0.00     0.293 HD
ENDBRANCH  15  22
TORSDOF 3
ENDMDL
MODEL 8
REMARK VINA RESULT:    -6.716      3.030      7.404
REMARK INTER + INTRA:          -7.305
REMARK INTER:                  -7.305
REMARK INTRA:                   0.000
REMARK UNBOUND:                 0.000
REMARK SMILES Cc1cc(O)c2c(c1)C(=O)c1cc(O)cc(O)c1C2=O
REMARK SMILES IDX 1 1 2 2 8 3 7 4 6 5 4 6 3 7 19 8 20 9 18 10 11 11 9 12 10 13
REMARK SMILES IDX 12 14 13 15 15 16 16 17 5 18 17 20 14 22
REMARK H PARENT 5 19 17 21 14 23
REMARK Flexibility Score: inf
ROOT
ATOM      1  C   UNL     1      -9.755   0.222 -22.184  1.00  0.00     0.044 C 
ATOM      2  C   UNL     1     -11.119   0.711 -22.572  1.00  0.00    -0.047 A 
ATOM      3  C   UNL     1     -11.356   2.081 -22.735  1.00  0.00     0.016 A 
ATOM      4  C   UNL     1     -12.640   2.552 -23.057  1.00  0.00     0.038 A 
ATOM      5  C   UNL     1     -13.711   1.641 -23.191  1.00  0.00     0.076 A 
ATOM      6  C   UNL     1     -13.456   0.250 -23.069  1.00  0.00     0.127 A 
ATOM      7  C   UNL     1     -12.174  -0.195 -22.730  1.00  0.00     0.050 A 
ATOM      8  C   UNL     1     -15.079   2.189 -23.383  1.00  0.00     0.201 C 
ATOM      9  O   UNL     1     -16.077   1.552 -22.951  1.00  0.00    -0.288 OA
ATOM     10  C   UNL     1     -15.255   3.566 -23.912  1.00  0.00     0.076 A 
ATOM     11  C   UNL     1     -14.180   4.474 -23.776  1.00  0.00     0.041 A 
ATOM     12  C   UNL     1     -12.875   4.002 -23.258  1.00  0.00     0.194 C 
ATOM     13  O   UNL     1     -11.955   4.831 -23.014  1.00  0.00    -0.289 OA
ATOM     14  C   UNL     1     -14.354   5.821 -24.137  1.00  0.00     0.059 A 
ATOM     15  C   UNL     1     -15.577   6.267 -24.644  1.00  0.00     0.120 A 
ATOM     16  C   UNL     1     -16.626   5.365 -24.818  1.00  0.00     0.093 A 
ATOM     17  C   UNL     1     -16.472   4.016 -24.485  1.00  0.00     0.131 A 
ENDROOT
BRANCH   6  18
ATOM     18  O   UNL     1     -14.431  -0.721 -23.308  1.00  0.00    -0.507 OA
ATOM     19  H   UNL     1     -14.318  -1.697 -23.072  1.00  0.00     0.293 HD
ENDBRANCH   6  18
BRANCH  17  20
ATOM     20  O   UNL     1     -17.536   3.156 -24.772  1.00  0.00    -0.507 OA
ATOM     21  H   UNL     1     -17.417   2.182 -25.011  1.00  0.00     0.293 HD
ENDBRANCH  17  20
BRANCH  15  22
ATOM     22  O   UNL     1     -15.757   7.605 -24.992  1.00  0.00    -0.508 OA
ATOM     23  H   UNL     1     -15.198   8.045 -25.713  1.00  0.00     0.293 HD
ENDBRANCH  15  22
TORSDOF 3
ENDMDL
MODEL 9
REMARK VINA RESULT:    -6.684      2.080      5.357
REMARK INTER + INTRA:          -7.270
REMARK INTER:                  -7.270
REMARK INTRA:                   0.000
REMARK UNBOUND:                 0.000
REMARK SMILES Cc1cc(O)c2c(c1)C(=O)c1cc(O)cc(O)c1C2=O
REMARK SMILES IDX 1 1 2 2 8 3 7 4 6 5 4 6 3 7 19 8 20 9 18 10 11 11 9 12 10 13
REMARK SMILES IDX 12 14 13 15 15 16 16 17 5 18 17 20 14 22
REMARK H PARENT 5 19 17 21 14 23
REMARK Flexibility Score: inf
ROOT
ATOM      1  C   UNL     1      -9.188  -3.887 -23.498  1.00  0.00     0.044 C 
ATOM      2  C   UNL     1      -9.961  -2.615 -23.307  1.00  0.00    -0.047 A 
ATOM      3  C   UNL     1     -11.354  -2.652 -23.173  1.00  0.00     0.016 A 
ATOM      4  C   UNL     1     -12.092  -1.465 -23.037  1.00  0.00     0.038 A 
ATOM      5  C   UNL     1     -11.429  -0.217 -23.065  1.00  0.00     0.076 A 
ATOM      6  C   UNL     1     -10.013  -0.188 -23.156  1.00  0.00     0.127 A 
ATOM      7  C   UNL     1      -9.301  -1.382 -23.309  1.00  0.00     0.050 A 
ATOM      8  C   UNL     1     -12.256   1.018 -23.069  1.00  0.00     0.201 C 
ATOM      9  O   UNL     1     -11.832   2.055 -23.644  1.00  0.00    -0.288 OA
ATOM     10  C   UNL     1     -13.652   0.972 -22.563  1.00  0.00     0.076 A 
ATOM     11  C   UNL     1     -14.312  -0.277 -22.538  1.00  0.00     0.041 A 
ATOM     12  C   UNL     1     -13.563  -1.514 -22.864  1.00  0.00     0.194 C 
ATOM     13  O   UNL     1     -14.175  -2.613 -22.968  1.00  0.00    -0.289 OA
ATOM     14  C   UNL     1     -15.674  -0.342 -22.198  1.00  0.00     0.059 A 
ATOM     15  C   UNL     1     -16.378   0.819 -21.870  1.00  0.00     0.120 A 
ATOM     16  C   UNL     1     -15.721   2.048 -21.855  1.00  0.00     0.093 A 
ATOM     17  C   UNL     1     -14.362   2.137 -22.170  1.00  0.00     0.131 A 
ENDROOT
BRANCH   6  18
ATOM     18  O   UNL     1      -9.274   0.994 -23.066  1.00  0.00    -0.507 OA
ATOM     19  H   UNL     1      -9.106   1.484 -22.198  1.00  0.00     0.293 HD
ENDBRANCH   6  18
BRANCH  17  20
ATOM     20  O   UNL     1     -13.751   3.387 -22.045  1.00  0.00    -0.507 OA
ATOM     21  H   UNL     1     -14.264   4.252 -21.951  1.00  0.00     0.293 HD
ENDBRANCH  17  20
BRANCH  15  22
ATOM     22  O   UNL     1     -17.732   0.761 -21.545  1.00  0.00    -0.508 OA
ATOM     23  H   UNL     1     -18.438   1.188 -22.133  1.00  0.00     0.293 HD
ENDBRANCH  15  22
TORSDOF 3
ENDMDL
