MODEL 1
REMARK VINA RESULT:    -6.286      0.000      0.000
REMARK INTER + INTRA:          -7.677
REMARK INTER:                  -7.389
REMARK INTRA:                  -0.289
REMARK UNBOUND:                -0.289
REMARK SMILES O=c1cc(-c2ccc(O)c(O)c2)oc2cc(O)cc(O)c12
REMARK SMILES IDX 4 1 3 2 2 3 1 4 21 5 19 6 18 7 16 8 15 9 14 10 13 11 5 12
REMARK SMILES IDX 6 13 7 14 8 15 12 16 10 17 9 18 11 20 20 22 17 24
REMARK H PARENT 9 19 11 21 20 23 17 25
REMARK Flexibility Score: inf
ROOT
ATOM      1  C   UNL     1       2.787  -3.769  17.173  1.00  0.00     0.138 A 
ATOM      2  C   UNL     1       1.457  -3.904  17.594  1.00  0.00     0.100 A 
ATOM      3  C   UNL     1       0.645  -2.773  17.685  1.00  0.00     0.197 A 
ATOM      4  O   UNL     1      -0.526  -2.917  18.125  1.00  0.00    -0.289 OA
ATOM      5  C   UNL     1       1.159  -1.506  17.321  1.00  0.00     0.107 A 
ATOM      6  C   UNL     1       0.411  -0.291  17.335  1.00  0.00     0.134 A 
ATOM      7  C   UNL     1       1.059   0.921  17.067  1.00  0.00     0.093 A 
ATOM      8  C   UNL     1       2.413   0.954  16.726  1.00  0.00     0.123 A 
ATOM      9  C   UNL     1       3.139  -0.232  16.657  1.00  0.00     0.094 A 
ATOM     10  C   UNL     1       2.530  -1.454  16.953  1.00  0.00     0.146 A 
ATOM     11  O   UNL     1       3.262  -2.560  16.889  1.00  0.00    -0.456 OA
ENDROOT
BRANCH   1  12
ATOM     12  C   UNL     1       3.695  -4.939  17.057  1.00  0.00     0.021 A 
ATOM     13  C   UNL     1       3.789  -5.849  18.124  1.00  0.00     0.016 A 
ATOM     14  C   UNL     1       4.640  -6.954  18.043  1.00  0.00     0.051 A 
ATOM     15  C   UNL     1       5.421  -7.163  16.904  1.00  0.00     0.157 A 
ATOM     16  C   UNL     1       4.494  -5.147  15.916  1.00  0.00     0.062 A 
ATOM     17  C   UNL     1       5.350  -6.254  15.834  1.00  0.00     0.158 A 
BRANCH  15  18
ATOM     18  O   UNL     1       6.261  -8.276  16.851  1.00  0.00    -0.504 OA
ATOM     19  H   UNL     1       6.844  -8.547  17.633  1.00  0.00     0.293 HD
ENDBRANCH  15  18
BRANCH  17  20
ATOM     20  O   UNL     1       6.135  -6.452  14.699  1.00  0.00    -0.504 OA
ATOM     21  H   UNL     1       6.828  -5.773  14.408  1.00  0.00     0.293 HD
ENDBRANCH  17  20
ENDBRANCH   1  12
BRANCH   6  22
ATOM     22  O   UNL     1      -0.964  -0.223  17.580  1.00  0.00    -0.507 OA
ATOM     23  H   UNL     1      -1.494   0.630  17.665  1.00  0.00     0.293 HD
ENDBRANCH   6  22
BRANCH   8  24
ATOM     24  O   UNL     1       3.045   2.164  16.445  1.00  0.00    -0.508 OA
ATOM     25  H   UNL     1       2.977   2.957  17.073  1.00  0.00     0.293 HD
ENDBRANCH   8  24
TORSDOF 5
ENDMDL
MODEL 2
REMARK VINA RESULT:    -6.135      1.190      2.764
REMARK INTER + INTRA:          -7.499
REMARK INTER:                  -7.222
REMARK INTRA:                  -0.277
REMARK UNBOUND:                -0.289
REMARK SMILES O=c1cc(-c2ccc(O)c(O)c2)oc2cc(O)cc(O)c12
REMARK SMILES IDX 4 1 3 2 2 3 1 4 21 5 19 6 18 7 16 8 15 9 14 10 13 11 5 12
REMARK SMILES IDX 6 13 7 14 8 15 12 16 10 17 9 18 11 20 20 22 17 24
REMARK H PARENT 9 19 11 21 20 23 17 25
REMARK Flexibility Score: inf
ROOT
ATOM      1  C   UNL     1       4.173  -3.461  16.912  1.00  0.00     0.138 A 
ATOM      2  C   UNL     1       5.054  -2.422  16.583  1.00  0.00     0.100 A 
ATOM      3  C   UNL     1       4.588  -1.107  16.547  1.00  0.00     0.197 A 
ATOM      4  O   UNL     1       5.387  -0.203  16.188  1.00  0.00    -0.289 OA
ATOM      5  C   UNL     1       3.239  -0.829  16.874  1.00  0.00     0.107 A 
ATOM      6  C   UNL     1       2.664   0.476  16.911  1.00  0.00     0.134 A 
ATOM      7  C   UNL     1       1.289   0.617  17.134  1.00  0.00     0.093 A 
ATOM      8  C   UNL     1       0.480  -0.494  17.381  1.00  0.00     0.123 A 
ATOM      9  C   UNL     1       1.042  -1.769  17.401  1.00  0.00     0.094 A 
ATOM     10  C   UNL     1       2.404  -1.946  17.148  1.00  0.00     0.146 A 
ATOM     11  O   UNL     1       2.898  -3.179  17.162  1.00  0.00    -0.456 OA
ENDROOT
BRANCH   1  12
ATOM     12  C   UNL     1       4.616  -4.877  16.966  1.00  0.00     0.021 A 
ATOM     13  C   UNL     1       4.222  -5.684  18.047  1.00  0.00     0.016 A 
ATOM     14  C   UNL     1       4.631  -7.018  18.125  1.00  0.00     0.051 A 
ATOM     15  C   UNL     1       5.449  -7.565  17.134  1.00  0.00     0.157 A 
ATOM     16  C   UNL     1       5.452  -5.430  15.976  1.00  0.00     0.062 A 
ATOM     17  C   UNL     1       5.864  -6.768  16.054  1.00  0.00     0.158 A 
BRANCH  15  18
ATOM     18  O   UNL     1       5.840  -8.900  17.237  1.00  0.00    -0.504 OA
ATOM     19  H   UNL     1       6.088  -9.453  16.426  1.00  0.00     0.293 HD
ENDBRANCH  15  18
BRANCH  17  20
ATOM     20  O   UNL     1       6.690  -7.306  15.067  1.00  0.00    -0.504 OA
ATOM     21  H   UNL     1       7.548  -6.847  14.785  1.00  0.00     0.293 HD
ENDBRANCH  17  20
ENDBRANCH   1  12
BRANCH   6  22
ATOM     22  O   UNL     1       3.398   1.657  16.760  1.00  0.00    -0.507 OA
ATOM     23  H   UNL     1       4.097   1.815  16.052  1.00  0.00     0.293 HD
ENDBRANCH   6  22
BRANCH   8  24
ATOM     24  O   UNL     1      -0.884  -0.342  17.618  1.00  0.00    -0.508 OA
ATOM     25  H   UNL     1      -1.265   0.521  17.989  1.00  0.00     0.293 HD
ENDBRANCH   8  24
TORSDOF 5
ENDMDL
MODEL 3
REMARK VINA RESULT:    -5.927      2.338      6.777
REMARK INTER + INTRA:          -7.255
REMARK INTER:                  -6.946
REMARK INTRA:                  -0.309
REMARK UNBOUND:                -0.289
REMARK SMILES O=c1cc(-c2ccc(O)c(O)c2)oc2cc(O)cc(O)c12
REMARK SMILES IDX 4 1 3 2 2 3 1 4 21 5 19 6 18 7 16 8 15 9 14 10 13 11 5 12
REMARK SMILES IDX 6 13 7 14 8 15 12 16 10 17 9 18 11 20 20 22 17 24
REMARK H PARENT 9 19 11 21 20 23 17 25
REMARK Flexibility Score: inf
ROOT
ATOM      1  C   UNL     1       3.580  -3.332  17.622  1.00  0.00     0.138 A 
ATOM      2  C   UNL     1       3.382  -4.714  17.745  1.00  0.00     0.100 A 
ATOM      3  C   UNL     1       4.486  -5.567  17.798  1.00  0.00     0.197 A 
ATOM      4  O   UNL     1       4.276  -6.807  17.846  1.00  0.00    -0.289 OA
ATOM      5  C   UNL     1       5.794  -5.028  17.763  1.00  0.00     0.107 A 
ATOM      6  C   UNL     1       6.992  -5.797  17.853  1.00  0.00     0.134 A 
ATOM      7  C   UNL     1       8.231  -5.166  17.688  1.00  0.00     0.093 A 
ATOM      8  C   UNL     1       8.316  -3.784  17.497  1.00  0.00     0.123 A 
ATOM      9  C   UNL     1       7.155  -3.017  17.463  1.00  0.00     0.094 A 
ATOM     10  C   UNL     1       5.902  -3.622  17.589  1.00  0.00     0.146 A 
ATOM     11  O   UNL     1       4.818  -2.856  17.536  1.00  0.00    -0.456 OA
ENDROOT
BRANCH   1  12
ATOM     12  C   UNL     1       2.442  -2.380  17.561  1.00  0.00     0.021 A 
ATOM     13  C   UNL     1       1.207  -2.742  18.125  1.00  0.00     0.016 A 
ATOM     14  C   UNL     1       0.119  -1.867  18.075  1.00  0.00     0.051 A 
ATOM     15  C   UNL     1       0.240  -0.623  17.451  1.00  0.00     0.157 A 
ATOM     16  C   UNL     1       2.556  -1.130  16.921  1.00  0.00     0.062 A 
ATOM     17  C   UNL     1       1.464  -0.252  16.868  1.00  0.00     0.158 A 
BRANCH  15  18
ATOM     18  O   UNL     1      -0.863   0.230  17.418  1.00  0.00    -0.504 OA
ATOM     19  H   UNL     1      -1.062   0.883  18.166  1.00  0.00     0.293 HD
ENDBRANCH  15  18
BRANCH  17  20
ATOM     20  O   UNL     1       1.588   0.984  16.235  1.00  0.00    -0.504 OA
ATOM     21  H   UNL     1       0.887   1.708  16.341  1.00  0.00     0.293 HD
ENDBRANCH  17  20
ENDBRANCH   1  12
BRANCH   6  22
ATOM     22  O   UNL     1       7.021  -7.169  18.124  1.00  0.00    -0.507 OA
ATOM     23  H   UNL     1       7.187  -7.889  17.439  1.00  0.00     0.293 HD
ENDBRANCH   6  22
BRANCH   8  24
ATOM     24  O   UNL     1       9.555  -3.163  17.351  1.00  0.00    -0.508 OA
ATOM     25  H   UNL     1       9.991  -2.661  18.116  1.00  0.00     0.293 HD
ENDBRANCH   8  24
TORSDOF 5
ENDMDL
MODEL 4
REMARK VINA RESULT:    -5.772      4.671      7.351
REMARK INTER + INTRA:          -7.072
REMARK INTER:                  -6.757
REMARK INTRA:                  -0.316
REMARK UNBOUND:                -0.289
REMARK SMILES O=c1cc(-c2ccc(O)c(O)c2)oc2cc(O)cc(O)c12
REMARK SMILES IDX 4 1 3 2 2 3 1 4 21 5 19 6 18 7 16 8 15 9 14 10 13 11 5 12
REMARK SMILES IDX 6 13 7 14 8 15 12 16 10 17 9 18 11 20 20 22 17 24
REMARK H PARENT 9 19 11 21 20 23 17 25
REMARK Flexibility Score: inf
ROOT
ATOM      1  C   UNL     1       7.357  -2.605  16.787  1.00  0.00     0.138 A 
ATOM      2  C   UNL     1       6.161  -2.234  16.159  1.00  0.00     0.100 A 
ATOM      3  C   UNL     1       5.177  -3.196  15.927  1.00  0.00     0.197 A 
ATOM      4  O   UNL     1       4.140  -2.846  15.306  1.00  0.00    -0.289 OA
ATOM      5  C   UNL     1       5.379  -4.528  16.359  1.00  0.00     0.107 A 
ATOM      6  C   UNL     1       4.429  -5.582  16.214  1.00  0.00     0.134 A 
ATOM      7  C   UNL     1       4.787  -6.887  16.573  1.00  0.00     0.093 A 
ATOM      8  C   UNL     1       6.038  -7.165  17.128  1.00  0.00     0.123 A 
ATOM      9  C   UNL     1       6.953  -6.133  17.324  1.00  0.00     0.094 A 
ATOM     10  C   UNL     1       6.639  -4.827  16.944  1.00  0.00     0.146 A 
ATOM     11  O   UNL     1       7.546  -3.874  17.134  1.00  0.00    -0.456 OA
ENDROOT
BRANCH   1  12
ATOM     12  C   UNL     1       8.438  -1.622  17.058  1.00  0.00     0.021 A 
ATOM     13  C   UNL     1       8.177  -0.250  16.909  1.00  0.00     0.016 A 
ATOM     14  C   UNL     1       9.178   0.695  17.151  1.00  0.00     0.051 A 
ATOM     15  C   UNL     1      10.458   0.286  17.534  1.00  0.00     0.157 A 
ATOM     16  C   UNL     1       9.734  -2.030  17.431  1.00  0.00     0.062 A 
ATOM     17  C   UNL     1      10.740  -1.084  17.673  1.00  0.00     0.158 A 
BRANCH  15  18
ATOM     18  O   UNL     1      11.437   1.251  17.770  1.00  0.00    -0.504 OA
ATOM     19  H   UNL     1      11.608   2.013  17.125  1.00  0.00     0.293 HD
ENDBRANCH  15  18
BRANCH  17  20
ATOM     20  O   UNL     1      12.018  -1.498  18.044  1.00  0.00    -0.504 OA
ATOM     21  H   UNL     1      12.804  -0.859  18.047  1.00  0.00     0.293 HD
ENDBRANCH  17  20
ENDBRANCH   1  12
BRANCH   6  22
ATOM     22  O   UNL     1       3.123  -5.398  15.750  1.00  0.00    -0.507 OA
ATOM     23  H   UNL     1       2.299  -5.395  16.331  1.00  0.00     0.293 HD
ENDBRANCH   6  22
BRANCH   8  24
ATOM     24  O   UNL     1       6.379  -8.465  17.497  1.00  0.00    -0.508 OA
ATOM     25  H   UNL     1       6.945  -9.055  16.899  1.00  0.00     0.293 HD
ENDBRANCH   8  24
TORSDOF 5
ENDMDL
MODEL 5
REMARK VINA RESULT:    -5.771      1.869      7.285
REMARK INTER + INTRA:          -7.072
REMARK INTER:                  -6.794
REMARK INTRA:                  -0.278
REMARK UNBOUND:                -0.289
REMARK SMILES O=c1cc(-c2ccc(O)c(O)c2)oc2cc(O)cc(O)c12
REMARK SMILES IDX 4 1 3 2 2 3 1 4 21 5 19 6 18 7 16 8 15 9 14 10 13 11 5 12
REMARK SMILES IDX 6 13 7 14 8 15 12 16 10 17 9 18 11 20 20 22 17 24
REMARK H PARENT 9 19 11 21 20 23 17 25
REMARK Flexibility Score: inf
ROOT
ATOM      1  C   UNL     1       3.771  -3.056  17.364  1.00  0.00     0.138 A 
ATOM      2  C   UNL     1       5.038  -2.584  17.733  1.00  0.00     0.100 A 
ATOM      3  C   UNL     1       6.133  -3.449  17.698  1.00  0.00     0.197 A 
ATOM      4  O   UNL     1       7.246  -3.013  18.093  1.00  0.00    -0.289 OA
ATOM      5  C   UNL     1       5.962  -4.783  17.261  1.00  0.00     0.107 A 
ATOM      6  C   UNL     1       7.013  -5.741  17.145  1.00  0.00     0.134 A 
ATOM      7  C   UNL     1       6.705  -7.066  16.813  1.00  0.00     0.093 A 
ATOM      8  C   UNL     1       5.392  -7.453  16.534  1.00  0.00     0.123 A 
ATOM      9  C   UNL     1       4.366  -6.512  16.591  1.00  0.00     0.094 A 
ATOM     10  C   UNL     1       4.636  -5.191  16.952  1.00  0.00     0.146 A 
ATOM     11  O   UNL     1       3.627  -4.329  17.010  1.00  0.00    -0.456 OA
ENDROOT
BRANCH   1  12
ATOM     12  C   UNL     1       2.572  -2.179  17.382  1.00  0.00     0.021 A 
ATOM     13  C   UNL     1       1.377  -2.654  17.948  1.00  0.00     0.016 A 
ATOM     14  C   UNL     1       0.233  -1.852  17.972  1.00  0.00     0.051 A 
ATOM     15  C   UNL     1       0.259  -0.568  17.421  1.00  0.00     0.157 A 
ATOM     16  C   UNL     1       2.589  -0.889  16.816  1.00  0.00     0.062 A 
ATOM     17  C   UNL     1       1.442  -0.084  16.837  1.00  0.00     0.158 A 
BRANCH  15  18
ATOM     18  O   UNL     1      -0.898   0.211  17.460  1.00  0.00    -0.504 OA
ATOM     19  H   UNL     1      -1.703   0.008  16.880  1.00  0.00     0.293 HD
ENDBRANCH  15  18
BRANCH  17  20
ATOM     20  O   UNL     1       1.471   1.193  16.276  1.00  0.00    -0.504 OA
ATOM     21  H   UNL     1       1.169   2.008  16.796  1.00  0.00     0.293 HD
ENDBRANCH  17  20
ENDBRANCH   1  12
BRANCH   6  22
ATOM     22  O   UNL     1       8.367  -5.440  17.320  1.00  0.00    -0.507 OA
ATOM     23  H   UNL     1       9.126  -5.884  16.826  1.00  0.00     0.293 HD
ENDBRANCH   6  22
BRANCH   8  24
ATOM     24  O   UNL     1       5.097  -8.770  16.189  1.00  0.00    -0.508 OA
ATOM     25  H   UNL     1       5.268  -9.537  16.829  1.00  0.00     0.293 HD
ENDBRANCH   8  24
TORSDOF 5
ENDMDL
MODEL 6
REMARK VINA RESULT:    -5.649      5.248      7.307
REMARK INTER + INTRA:          -6.928
REMARK INTER:                  -6.645
REMARK INTRA:                  -0.283
REMARK UNBOUND:                -0.289
REMARK SMILES O=c1cc(-c2ccc(O)c(O)c2)oc2cc(O)cc(O)c12
REMARK SMILES IDX 4 1 3 2 2 3 1 4 21 5 19 6 18 7 16 8 15 9 14 10 13 11 5 12
REMARK SMILES IDX 6 13 7 14 8 15 12 16 10 17 9 18 11 20 20 22 17 24
REMARK H PARENT 9 19 11 21 20 23 17 25
REMARK Flexibility Score: inf
ROOT
ATOM      1  C   UNL     1       7.120  -2.490  16.937  1.00  0.00     0.138 A 
ATOM      2  C   UNL     1       7.955  -3.478  17.476  1.00  0.00     0.100 A 
ATOM      3  C   UNL     1       9.317  -3.217  17.634  1.00  0.00     0.197 A 
ATOM      4  O   UNL     1      10.053  -4.144  18.062  1.00  0.00    -0.289 OA
ATOM      5  C   UNL     1       9.837  -1.949  17.281  1.00  0.00     0.107 A 
ATOM      6  C   UNL     1      11.200  -1.558  17.437  1.00  0.00     0.134 A 
ATOM      7  C   UNL     1      11.622  -0.317  16.944  1.00  0.00     0.093 A 
ATOM      8  C   UNL     1      10.718   0.570  16.355  1.00  0.00     0.123 A 
ATOM      9  C   UNL     1       9.374   0.220  16.247  1.00  0.00     0.094 A 
ATOM     10  C   UNL     1       8.929  -1.025  16.698  1.00  0.00     0.146 A 
ATOM     11  O   UNL     1       7.642  -1.326  16.563  1.00  0.00    -0.456 OA
ENDROOT
BRANCH   1  12
ATOM     12  C   UNL     1       5.663  -2.713  16.748  1.00  0.00     0.021 A 
ATOM     13  C   UNL     1       4.767  -1.654  16.967  1.00  0.00     0.016 A 
ATOM     14  C   UNL     1       3.392  -1.840  16.802  1.00  0.00     0.051 A 
ATOM     15  C   UNL     1       2.888  -3.087  16.428  1.00  0.00     0.157 A 
ATOM     16  C   UNL     1       5.149  -3.973  16.383  1.00  0.00     0.062 A 
ATOM     17  C   UNL     1       3.769  -4.161  16.219  1.00  0.00     0.158 A 
BRANCH  15  18
ATOM     18  O   UNL     1       1.510  -3.243  16.269  1.00  0.00    -0.504 OA
ATOM     19  H   UNL     1       0.859  -3.075  17.026  1.00  0.00     0.293 HD
ENDBRANCH  15  18
BRANCH  17  20
ATOM     20  O   UNL     1       3.270  -5.412  15.856  1.00  0.00    -0.504 OA
ATOM     21  H   UNL     1       3.867  -6.126  15.455  1.00  0.00     0.293 HD
ENDBRANCH  17  20
ENDBRANCH   1  12
BRANCH   6  22
ATOM     22  O   UNL     1      12.166  -2.333  18.086  1.00  0.00    -0.507 OA
ATOM     23  H   UNL     1      13.088  -2.525  17.727  1.00  0.00     0.293 HD
ENDBRANCH   6  22
BRANCH   8  24
ATOM     24  O   UNL     1      11.144   1.809  15.882  1.00  0.00    -0.508 OA
ATOM     25  H   UNL     1      10.572   2.364  15.255  1.00  0.00     0.293 HD
ENDBRANCH   8  24
TORSDOF 5
ENDMDL
MODEL 7
REMARK VINA RESULT:    -5.590      8.122     10.379
REMARK INTER + INTRA:          -6.859
REMARK INTER:                  -6.567
REMARK INTRA:                  -0.292
REMARK UNBOUND:                -0.289
REMARK SMILES O=c1cc(-c2ccc(O)c(O)c2)oc2cc(O)cc(O)c12
REMARK SMILES IDX 4 1 3 2 2 3 1 4 21 5 19 6 18 7 16 8 15 9 14 10 13 11 5 12
REMARK SMILES IDX 6 13 7 14 8 15 12 16 10 17 9 18 11 20 20 22 17 24
REMARK H PARENT 9 19 11 21 20 23 17 25
REMARK Flexibility Score: inf
ROOT
ATOM      1  C   UNL     1      10.964   0.600  16.804  1.00  0.00     0.138 A 
ATOM      2  C   UNL     1       9.649   1.059  16.650  1.00  0.00     0.100 A 
ATOM      3  C   UNL     1       8.584   0.180  16.853  1.00  0.00     0.197 A 
ATOM      4  O   UNL     1       7.417   0.604  16.648  1.00  0.00    -0.289 OA
ATOM      5  C   UNL     1       8.839  -1.156  17.244  1.00  0.00     0.107 A 
ATOM      6  C   UNL     1       7.831  -2.128  17.519  1.00  0.00     0.134 A 
ATOM      7  C   UNL     1       8.204  -3.452  17.783  1.00  0.00     0.093 A 
ATOM      8  C   UNL     1       9.549  -3.824  17.842  1.00  0.00     0.123 A 
ATOM      9  C   UNL     1      10.542  -2.870  17.629  1.00  0.00     0.094 A 
ATOM     10  C   UNL     1      10.201  -1.549  17.329  1.00  0.00     0.146 A 
ATOM     11  O   UNL     1      11.178  -0.674  17.118  1.00  0.00    -0.456 OA
ENDROOT
BRANCH   1  12
ATOM     12  C   UNL     1      12.134   1.492  16.600  1.00  0.00     0.021 A 
ATOM     13  C   UNL     1      13.387   0.931  16.298  1.00  0.00     0.016 A 
ATOM     14  C   UNL     1      14.505   1.748  16.108  1.00  0.00     0.051 A 
ATOM     15  C   UNL     1      14.395   3.135  16.229  1.00  0.00     0.157 A 
ATOM     16  C   UNL     1      12.032   2.890  16.734  1.00  0.00     0.062 A 
ATOM     17  C   UNL     1      13.153   3.711  16.546  1.00  0.00     0.158 A 
BRANCH  15  18
ATOM     18  O   UNL     1      15.528   3.925  16.033  1.00  0.00    -0.504 OA
ATOM     19  H   UNL     1      16.464   3.541  16.065  1.00  0.00     0.293 HD
ENDBRANCH  15  18
BRANCH  17  20
ATOM     20  O   UNL     1      13.040   5.094  16.679  1.00  0.00    -0.504 OA
ATOM     21  H   UNL     1      12.171   5.531  16.963  1.00  0.00     0.293 HD
ENDBRANCH  17  20
ENDBRANCH   1  12
BRANCH   6  22
ATOM     22  O   UNL     1       6.463  -1.843  17.568  1.00  0.00    -0.507 OA
ATOM     23  H   UNL     1       5.785  -2.361  18.105  1.00  0.00     0.293 HD
ENDBRANCH   6  22
BRANCH   8  24
ATOM     24  O   UNL     1       9.910  -5.140  18.122  1.00  0.00    -0.508 OA
ATOM     25  H   UNL     1      10.351  -5.729  17.425  1.00  0.00     0.293 HD
ENDBRANCH   8  24
TORSDOF 5
ENDMDL
MODEL 8
REMARK VINA RESULT:    -5.579      8.290      9.848
REMARK INTER + INTRA:          -6.847
REMARK INTER:                  -6.534
REMARK INTRA:                  -0.313
REMARK UNBOUND:                -0.289
REMARK SMILES O=c1cc(-c2ccc(O)c(O)c2)oc2cc(O)cc(O)c12
REMARK SMILES IDX 4 1 3 2 2 3 1 4 21 5 19 6 18 7 16 8 15 9 14 10 13 11 5 12
REMARK SMILES IDX 6 13 7 14 8 15 12 16 10 17 9 18 11 20 20 22 17 24
REMARK H PARENT 9 19 11 21 20 23 17 25
REMARK Flexibility Score: inf
ROOT
ATOM      1  C   UNL     1      11.285  -0.073  17.036  1.00  0.00     0.138 A 
ATOM      2  C   UNL     1      12.635  -0.026  16.662  1.00  0.00     0.100 A 
ATOM      3  C   UNL     1      13.251   1.209  16.455  1.00  0.00     0.197 A 
ATOM      4  O   UNL     1      14.445   1.219  16.059  1.00  0.00    -0.289 OA
ATOM      5  C   UNL     1      12.518   2.403  16.658  1.00  0.00     0.107 A 
ATOM      6  C   UNL     1      13.054   3.718  16.518  1.00  0.00     0.134 A 
ATOM      7  C   UNL     1      12.203   4.824  16.630  1.00  0.00     0.093 A 
ATOM      8  C   UNL     1      10.849   4.665  16.937  1.00  0.00     0.123 A 
ATOM      9  C   UNL     1      10.329   3.387  17.129  1.00  0.00     0.094 A 
ATOM     10  C   UNL     1      11.144   2.262  16.990  1.00  0.00     0.146 A 
ATOM     11  O   UNL     1      10.605   1.061  17.167  1.00  0.00    -0.456 OA
ENDROOT
BRANCH   1  12
ATOM     12  C   UNL     1      10.581  -1.360  17.269  1.00  0.00     0.021 A 
ATOM     13  C   UNL     1      11.331  -2.526  17.500  1.00  0.00     0.016 A 
ATOM     14  C   UNL     1      10.693  -3.751  17.715  1.00  0.00     0.051 A 
ATOM     15  C   UNL     1       9.298  -3.835  17.692  1.00  0.00     0.157 A 
ATOM     16  C   UNL     1       9.176  -1.453  17.233  1.00  0.00     0.062 A 
ATOM     17  C   UNL     1       8.535  -2.681  17.447  1.00  0.00     0.158 A 
BRANCH  15  18
ATOM     18  O   UNL     1       8.689  -5.071  17.911  1.00  0.00    -0.504 OA
ATOM     19  H   UNL     1       9.218  -5.934  17.942  1.00  0.00     0.293 HD
ENDBRANCH  15  18
BRANCH  17  20
ATOM     20  O   UNL     1       7.143  -2.761  17.412  1.00  0.00    -0.504 OA
ATOM     21  H   UNL     1       6.622  -2.580  16.562  1.00  0.00     0.293 HD
ENDBRANCH  17  20
ENDBRANCH   1  12
BRANCH   6  22
ATOM     22  O   UNL     1      14.407   3.991  16.295  1.00  0.00    -0.507 OA
ATOM     23  H   UNL     1      14.900   4.793  16.654  1.00  0.00     0.293 HD
ENDBRANCH   6  22
BRANCH   8  24
ATOM     24  O   UNL     1      10.014   5.773  17.062  1.00  0.00    -0.508 OA
ATOM     25  H   UNL     1      10.087   6.407  17.849  1.00  0.00     0.293 HD
ENDBRANCH   8  24
TORSDOF 5
ENDMDL
MODEL 9
REMARK VINA RESULT:    -5.549      7.475      9.665
REMARK INTER + INTRA:          -6.811
REMARK INTER:                  -6.495
REMARK INTRA:                  -0.316
REMARK UNBOUND:                -0.289
REMARK SMILES O=c1cc(-c2ccc(O)c(O)c2)oc2cc(O)cc(O)c12
REMARK SMILES IDX 4 1 3 2 2 3 1 4 21 5 19 6 18 7 16 8 15 9 14 10 13 11 5 12
REMARK SMILES IDX 6 13 7 14 8 15 12 16 10 17 9 18 11 20 20 22 17 24
REMARK H PARENT 9 19 11 21 20 23 17 25
REMARK Flexibility Score: inf
ROOT
ATOM      1  C   UNL     1      10.841  -0.544  17.088  1.00  0.00     0.138 A 
ATOM      2  C   UNL     1      11.289  -1.800  17.521  1.00  0.00     0.100 A 
ATOM      3  C   UNL     1      10.374  -2.842  17.675  1.00  0.00     0.197 A 
ATOM      4  O   UNL     1      10.794  -3.940  18.125  1.00  0.00    -0.289 OA
ATOM      5  C   UNL     1       9.010  -2.634  17.361  1.00  0.00     0.107 A 
ATOM      6  C   UNL     1       7.996  -3.634  17.440  1.00  0.00     0.134 A 
ATOM      7  C   UNL     1       6.659  -3.280  17.217  1.00  0.00     0.093 A 
ATOM      8  C   UNL     1       6.309  -1.976  16.859  1.00  0.00     0.123 A 
ATOM      9  C   UNL     1       7.298  -1.005  16.725  1.00  0.00     0.094 A 
ATOM     10  C   UNL     1       8.636  -1.318  16.975  1.00  0.00     0.146 A 
ATOM     11  O   UNL     1       9.547  -0.359  16.852  1.00  0.00    -0.456 OA
ENDROOT
BRANCH   1  12
ATOM     12  C   UNL     1      11.772   0.599  16.906  1.00  0.00     0.021 A 
ATOM     13  C   UNL     1      13.084   0.508  17.400  1.00  0.00     0.016 A 
ATOM     14  C   UNL     1      13.977   1.572  17.249  1.00  0.00     0.051 A 
ATOM     15  C   UNL     1      13.573   2.748  16.613  1.00  0.00     0.157 A 
ATOM     16  C   UNL     1      11.365   1.793  16.278  1.00  0.00     0.062 A 
ATOM     17  C   UNL     1      12.260   2.862  16.127  1.00  0.00     0.158 A 
BRANCH  15  18
ATOM     18  O   UNL     1      14.487   3.793  16.475  1.00  0.00    -0.504 OA
ATOM     19  H   UNL     1      15.276   3.738  15.844  1.00  0.00     0.293 HD
ENDBRANCH  15  18
BRANCH  17  20
ATOM     20  O   UNL     1      11.847   4.038  15.502  1.00  0.00    -0.504 OA
ATOM     21  H   UNL     1      12.457   4.844  15.430  1.00  0.00     0.293 HD
ENDBRANCH  17  20
ENDBRANCH   1  12
BRANCH   6  22
ATOM     22  O   UNL     1       8.248  -4.983  17.708  1.00  0.00    -0.507 OA
ATOM     23  H   UNL     1       8.445  -5.363  18.621  1.00  0.00     0.293 HD
ENDBRANCH   6  22
BRANCH   8  24
ATOM     24  O   UNL     1       4.978  -1.638  16.623  1.00  0.00    -0.508 OA
ATOM     25  H   UNL     1       4.726  -0.859  16.025  1.00  0.00     0.293 HD
ENDBRANCH   8  24
TORSDOF 5
ENDMDL
