MODEL 1
REMARK VINA RESULT:    -3.527      0.000      0.000
REMARK INTER + INTRA:          -3.640
REMARK INTER:                  -3.836
REMARK INTRA:                   0.196
REMARK UNBOUND:                 0.196
REMARK SMILES CC1(C)CC[C@@]2(C(=O)[O-])CC[C@]3(C)C(=CC[C@@H]4[C@]5(C)CC[C@H](O)C(C)(C)[C@@H]5CC[C@]43C)[C@H]2C1
REMARK SMILES IDX 6 1 5 2 10 3 32 4 4 5 11 6 14 7 33 8 2 9 12 10 15 11 1 12
REMARK SMILES IDX 3 13 13 14 30 15 16 16 17 17 29 18 31 19 18 20 28 21 27 22
REMARK SMILES IDX 20 23 19 24 24 25 21 26 22 27 25 28 26 29 7 30 8 31 9 32
REMARK SMILES IDX 23 33
REMARK H PARENT 23 34
REMARK Flexibility Score: inf
ROOT
ATOM      1  C   UNL     1      10.186  15.886 -17.850  1.00  0.00     0.017 C 
ATOM      2  C   UNL     1       9.890  17.192 -18.675  1.00  0.00     0.014 C 
ATOM      3  C   UNL     1       9.503  15.990 -16.429  1.00  0.00     0.014 C 
ATOM      4  C   UNL     1       9.652  14.646 -18.661  1.00  0.00     0.028 C 
ATOM      5  C   UNL     1       9.886  16.935 -20.199  1.00  0.00     0.007 C 
ATOM      6  C   UNL     1       8.762  14.723 -15.926  1.00  0.00     0.013 C 
ATOM      7  C   UNL     1       9.504  13.355 -17.883  1.00  0.00    -0.064 C 
ATOM      8  C   UNL     1       8.354  15.013 -19.424  1.00  0.00     0.015 C 
ATOM      9  C   UNL     1       8.708  15.978 -20.606  1.00  0.00    -0.035 C 
ATOM     10  C   UNL     1       9.390  13.356 -16.356  1.00  0.00    -0.006 C 
ATOM     11  C   UNL     1       9.535  12.192 -18.586  1.00  0.00    -0.027 C 
ATOM     12  C   UNL     1       7.486  16.852 -21.004  1.00  0.00     0.011 C 
ATOM     13  C   UNL     1       9.103  15.097 -21.824  1.00  0.00     0.011 C 
ATOM     14  C   UNL     1      10.851  13.269 -15.771  1.00  0.00     0.017 C 
ATOM     15  C   UNL     1       8.468  12.097 -15.915  1.00  0.00    -0.020 C 
ATOM     16  C   UNL     1       9.218  10.832 -18.014  1.00  0.00     0.032 C 
ATOM     17  C   UNL     1       9.182  10.800 -16.468  1.00  0.00     0.006 C 
ATOM     18  C   UNL     1       8.307  11.983 -14.376  1.00  0.00     0.008 C 
ATOM     19  C   UNL     1       7.025  12.274 -16.518  1.00  0.00     0.012 C 
ATOM     20  C   UNL     1       8.865   9.351 -15.854  1.00  0.00    -0.025 C 
ATOM     21  C   UNL     1       7.723  10.636 -13.923  1.00  0.00     0.005 C 
ATOM     22  C   UNL     1       8.633   9.424 -14.287  1.00  0.00     0.003 C 
ATOM     23  C   UNL     1       7.621   8.687 -16.533  1.00  0.00     0.010 C 
ATOM     24  C   UNL     1      10.128   8.449 -16.165  1.00  0.00     0.012 C 
ATOM     25  C   UNL     1       8.157   8.038 -13.593  1.00  0.00    -0.006 C 
ATOM     26  C   UNL     1       7.067   7.413 -15.847  1.00  0.00     0.033 C 
ATOM     27  C   UNL     1       7.907   6.907 -14.658  1.00  0.00     0.120 C 
ATOM     28  C   UNL     1       9.273   7.539 -12.629  1.00  0.00     0.014 C 
ATOM     29  C   UNL     1       6.875   8.188 -12.710  1.00  0.00     0.014 C 
ENDROOT
BRANCH   1  30
ATOM     30  C   UNL     1      11.708  15.790 -17.673  1.00  0.00     0.048 C 
ATOM     31  O   UNL     1      12.221  15.762 -16.518  1.00  0.00    -0.550 OA
ATOM     32  O   UNL     1      12.563  15.754 -18.772  1.00  0.00    -0.550 OA
ENDBRANCH   1  30
BRANCH  27  33
ATOM     33  O   UNL     1       7.335   5.751 -14.081  1.00  0.00    -0.393 OA
ATOM     34  H   UNL     1       6.469   5.553 -14.535  1.00  0.00     0.210 HD
ENDBRANCH  27  33
TORSDOF 2
ENDMDL
MODEL 2
REMARK VINA RESULT:    -3.189      2.049      3.582
REMARK INTER + INTRA:          -3.273
REMARK INTER:                  -3.082
REMARK INTRA:                  -0.191
REMARK UNBOUND:                 0.196
REMARK SMILES CC1(C)CC[C@@]2(C(=O)[O-])CC[C@]3(C)C(=CC[C@@H]4[C@]5(C)CC[C@H](O)C(C)(C)[C@@H]5CC[C@]43C)[C@H]2C1
REMARK SMILES IDX 6 1 5 2 10 3 32 4 4 5 11 6 14 7 33 8 2 9 12 10 15 11 1 12
REMARK SMILES IDX 3 13 13 14 30 15 16 16 17 17 29 18 31 19 18 20 28 21 27 22
REMARK SMILES IDX 20 23 19 24 24 25 21 26 22 27 25 28 26 29 7 30 8 31 9 32
REMARK SMILES IDX 23 33
REMARK H PARENT 23 34
REMARK Flexibility Score: inf
ROOT
ATOM      1  C   UNL     1       9.633  17.089 -19.246  1.00  0.00     0.017 C 
ATOM      2  C   UNL     1       9.881  18.636 -19.379  1.00  0.00     0.014 C 
ATOM      3  C   UNL     1      11.011  16.350 -19.016  1.00  0.00     0.014 C 
ATOM      4  C   UNL     1       8.635  16.840 -18.054  1.00  0.00     0.028 C 
ATOM      5  C   UNL     1       8.660  19.467 -18.922  1.00  0.00     0.007 C 
ATOM      6  C   UNL     1      11.027  15.246 -17.925  1.00  0.00     0.013 C 
ATOM      7  C   UNL     1       8.564  15.420 -17.530  1.00  0.00    -0.064 C 
ATOM      8  C   UNL     1       8.878  17.863 -16.916  1.00  0.00     0.015 C 
ATOM      9  C   UNL     1       8.393  19.277 -17.385  1.00  0.00    -0.035 C 
ATOM     10  C   UNL     1       9.703  14.427 -17.772  1.00  0.00    -0.006 C 
ATOM     11  C   UNL     1       7.427  15.045 -16.887  1.00  0.00    -0.027 C 
ATOM     12  C   UNL     1       9.134  20.409 -16.619  1.00  0.00     0.011 C 
ATOM     13  C   UNL     1       6.875  19.378 -17.068  1.00  0.00     0.011 C 
ATOM     14  C   UNL     1       9.409  13.690 -19.136  1.00  0.00     0.017 C 
ATOM     15  C   UNL     1       9.762  13.405 -16.515  1.00  0.00    -0.020 C 
ATOM     16  C   UNL     1       7.249  13.746 -16.141  1.00  0.00     0.032 C 
ATOM     17  C   UNL     1       8.349  12.700 -16.441  1.00  0.00     0.006 C 
ATOM     18  C   UNL     1      10.869  12.328 -16.669  1.00  0.00     0.008 C 
ATOM     19  C   UNL     1      10.084  14.213 -15.204  1.00  0.00     0.012 C 
ATOM     20  C   UNL     1       8.154  11.308 -15.663  1.00  0.00    -0.025 C 
ATOM     21  C   UNL     1      10.736  11.170 -15.669  1.00  0.00     0.005 C 
ATOM     22  C   UNL     1       9.414  10.363 -15.845  1.00  0.00     0.003 C 
ATOM     23  C   UNL     1       7.881  11.523 -14.137  1.00  0.00     0.010 C 
ATOM     24  C   UNL     1       6.875  10.621 -16.295  1.00  0.00     0.012 C 
ATOM     25  C   UNL     1       9.381   8.994 -14.975  1.00  0.00    -0.006 C 
ATOM     26  C   UNL     1       7.939  10.257 -13.249  1.00  0.00     0.033 C 
ATOM     27  C   UNL     1       8.131   8.937 -14.021  1.00  0.00     0.120 C 
ATOM     28  C   UNL     1       9.293   7.776 -15.941  1.00  0.00     0.014 C 
ATOM     29  C   UNL     1      10.673   8.763 -14.124  1.00  0.00     0.014 C 
ENDROOT
BRANCH   1  30
ATOM     30  C   UNL     1       9.016  16.607 -20.566  1.00  0.00     0.048 C 
ATOM     31  O   UNL     1       7.796  16.278 -20.624  1.00  0.00    -0.550 OA
ATOM     32  O   UNL     1       9.781  16.496 -21.725  1.00  0.00    -0.550 OA
ENDBRANCH   1  30
BRANCH  27  33
ATOM     33  O   UNL     1       8.183   7.831 -13.143  1.00  0.00    -0.393 OA
ATOM     34  H   UNL     1       8.825   8.029 -12.406  1.00  0.00     0.210 HD
ENDBRANCH  27  33
TORSDOF 2
ENDMDL
MODEL 3
REMARK VINA RESULT:    -2.921      1.649      2.310
REMARK INTER + INTRA:          -2.981
REMARK INTER:                  -2.825
REMARK INTRA:                  -0.156
REMARK UNBOUND:                 0.196
REMARK SMILES CC1(C)CC[C@@]2(C(=O)[O-])CC[C@]3(C)C(=CC[C@@H]4[C@]5(C)CC[C@H](O)C(C)(C)[C@@H]5CC[C@]43C)[C@H]2C1
REMARK SMILES IDX 6 1 5 2 10 3 32 4 4 5 11 6 14 7 33 8 2 9 12 10 15 11 1 12
REMARK SMILES IDX 3 13 13 14 30 15 16 16 17 17 29 18 31 19 18 20 28 21 27 22
REMARK SMILES IDX 20 23 19 24 24 25 21 26 22 27 25 28 26 29 7 30 8 31 9 32
REMARK SMILES IDX 23 33
REMARK H PARENT 23 34
REMARK Flexibility Score: inf
ROOT
ATOM      1  C   UNL     1       8.379  16.765 -19.612  1.00  0.00     0.017 C 
ATOM      2  C   UNL     1       8.019  17.613 -20.887  1.00  0.00     0.014 C 
ATOM      3  C   UNL     1       7.072  16.507 -18.762  1.00  0.00     0.014 C 
ATOM      4  C   UNL     1       9.046  15.417 -20.076  1.00  0.00     0.028 C 
ATOM      5  C   UNL     1       8.984  17.341 -22.064  1.00  0.00     0.007 C 
ATOM      6  C   UNL     1       6.880  15.068 -18.214  1.00  0.00     0.013 C 
ATOM      7  C   UNL     1       9.120  14.319 -19.036  1.00  0.00    -0.064 C 
ATOM      8  C   UNL     1       8.407  14.919 -21.397  1.00  0.00     0.015 C 
ATOM      9  C   UNL     1       8.852  15.859 -22.569  1.00  0.00    -0.035 C 
ATOM     10  C   UNL     1       8.193  14.314 -17.817  1.00  0.00    -0.006 C 
ATOM     11  C   UNL     1      10.079  13.368 -19.194  1.00  0.00    -0.027 C 
ATOM     12  C   UNL     1       7.825  15.830 -23.734  1.00  0.00     0.011 C 
ATOM     13  C   UNL     1      10.214  15.329 -23.099  1.00  0.00     0.011 C 
ATOM     14  C   UNL     1       8.911  15.127 -16.672  1.00  0.00     0.017 C 
ATOM     15  C   UNL     1       7.908  12.773 -17.401  1.00  0.00    -0.020 C 
ATOM     16  C   UNL     1      10.184  12.106 -18.373  1.00  0.00     0.032 C 
ATOM     17  C   UNL     1       9.315  12.122 -17.093  1.00  0.00     0.006 C 
ATOM     18  C   UNL     1       6.997  12.650 -16.151  1.00  0.00     0.008 C 
ATOM     19  C   UNL     1       7.170  12.044 -18.584  1.00  0.00     0.012 C 
ATOM     20  C   UNL     1       9.438  10.790 -16.206  1.00  0.00    -0.025 C 
ATOM     21  C   UNL     1       6.978  11.236 -15.548  1.00  0.00     0.005 C 
ATOM     22  C   UNL     1       8.375  10.777 -15.030  1.00  0.00     0.003 C 
ATOM     23  C   UNL     1       9.275   9.494 -17.069  1.00  0.00     0.010 C 
ATOM     24  C   UNL     1      10.902  10.791 -15.602  1.00  0.00     0.012 C 
ATOM     25  C   UNL     1       8.315   9.405 -14.166  1.00  0.00    -0.006 C 
ATOM     26  C   UNL     1       9.114   8.168 -16.285  1.00  0.00     0.033 C 
ATOM     27  C   UNL     1       9.267   8.301 -14.758  1.00  0.00     0.120 C 
ATOM     28  C   UNL     1       8.779   9.697 -12.709  1.00  0.00     0.014 C 
ATOM     29  C   UNL     1       6.875   8.809 -14.037  1.00  0.00     0.014 C 
ENDROOT
BRANCH   1  30
ATOM     30  C   UNL     1       9.369  17.589 -18.777  1.00  0.00     0.048 C 
ATOM     31  O   UNL     1       9.011  18.678 -18.244  1.00  0.00    -0.550 OA
ATOM     32  O   UNL     1      10.688  17.176 -18.604  1.00  0.00    -0.550 OA
ENDBRANCH   1  30
BRANCH  27  33
ATOM     33  O   UNL     1       9.098   7.054 -14.114  1.00  0.00    -0.393 OA
ATOM     34  H   UNL     1       9.421   6.329 -14.718  1.00  0.00     0.210 HD
ENDBRANCH  27  33
TORSDOF 2
ENDMDL
