MODEL 1
REMARK VINA RESULT:    -3.747      0.000      0.000
REMARK INTER + INTRA:          -9.406
REMARK INTER:                  -6.813
REMARK INTRA:                  -2.593
REMARK UNBOUND:                -2.593
REMARK SMILES CCCCCCCCCCCCCCCC(=O)[O-]
REMARK SMILES IDX 9 1 10 2 11 3 12 4 13 5 14 6 15 7 16 8 17 9 18 10 8 11 7 12
REMARK SMILES IDX 6 13 5 14 4 15 3 16 2 17 1 18
REMARK H PARENT
REMARK Flexibility Score: inf
ROOT
ATOM      1  C   UNL     1      -4.907  37.023  22.140  1.00  0.00     0.000 C 
ENDROOT
BRANCH   1   2
ATOM      2  C   UNL     1      -4.617  37.014  20.632  1.00  0.00     0.000 C 
BRANCH   2   3
ATOM      3  C   UNL     1      -5.888  37.159  19.781  1.00  0.00     0.000 C 
BRANCH   3   4
ATOM      4  C   UNL     1      -5.695  38.102  18.584  1.00  0.00     0.000 C 
BRANCH   4   5
ATOM      5  C   UNL     1      -4.361  37.827  17.880  1.00  0.00     0.000 C 
BRANCH   5   6
ATOM      6  C   UNL     1      -3.475  39.083  17.869  1.00  0.00     0.006 C 
BRANCH   6   7
ATOM      7  C   UNL     1      -2.085  38.808  17.278  1.00  0.00     0.053 C 
BRANCH   7   8
ATOM      8  C   UNL     1      -1.222  38.034  18.225  1.00  0.00     0.041 C 
ATOM      9  O   UNL     1      -1.290  38.248  19.465  1.00  0.00    -0.550 OA
ATOM     10  O   UNL     1      -0.316  37.100  17.737  1.00  0.00    -0.550 OA
ENDBRANCH   7   8
ENDBRANCH   6   7
ENDBRANCH   5   6
ENDBRANCH   4   5
ENDBRANCH   3   4
ENDBRANCH   2   3
ENDBRANCH   1   2
BRANCH   1  11
ATOM     11  C   UNL     1      -6.413  37.173  22.407  1.00  0.00     0.000 C 
BRANCH  11  12
ATOM     12  C   UNL     1      -6.778  38.535  23.017  1.00  0.00    -0.000 C 
BRANCH  12  13
ATOM     13  C   UNL     1      -7.746  39.338  22.131  1.00  0.00    -0.000 C 
BRANCH  13  14
ATOM     14  C   UNL     1      -7.015  40.301  21.180  1.00  0.00    -0.000 C 
BRANCH  14  15
ATOM     15  C   UNL     1      -5.747  40.903  21.803  1.00  0.00    -0.000 C 
BRANCH  15  16
ATOM     16  C   UNL     1      -4.571  40.846  20.814  1.00  0.00    -0.000 C 
BRANCH  16  17
ATOM     17  C   UNL     1      -3.256  40.416  21.484  1.00  0.00    -0.003 C 
ATOM     18  C   UNL     1      -3.397  40.221  22.993  1.00  0.00     0.004 C 
ENDBRANCH  16  17
ENDBRANCH  15  16
ENDBRANCH  14  15
ENDBRANCH  13  14
ENDBRANCH  12  13
ENDBRANCH  11  12
ENDBRANCH   1  11
TORSDOF 14
ENDMDL
MODEL 2
REMARK VINA RESULT:    -3.708      1.534      2.873
REMARK INTER + INTRA:          -9.336
REMARK INTER:                  -6.844
REMARK INTRA:                  -2.492
REMARK UNBOUND:                -2.593
REMARK SMILES CCCCCCCCCCCCCCCC(=O)[O-]
REMARK SMILES IDX 9 1 10 2 11 3 12 4 13 5 14 6 15 7 16 8 17 9 18 10 8 11 7 12
REMARK SMILES IDX 6 13 5 14 4 15 3 16 2 17 1 18
REMARK H PARENT
REMARK Flexibility Score: inf
ROOT
ATOM      1  C   UNL     1      -3.862  37.410  22.247  1.00  0.00     0.000 C 
ENDROOT
BRANCH   1   2
ATOM      2  C   UNL     1      -3.400  37.404  20.782  1.00  0.00     0.000 C 
BRANCH   2   3
ATOM      3  C   UNL     1      -2.422  38.546  20.463  1.00  0.00     0.000 C 
BRANCH   3   4
ATOM      4  C   UNL     1      -3.073  39.670  19.644  1.00  0.00     0.000 C 
BRANCH   4   5
ATOM      5  C   UNL     1      -3.768  39.109  18.398  1.00  0.00     0.000 C 
BRANCH   5   6
ATOM      6  C   UNL     1      -2.741  38.571  17.390  1.00  0.00     0.006 C 
BRANCH   6   7
ATOM      7  C   UNL     1      -2.949  37.080  17.088  1.00  0.00     0.053 C 
BRANCH   7   8
ATOM      8  C   UNL     1      -1.754  36.264  17.471  1.00  0.00     0.041 C 
ATOM      9  O   UNL     1      -1.855  35.015  17.600  1.00  0.00    -0.550 OA
ATOM     10  O   UNL     1      -0.536  36.884  17.718  1.00  0.00    -0.550 OA
ENDBRANCH   7   8
ENDBRANCH   6   7
ENDBRANCH   5   6
ENDBRANCH   4   5
ENDBRANCH   3   4
ENDBRANCH   2   3
ENDBRANCH   1   2
BRANCH   1  11
ATOM     11  C   UNL     1      -3.103  38.473  23.056  1.00  0.00     0.000 C 
BRANCH  11  12
ATOM     12  C   UNL     1      -4.018  39.269  24.000  1.00  0.00    -0.000 C 
BRANCH  12  13
ATOM     13  C   UNL     1      -5.418  39.503  23.407  1.00  0.00    -0.000 C 
BRANCH  13  14
ATOM     14  C   UNL     1      -5.503  40.801  22.586  1.00  0.00    -0.000 C 
BRANCH  14  15
ATOM     15  C   UNL     1      -6.199  40.603  21.232  1.00  0.00    -0.000 C 
BRANCH  15  16
ATOM     16  C   UNL     1      -6.962  39.270  21.198  1.00  0.00    -0.000 C 
BRANCH  16  17
ATOM     17  C   UNL     1      -7.202  38.762  19.767  1.00  0.00    -0.003 C 
ATOM     18  C   UNL     1      -6.752  37.315  19.570  1.00  0.00     0.004 C 
ENDBRANCH  16  17
ENDBRANCH  15  16
ENDBRANCH  14  15
ENDBRANCH  13  14
ENDBRANCH  12  13
ENDBRANCH  11  12
ENDBRANCH   1  11
TORSDOF 14
ENDMDL
MODEL 3
REMARK VINA RESULT:    -3.707      1.968      4.822
REMARK INTER + INTRA:          -9.334
REMARK INTER:                  -6.793
REMARK INTRA:                  -2.541
REMARK UNBOUND:                -2.593
REMARK SMILES CCCCCCCCCCCCCCCC(=O)[O-]
REMARK SMILES IDX 9 1 10 2 11 3 12 4 13 5 14 6 15 7 16 8 17 9 18 10 8 11 7 12
REMARK SMILES IDX 6 13 5 14 4 15 3 16 2 17 1 18
REMARK H PARENT
REMARK Flexibility Score: inf
ROOT
ATOM      1  C   UNL     1      -4.834  36.950  22.233  1.00  0.00     0.000 C 
ENDROOT
BRANCH   1   2
ATOM      2  C   UNL     1      -6.370  36.998  22.249  1.00  0.00     0.000 C 
BRANCH   2   3
ATOM      3  C   UNL     1      -6.918  38.227  22.992  1.00  0.00     0.000 C 
BRANCH   3   4
ATOM      4  C   UNL     1      -7.475  39.294  22.038  1.00  0.00     0.000 C 
BRANCH   4   5
ATOM      5  C   UNL     1      -6.450  40.410  21.804  1.00  0.00     0.000 C 
BRANCH   5   6
ATOM      6  C   UNL     1      -5.569  40.617  23.046  1.00  0.00     0.006 C 
BRANCH   6   7
ATOM      7  C   UNL     1      -4.074  40.643  22.699  1.00  0.00     0.053 C 
BRANCH   7   8
ATOM      8  C   UNL     1      -3.272  39.793  23.634  1.00  0.00     0.041 C 
ATOM      9  O   UNL     1      -2.121  39.399  23.304  1.00  0.00    -0.550 OA
ATOM     10  O   UNL     1      -3.807  39.406  24.856  1.00  0.00    -0.550 OA
ENDBRANCH   7   8
ENDBRANCH   6   7
ENDBRANCH   5   6
ENDBRANCH   4   5
ENDBRANCH   3   4
ENDBRANCH   2   3
ENDBRANCH   1   2
BRANCH   1  11
ATOM     11  C   UNL     1      -4.300  36.990  20.794  1.00  0.00     0.000 C 
BRANCH  11  12
ATOM     12  C   UNL     1      -5.401  37.261  19.756  1.00  0.00    -0.000 C 
BRANCH  12  13
ATOM     13  C   UNL     1      -5.170  38.568  18.978  1.00  0.00    -0.000 C 
BRANCH  13  14
ATOM     14  C   UNL     1      -3.842  39.249  19.349  1.00  0.00    -0.000 C 
BRANCH  14  15
ATOM     15  C   UNL     1      -3.051  39.720  18.119  1.00  0.00    -0.000 C 
BRANCH  15  16
ATOM     16  C   UNL     1      -2.690  38.533  17.212  1.00  0.00    -0.000 C 
BRANCH  16  17
ATOM     17  C   UNL     1      -1.657  37.593  17.853  1.00  0.00    -0.003 C 
ATOM     18  C   UNL     1      -2.104  36.132  17.850  1.00  0.00     0.004 C 
ENDBRANCH  16  17
ENDBRANCH  15  16
ENDBRANCH  14  15
ENDBRANCH  13  14
ENDBRANCH  12  13
ENDBRANCH  11  12
ENDBRANCH   1  11
TORSDOF 14
ENDMDL
MODEL 4
REMARK VINA RESULT:    -3.684      1.848      3.594
REMARK INTER + INTRA:          -9.293
REMARK INTER:                  -6.737
REMARK INTRA:                  -2.556
REMARK UNBOUND:                -2.593
REMARK SMILES CCCCCCCCCCCCCCCC(=O)[O-]
REMARK SMILES IDX 9 1 10 2 11 3 12 4 13 5 14 6 15 7 16 8 17 9 18 10 8 11 7 12
REMARK SMILES IDX 6 13 5 14 4 15 3 16 2 17 1 18
REMARK H PARENT
REMARK Flexibility Score: inf
ROOT
ATOM      1  C   UNL     1      -2.486  38.548  20.250  1.00  0.00     0.000 C 
ENDROOT
BRANCH   1   2
ATOM      2  C   UNL     1      -2.444  39.592  19.124  1.00  0.00     0.000 C 
BRANCH   2   3
ATOM      3  C   UNL     1      -3.379  39.243  17.956  1.00  0.00     0.000 C 
BRANCH   3   4
ATOM      4  C   UNL     1      -2.699  39.397  16.588  1.00  0.00     0.000 C 
BRANCH   4   5
ATOM      5  C   UNL     1      -1.174  39.294  16.718  1.00  0.00     0.000 C 
BRANCH   5   6
ATOM      6  C   UNL     1      -0.670  37.932  16.219  1.00  0.00     0.006 C 
BRANCH   6   7
ATOM      7  C   UNL     1      -0.517  36.915  17.359  1.00  0.00     0.053 C 
BRANCH   7   8
ATOM      8  C   UNL     1      -1.350  35.693  17.130  1.00  0.00     0.041 C 
ATOM      9  O   UNL     1      -0.882  34.550  17.378  1.00  0.00    -0.550 OA
ATOM     10  O   UNL     1      -2.633  35.811  16.610  1.00  0.00    -0.550 OA
ENDBRANCH   7   8
ENDBRANCH   6   7
ENDBRANCH   5   6
ENDBRANCH   4   5
ENDBRANCH   3   4
ENDBRANCH   2   3
ENDBRANCH   1   2
BRANCH   1  11
ATOM     11  C   UNL     1      -3.330  37.332  19.839  1.00  0.00     0.000 C 
BRANCH  11  12
ATOM     12  C   UNL     1      -3.992  36.632  21.037  1.00  0.00    -0.000 C 
BRANCH  12  13
ATOM     13  C   UNL     1      -4.125  37.556  22.260  1.00  0.00    -0.000 C 
BRANCH  13  14
ATOM     14  C   UNL     1      -5.544  38.126  22.417  1.00  0.00    -0.000 C 
BRANCH  14  15
ATOM     15  C   UNL     1      -5.630  39.616  22.056  1.00  0.00    -0.000 C 
BRANCH  15  16
ATOM     16  C   UNL     1      -6.040  39.801  20.587  1.00  0.00    -0.000 C 
BRANCH  16  17
ATOM     17  C   UNL     1      -7.154  38.833  20.158  1.00  0.00    -0.003 C 
ATOM     18  C   UNL     1      -6.797  38.039  18.902  1.00  0.00     0.004 C 
ENDBRANCH  16  17
ENDBRANCH  15  16
ENDBRANCH  14  15
ENDBRANCH  13  14
ENDBRANCH  12  13
ENDBRANCH  11  12
ENDBRANCH   1  11
TORSDOF 14
ENDMDL
MODEL 5
REMARK VINA RESULT:    -3.676      1.755      3.674
REMARK INTER + INTRA:          -9.277
REMARK INTER:                  -7.001
REMARK INTRA:                  -2.276
REMARK UNBOUND:                -2.593
REMARK SMILES CCCCCCCCCCCCCCCC(=O)[O-]
REMARK SMILES IDX 9 1 10 2 11 3 12 4 13 5 14 6 15 7 16 8 17 9 18 10 8 11 7 12
REMARK SMILES IDX 6 13 5 14 4 15 3 16 2 17 1 18
REMARK H PARENT
REMARK Flexibility Score: inf
ROOT
ATOM      1  C   UNL     1      -1.732  38.772  20.302  1.00  0.00     0.000 C 
ENDROOT
BRANCH   1   2
ATOM      2  C   UNL     1      -1.739  40.132  19.589  1.00  0.00     0.000 C 
BRANCH   2   3
ATOM      3  C   UNL     1      -1.433  40.018  18.087  1.00  0.00     0.000 C 
BRANCH   3   4
ATOM      4  C   UNL     1      -2.637  40.391  17.209  1.00  0.00     0.000 C 
BRANCH   4   5
ATOM      5  C   UNL     1      -2.966  39.264  16.222  1.00  0.00     0.000 C 
BRANCH   5   6
ATOM      6  C   UNL     1      -1.878  38.179  16.243  1.00  0.00     0.006 C 
BRANCH   6   7
ATOM      7  C   UNL     1      -2.466  36.771  16.408  1.00  0.00     0.053 C 
BRANCH   7   8
ATOM      8  C   UNL     1      -1.494  35.834  17.055  1.00  0.00     0.041 C 
ATOM      9  O   UNL     1      -1.853  34.670  17.377  1.00  0.00    -0.550 OA
ATOM     10  O   UNL     1      -0.200  36.257  17.334  1.00  0.00    -0.550 OA
ENDBRANCH   7   8
ENDBRANCH   6   7
ENDBRANCH   5   6
ENDBRANCH   4   5
ENDBRANCH   3   4
ENDBRANCH   2   3
ENDBRANCH   1   2
BRANCH   1  11
ATOM     11  C   UNL     1      -3.155  38.353  20.699  1.00  0.00     0.000 C 
BRANCH  11  12
ATOM     12  C   UNL     1      -3.759  37.310  19.744  1.00  0.00    -0.000 C 
BRANCH  12  13
ATOM     13  C   UNL     1      -4.956  37.860  18.950  1.00  0.00    -0.000 C 
BRANCH  13  14
ATOM     14  C   UNL     1      -5.636  39.047  19.653  1.00  0.00    -0.000 C 
BRANCH  14  15
ATOM     15  C   UNL     1      -7.123  38.796  19.941  1.00  0.00    -0.000 C 
BRANCH  15  16
ATOM     16  C   UNL     1      -7.488  39.244  21.365  1.00  0.00    -0.000 C 
BRANCH  16  17
ATOM     17  C   UNL     1      -6.529  38.679  22.426  1.00  0.00    -0.003 C 
ATOM     18  C   UNL     1      -6.534  37.152  22.475  1.00  0.00     0.004 C 
ENDBRANCH  16  17
ENDBRANCH  15  16
ENDBRANCH  14  15
ENDBRANCH  13  14
ENDBRANCH  12  13
ENDBRANCH  11  12
ENDBRANCH   1  11
TORSDOF 14
ENDMDL
MODEL 6
REMARK VINA RESULT:    -3.653      1.724      3.578
REMARK INTER + INTRA:          -9.236
REMARK INTER:                  -6.786
REMARK INTRA:                  -2.450
REMARK UNBOUND:                -2.593
REMARK SMILES CCCCCCCCCCCCCCCC(=O)[O-]
REMARK SMILES IDX 9 1 10 2 11 3 12 4 13 5 14 6 15 7 16 8 17 9 18 10 8 11 7 12
REMARK SMILES IDX 6 13 5 14 4 15 3 16 2 17 1 18
REMARK H PARENT
REMARK Flexibility Score: inf
ROOT
ATOM      1  C   UNL     1      -3.865  40.515  21.481  1.00  0.00     0.000 C 
ENDROOT
BRANCH   1   2
ATOM      2  C   UNL     1      -2.889  40.032  20.398  1.00  0.00     0.000 C 
BRANCH   2   3
ATOM      3  C   UNL     1      -3.477  40.131  18.981  1.00  0.00     0.000 C 
BRANCH   3   4
ATOM      4  C   UNL     1      -3.553  38.769  18.276  1.00  0.00     0.000 C 
BRANCH   4   5
ATOM      5  C   UNL     1      -2.760  37.707  19.048  1.00  0.00     0.000 C 
BRANCH   5   6
ATOM      6  C   UNL     1      -1.430  37.395  18.346  1.00  0.00     0.006 C 
BRANCH   6   7
ATOM      7  C   UNL     1      -1.614  37.131  16.845  1.00  0.00     0.053 C 
BRANCH   7   8
ATOM      8  C   UNL     1      -2.353  35.855  16.591  1.00  0.00     0.041 C 
ATOM      9  O   UNL     1      -3.399  35.856  15.888  1.00  0.00    -0.550 OA
ATOM     10  O   UNL     1      -1.907  34.667  17.157  1.00  0.00    -0.550 OA
ENDBRANCH   7   8
ENDBRANCH   6   7
ENDBRANCH   5   6
ENDBRANCH   4   5
ENDBRANCH   3   4
ENDBRANCH   2   3
ENDBRANCH   1   2
BRANCH   1  11
ATOM     11  C   UNL     1      -3.448  39.996  22.865  1.00  0.00     0.000 C 
BRANCH  11  12
ATOM     12  C   UNL     1      -4.325  38.832  23.354  1.00  0.00    -0.000 C 
BRANCH  12  13
ATOM     13  C   UNL     1      -3.727  37.457  23.011  1.00  0.00    -0.000 C 
BRANCH  13  14
ATOM     14  C   UNL     1      -4.537  36.713  21.936  1.00  0.00    -0.000 C 
BRANCH  14  15
ATOM     15  C   UNL     1      -5.979  37.227  21.814  1.00  0.00    -0.000 C 
BRANCH  15  16
ATOM     16  C   UNL     1      -6.347  37.482  20.344  1.00  0.00    -0.000 C 
BRANCH  16  17
ATOM     17  C   UNL     1      -7.007  38.854  20.129  1.00  0.00    -0.003 C 
ATOM     18  C   UNL     1      -7.465  39.501  21.435  1.00  0.00     0.004 C 
ENDBRANCH  16  17
ENDBRANCH  15  16
ENDBRANCH  14  15
ENDBRANCH  13  14
ENDBRANCH  12  13
ENDBRANCH  11  12
ENDBRANCH   1  11
TORSDOF 14
ENDMDL
MODEL 7
REMARK VINA RESULT:    -3.634      1.431      3.408
REMARK INTER + INTRA:          -9.202
REMARK INTER:                  -6.693
REMARK INTRA:                  -2.509
REMARK UNBOUND:                -2.593
REMARK SMILES CCCCCCCCCCCCCCCC(=O)[O-]
REMARK SMILES IDX 9 1 10 2 11 3 12 4 13 5 14 6 15 7 16 8 17 9 18 10 8 11 7 12
REMARK SMILES IDX 6 13 5 14 4 15 3 16 2 17 1 18
REMARK H PARENT
REMARK Flexibility Score: inf
ROOT
ATOM      1  C   UNL     1      -3.855  39.298  23.770  1.00  0.00     0.000 C 
ENDROOT
BRANCH   1   2
ATOM      2  C   UNL     1      -4.209  40.354  22.712  1.00  0.00     0.000 C 
BRANCH   2   3
ATOM      3  C   UNL     1      -3.154  40.457  21.599  1.00  0.00     0.000 C 
BRANCH   3   4
ATOM      4  C   UNL     1      -3.770  40.768  20.227  1.00  0.00     0.000 C 
BRANCH   4   5
ATOM      5  C   UNL     1      -2.719  40.653  19.116  1.00  0.00     0.000 C 
BRANCH   5   6
ATOM      6  C   UNL     1      -3.087  39.539  18.124  1.00  0.00     0.006 C 
BRANCH   6   7
ATOM      7  C   UNL     1      -1.897  38.619  17.817  1.00  0.00     0.053 C 
BRANCH   7   8
ATOM      8  C   UNL     1      -2.343  37.250  17.407  1.00  0.00     0.041 C 
ATOM      9  O   UNL     1      -2.019  36.245  18.095  1.00  0.00    -0.550 OA
ATOM     10  O   UNL     1      -3.088  37.079  16.247  1.00  0.00    -0.550 OA
ENDBRANCH   7   8
ENDBRANCH   6   7
ENDBRANCH   5   6
ENDBRANCH   4   5
ENDBRANCH   3   4
ENDBRANCH   2   3
ENDBRANCH   1   2
BRANCH   1  11
ATOM     11  C   UNL     1      -3.256  38.045  23.114  1.00  0.00     0.000 C 
BRANCH  11  12
ATOM     12  C   UNL     1      -4.324  37.122  22.506  1.00  0.00    -0.000 C 
BRANCH  12  13
ATOM     13  C   UNL     1      -3.989  36.698  21.066  1.00  0.00    -0.000 C 
BRANCH  13  14
ATOM     14  C   UNL     1      -4.957  37.297  20.033  1.00  0.00    -0.000 C 
BRANCH  14  15
ATOM     15  C   UNL     1      -6.376  37.488  20.589  1.00  0.00    -0.000 C 
BRANCH  15  16
ATOM     16  C   UNL     1      -6.968  38.830  20.130  1.00  0.00    -0.000 C 
BRANCH  16  17
ATOM     17  C   UNL     1      -7.501  39.672  21.301  1.00  0.00    -0.003 C 
ATOM     18  C   UNL     1      -7.499  38.912  22.626  1.00  0.00     0.004 C 
ENDBRANCH  16  17
ENDBRANCH  15  16
ENDBRANCH  14  15
ENDBRANCH  13  14
ENDBRANCH  12  13
ENDBRANCH  11  12
ENDBRANCH   1  11
TORSDOF 14
ENDMDL
MODEL 8
REMARK VINA RESULT:    -3.599      2.570      5.762
REMARK INTER + INTRA:          -9.137
REMARK INTER:                  -6.832
REMARK INTRA:                  -2.305
REMARK UNBOUND:                -2.593
REMARK SMILES CCCCCCCCCCCCCCCC(=O)[O-]
REMARK SMILES IDX 9 1 10 2 11 3 12 4 13 5 14 6 15 7 16 8 17 9 18 10 8 11 7 12
REMARK SMILES IDX 6 13 5 14 4 15 3 16 2 17 1 18
REMARK H PARENT
REMARK Flexibility Score: inf
ROOT
ATOM      1  C   UNL     1      -3.329  37.934  19.854  1.00  0.00     0.000 C 
ENDROOT
BRANCH   1   2
ATOM      2  C   UNL     1      -4.561  38.702  19.350  1.00  0.00     0.000 C 
BRANCH   2   3
ATOM      3  C   UNL     1      -5.750  37.779  19.042  1.00  0.00     0.000 C 
BRANCH   3   4
ATOM      4  C   UNL     1      -7.102  38.421  19.389  1.00  0.00     0.000 C 
BRANCH   4   5
ATOM      5  C   UNL     1      -6.921  39.578  20.380  1.00  0.00     0.000 C 
BRANCH   5   6
ATOM      6  C   UNL     1      -7.496  39.218  21.758  1.00  0.00     0.006 C 
BRANCH   6   7
ATOM      7  C   UNL     1      -6.460  39.375  22.879  1.00  0.00     0.053 C 
BRANCH   7   8
ATOM      8  C   UNL     1      -5.470  38.251  22.883  1.00  0.00     0.041 C 
ATOM      9  O   UNL     1      -4.267  38.467  23.188  1.00  0.00    -0.550 OA
ATOM     10  O   UNL     1      -5.868  36.972  22.516  1.00  0.00    -0.550 OA
ENDBRANCH   7   8
ENDBRANCH   6   7
ENDBRANCH   5   6
ENDBRANCH   4   5
ENDBRANCH   3   4
ENDBRANCH   2   3
ENDBRANCH   1   2
BRANCH   1  11
ATOM     11  C   UNL     1      -2.048  38.755  19.643  1.00  0.00     0.000 C 
BRANCH  11  12
ATOM     12  C   UNL     1      -2.249  39.937  18.682  1.00  0.00    -0.000 C 
BRANCH  12  13
ATOM     13  C   UNL     1      -1.100  40.076  17.668  1.00  0.00    -0.000 C 
BRANCH  13  14
ATOM     14  C   UNL     1      -1.507  39.641  16.251  1.00  0.00    -0.000 C 
BRANCH  14  15
ATOM     15  C   UNL     1      -3.020  39.422  16.107  1.00  0.00    -0.000 C 
BRANCH  15  16
ATOM     16  C   UNL     1      -3.339  37.936  15.875  1.00  0.00    -0.000 C 
BRANCH  16  17
ATOM     17  C   UNL     1      -2.090  37.044  15.961  1.00  0.00    -0.003 C 
ATOM     18  C   UNL     1      -2.258  35.884  16.941  1.00  0.00     0.004 C 
ENDBRANCH  16  17
ENDBRANCH  15  16
ENDBRANCH  14  15
ENDBRANCH  13  14
ENDBRANCH  12  13
ENDBRANCH  11  12
ENDBRANCH   1  11
TORSDOF 14
ENDMDL
MODEL 9
REMARK VINA RESULT:    -3.532      1.561      2.339
REMARK INTER + INTRA:          -9.016
REMARK INTER:                  -6.414
REMARK INTRA:                  -2.602
REMARK UNBOUND:                -2.593
REMARK SMILES CCCCCCCCCCCCCCCC(=O)[O-]
REMARK SMILES IDX 9 1 10 2 11 3 12 4 13 5 14 6 15 7 16 8 17 9 18 10 8 11 7 12
REMARK SMILES IDX 6 13 5 14 4 15 3 16 2 17 1 18
REMARK H PARENT
REMARK Flexibility Score: inf
ROOT
ATOM      1  C   UNL     1      -5.643  37.002  20.921  1.00  0.00     0.000 C 
ENDROOT
BRANCH   1   2
ATOM      2  C   UNL     1      -4.156  36.629  20.831  1.00  0.00     0.000 C 
BRANCH   2   3
ATOM      3  C   UNL     1      -3.345  37.623  19.985  1.00  0.00     0.000 C 
BRANCH   3   4
ATOM      4  C   UNL     1      -2.642  36.952  18.795  1.00  0.00     0.000 C 
BRANCH   4   5
ATOM      5  C   UNL     1      -2.470  37.936  17.632  1.00  0.00     0.000 C 
BRANCH   5   6
ATOM      6  C   UNL     1      -3.229  39.245  17.902  1.00  0.00     0.006 C 
BRANCH   6   7
ATOM      7  C   UNL     1      -2.377  40.484  17.594  1.00  0.00     0.053 C 
BRANCH   7   8
ATOM      8  C   UNL     1      -1.118  40.510  18.404  1.00  0.00     0.041 C 
ATOM      9  O   UNL     1       0.004  40.535  17.832  1.00  0.00    -0.550 OA
ATOM     10  O   UNL     1      -1.182  40.471  19.791  1.00  0.00    -0.550 OA
ENDBRANCH   7   8
ENDBRANCH   6   7
ENDBRANCH   5   6
ENDBRANCH   4   5
ENDBRANCH   3   4
ENDBRANCH   2   3
ENDBRANCH   1   2
BRANCH   1  11
ATOM     11  C   UNL     1      -6.059  37.886  19.736  1.00  0.00     0.000 C 
BRANCH  11  12
ATOM     12  C   UNL     1      -7.111  38.939  20.118  1.00  0.00    -0.000 C 
BRANCH  12  13
ATOM     13  C   UNL     1      -6.596  39.931  21.175  1.00  0.00    -0.000 C 
BRANCH  13  14
ATOM     14  C   UNL     1      -5.306  40.644  20.736  1.00  0.00    -0.000 C 
BRANCH  14  15
ATOM     15  C   UNL     1      -4.234  40.664  21.836  1.00  0.00    -0.000 C 
BRANCH  15  16
ATOM     16  C   UNL     1      -4.698  39.870  23.067  1.00  0.00    -0.000 C 
BRANCH  16  17
ATOM     17  C   UNL     1      -3.566  39.044  23.700  1.00  0.00    -0.003 C 
ATOM     18  C   UNL     1      -2.214  39.282  23.028  1.00  0.00     0.004 C 
ENDBRANCH  16  17
ENDBRANCH  15  16
ENDBRANCH  14  15
ENDBRANCH  13  14
ENDBRANCH  12  13
ENDBRANCH  11  12
ENDBRANCH   1  11
TORSDOF 14
ENDMDL
