MODEL 1
REMARK VINA RESULT:    40.969      0.000      0.000
REMARK INTER + INTRA:          62.141
REMARK INTER:                  56.536
REMARK INTRA:                   5.605
REMARK UNBOUND:                 5.605
REMARK SMILES C[C@@H]1C(=O)O[C@H](C)[C@H]1C[C@@H](O)[C@@](C)(O)[C@@H]1CC[C@@]2(O)C3=CC(=O)[C@@H]4C[C@H](O)[C@H](O)C[C@]4(C)[C@H]3CC[C@@]12C
REMARK SMILES IDX 12 1 13 2 10 3 9 4 8 5 1 6 2 7 3 8 6 9 5 10 4 11 7 12 11 13
REMARK SMILES IDX 15 15 16 16 36 17 17 18 18 19 35 20 37 21 20 22 34 23 33 24
REMARK SMILES IDX 21 25 31 26 22 27 24 28 30 29 32 30 23 31 25 32 28 33 26 34
REMARK SMILES IDX 19 35 29 37 27 39 14 41
REMARK H PARENT 11 14 19 36 29 38 27 40 14 42
REMARK Flexibility Score: inf
ROOT
ATOM      1  C   UNL     1      14.642  -6.191  13.565  1.00  0.00     0.091 C 
ATOM      2  C   UNL     1      13.348  -6.905  13.099  1.00  0.00     0.045 C 
ENDROOT
BRANCH   1   3
ATOM      3  C   UNL     1      14.269  -5.073  14.627  1.00  0.00     0.146 C 
BRANCH   3   4
ATOM      4  C   UNL     1      14.348  -5.565  16.104  1.00  0.00     0.043 C 
BRANCH   4   5
ATOM      5  C   UNL     1      15.500  -4.912  16.913  1.00  0.00     0.046 C 
ATOM      6  C   UNL     1      15.066  -3.876  19.222  1.00  0.00     0.020 C 
ATOM      7  C   UNL     1      15.320  -5.167  18.437  1.00  0.00     0.103 C 
ATOM      8  C   UNL     1      16.609  -5.782  18.825  1.00  0.00     0.309 C 
ATOM      9  C   UNL     1      16.906  -5.491  16.550  1.00  0.00     0.177 C 
ATOM     10  O   UNL     1      17.475  -5.934  17.769  1.00  0.00    -0.462 OA
ATOM     11  O   UNL     1      16.886  -6.166  19.992  1.00  0.00    -0.252 OA
ATOM     12  C   UNL     1      17.820  -4.445  15.913  1.00  0.00     0.053 C 
ENDBRANCH   4   5
ENDBRANCH   3   4
BRANCH   3  13
ATOM     13  O   UNL     1      15.037  -3.909  14.455  1.00  0.00    -0.390 OA
ATOM     14  H   UNL     1      15.995  -4.161  14.465  1.00  0.00     0.211 HD
ENDBRANCH   3  13
ENDBRANCH   1   3
BRANCH   1  15
ATOM     15  C   UNL     1      15.662  -7.312  14.076  1.00  0.00     0.032 C 
ATOM     16  C   UNL     1      16.731  -6.816  15.038  1.00  0.00     0.010 C 
ATOM     17  C   UNL     1      16.438  -8.292  13.115  1.00  0.00     0.006 C 
ATOM     18  C   UNL     1      17.526  -8.056  15.352  1.00  0.00     0.041 C 
ATOM     19  C   UNL     1      17.647  -8.855  14.029  1.00  0.00     0.092 C 
ATOM     20  C   UNL     1      15.444  -9.385  12.551  1.00  0.00     0.011 C 
ATOM     21  C   UNL     1      17.041  -7.542  11.892  1.00  0.00     0.015 C 
ATOM     22  C   UNL     1      17.590 -10.375  14.305  1.00  0.00    -0.031 C 
ATOM     23  C   UNL     1      15.465 -10.749  13.243  1.00  0.00     0.009 C 
ATOM     24  C   UNL     1      16.912 -11.253  13.285  1.00  0.00     0.025 C 
ATOM     25  C   UNL     1      18.069 -10.892  15.452  1.00  0.00     0.050 C 
ATOM     26  C   UNL     1      17.135 -12.809  13.490  1.00  0.00    -0.013 C 
ATOM     27  C   UNL     1      17.751 -12.255  15.888  1.00  0.00     0.159 C 
ATOM     28  C   UNL     1      16.981 -13.199  14.993  1.00  0.00     0.070 C 
ATOM     29  C   UNL     1      18.584 -13.159  13.008  1.00  0.00     0.042 C 
ATOM     30  C   UNL     1      16.117 -13.604  12.622  1.00  0.00     0.013 C 
ATOM     31  O   UNL     1      18.040 -12.593  17.067  1.00  0.00    -0.295 OA
ATOM     32  C   UNL     1      17.394 -14.673  15.249  1.00  0.00     0.047 C 
ATOM     33  C   UNL     1      19.020 -14.614  13.292  1.00  0.00     0.143 C 
ATOM     34  C   UNL     1      18.823 -14.993  14.771  1.00  0.00     0.143 C 
BRANCH  19  35
ATOM     35  O   UNL     1      18.906  -8.516  13.467  1.00  0.00    -0.385 OA
ATOM     36  H   UNL     1      19.589  -9.208  13.673  1.00  0.00     0.211 HD
ENDBRANCH  19  35
BRANCH  33  37
ATOM     37  O   UNL     1      20.372 -14.776  12.948  1.00  0.00    -0.390 OA
ATOM     38  H   UNL     1      20.448 -14.590  11.975  1.00  0.00     0.211 HD
ENDBRANCH  33  37
BRANCH  34  39
ATOM     39  O   UNL     1      19.760 -14.330  15.581  1.00  0.00    -0.390 OA
ATOM     40  H   UNL     1      19.367 -13.452  15.830  1.00  0.00     0.211 HD
ENDBRANCH  34  39
ENDBRANCH   1  15
BRANCH   1  41
ATOM     41  O   UNL     1      15.157  -5.592  12.400  1.00  0.00    -0.387 OA
ATOM     42  H   UNL     1      16.097  -5.869  12.278  1.00  0.00     0.211 HD
ENDBRANCH   1  41
TORSDOF 9
ENDMDL
MODEL 2
REMARK VINA RESULT:    42.011      3.423      5.588
REMARK INTER + INTRA:          63.579
REMARK INTER:                  55.862
REMARK INTRA:                   7.717
REMARK UNBOUND:                 5.605
REMARK SMILES C[C@@H]1C(=O)O[C@H](C)[C@H]1C[C@@H](O)[C@@](C)(O)[C@@H]1CC[C@@]2(O)C3=CC(=O)[C@@H]4C[C@H](O)[C@H](O)C[C@]4(C)[C@H]3CC[C@@]12C
REMARK SMILES IDX 12 1 13 2 10 3 9 4 8 5 1 6 2 7 3 8 6 9 5 10 4 11 7 12 11 13
REMARK SMILES IDX 15 15 16 16 36 17 17 18 18 19 35 20 37 21 20 22 34 23 33 24
REMARK SMILES IDX 21 25 31 26 22 27 24 28 30 29 32 30 23 31 25 32 28 33 26 34
REMARK SMILES IDX 19 35 29 37 27 39 14 41
REMARK H PARENT 11 14 19 36 29 38 27 40 14 42
REMARK Flexibility Score: inf
ROOT
ATOM      1  C   UNL     1      15.958  -5.530  12.965  1.00  0.00     0.091 C 
ATOM      2  C   UNL     1      16.136  -4.721  14.275  1.00  0.00     0.045 C 
ENDROOT
BRANCH   1   3
ATOM      3  C   UNL     1      17.328  -6.239  12.597  1.00  0.00     0.146 C 
BRANCH   3   4
ATOM      4  C   UNL     1      18.249  -6.494  13.829  1.00  0.00     0.043 C 
BRANCH   4   5
ATOM      5  C   UNL     1      17.791  -7.689  14.707  1.00  0.00     0.046 C 
ATOM      6  C   UNL     1      17.793 -10.083  13.776  1.00  0.00     0.020 C 
ATOM      7  C   UNL     1      18.633  -8.960  14.393  1.00  0.00     0.103 C 
ATOM      8  C   UNL     1      19.151  -9.350  15.723  1.00  0.00     0.309 C 
ATOM      9  C   UNL     1      17.971  -7.429  16.237  1.00  0.00     0.177 C 
ATOM     10  O   UNL     1      18.757  -8.500  16.729  1.00  0.00    -0.462 OA
ATOM     11  O   UNL     1      19.906 -10.338  15.926  1.00  0.00    -0.252 OA
ATOM     12  C   UNL     1      16.638  -7.392  16.983  1.00  0.00     0.053 C 
ENDBRANCH   4   5
ENDBRANCH   3   4
BRANCH   3  13
ATOM     13  O   UNL     1      17.126  -7.431  11.879  1.00  0.00    -0.390 OA
ATOM     14  H   UNL     1      18.002  -7.741  11.535  1.00  0.00     0.211 HD
ENDBRANCH   3  13
ENDBRANCH   1   3
BRANCH   1  15
ATOM     15  C   UNL     1      14.708  -6.509  13.163  1.00  0.00     0.032 C 
ATOM     16  C   UNL     1      13.413  -5.820  13.568  1.00  0.00     0.010 C 
ATOM     17  C   UNL     1      14.745  -7.807  14.056  1.00  0.00     0.006 C 
ATOM     18  C   UNL     1      12.428  -6.954  13.674  1.00  0.00     0.041 C 
ATOM     19  C   UNL     1      13.186  -8.145  14.317  1.00  0.00     0.092 C 
ATOM     20  C   UNL     1      15.574  -8.936  13.321  1.00  0.00     0.011 C 
ATOM     21  C   UNL     1      15.438  -7.545  15.425  1.00  0.00     0.015 C 
ATOM     22  C   UNL     1      12.708  -9.483  13.710  1.00  0.00    -0.031 C 
ATOM     23  C   UNL     1      14.765 -10.001  12.578  1.00  0.00     0.009 C 
ATOM     24  C   UNL     1      13.724 -10.584  13.540  1.00  0.00     0.025 C 
ATOM     25  C   UNL     1      11.441  -9.642  13.284  1.00  0.00     0.050 C 
ATOM     26  C   UNL     1      13.117 -12.003  13.181  1.00  0.00    -0.013 C 
ATOM     27  C   UNL     1      11.038 -10.759  12.425  1.00  0.00     0.159 C 
ATOM     28  C   UNL     1      12.005 -11.874  12.094  1.00  0.00     0.070 C 
ATOM     29  C   UNL     1      12.499 -12.610  14.487  1.00  0.00     0.042 C 
ATOM     30  C   UNL     1      14.248 -12.948  12.682  1.00  0.00     0.013 C 
ATOM     31  O   UNL     1       9.902 -10.722  11.881  1.00  0.00    -0.295 OA
ATOM     32  C   UNL     1      11.256 -13.216  11.875  1.00  0.00     0.047 C 
ATOM     33  C   UNL     1      11.719 -13.927  14.275  1.00  0.00     0.143 C 
ATOM     34  C   UNL     1      10.653 -13.791  13.171  1.00  0.00     0.143 C 
BRANCH  19  35
ATOM     35  O   UNL     1      12.886  -8.111  15.704  1.00  0.00    -0.385 OA
ATOM     36  H   UNL     1      12.068  -7.575  15.880  1.00  0.00     0.211 HD
ENDBRANCH  19  35
BRANCH  33  37
ATOM     37  O   UNL     1      11.096 -14.304  15.476  1.00  0.00    -0.390 OA
ATOM     38  H   UNL     1      11.486 -13.740  16.195  1.00  0.00     0.211 HD
ENDBRANCH  33  37
BRANCH  34  39
ATOM     39  O   UNL     1       9.590 -12.983  13.606  1.00  0.00    -0.390 OA
ATOM     40  H   UNL     1       8.821 -13.583  13.795  1.00  0.00     0.211 HD
ENDBRANCH  34  39
ENDBRANCH   1  15
BRANCH   1  41
ATOM     41  O   UNL     1      15.641  -4.565  11.991  1.00  0.00    -0.387 OA
ATOM     42  H   UNL     1      15.237  -3.777  12.430  1.00  0.00     0.211 HD
ENDBRANCH   1  41
TORSDOF 9
ENDMDL
MODEL 3
REMARK VINA RESULT:    42.900      2.083      3.265
REMARK INTER + INTRA:          64.807
REMARK INTER:                  55.240
REMARK INTRA:                   9.567
REMARK UNBOUND:                 5.605
REMARK SMILES C[C@@H]1C(=O)O[C@H](C)[C@H]1C[C@@H](O)[C@@](C)(O)[C@@H]1CC[C@@]2(O)C3=CC(=O)[C@@H]4C[C@H](O)[C@H](O)C[C@]4(C)[C@H]3CC[C@@]12C
REMARK SMILES IDX 12 1 13 2 10 3 9 4 8 5 1 6 2 7 3 8 6 9 5 10 4 11 7 12 11 13
REMARK SMILES IDX 15 15 16 16 36 17 17 18 18 19 35 20 37 21 20 22 34 23 33 24
REMARK SMILES IDX 21 25 31 26 22 27 24 28 30 29 32 30 23 31 25 32 28 33 26 34
REMARK SMILES IDX 19 35 29 37 27 39 14 41
REMARK H PARENT 11 14 19 36 29 38 27 40 14 42
REMARK Flexibility Score: inf
ROOT
ATOM      1  C   UNL     1      16.743  -5.355  13.940  1.00  0.00     0.091 C 
ATOM      2  C   UNL     1      17.632  -4.327  14.685  1.00  0.00     0.045 C 
ENDROOT
BRANCH   1   3
ATOM      3  C   UNL     1      16.767  -5.039  12.386  1.00  0.00     0.146 C 
BRANCH   3   4
ATOM      4  C   UNL     1      15.493  -4.295  11.881  1.00  0.00     0.043 C 
BRANCH   4   5
ATOM      5  C   UNL     1      14.168  -4.967  12.326  1.00  0.00     0.046 C 
ATOM      6  C   UNL     1      14.126  -7.417  13.094  1.00  0.00     0.020 C 
ATOM      7  C   UNL     1      14.418  -5.967  13.492  1.00  0.00     0.103 C 
ATOM      8  C   UNL     1      13.479  -5.501  14.536  1.00  0.00     0.309 C 
ATOM      9  C   UNL     1      13.115  -3.945  12.864  1.00  0.00     0.177 C 
ATOM     10  O   UNL     1      12.757  -4.394  14.160  1.00  0.00    -0.462 OA
ATOM     11  O   UNL     1      13.366  -6.031  15.674  1.00  0.00    -0.252 OA
ATOM     12  C   UNL     1      11.865  -3.878  11.986  1.00  0.00     0.053 C 
ENDBRANCH   4   5
ENDBRANCH   3   4
BRANCH   3  13
ATOM     13  O   UNL     1      17.927  -4.339  12.011  1.00  0.00    -0.390 OA
ATOM     14  H   UNL     1      17.683  -3.682  11.311  1.00  0.00     0.211 HD
ENDBRANCH   3  13
ENDBRANCH   1   3
BRANCH   1  15
ATOM     15  C   UNL     1      17.239  -6.819  14.352  1.00  0.00     0.032 C 
ATOM     16  C   UNL     1      18.256  -6.855  15.484  1.00  0.00     0.010 C 
ATOM     17  C   UNL     1      17.778  -7.884  13.321  1.00  0.00     0.006 C 
ATOM     18  C   UNL     1      18.533  -8.324  15.662  1.00  0.00     0.041 C 
ATOM     19  C   UNL     1      18.577  -8.946  14.242  1.00  0.00     0.092 C 
ATOM     20  C   UNL     1      16.571  -8.476  12.488  1.00  0.00     0.011 C 
ATOM     21  C   UNL     1      18.773  -7.251  12.306  1.00  0.00     0.015 C 
ATOM     22  C   UNL     1      17.973 -10.368  14.253  1.00  0.00    -0.031 C 
ATOM     23  C   UNL     1      16.031  -9.833  12.941  1.00  0.00     0.009 C 
ATOM     24  C   UNL     1      17.201 -10.817  13.038  1.00  0.00     0.025 C 
ATOM     25  C   UNL     1      18.074 -11.159  15.338  1.00  0.00     0.050 C 
ATOM     26  C   UNL     1      16.857 -12.364  13.001  1.00  0.00    -0.013 C 
ATOM     27  C   UNL     1      17.257 -12.364  15.507  1.00  0.00     0.159 C 
ATOM     28  C   UNL     1      16.358 -12.857  14.395  1.00  0.00     0.070 C 
ATOM     29  C   UNL     1      18.161 -13.142  12.611  1.00  0.00     0.042 C 
ATOM     30  C   UNL     1      15.774 -12.635  11.917  1.00  0.00     0.013 C 
ATOM     31  O   UNL     1      17.236 -12.925  16.635  1.00  0.00    -0.295 OA
ATOM     32  C   UNL     1      16.211 -14.401  14.440  1.00  0.00     0.047 C 
ATOM     33  C   UNL     1      18.036 -14.680  12.688  1.00  0.00     0.143 C 
ATOM     34  C   UNL     1      17.504 -15.145  14.057  1.00  0.00     0.143 C 
BRANCH  19  35
ATOM     35  O   UNL     1      19.946  -9.007  13.871  1.00  0.00    -0.385 OA
ATOM     36  H   UNL     1      20.463  -9.577  14.500  1.00  0.00     0.211 HD
ENDBRANCH  19  35
BRANCH  33  37
ATOM     37  O   UNL     1      19.291 -15.266  12.456  1.00  0.00    -0.390 OA
ATOM     38  H   UNL     1      19.152 -15.997  11.798  1.00  0.00     0.211 HD
ENDBRANCH  33  37
BRANCH  34  39
ATOM     39  O   UNL     1      18.477 -14.960  15.054  1.00  0.00    -0.390 OA
ATOM     40  H   UNL     1      18.216 -14.157  15.576  1.00  0.00     0.211 HD
ENDBRANCH  34  39
ENDBRANCH   1  15
BRANCH   1  41
ATOM     41  O   UNL     1      15.449  -5.143  14.452  1.00  0.00    -0.387 OA
ATOM     42  H   UNL     1      15.210  -5.888  15.055  1.00  0.00     0.211 HD
ENDBRANCH   1  41
TORSDOF 9
ENDMDL
