MODEL 1
REMARK VINA RESULT:    -4.025      0.000      0.000
REMARK INTER + INTRA:          -4.677
REMARK INTER:                  -4.495
REMARK INTRA:                  -0.182
REMARK UNBOUND:                -0.182
REMARK SMILES O=C([O-])c1ccccc1C(=O)[O-]
REMARK SMILES IDX 4 1 9 2 5 3 8 4 6 5 7 6 2 7 1 8 3 9 10 10 11 11 12 12
REMARK H PARENT
REMARK Flexibility Score: inf
ROOT
ATOM      1  C   UNL     1      62.099  33.743  60.456  1.00  0.00     0.006 A 
ATOM      2  C   UNL     1      63.473  33.516  60.753  1.00  0.00     0.006 A 
ATOM      3  C   UNL     1      61.552  35.019  60.684  1.00  0.00     0.010 A 
ATOM      4  C   UNL     1      64.262  34.592  61.203  1.00  0.00     0.010 A 
ATOM      5  C   UNL     1      62.348  36.065  61.152  1.00  0.00     0.001 A 
ATOM      6  C   UNL     1      63.703  35.855  61.399  1.00  0.00     0.001 A 
ENDROOT
BRANCH   1   7
ATOM      7  C   UNL     1      61.223  32.714  59.852  1.00  0.00     0.072 C 
ATOM      8  O   UNL     1      61.061  32.656  58.605  1.00  0.00    -0.545 OA
ATOM      9  O   UNL     1      60.513  31.837  60.666  1.00  0.00    -0.545 OA
ENDBRANCH   1   7
BRANCH   2  10
ATOM     10  C   UNL     1      64.106  32.179  60.678  1.00  0.00     0.072 C 
ATOM     11  O   UNL     1      64.944  31.911  59.777  1.00  0.00    -0.545 OA
ATOM     12  O   UNL     1      63.727  31.179  61.566  1.00  0.00    -0.545 OA
ENDBRANCH   2  10
TORSDOF 2
ENDMDL
MODEL 2
REMARK VINA RESULT:    -4.017      0.049      2.876
REMARK INTER + INTRA:          -4.668
REMARK INTER:                  -4.479
REMARK INTRA:                  -0.189
REMARK UNBOUND:                -0.182
REMARK SMILES O=C([O-])c1ccccc1C(=O)[O-]
REMARK SMILES IDX 4 1 9 2 5 3 8 4 6 5 7 6 2 7 1 8 3 9 10 10 11 11 12 12
REMARK H PARENT
REMARK Flexibility Score: inf
ROOT
ATOM      1  C   UNL     1      63.438  33.504  60.736  1.00  0.00     0.006 A 
ATOM      2  C   UNL     1      62.066  33.724  60.426  1.00  0.00     0.006 A 
ATOM      3  C   UNL     1      64.217  34.584  61.191  1.00  0.00     0.010 A 
ATOM      4  C   UNL     1      61.510  34.998  60.646  1.00  0.00     0.010 A 
ATOM      5  C   UNL     1      63.650  35.845  61.381  1.00  0.00     0.001 A 
ATOM      6  C   UNL     1      62.296  36.048  61.120  1.00  0.00     0.001 A 
ENDROOT
BRANCH   1   7
ATOM      7  C   UNL     1      64.079  32.171  60.667  1.00  0.00     0.072 C 
ATOM      8  O   UNL     1      64.908  31.900  59.759  1.00  0.00    -0.545 OA
ATOM      9  O   UNL     1      63.718  31.177  61.570  1.00  0.00    -0.545 OA
ENDBRANCH   1   7
BRANCH   2  10
ATOM     10  C   UNL     1      61.201  32.688  59.813  1.00  0.00     0.072 C 
ATOM     11  O   UNL     1      61.044  32.636  58.564  1.00  0.00    -0.545 OA
ATOM     12  O   UNL     1      60.498  31.801  60.620  1.00  0.00    -0.545 OA
ENDBRANCH   2  10
TORSDOF 2
ENDMDL
MODEL 3
REMARK VINA RESULT:    -4.010     11.511     13.641
REMARK INTER + INTRA:          -4.660
REMARK INTER:                  -4.478
REMARK INTRA:                  -0.183
REMARK UNBOUND:                -0.182
REMARK SMILES O=C([O-])c1ccccc1C(=O)[O-]
REMARK SMILES IDX 4 1 9 2 5 3 8 4 6 5 7 6 2 7 1 8 3 9 10 10 11 11 12 12
REMARK H PARENT
REMARK Flexibility Score: inf
ROOT
ATOM      1  C   UNL     1      56.417  26.957  50.281  1.00  0.00     0.006 A 
ATOM      2  C   UNL     1      56.282  28.330  50.634  1.00  0.00     0.006 A 
ATOM      3  C   UNL     1      55.290  26.257  49.816  1.00  0.00     0.010 A 
ATOM      4  C   UNL     1      55.041  28.965  50.445  1.00  0.00     0.010 A 
ATOM      5  C   UNL     1      54.063  26.902  49.657  1.00  0.00     0.001 A 
ATOM      6  C   UNL     1      53.942  28.257  49.959  1.00  0.00     0.001 A 
ENDROOT
BRANCH   1   7
ATOM      7  C   UNL     1      57.712  26.239  50.316  1.00  0.00     0.072 C 
ATOM      8  O   UNL     1      57.934  25.353  51.183  1.00  0.00    -0.545 OA
ATOM      9  O   UNL     1      58.725  26.584  49.428  1.00  0.00    -0.545 OA
ENDBRANCH   1   7
BRANCH   2  10
ATOM     10  C   UNL     1      57.372  29.115  51.260  1.00  0.00     0.072 C 
ATOM     11  O   UNL     1      57.464  29.205  52.513  1.00  0.00    -0.545 OA
ATOM     12  O   UNL     1      58.270  29.817  50.465  1.00  0.00    -0.545 OA
ENDBRANCH   2  10
TORSDOF 2
ENDMDL
MODEL 4
REMARK VINA RESULT:    -3.995     11.483     13.552
REMARK INTER + INTRA:          -4.644
REMARK INTER:                  -4.461
REMARK INTRA:                  -0.183
REMARK UNBOUND:                -0.182
REMARK SMILES O=C([O-])c1ccccc1C(=O)[O-]
REMARK SMILES IDX 4 1 9 2 5 3 8 4 6 5 7 6 2 7 1 8 3 9 10 10 11 11 12 12
REMARK H PARENT
REMARK Flexibility Score: inf
ROOT
ATOM      1  C   UNL     1      56.304  28.376  50.631  1.00  0.00     0.006 A 
ATOM      2  C   UNL     1      56.433  26.998  50.294  1.00  0.00     0.006 A 
ATOM      3  C   UNL     1      55.064  29.012  50.444  1.00  0.00     0.010 A 
ATOM      4  C   UNL     1      55.299  26.295  49.847  1.00  0.00     0.010 A 
ATOM      5  C   UNL     1      53.957  28.300  49.978  1.00  0.00     0.001 A 
ATOM      6  C   UNL     1      54.072  26.941  49.693  1.00  0.00     0.001 A 
ENDROOT
BRANCH   1   7
ATOM      7  C   UNL     1      57.401  29.166  51.235  1.00  0.00     0.072 C 
ATOM      8  O   UNL     1      57.509  29.269  52.486  1.00  0.00    -0.545 OA
ATOM      9  O   UNL     1      58.291  29.860  50.422  1.00  0.00    -0.545 OA
ENDBRANCH   1   7
BRANCH   2  10
ATOM     10  C   UNL     1      57.727  26.277  50.325  1.00  0.00     0.072 C 
ATOM     11  O   UNL     1      57.956  25.402  51.202  1.00  0.00    -0.545 OA
ATOM     12  O   UNL     1      58.730  26.608  49.423  1.00  0.00    -0.545 OA
ENDBRANCH   2  10
TORSDOF 2
ENDMDL
MODEL 5
REMARK VINA RESULT:    -3.624      1.982      4.276
REMARK INTER + INTRA:          -4.229
REMARK INTER:                  -4.067
REMARK INTRA:                  -0.162
REMARK UNBOUND:                -0.182
REMARK SMILES O=C([O-])c1ccccc1C(=O)[O-]
REMARK SMILES IDX 4 1 9 2 5 3 8 4 6 5 7 6 2 7 1 8 3 9 10 10 11 11 12 12
REMARK H PARENT
REMARK Flexibility Score: inf
ROOT
ATOM      1  C   UNL     1      63.143  32.435  60.646  1.00  0.00     0.006 A 
ATOM      2  C   UNL     1      61.768  32.803  60.610  1.00  0.00     0.006 A 
ATOM      3  C   UNL     1      63.507  31.209  61.233  1.00  0.00     0.010 A 
ATOM      4  C   UNL     1      60.805  31.902  61.101  1.00  0.00     0.010 A 
ATOM      5  C   UNL     1      62.537  30.340  61.734  1.00  0.00     0.001 A 
ATOM      6  C   UNL     1      61.188  30.681  61.657  1.00  0.00     0.001 A 
ENDROOT
BRANCH   1   7
ATOM      7  C   UNL     1      64.215  33.253  60.034  1.00  0.00     0.072 C 
ATOM      8  O   UNL     1      64.769  32.892  58.963  1.00  0.00    -0.545 OA
ATOM      9  O   UNL     1      64.668  34.401  60.675  1.00  0.00    -0.545 OA
ENDBRANCH   1   7
BRANCH   2  10
ATOM     10  C   UNL     1      61.299  34.128  60.140  1.00  0.00     0.072 C 
ATOM     11  O   UNL     1      61.407  35.147  60.871  1.00  0.00    -0.545 OA
ATOM     12  O   UNL     1      60.670  34.246  58.906  1.00  0.00    -0.545 OA
ENDBRANCH   2  10
TORSDOF 2
ENDMDL
MODEL 6
REMARK VINA RESULT:    -3.605     12.183     13.283
REMARK INTER + INTRA:          -4.208
REMARK INTER:                  -4.025
REMARK INTRA:                  -0.182
REMARK UNBOUND:                -0.182
REMARK SMILES O=C([O-])c1ccccc1C(=O)[O-]
REMARK SMILES IDX 4 1 9 2 5 3 8 4 6 5 7 6 2 7 1 8 3 9 10 10 11 11 12 12
REMARK H PARENT
REMARK Flexibility Score: inf
ROOT
ATOM      1  C   UNL     1      57.281  27.267  50.342  1.00  0.00     0.006 A 
ATOM      2  C   UNL     1      57.048  28.665  50.489  1.00  0.00     0.006 A 
ATOM      3  C   UNL     1      58.466  26.833  49.722  1.00  0.00     0.010 A 
ATOM      4  C   UNL     1      58.040  29.570  50.069  1.00  0.00     0.010 A 
ATOM      5  C   UNL     1      59.426  27.750  49.293  1.00  0.00     0.001 A 
ATOM      6  C   UNL     1      59.219  29.116  49.478  1.00  0.00     0.001 A 
ENDROOT
BRANCH   1   7
ATOM      7  C   UNL     1      56.361  26.236  50.873  1.00  0.00     0.072 C 
ATOM      8  O   UNL     1      56.625  25.624  51.942  1.00  0.00    -0.545 OA
ATOM      9  O   UNL     1      55.221  25.883  50.158  1.00  0.00    -0.545 OA
ENDBRANCH   1   7
BRANCH   2  10
ATOM     10  C   UNL     1      55.775  29.222  51.002  1.00  0.00     0.072 C 
ATOM     11  O   UNL     1      55.702  29.699  52.166  1.00  0.00    -0.545 OA
ATOM     12  O   UNL     1      54.625  29.164  50.223  1.00  0.00    -0.545 OA
ENDBRANCH   2  10
TORSDOF 2
ENDMDL
MODEL 7
REMARK VINA RESULT:    -3.580     12.175     13.138
REMARK INTER + INTRA:          -4.180
REMARK INTER:                  -4.009
REMARK INTRA:                  -0.171
REMARK UNBOUND:                -0.182
REMARK SMILES O=C([O-])c1ccccc1C(=O)[O-]
REMARK SMILES IDX 4 1 9 2 5 3 8 4 6 5 7 6 2 7 1 8 3 9 10 10 11 11 12 12
REMARK H PARENT
REMARK Flexibility Score: inf
ROOT
ATOM      1  C   UNL     1      57.059  28.676  50.484  1.00  0.00     0.006 A 
ATOM      2  C   UNL     1      57.293  27.279  50.333  1.00  0.00     0.006 A 
ATOM      3  C   UNL     1      58.050  29.584  50.069  1.00  0.00     0.010 A 
ATOM      4  C   UNL     1      58.480  26.848  49.714  1.00  0.00     0.010 A 
ATOM      5  C   UNL     1      59.230  29.132  49.477  1.00  0.00     0.001 A 
ATOM      6  C   UNL     1      59.439  27.767  49.288  1.00  0.00     0.001 A 
ENDROOT
BRANCH   1   7
ATOM      7  C   UNL     1      55.786  29.231  50.998  1.00  0.00     0.072 C 
ATOM      8  O   UNL     1      55.716  29.717  52.158  1.00  0.00    -0.545 OA
ATOM      9  O   UNL     1      54.631  29.159  50.226  1.00  0.00    -0.545 OA
ENDBRANCH   1   7
BRANCH   2  10
ATOM     10  C   UNL     1      56.373  26.245  50.863  1.00  0.00     0.072 C 
ATOM     11  O   UNL     1      55.353  25.895  50.212  1.00  0.00    -0.545 OA
ATOM     12  O   UNL     1      56.593  25.696  52.120  1.00  0.00    -0.545 OA
ENDBRANCH   2  10
TORSDOF 2
ENDMDL
MODEL 8
REMARK VINA RESULT:    -3.528     12.379     14.284
REMARK INTER + INTRA:          -4.122
REMARK INTER:                  -4.021
REMARK INTRA:                  -0.102
REMARK UNBOUND:                -0.182
REMARK SMILES O=C([O-])c1ccccc1C(=O)[O-]
REMARK SMILES IDX 4 1 9 2 5 3 8 4 6 5 7 6 2 7 1 8 3 9 10 10 11 11 12 12
REMARK H PARENT
REMARK Flexibility Score: inf
ROOT
ATOM      1  C   UNL     1      53.913  28.385  50.450  1.00  0.00     0.006 A 
ATOM      2  C   UNL     1      55.229  27.840  50.435  1.00  0.00     0.006 A 
ATOM      3  C   UNL     1      52.876  27.685  49.808  1.00  0.00     0.010 A 
ATOM      4  C   UNL     1      55.441  26.584  49.837  1.00  0.00     0.010 A 
ATOM      5  C   UNL     1      53.114  26.451  49.202  1.00  0.00     0.001 A 
ATOM      6  C   UNL     1      54.392  25.896  49.227  1.00  0.00     0.001 A 
ENDROOT
BRANCH   1   7
ATOM      7  C   UNL     1      53.564  29.631  51.170  1.00  0.00     0.072 C 
ATOM      8  O   UNL     1      53.687  30.754  50.613  1.00  0.00    -0.545 OA
ATOM      9  O   UNL     1      53.158  29.578  52.499  1.00  0.00    -0.545 OA
ENDBRANCH   1   7
BRANCH   2  10
ATOM     10  C   UNL     1      56.409  28.564  50.961  1.00  0.00     0.072 C 
ATOM     11  O   UNL     1      56.533  28.785  52.195  1.00  0.00    -0.545 OA
ATOM     12  O   UNL     1      57.364  29.068  50.086  1.00  0.00    -0.545 OA
ENDBRANCH   2  10
TORSDOF 2
ENDMDL
MODEL 9
REMARK VINA RESULT:    -3.455      2.106      3.303
REMARK INTER + INTRA:          -4.040
REMARK INTER:                  -3.886
REMARK INTRA:                  -0.154
REMARK UNBOUND:                -0.182
REMARK SMILES O=C([O-])c1ccccc1C(=O)[O-]
REMARK SMILES IDX 4 1 9 2 5 3 8 4 6 5 7 6 2 7 1 8 3 9 10 10 11 11 12 12
REMARK H PARENT
REMARK Flexibility Score: inf
ROOT
ATOM      1  C   UNL     1      62.033  33.524  60.571  1.00  0.00     0.006 A 
ATOM      2  C   UNL     1      63.440  33.312  60.635  1.00  0.00     0.006 A 
ATOM      3  C   UNL     1      61.167  32.453  60.860  1.00  0.00     0.010 A 
ATOM      4  C   UNL     1      63.924  32.058  61.050  1.00  0.00     0.010 A 
ATOM      5  C   UNL     1      61.671  31.211  61.248  1.00  0.00     0.001 A 
ATOM      6  C   UNL     1      63.046  31.018  61.354  1.00  0.00     0.001 A 
ENDROOT
BRANCH   1   7
ATOM      7  C   UNL     1      61.427  34.842  60.277  1.00  0.00     0.072 C 
ATOM      8  O   UNL     1      61.538  35.798  61.089  1.00  0.00    -0.545 OA
ATOM      9  O   UNL     1      60.667  35.020  59.126  1.00  0.00    -0.545 OA
ENDBRANCH   1   7
BRANCH   2  10
ATOM     10  C   UNL     1      64.429  34.333  60.218  1.00  0.00     0.072 C 
ATOM     11  O   UNL     1      64.911  35.143  61.053  1.00  0.00    -0.545 OA
ATOM     12  O   UNL     1      64.788  34.449  58.880  1.00  0.00    -0.545 OA
ENDBRANCH   2  10
TORSDOF 2
ENDMDL
