MODEL 1
REMARK VINA RESULT:    -4.426      0.000      0.000
REMARK INTER + INTRA:          -9.683
REMARK INTER:                  -8.307
REMARK INTRA:                  -1.376
REMARK UNBOUND:                -1.376
REMARK SMILES O=C([O-])CCCCCCCCCCCCCCC(=O)[O-]
REMARK SMILES IDX 10 1 9 2 8 3 7 4 6 5 5 6 4 7 2 8 1 9 3 10 11 11 12 12 13 13
REMARK SMILES IDX 14 14 15 15 16 16 17 17 18 18 19 19 20 20
REMARK H PARENT
REMARK Flexibility Score: inf
ROOT
ATOM      1  C   UNL     1     -28.413  22.159  27.430  1.00  0.00     0.000 C 
ENDROOT
BRANCH   1   2
ATOM      2  C   UNL     1     -29.177  22.047  28.760  1.00  0.00     0.000 C 
BRANCH   2   3
ATOM      3  C   UNL     1     -30.634  21.589  28.568  1.00  0.00     0.000 C 
BRANCH   3   4
ATOM      4  C   UNL     1     -31.641  22.504  29.283  1.00  0.00     0.000 C 
BRANCH   4   5
ATOM      5  C   UNL     1     -31.263  23.990  29.191  1.00  0.00     0.000 C 
BRANCH   5   6
ATOM      6  C   UNL     1     -31.644  24.734  30.477  1.00  0.00     0.006 C 
BRANCH   6   7
ATOM      7  C   UNL     1     -32.807  24.037  31.190  1.00  0.00     0.053 C 
BRANCH   7   8
ATOM      8  C   UNL     1     -33.981  24.958  31.301  1.00  0.00     0.041 C 
ATOM      9  O   UNL     1     -33.905  26.136  30.868  1.00  0.00    -0.550 OA
ATOM     10  O   UNL     1     -35.176  24.498  31.840  1.00  0.00    -0.550 OA
ENDBRANCH   7   8
ENDBRANCH   6   7
ENDBRANCH   5   6
ENDBRANCH   4   5
ENDBRANCH   3   4
ENDBRANCH   2   3
ENDBRANCH   1   2
BRANCH   1  11
ATOM     11  C   UNL     1     -29.333  22.504  26.247  1.00  0.00     0.000 C 
BRANCH  11  12
ATOM     12  C   UNL     1     -29.065  21.625  25.015  1.00  0.00     0.000 C 
BRANCH  12  13
ATOM     13  C   UNL     1     -29.632  20.205  25.164  1.00  0.00     0.000 C 
BRANCH  13  14
ATOM     14  C   UNL     1     -30.978  20.072  24.441  1.00  0.00     0.000 C 
BRANCH  14  15
ATOM     15  C   UNL     1     -32.128  19.917  25.444  1.00  0.00     0.000 C 
BRANCH  15  16
ATOM     16  C   UNL     1     -33.399  19.414  24.750  1.00  0.00     0.006 C 
BRANCH  16  17
ATOM     17  C   UNL     1     -33.308  17.914  24.458  1.00  0.00     0.053 C 
BRANCH  17  18
ATOM     18  C   UNL     1     -33.544  17.121  25.704  1.00  0.00     0.041 C 
ATOM     19  O   UNL     1     -34.574  17.325  26.400  1.00  0.00    -0.550 OA
ATOM     20  O   UNL     1     -32.653  16.121  26.071  1.00  0.00    -0.550 OA
ENDBRANCH  17  18
ENDBRANCH  16  17
ENDBRANCH  15  16
ENDBRANCH  14  15
ENDBRANCH  13  14
ENDBRANCH  12  13
ENDBRANCH  11  12
ENDBRANCH   1  11
TORSDOF 15
ENDMDL
MODEL 2
REMARK VINA RESULT:    -4.387      1.279      1.835
REMARK INTER + INTRA:          -9.610
REMARK INTER:                  -7.875
REMARK INTRA:                  -1.735
REMARK UNBOUND:                -1.376
REMARK SMILES O=C([O-])CCCCCCCCCCCCCCC(=O)[O-]
REMARK SMILES IDX 10 1 9 2 8 3 7 4 6 5 5 6 4 7 2 8 1 9 3 10 11 11 12 12 13 13
REMARK SMILES IDX 14 14 15 15 16 16 17 17 18 18 19 19 20 20
REMARK H PARENT
REMARK Flexibility Score: inf
ROOT
ATOM      1  C   UNL     1     -28.246  21.881  27.452  1.00  0.00     0.000 C 
ENDROOT
BRANCH   1   2
ATOM      2  C   UNL     1     -29.192  21.844  28.664  1.00  0.00     0.000 C 
BRANCH   2   3
ATOM      3  C   UNL     1     -30.661  21.625  28.263  1.00  0.00     0.000 C 
BRANCH   3   4
ATOM      4  C   UNL     1     -31.635  22.468  29.101  1.00  0.00     0.000 C 
BRANCH   4   5
ATOM      5  C   UNL     1     -30.924  23.542  29.939  1.00  0.00     0.000 C 
BRANCH   5   6
ATOM      6  C   UNL     1     -31.793  24.798  30.073  1.00  0.00     0.006 C 
BRANCH   6   7
ATOM      7  C   UNL     1     -32.463  24.857  31.450  1.00  0.00     0.053 C 
BRANCH   7   8
ATOM      8  C   UNL     1     -33.904  25.236  31.316  1.00  0.00     0.041 C 
ATOM      9  O   UNL     1     -34.237  26.221  30.607  1.00  0.00    -0.550 OA
ATOM     10  O   UNL     1     -34.884  24.470  31.934  1.00  0.00    -0.550 OA
ENDBRANCH   7   8
ENDBRANCH   6   7
ENDBRANCH   5   6
ENDBRANCH   4   5
ENDBRANCH   3   4
ENDBRANCH   2   3
ENDBRANCH   1   2
BRANCH   1  11
ATOM     11  C   UNL     1     -28.791  22.746  26.303  1.00  0.00     0.000 C 
BRANCH  11  12
ATOM     12  C   UNL     1     -28.820  21.995  24.962  1.00  0.00     0.000 C 
BRANCH  12  13
ATOM     13  C   UNL     1     -28.277  20.562  25.072  1.00  0.00     0.000 C 
BRANCH  13  14
ATOM     14  C   UNL     1     -29.354  19.537  24.695  1.00  0.00     0.000 C 
BRANCH  14  15
ATOM     15  C   UNL     1     -29.846  18.775  25.932  1.00  0.00     0.000 C 
BRANCH  15  16
ATOM     16  C   UNL     1     -31.378  18.751  25.991  1.00  0.00     0.006 C 
BRANCH  16  17
ATOM     17  C   UNL     1     -31.973  19.980  25.299  1.00  0.00     0.053 C 
BRANCH  17  18
ATOM     18  C   UNL     1     -33.250  19.625  24.605  1.00  0.00     0.041 C 
ATOM     19  O   UNL     1     -33.549  18.418  24.406  1.00  0.00    -0.550 OA
ATOM     20  O   UNL     1     -34.135  20.625  24.225  1.00  0.00    -0.550 OA
ENDBRANCH  17  18
ENDBRANCH  16  17
ENDBRANCH  15  16
ENDBRANCH  14  15
ENDBRANCH  13  14
ENDBRANCH  12  13
ENDBRANCH  11  12
ENDBRANCH   1  11
TORSDOF 15
ENDMDL
MODEL 3
REMARK VINA RESULT:    -4.251      1.312      7.766
REMARK INTER + INTRA:          -9.355
REMARK INTER:                  -8.303
REMARK INTRA:                  -1.053
REMARK UNBOUND:                -1.376
REMARK SMILES O=C([O-])CCCCCCCCCCCCCCC(=O)[O-]
REMARK SMILES IDX 10 1 9 2 8 3 7 4 6 5 5 6 4 7 2 8 1 9 3 10 11 11 12 12 13 13
REMARK SMILES IDX 14 14 15 15 16 16 17 17 18 18 19 19 20 20
REMARK H PARENT
REMARK Flexibility Score: inf
ROOT
ATOM      1  C   UNL     1     -28.753  22.017  28.241  1.00  0.00     0.000 C 
ENDROOT
BRANCH   1   2
ATOM      2  C   UNL     1     -28.050  21.718  26.906  1.00  0.00     0.000 C 
BRANCH   2   3
ATOM      3  C   UNL     1     -28.967  21.943  25.691  1.00  0.00     0.000 C 
BRANCH   3   4
ATOM      4  C   UNL     1     -29.142  20.675  24.840  1.00  0.00     0.000 C 
BRANCH   4   5
ATOM      5  C   UNL     1     -30.552  20.551  24.241  1.00  0.00     0.000 C 
BRANCH   5   6
ATOM      6  C   UNL     1     -31.524  19.929  25.251  1.00  0.00     0.006 C 
BRANCH   6   7
ATOM      7  C   UNL     1     -32.874  19.621  24.595  1.00  0.00     0.053 C 
BRANCH   7   8
ATOM      8  C   UNL     1     -33.023  18.149  24.371  1.00  0.00     0.041 C 
ATOM      9  O   UNL     1     -32.108  17.498  23.804  1.00  0.00    -0.550 OA
ATOM     10  O   UNL     1     -34.153  17.487  24.835  1.00  0.00    -0.550 OA
ENDBRANCH   7   8
ENDBRANCH   6   7
ENDBRANCH   5   6
ENDBRANCH   4   5
ENDBRANCH   3   4
ENDBRANCH   2   3
ENDBRANCH   1   2
BRANCH   1  11
ATOM     11  C   UNL     1     -30.058  22.810  28.057  1.00  0.00     0.000 C 
BRANCH  11  12
ATOM     12  C   UNL     1     -31.270  22.103  28.684  1.00  0.00     0.000 C 
BRANCH  12  13
ATOM     13  C   UNL     1     -31.813  22.838  29.919  1.00  0.00     0.000 C 
BRANCH  13  14
ATOM     14  C   UNL     1     -31.764  24.358  29.719  1.00  0.00     0.000 C 
BRANCH  14  15
ATOM     15  C   UNL     1     -32.255  25.094  30.972  1.00  0.00     0.000 C 
BRANCH  15  16
ATOM     16  C   UNL     1     -33.681  25.622  30.776  1.00  0.00     0.006 C 
BRANCH  16  17
ATOM     17  C   UNL     1     -34.687  24.800  31.588  1.00  0.00     0.053 C 
BRANCH  17  18
ATOM     18  C   UNL     1     -34.283  24.750  33.028  1.00  0.00     0.041 C 
ATOM     19  O   UNL     1     -34.297  25.798  33.727  1.00  0.00    -0.550 OA
ATOM     20  O   UNL     1     -33.941  23.538  33.612  1.00  0.00    -0.550 OA
ENDBRANCH  17  18
ENDBRANCH  16  17
ENDBRANCH  15  16
ENDBRANCH  14  15
ENDBRANCH  13  14
ENDBRANCH  12  13
ENDBRANCH  11  12
ENDBRANCH   1  11
TORSDOF 15
ENDMDL
MODEL 4
REMARK VINA RESULT:    -4.241      1.083      7.367
REMARK INTER + INTRA:          -9.335
REMARK INTER:                  -8.312
REMARK INTRA:                  -1.023
REMARK UNBOUND:                -1.376
REMARK SMILES O=C([O-])CCCCCCCCCCCCCCC(=O)[O-]
REMARK SMILES IDX 10 1 9 2 8 3 7 4 6 5 5 6 4 7 2 8 1 9 3 10 11 11 12 12 13 13
REMARK SMILES IDX 14 14 15 15 16 16 17 17 18 18 19 19 20 20
REMARK H PARENT
REMARK Flexibility Score: inf
ROOT
ATOM      1  C   UNL     1     -29.097  20.819  24.975  1.00  0.00     0.000 C 
ENDROOT
BRANCH   1   2
ATOM      2  C   UNL     1     -29.827  20.855  23.622  1.00  0.00     0.000 C 
BRANCH   2   3
ATOM      3  C   UNL     1     -31.021  19.884  23.567  1.00  0.00     0.000 C 
BRANCH   3   4
ATOM      4  C   UNL     1     -31.840  19.882  24.868  1.00  0.00     0.000 C 
BRANCH   4   5
ATOM      5  C   UNL     1     -33.316  19.521  24.639  1.00  0.00     0.000 C 
BRANCH   5   6
ATOM      6  C   UNL     1     -33.515  18.001  24.636  1.00  0.00     0.006 C 
BRANCH   6   7
ATOM      7  C   UNL     1     -34.283  17.545  25.880  1.00  0.00     0.053 C 
BRANCH   7   8
ATOM      8  C   UNL     1     -33.647  16.325  26.471  1.00  0.00     0.041 C 
ATOM      9  O   UNL     1     -33.110  15.466  25.725  1.00  0.00    -0.550 OA
ATOM     10  O   UNL     1     -33.604  16.163  27.850  1.00  0.00    -0.550 OA
ENDBRANCH   7   8
ENDBRANCH   6   7
ENDBRANCH   5   6
ENDBRANCH   4   5
ENDBRANCH   3   4
ENDBRANCH   2   3
ENDBRANCH   1   2
BRANCH   1  11
ATOM     11  C   UNL     1     -28.570  22.200  25.398  1.00  0.00     0.000 C 
BRANCH  11  12
ATOM     12  C   UNL     1     -29.063  22.617  26.794  1.00  0.00     0.000 C 
BRANCH  12  13
ATOM     13  C   UNL     1     -29.716  21.459  27.563  1.00  0.00     0.000 C 
BRANCH  13  14
ATOM     14  C   UNL     1     -31.019  21.913  28.234  1.00  0.00     0.000 C 
BRANCH  14  15
ATOM     15  C   UNL     1     -30.830  23.255  28.952  1.00  0.00     0.000 C 
BRANCH  15  16
ATOM     16  C   UNL     1     -31.753  23.362  30.171  1.00  0.00     0.006 C 
BRANCH  16  17
ATOM     17  C   UNL     1     -32.685  24.570  30.048  1.00  0.00     0.053 C 
BRANCH  17  18
ATOM     18  C   UNL     1     -33.427  24.793  31.328  1.00  0.00     0.041 C 
ATOM     19  O   UNL     1     -34.211  25.772  31.446  1.00  0.00    -0.550 OA
ATOM     20  O   UNL     1     -33.294  23.889  32.375  1.00  0.00    -0.550 OA
ENDBRANCH  17  18
ENDBRANCH  16  17
ENDBRANCH  15  16
ENDBRANCH  14  15
ENDBRANCH  13  14
ENDBRANCH  12  13
ENDBRANCH  11  12
ENDBRANCH   1  11
TORSDOF 15
ENDMDL
MODEL 5
REMARK VINA RESULT:    -4.200      1.356      1.986
REMARK INTER + INTRA:          -9.258
REMARK INTER:                  -8.235
REMARK INTRA:                  -1.023
REMARK UNBOUND:                -1.376
REMARK SMILES O=C([O-])CCCCCCCCCCCCCCC(=O)[O-]
REMARK SMILES IDX 10 1 9 2 8 3 7 4 6 5 5 6 4 7 2 8 1 9 3 10 11 11 12 12 13 13
REMARK SMILES IDX 14 14 15 15 16 16 17 17 18 18 19 19 20 20
REMARK H PARENT
REMARK Flexibility Score: inf
ROOT
ATOM      1  C   UNL     1     -29.629  22.699  27.891  1.00  0.00     0.000 C 
ENDROOT
BRANCH   1   2
ATOM      2  C   UNL     1     -30.891  21.884  28.221  1.00  0.00     0.000 C 
BRANCH   2   3
ATOM      3  C   UNL     1     -31.640  22.425  29.452  1.00  0.00     0.000 C 
BRANCH   3   4
ATOM      4  C   UNL     1     -32.121  23.873  29.262  1.00  0.00     0.000 C 
BRANCH   4   5
ATOM      5  C   UNL     1     -31.645  24.810  30.382  1.00  0.00     0.000 C 
BRANCH   5   6
ATOM      6  C   UNL     1     -31.327  24.021  31.659  1.00  0.00     0.006 C 
BRANCH   6   7
ATOM      7  C   UNL     1     -32.270  24.417  32.799  1.00  0.00     0.053 C 
BRANCH   7   8
ATOM      8  C   UNL     1     -33.667  23.975  32.501  1.00  0.00     0.041 C 
ATOM      9  O   UNL     1     -33.945  22.749  32.440  1.00  0.00    -0.550 OA
ATOM     10  O   UNL     1     -34.675  24.917  32.338  1.00  0.00    -0.550 OA
ENDBRANCH   7   8
ENDBRANCH   6   7
ENDBRANCH   5   6
ENDBRANCH   4   5
ENDBRANCH   3   4
ENDBRANCH   2   3
ENDBRANCH   1   2
BRANCH   1  11
ATOM     11  C   UNL     1     -28.595  21.889  27.091  1.00  0.00     0.000 C 
BRANCH  11  12
ATOM     12  C   UNL     1     -28.322  22.490  25.703  1.00  0.00     0.000 C 
BRANCH  12  13
ATOM     13  C   UNL     1     -28.265  21.427  24.595  1.00  0.00     0.000 C 
BRANCH  13  14
ATOM     14  C   UNL     1     -29.459  21.564  23.642  1.00  0.00     0.000 C 
BRANCH  14  15
ATOM     15  C   UNL     1     -30.090  20.196  23.351  1.00  0.00     0.000 C 
BRANCH  15  16
ATOM     16  C   UNL     1     -31.439  20.050  24.063  1.00  0.00     0.006 C 
BRANCH  16  17
ATOM     17  C   UNL     1     -31.920  18.597  24.035  1.00  0.00     0.053 C 
BRANCH  17  18
ATOM     18  C   UNL     1     -33.334  18.502  24.514  1.00  0.00     0.041 C 
ATOM     19  O   UNL     1     -33.961  19.542  24.848  1.00  0.00    -0.550 OA
ATOM     20  O   UNL     1     -33.978  17.272  24.542  1.00  0.00    -0.550 OA
ENDBRANCH  17  18
ENDBRANCH  16  17
ENDBRANCH  15  16
ENDBRANCH  14  15
ENDBRANCH  13  14
ENDBRANCH  12  13
ENDBRANCH  11  12
ENDBRANCH   1  11
TORSDOF 15
ENDMDL
MODEL 6
REMARK VINA RESULT:    -4.193      2.094      3.825
REMARK INTER + INTRA:          -9.246
REMARK INTER:                  -7.567
REMARK INTRA:                  -1.679
REMARK UNBOUND:                -1.376
REMARK SMILES O=C([O-])CCCCCCCCCCCCCCC(=O)[O-]
REMARK SMILES IDX 10 1 9 2 8 3 7 4 6 5 5 6 4 7 2 8 1 9 3 10 11 11 12 12 13 13
REMARK SMILES IDX 14 14 15 15 16 16 17 17 18 18 19 19 20 20
REMARK H PARENT
REMARK Flexibility Score: inf
ROOT
ATOM      1  C   UNL     1     -30.193  20.658  23.086  1.00  0.00     0.000 C 
ENDROOT
BRANCH   1   2
ATOM      2  C   UNL     1     -28.964  21.573  22.960  1.00  0.00     0.000 C 
BRANCH   2   3
ATOM      3  C   UNL     1     -28.089  21.566  24.227  1.00  0.00     0.000 C 
BRANCH   3   4
ATOM      4  C   UNL     1     -28.727  22.341  25.391  1.00  0.00     0.000 C 
BRANCH   4   5
ATOM      5  C   UNL     1     -28.686  21.565  26.716  1.00  0.00     0.000 C 
BRANCH   5   6
ATOM      6  C   UNL     1     -29.433  22.324  27.819  1.00  0.00     0.006 C 
BRANCH   6   7
ATOM      7  C   UNL     1     -30.845  21.763  28.012  1.00  0.00     0.053 C 
BRANCH   7   8
ATOM      8  C   UNL     1     -31.443  22.274  29.285  1.00  0.00     0.041 C 
ATOM      9  O   UNL     1     -32.100  23.347  29.291  1.00  0.00    -0.550 OA
ATOM     10  O   UNL     1     -31.315  21.539  30.457  1.00  0.00    -0.550 OA
ENDBRANCH   7   8
ENDBRANCH   6   7
ENDBRANCH   5   6
ENDBRANCH   4   5
ENDBRANCH   3   4
ENDBRANCH   2   3
ENDBRANCH   1   2
BRANCH   1  11
ATOM     11  C   UNL     1     -29.881  19.347  23.828  1.00  0.00     0.000 C 
BRANCH  11  12
ATOM     12  C   UNL     1     -30.882  19.057  24.958  1.00  0.00     0.000 C 
BRANCH  12  13
ATOM     13  C   UNL     1     -32.066  20.035  24.968  1.00  0.00     0.000 C 
BRANCH  13  14
ATOM     14  C   UNL     1     -33.396  19.286  25.121  1.00  0.00     0.000 C 
BRANCH  14  15
ATOM     15  C   UNL     1     -33.449  18.065  24.194  1.00  0.00     0.000 C 
BRANCH  15  16
ATOM     16  C   UNL     1     -34.097  16.867  24.898  1.00  0.00     0.006 C 
BRANCH  16  17
ATOM     17  C   UNL     1     -33.564  16.715  26.326  1.00  0.00     0.053 C 
BRANCH  17  18
ATOM     18  C   UNL     1     -33.939  15.380  26.887  1.00  0.00     0.041 C 
ATOM     19  O   UNL     1     -34.657  15.305  27.919  1.00  0.00    -0.550 OA
ATOM     20  O   UNL     1     -33.541  14.218  26.240  1.00  0.00    -0.550 OA
ENDBRANCH  17  18
ENDBRANCH  16  17
ENDBRANCH  15  16
ENDBRANCH  14  15
ENDBRANCH  13  14
ENDBRANCH  12  13
ENDBRANCH  11  12
ENDBRANCH   1  11
TORSDOF 15
ENDMDL
MODEL 7
REMARK VINA RESULT:    -4.162      0.974      7.326
REMARK INTER + INTRA:          -9.188
REMARK INTER:                  -8.042
REMARK INTRA:                  -1.146
REMARK UNBOUND:                -1.376
REMARK SMILES O=C([O-])CCCCCCCCCCCCCCC(=O)[O-]
REMARK SMILES IDX 10 1 9 2 8 3 7 4 6 5 5 6 4 7 2 8 1 9 3 10 11 11 12 12 13 13
REMARK SMILES IDX 14 14 15 15 16 16 17 17 18 18 19 19 20 20
REMARK H PARENT
REMARK Flexibility Score: inf
ROOT
ATOM      1  C   UNL     1     -28.082  21.564  26.983  1.00  0.00     0.000 C 
ENDROOT
BRANCH   1   2
ATOM      2  C   UNL     1     -28.614  22.454  25.847  1.00  0.00     0.000 C 
BRANCH   2   3
ATOM      3  C   UNL     1     -29.004  21.646  24.597  1.00  0.00     0.000 C 
BRANCH   3   4
ATOM      4  C   UNL     1     -30.117  20.623  24.877  1.00  0.00     0.000 C 
BRANCH   4   5
ATOM      5  C   UNL     1     -30.810  20.134  23.596  1.00  0.00     0.000 C 
BRANCH   5   6
ATOM      6  C   UNL     1     -31.566  18.823  23.849  1.00  0.00     0.006 C 
BRANCH   6   7
ATOM      7  C   UNL     1     -32.960  19.094  24.422  1.00  0.00     0.053 C 
BRANCH   7   8
ATOM      8  C   UNL     1     -33.558  17.834  24.964  1.00  0.00     0.041 C 
ATOM      9  O   UNL     1     -34.289  17.115  24.235  1.00  0.00    -0.550 OA
ATOM     10  O   UNL     1     -33.266  17.428  26.260  1.00  0.00    -0.550 OA
ENDBRANCH   7   8
ENDBRANCH   6   7
ENDBRANCH   5   6
ENDBRANCH   4   5
ENDBRANCH   3   4
ENDBRANCH   2   3
ENDBRANCH   1   2
BRANCH   1  11
ATOM     11  C   UNL     1     -28.250  22.211  28.368  1.00  0.00     0.000 C 
BRANCH  11  12
ATOM     12  C   UNL     1     -28.994  21.300  29.358  1.00  0.00     0.000 C 
BRANCH  12  13
ATOM     13  C   UNL     1     -30.381  20.879  28.851  1.00  0.00     0.000 C 
BRANCH  13  14
ATOM     14  C   UNL     1     -31.234  22.106  28.504  1.00  0.00     0.000 C 
BRANCH  14  15
ATOM     15  C   UNL     1     -31.678  22.845  29.772  1.00  0.00     0.000 C 
BRANCH  15  16
ATOM     16  C   UNL     1     -31.561  24.363  29.595  1.00  0.00     0.006 C 
BRANCH  16  17
ATOM     17  C   UNL     1     -31.880  25.094  30.902  1.00  0.00     0.053 C 
BRANCH  17  18
ATOM     18  C   UNL     1     -33.358  25.152  31.123  1.00  0.00     0.041 C 
ATOM     19  O   UNL     1     -34.083  25.870  30.384  1.00  0.00    -0.550 OA
ATOM     20  O   UNL     1     -33.944  24.373  32.112  1.00  0.00    -0.550 OA
ENDBRANCH  17  18
ENDBRANCH  16  17
ENDBRANCH  15  16
ENDBRANCH  14  15
ENDBRANCH  13  14
ENDBRANCH  12  13
ENDBRANCH  11  12
ENDBRANCH   1  11
TORSDOF 15
ENDMDL
MODEL 8
REMARK VINA RESULT:    -4.141      1.148      2.163
REMARK INTER + INTRA:          -9.149
REMARK INTER:                  -7.931
REMARK INTRA:                  -1.218
REMARK UNBOUND:                -1.376
REMARK SMILES O=C([O-])CCCCCCCCCCCCCCC(=O)[O-]
REMARK SMILES IDX 10 1 9 2 8 3 7 4 6 5 5 6 4 7 2 8 1 9 3 10 11 11 12 12 13 13
REMARK SMILES IDX 14 14 15 15 16 16 17 17 18 18 19 19 20 20
REMARK H PARENT
REMARK Flexibility Score: inf
ROOT
ATOM      1  C   UNL     1     -28.261  21.424  25.532  1.00  0.00     0.000 C 
ENDROOT
BRANCH   1   2
ATOM      2  C   UNL     1     -28.312  22.521  26.608  1.00  0.00     0.000 C 
BRANCH   2   3
ATOM      3  C   UNL     1     -28.022  21.979  28.019  1.00  0.00     0.000 C 
BRANCH   3   4
ATOM      4  C   UNL     1     -29.281  21.920  28.900  1.00  0.00     0.000 C 
BRANCH   4   5
ATOM      5  C   UNL     1     -30.487  22.625  28.261  1.00  0.00     0.000 C 
BRANCH   5   6
ATOM      6  C   UNL     1     -31.606  22.837  29.289  1.00  0.00     0.006 C 
BRANCH   6   7
ATOM      7  C   UNL     1     -31.692  24.307  29.711  1.00  0.00     0.053 C 
BRANCH   7   8
ATOM      8  C   UNL     1     -32.848  24.518  30.639  1.00  0.00     0.041 C 
ATOM      9  O   UNL     1     -32.963  23.817  31.677  1.00  0.00    -0.550 OA
ATOM     10  O   UNL     1     -33.771  25.524  30.381  1.00  0.00    -0.550 OA
ENDBRANCH   7   8
ENDBRANCH   6   7
ENDBRANCH   5   6
ENDBRANCH   4   5
ENDBRANCH   3   4
ENDBRANCH   2   3
ENDBRANCH   1   2
BRANCH   1  11
ATOM     11  C   UNL     1     -29.630  21.174  24.877  1.00  0.00     0.000 C 
BRANCH  11  12
ATOM     12  C   UNL     1     -30.277  19.861  25.346  1.00  0.00     0.000 C 
BRANCH  12  13
ATOM     13  C   UNL     1     -31.710  20.056  25.864  1.00  0.00     0.000 C 
BRANCH  13  14
ATOM     14  C   UNL     1     -32.728  19.918  24.726  1.00  0.00     0.000 C 
BRANCH  14  15
ATOM     15  C   UNL     1     -32.909  18.449  24.324  1.00  0.00     0.000 C 
BRANCH  15  16
ATOM     16  C   UNL     1     -33.732  17.690  25.372  1.00  0.00     0.006 C 
BRANCH  16  17
ATOM     17  C   UNL     1     -33.543  16.177  25.226  1.00  0.00     0.053 C 
BRANCH  17  18
ATOM     18  C   UNL     1     -33.543  15.517  26.568  1.00  0.00     0.041 C 
ATOM     19  O   UNL     1     -33.596  14.261  26.658  1.00  0.00    -0.550 OA
ATOM     20  O   UNL     1     -33.432  16.284  27.720  1.00  0.00    -0.550 OA
ENDBRANCH  17  18
ENDBRANCH  16  17
ENDBRANCH  15  16
ENDBRANCH  14  15
ENDBRANCH  13  14
ENDBRANCH  12  13
ENDBRANCH  11  12
ENDBRANCH   1  11
TORSDOF 15
ENDMDL
MODEL 9
REMARK VINA RESULT:    -4.107      3.563      5.300
REMARK INTER + INTRA:          -9.084
REMARK INTER:                  -6.943
REMARK INTRA:                  -2.141
REMARK UNBOUND:                -1.376
REMARK SMILES O=C([O-])CCCCCCCCCCCCCCC(=O)[O-]
REMARK SMILES IDX 10 1 9 2 8 3 7 4 6 5 5 6 4 7 2 8 1 9 3 10 11 11 12 12 13 13
REMARK SMILES IDX 14 14 15 15 16 16 17 17 18 18 19 19 20 20
REMARK H PARENT
REMARK Flexibility Score: inf
ROOT
ATOM      1  C   UNL     1     -27.200  18.146  23.394  1.00  0.00     0.000 C 
ENDROOT
BRANCH   1   2
ATOM      2  C   UNL     1     -27.055  19.367  22.470  1.00  0.00     0.000 C 
BRANCH   2   3
ATOM      3  C   UNL     1     -27.086  20.699  23.241  1.00  0.00     0.000 C 
BRANCH   3   4
ATOM      4  C   UNL     1     -28.268  21.592  22.832  1.00  0.00     0.000 C 
BRANCH   4   5
ATOM      5  C   UNL     1     -29.381  21.628  23.891  1.00  0.00     0.000 C 
BRANCH   5   6
ATOM      6  C   UNL     1     -28.927  20.943  25.186  1.00  0.00     0.006 C 
BRANCH   6   7
ATOM      7  C   UNL     1     -29.669  21.514  26.399  1.00  0.00     0.053 C 
BRANCH   7   8
ATOM      8  C   UNL     1     -28.729  22.280  27.275  1.00  0.00     0.041 C 
ATOM      9  O   UNL     1     -27.798  22.956  26.766  1.00  0.00    -0.550 OA
ATOM     10  O   UNL     1     -28.911  22.286  28.652  1.00  0.00    -0.550 OA
ENDBRANCH   7   8
ENDBRANCH   6   7
ENDBRANCH   5   6
ENDBRANCH   4   5
ENDBRANCH   3   4
ENDBRANCH   2   3
ENDBRANCH   1   2
BRANCH   1  11
ATOM     11  C   UNL     1     -28.601  17.515  23.323  1.00  0.00     0.000 C 
BRANCH  11  12
ATOM     12  C   UNL     1     -29.402  17.993  22.101  1.00  0.00     0.000 C 
BRANCH  12  13
ATOM     13  C   UNL     1     -30.801  18.508  22.472  1.00  0.00     0.000 C 
BRANCH  13  14
ATOM     14  C   UNL     1     -31.086  18.294  23.964  1.00  0.00     0.000 C 
BRANCH  14  15
ATOM     15  C   UNL     1     -32.182  19.247  24.456  1.00  0.00     0.000 C 
BRANCH  15  16
ATOM     16  C   UNL     1     -33.530  18.526  24.566  1.00  0.00     0.006 C 
BRANCH  16  17
ATOM     17  C   UNL     1     -33.345  17.007  24.525  1.00  0.00     0.053 C 
BRANCH  17  18
ATOM     18  C   UNL     1     -33.911  16.376  25.758  1.00  0.00     0.041 C 
ATOM     19  O   UNL     1     -33.690  15.162  26.008  1.00  0.00    -0.550 OA
ATOM     20  O   UNL     1     -34.640  17.142  26.658  1.00  0.00    -0.550 OA
ENDBRANCH  17  18
ENDBRANCH  16  17
ENDBRANCH  15  16
ENDBRANCH  14  15
ENDBRANCH  13  14
ENDBRANCH  12  13
ENDBRANCH  11  12
ENDBRANCH   1  11
TORSDOF 15
ENDMDL
