MODEL 1
REMARK VINA RESULT:    -3.952      0.000      0.000
REMARK INTER + INTRA:          -8.570
REMARK INTER:                  -6.956
REMARK INTRA:                  -1.614
REMARK UNBOUND:                -1.614
REMARK SMILES CCCCCCC=CCCCCCCCC(=O)[O-]
REMARK SMILES IDX 10 1 11 2 12 3 13 4 14 5 15 6 16 7 17 8 18 9 9 10 8 11 7 12
REMARK SMILES IDX 6 13 5 14 4 15 3 16 2 17 1 18
REMARK H PARENT
REMARK Flexibility Score: inf
ROOT
ATOM      1  C   UNL     1      31.212 169.185 158.733  1.00  0.00     0.004 C 
ENDROOT
BRANCH   1   2
ATOM      2  C   UNL     1      29.760 168.912 159.163  1.00  0.00     0.000 C 
BRANCH   2   3
ATOM      3  C   UNL     1      28.946 170.163 159.544  1.00  0.00     0.000 C 
BRANCH   3   4
ATOM      4  C   UNL     1      29.325 170.727 160.924  1.00  0.00     0.000 C 
BRANCH   4   5
ATOM      5  C   UNL     1      29.454 172.259 160.917  1.00  0.00     0.006 C 
BRANCH   5   6
ATOM      6  C   UNL     1      28.094 172.968 160.926  1.00  0.00     0.053 C 
BRANCH   6   7
ATOM      7  C   UNL     1      27.733 173.390 162.316  1.00  0.00     0.041 C 
ATOM      8  O   UNL     1      26.575 173.815 162.569  1.00  0.00    -0.550 OA
ATOM      9  O   UNL     1      28.691 173.361 163.321  1.00  0.00    -0.550 OA
ENDBRANCH   6   7
ENDBRANCH   5   6
ENDBRANCH   4   5
ENDBRANCH   3   4
ENDBRANCH   2   3
ENDBRANCH   1   2
BRANCH   1  10
ATOM     10  C   UNL     1      32.075 167.915 158.696  1.00  0.00     0.027 C 
BRANCH  10  11
ATOM     11  C   UNL     1      32.830 167.812 157.400  1.00  0.00    -0.031 C 
ATOM     12  C   UNL     1      33.192 168.904 156.710  1.00  0.00    -0.031 C 
BRANCH  12  13
ATOM     13  C   UNL     1      33.931 168.801 155.404  1.00  0.00     0.027 C 
BRANCH  13  14
ATOM     14  C   UNL     1      33.153 169.497 154.275  1.00  0.00     0.004 C 
BRANCH  14  15
ATOM     15  C   UNL     1      31.762 168.886 154.049  1.00  0.00     0.000 C 
BRANCH  15  16
ATOM     16  C   UNL     1      30.629 169.906 154.251  1.00  0.00    -0.000 C 
BRANCH  16  17
ATOM     17  C   UNL     1      29.634 169.474 155.340  1.00  0.00    -0.003 C 
ATOM     18  C   UNL     1      29.568 167.957 155.515  1.00  0.00     0.004 C 
ENDBRANCH  16  17
ENDBRANCH  15  16
ENDBRANCH  14  15
ENDBRANCH  13  14
ENDBRANCH  12  13
ENDBRANCH  10  11
ENDBRANCH   1  10
TORSDOF 13
ENDMDL
MODEL 2
REMARK VINA RESULT:    -3.850      1.024      1.371
REMARK INTER + INTRA:          -8.391
REMARK INTER:                  -7.102
REMARK INTRA:                  -1.288
REMARK UNBOUND:                -1.614
REMARK SMILES CCCCCCC=CCCCCCCCC(=O)[O-]
REMARK SMILES IDX 10 1 11 2 12 3 13 4 14 5 15 6 16 7 17 8 18 9 9 10 8 11 7 12
REMARK SMILES IDX 6 13 5 14 4 15 3 16 2 17 1 18
REMARK H PARENT
REMARK Flexibility Score: inf
ROOT
ATOM      1  C   UNL     1      31.191 168.900 159.264  1.00  0.00     0.004 C 
ENDROOT
BRANCH   1   2
ATOM      2  C   UNL     1      29.955 169.213 160.125  1.00  0.00     0.000 C 
BRANCH   2   3
ATOM      3  C   UNL     1      28.906 170.121 159.456  1.00  0.00     0.000 C 
BRANCH   3   4
ATOM      4  C   UNL     1      28.208 171.064 160.451  1.00  0.00     0.000 C 
BRANCH   4   5
ATOM      5  C   UNL     1      29.115 172.222 160.899  1.00  0.00     0.006 C 
BRANCH   5   6
ATOM      6  C   UNL     1      28.384 173.238 161.785  1.00  0.00     0.053 C 
BRANCH   6   7
ATOM      7  C   UNL     1      28.592 172.915 163.232  1.00  0.00     0.041 C 
ATOM      8  O   UNL     1      27.870 173.455 164.111  1.00  0.00    -0.550 OA
ATOM      9  O   UNL     1      29.614 172.055 163.611  1.00  0.00    -0.550 OA
ENDBRANCH   6   7
ENDBRANCH   5   6
ENDBRANCH   4   5
ENDBRANCH   3   4
ENDBRANCH   2   3
ENDBRANCH   1   2
BRANCH   1  10
ATOM     10  C   UNL     1      31.651 167.439 159.384  1.00  0.00     0.027 C 
BRANCH  10  11
ATOM     11  C   UNL     1      32.675 167.108 158.335  1.00  0.00    -0.031 C 
ATOM     12  C   UNL     1      33.185 168.051 157.528  1.00  0.00    -0.031 C 
BRANCH  12  13
ATOM     13  C   UNL     1      34.196 167.717 156.466  1.00  0.00     0.027 C 
BRANCH  13  14
ATOM     14  C   UNL     1      34.269 168.828 155.407  1.00  0.00     0.004 C 
BRANCH  14  15
ATOM     15  C   UNL     1      32.887 169.389 155.040  1.00  0.00     0.000 C 
BRANCH  15  16
ATOM     16  C   UNL     1      32.149 168.514 154.012  1.00  0.00    -0.000 C 
BRANCH  16  17
ATOM     17  C   UNL     1      30.752 168.091 154.494  1.00  0.00    -0.003 C 
ATOM     18  C   UNL     1      30.222 168.972 155.624  1.00  0.00     0.004 C 
ENDBRANCH  16  17
ENDBRANCH  15  16
ENDBRANCH  14  15
ENDBRANCH  13  14
ENDBRANCH  12  13
ENDBRANCH  10  11
ENDBRANCH   1  10
TORSDOF 13
ENDMDL
MODEL 3
REMARK VINA RESULT:    -3.767      1.400      2.387
REMARK INTER + INTRA:          -8.244
REMARK INTER:                  -7.060
REMARK INTRA:                  -1.184
REMARK UNBOUND:                -1.614
REMARK SMILES CCCCCCC=CCCCCCCCC(=O)[O-]
REMARK SMILES IDX 10 1 11 2 12 3 13 4 14 5 15 6 16 7 17 8 18 9 9 10 8 11 7 12
REMARK SMILES IDX 6 13 5 14 4 15 3 16 2 17 1 18
REMARK H PARENT
REMARK Flexibility Score: inf
ROOT
ATOM      1  C   UNL     1      29.757 169.781 159.347  1.00  0.00     0.004 C 
ENDROOT
BRANCH   1   2
ATOM      2  C   UNL     1      29.170 170.351 160.651  1.00  0.00     0.000 C 
BRANCH   2   3
ATOM      3  C   UNL     1      29.382 171.863 160.855  1.00  0.00     0.000 C 
BRANCH   3   4
ATOM      4  C   UNL     1      28.609 172.417 162.064  1.00  0.00     0.000 C 
BRANCH   4   5
ATOM      5  C   UNL     1      27.808 173.683 161.720  1.00  0.00     0.006 C 
BRANCH   5   6
ATOM      6  C   UNL     1      26.807 173.459 160.578  1.00  0.00     0.053 C 
BRANCH   6   7
ATOM      7  C   UNL     1      25.755 172.478 160.992  1.00  0.00     0.041 C 
ATOM      8  O   UNL     1      25.004 172.729 161.972  1.00  0.00    -0.550 OA
ATOM      9  O   UNL     1      25.636 171.265 160.327  1.00  0.00    -0.550 OA
ENDBRANCH   6   7
ENDBRANCH   5   6
ENDBRANCH   4   5
ENDBRANCH   3   4
ENDBRANCH   2   3
ENDBRANCH   1   2
BRANCH   1  10
ATOM     10  C   UNL     1      30.952 168.847 159.587  1.00  0.00     0.027 C 
BRANCH  10  11
ATOM     11  C   UNL     1      31.635 168.500 158.293  1.00  0.00    -0.031 C 
ATOM     12  C   UNL     1      32.616 167.586 158.240  1.00  0.00    -0.031 C 
BRANCH  12  13
ATOM     13  C   UNL     1      33.312 167.252 156.950  1.00  0.00     0.027 C 
BRANCH  13  14
ATOM     14  C   UNL     1      34.362 168.318 156.599  1.00  0.00     0.004 C 
BRANCH  14  15
ATOM     15  C   UNL     1      34.061 169.035 155.274  1.00  0.00     0.000 C 
BRANCH  15  16
ATOM     16  C   UNL     1      32.682 168.663 154.703  1.00  0.00    -0.000 C 
BRANCH  16  17
ATOM     17  C   UNL     1      31.755 169.881 154.558  1.00  0.00    -0.003 C 
ATOM     18  C   UNL     1      30.322 169.592 155.002  1.00  0.00     0.004 C 
ENDBRANCH  16  17
ENDBRANCH  15  16
ENDBRANCH  14  15
ENDBRANCH  13  14
ENDBRANCH  12  13
ENDBRANCH  10  11
ENDBRANCH   1  10
TORSDOF 13
ENDMDL
MODEL 4
REMARK VINA RESULT:    -3.748      1.114      2.568
REMARK INTER + INTRA:          -8.210
REMARK INTER:                  -6.840
REMARK INTRA:                  -1.369
REMARK UNBOUND:                -1.614
REMARK SMILES CCCCCCC=CCCCCCCCC(=O)[O-]
REMARK SMILES IDX 10 1 11 2 12 3 13 4 14 5 15 6 16 7 17 8 18 9 9 10 8 11 7 12
REMARK SMILES IDX 6 13 5 14 4 15 3 16 2 17 1 18
REMARK H PARENT
REMARK Flexibility Score: inf
ROOT
ATOM      1  C   UNL     1      30.795 168.326 160.737  1.00  0.00     0.004 C 
ENDROOT
BRANCH   1   2
ATOM      2  C   UNL     1      29.560 169.231 160.589  1.00  0.00     0.000 C 
BRANCH   2   3
ATOM      3  C   UNL     1      29.513 170.434 161.550  1.00  0.00     0.000 C 
BRANCH   3   4
ATOM      4  C   UNL     1      29.509 171.786 160.816  1.00  0.00     0.000 C 
BRANCH   4   5
ATOM      5  C   UNL     1      28.132 172.469 160.848  1.00  0.00     0.006 C 
BRANCH   5   6
ATOM      6  C   UNL     1      28.098 173.693 161.772  1.00  0.00     0.053 C 
BRANCH   6   7
ATOM      7  C   UNL     1      27.887 173.269 163.192  1.00  0.00     0.041 C 
ATOM      8  O   UNL     1      28.831 173.344 164.022  1.00  0.00    -0.550 OA
ATOM      9  O   UNL     1      26.663 172.746 163.586  1.00  0.00    -0.550 OA
ENDBRANCH   6   7
ENDBRANCH   5   6
ENDBRANCH   4   5
ENDBRANCH   3   4
ENDBRANCH   2   3
ENDBRANCH   1   2
BRANCH   1  10
ATOM     10  C   UNL     1      31.645 168.259 159.459  1.00  0.00     0.027 C 
BRANCH  10  11
ATOM     11  C   UNL     1      30.982 168.998 158.330  1.00  0.00    -0.031 C 
ATOM     12  C   UNL     1      30.648 168.379 157.187  1.00  0.00    -0.031 C 
BRANCH  12  13
ATOM     13  C   UNL     1      30.001 169.121 156.050  1.00  0.00     0.027 C 
BRANCH  13  14
ATOM     14  C   UNL     1      31.057 169.635 155.058  1.00  0.00     0.004 C 
BRANCH  14  15
ATOM     15  C   UNL     1      32.102 168.568 154.698  1.00  0.00     0.000 C 
BRANCH  15  16
ATOM     16  C   UNL     1      33.545 169.071 154.878  1.00  0.00    -0.000 C 
BRANCH  16  17
ATOM     17  C   UNL     1      34.069 168.856 156.307  1.00  0.00    -0.003 C 
ATOM     18  C   UNL     1      34.353 167.387 156.620  1.00  0.00     0.004 C 
ENDBRANCH  16  17
ENDBRANCH  15  16
ENDBRANCH  14  15
ENDBRANCH  13  14
ENDBRANCH  12  13
ENDBRANCH  10  11
ENDBRANCH   1  10
TORSDOF 13
ENDMDL
MODEL 5
REMARK VINA RESULT:    -3.697      3.300      7.487
REMARK INTER + INTRA:          -8.121
REMARK INTER:                  -7.170
REMARK INTRA:                  -0.952
REMARK UNBOUND:                -1.614
REMARK SMILES CCCCCCC=CCCCCCCCC(=O)[O-]
REMARK SMILES IDX 10 1 11 2 12 3 13 4 14 5 15 6 16 7 17 8 18 9 9 10 8 11 7 12
REMARK SMILES IDX 6 13 5 14 4 15 3 16 2 17 1 18
REMARK H PARENT
REMARK Flexibility Score: inf
ROOT
ATOM      1  C   UNL     1      31.881 168.245 158.384  1.00  0.00     0.004 C 
ENDROOT
BRANCH   1   2
ATOM      2  C   UNL     1      32.805 167.188 157.754  1.00  0.00     0.000 C 
BRANCH   2   3
ATOM      3  C   UNL     1      33.893 167.746 156.818  1.00  0.00     0.000 C 
BRANCH   3   4
ATOM      4  C   UNL     1      33.550 169.140 156.266  1.00  0.00     0.000 C 
BRANCH   4   5
ATOM      5  C   UNL     1      33.514 169.173 154.729  1.00  0.00     0.006 C 
BRANCH   5   6
ATOM      6  C   UNL     1      32.166 168.713 154.158  1.00  0.00     0.053 C 
BRANCH   6   7
ATOM      7  C   UNL     1      31.094 169.704 154.490  1.00  0.00     0.041 C 
ATOM      8  O   UNL     1      31.106 170.849 153.966  1.00  0.00    -0.550 OA
ATOM      9  O   UNL     1      30.110 169.379 155.414  1.00  0.00    -0.550 OA
ENDBRANCH   6   7
ENDBRANCH   5   6
ENDBRANCH   4   5
ENDBRANCH   3   4
ENDBRANCH   2   3
ENDBRANCH   1   2
BRANCH   1  10
ATOM     10  C   UNL     1      31.714 168.067 159.901  1.00  0.00     0.027 C 
BRANCH  10  11
ATOM     11  C   UNL     1      30.455 168.729 160.387  1.00  0.00    -0.031 C 
ATOM     12  C   UNL     1      30.046 169.908 159.893  1.00  0.00    -0.031 C 
BRANCH  12  13
ATOM     13  C   UNL     1      28.797 170.580 160.392  1.00  0.00     0.027 C 
BRANCH  13  14
ATOM     14  C   UNL     1      29.076 172.041 160.780  1.00  0.00     0.004 C 
BRANCH  14  15
ATOM     15  C   UNL     1      27.813 172.915 160.747  1.00  0.00     0.000 C 
BRANCH  15  16
ATOM     16  C   UNL     1      27.582 173.669 162.068  1.00  0.00    -0.000 C 
BRANCH  16  17
ATOM     17  C   UNL     1      28.581 173.260 163.162  1.00  0.00    -0.003 C 
ATOM     18  C   UNL     1      27.904 172.637 164.382  1.00  0.00     0.004 C 
ENDBRANCH  16  17
ENDBRANCH  15  16
ENDBRANCH  14  15
ENDBRANCH  13  14
ENDBRANCH  12  13
ENDBRANCH  10  11
ENDBRANCH   1  10
TORSDOF 13
ENDMDL
MODEL 6
REMARK VINA RESULT:    -3.640      1.655      3.338
REMARK INTER + INTRA:          -8.020
REMARK INTER:                  -7.035
REMARK INTRA:                  -0.985
REMARK UNBOUND:                -1.614
REMARK SMILES CCCCCCC=CCCCCCCCC(=O)[O-]
REMARK SMILES IDX 10 1 11 2 12 3 13 4 14 5 15 6 16 7 17 8 18 9 9 10 8 11 7 12
REMARK SMILES IDX 6 13 5 14 4 15 3 16 2 17 1 18
REMARK H PARENT
REMARK Flexibility Score: inf
ROOT
ATOM      1  C   UNL     1      29.364 170.985 160.345  1.00  0.00     0.004 C 
ENDROOT
BRANCH   1   2
ATOM      2  C   UNL     1      28.014 171.366 160.979  1.00  0.00     0.000 C 
BRANCH   2   3
ATOM      3  C   UNL     1      27.616 172.846 160.826  1.00  0.00     0.000 C 
BRANCH   3   4
ATOM      4  C   UNL     1      28.124 173.725 161.981  1.00  0.00     0.000 C 
BRANCH   4   5
ATOM      5  C   UNL     1      27.880 173.087 163.358  1.00  0.00     0.006 C 
BRANCH   5   6
ATOM      6  C   UNL     1      29.163 172.966 164.191  1.00  0.00     0.053 C 
BRANCH   6   7
ATOM      7  C   UNL     1      29.473 171.528 164.467  1.00  0.00     0.041 C 
ATOM      8  O   UNL     1      30.267 170.897 163.720  1.00  0.00    -0.550 OA
ATOM      9  O   UNL     1      28.848 170.872 165.519  1.00  0.00    -0.550 OA
ENDBRANCH   6   7
ENDBRANCH   5   6
ENDBRANCH   4   5
ENDBRANCH   3   4
ENDBRANCH   2   3
ENDBRANCH   1   2
BRANCH   1  10
ATOM     10  C   UNL     1      29.232 169.908 159.257  1.00  0.00     0.027 C 
BRANCH  10  11
ATOM     11  C   UNL     1      30.351 168.908 159.349  1.00  0.00    -0.031 C 
ATOM     12  C   UNL     1      31.268 168.791 158.377  1.00  0.00    -0.031 C 
BRANCH  12  13
ATOM     13  C   UNL     1      32.377 167.778 158.459  1.00  0.00     0.027 C 
BRANCH  13  14
ATOM     14  C   UNL     1      33.338 167.916 157.267  1.00  0.00     0.004 C 
BRANCH  14  15
ATOM     15  C   UNL     1      33.141 169.231 156.496  1.00  0.00     0.000 C 
BRANCH  15  16
ATOM     16  C   UNL     1      33.627 169.139 155.039  1.00  0.00    -0.000 C 
BRANCH  16  17
ATOM     17  C   UNL     1      32.468 169.176 154.029  1.00  0.00    -0.003 C 
ATOM     18  C   UNL     1      31.268 169.977 154.533  1.00  0.00     0.004 C 
ENDBRANCH  16  17
ENDBRANCH  15  16
ENDBRANCH  14  15
ENDBRANCH  13  14
ENDBRANCH  12  13
ENDBRANCH  10  11
ENDBRANCH   1  10
TORSDOF 13
ENDMDL
MODEL 7
REMARK VINA RESULT:    -3.636      3.001      6.602
REMARK INTER + INTRA:          -8.013
REMARK INTER:                  -6.530
REMARK INTRA:                  -1.483
REMARK UNBOUND:                -1.614
REMARK SMILES CCCCCCC=CCCCCCCCC(=O)[O-]
REMARK SMILES IDX 10 1 11 2 12 3 13 4 14 5 15 6 16 7 17 8 18 9 9 10 8 11 7 12
REMARK SMILES IDX 6 13 5 14 4 15 3 16 2 17 1 18
REMARK H PARENT
REMARK Flexibility Score: inf
ROOT
ATOM      1  C   UNL     1      34.132 167.810 156.481  1.00  0.00     0.004 C 
ENDROOT
BRANCH   1   2
ATOM      2  C   UNL     1      33.884 169.019 155.561  1.00  0.00     0.000 C 
BRANCH   2   3
ATOM      3  C   UNL     1      32.945 168.751 154.370  1.00  0.00     0.000 C 
BRANCH   3   4
ATOM      4  C   UNL     1      32.053 169.956 154.028  1.00  0.00     0.000 C 
BRANCH   4   5
ATOM      5  C   UNL     1      30.677 169.881 154.709  1.00  0.00     0.006 C 
BRANCH   5   6
ATOM      6  C   UNL     1      30.156 168.444 154.836  1.00  0.00     0.053 C 
BRANCH   6   7
ATOM      7  C   UNL     1      28.985 168.393 155.767  1.00  0.00     0.041 C 
ATOM      8  O   UNL     1      28.781 167.371 156.474  1.00  0.00    -0.550 OA
ATOM      9  O   UNL     1      28.092 169.455 155.818  1.00  0.00    -0.550 OA
ENDBRANCH   6   7
ENDBRANCH   5   6
ENDBRANCH   4   5
ENDBRANCH   3   4
ENDBRANCH   2   3
ENDBRANCH   1   2
BRANCH   1  10
ATOM     10  C   UNL     1      32.861 167.337 157.204  1.00  0.00     0.027 C 
BRANCH  10  11
ATOM     11  C   UNL     1      32.298 168.425 158.075  1.00  0.00    -0.031 C 
ATOM     12  C   UNL     1      31.221 168.218 158.848  1.00  0.00    -0.031 C 
BRANCH  12  13
ATOM     13  C   UNL     1      30.645 169.311 159.706  1.00  0.00     0.027 C 
BRANCH  13  14
ATOM     14  C   UNL     1      29.269 169.753 159.184  1.00  0.00     0.004 C 
BRANCH  14  15
ATOM     15  C   UNL     1      28.545 170.703 160.149  1.00  0.00     0.000 C 
BRANCH  15  16
ATOM     16  C   UNL     1      29.450 171.846 160.642  1.00  0.00    -0.000 C 
BRANCH  16  17
ATOM     17  C   UNL     1      28.664 172.945 161.375  1.00  0.00    -0.003 C 
ATOM     18  C   UNL     1      28.611 172.727 162.887  1.00  0.00     0.004 C 
ENDBRANCH  16  17
ENDBRANCH  15  16
ENDBRANCH  14  15
ENDBRANCH  13  14
ENDBRANCH  12  13
ENDBRANCH  10  11
ENDBRANCH   1  10
TORSDOF 13
ENDMDL
MODEL 8
REMARK VINA RESULT:    -3.581      2.670      4.628
REMARK INTER + INTRA:          -7.916
REMARK INTER:                  -6.560
REMARK INTRA:                  -1.356
REMARK UNBOUND:                -1.614
REMARK SMILES CCCCCCC=CCCCCCCCC(=O)[O-]
REMARK SMILES IDX 10 1 11 2 12 3 13 4 14 5 15 6 16 7 17 8 18 9 9 10 8 11 7 12
REMARK SMILES IDX 6 13 5 14 4 15 3 16 2 17 1 18
REMARK H PARENT
REMARK Flexibility Score: inf
ROOT
ATOM      1  C   UNL     1      29.447 171.826 160.617  1.00  0.00     0.004 C 
ENDROOT
BRANCH   1   2
ATOM      2  C   UNL     1      28.734 172.852 161.515  1.00  0.00     0.000 C 
BRANCH   2   3
ATOM      3  C   UNL     1      28.604 172.445 162.995  1.00  0.00     0.000 C 
BRANCH   3   4
ATOM      4  C   UNL     1      29.809 171.635 163.502  1.00  0.00     0.000 C 
BRANCH   4   5
ATOM      5  C   UNL     1      29.394 170.297 164.134  1.00  0.00     0.006 C 
BRANCH   5   6
ATOM      6  C   UNL     1      30.094 169.094 163.487  1.00  0.00     0.053 C 
BRANCH   6   7
ATOM      7  C   UNL     1      31.430 168.864 164.123  1.00  0.00     0.041 C 
ATOM      8  O   UNL     1      31.588 169.067 165.355  1.00  0.00    -0.550 OA
ATOM      9  O   UNL     1      32.511 168.471 163.345  1.00  0.00    -0.550 OA
ENDBRANCH   6   7
ENDBRANCH   5   6
ENDBRANCH   4   5
ENDBRANCH   3   4
ENDBRANCH   2   3
ENDBRANCH   1   2
BRANCH   1  10
ATOM     10  C   UNL     1      28.528 170.677 160.175  1.00  0.00     0.027 C 
BRANCH  10  11
ATOM     11  C   UNL     1      29.313 169.589 159.495  1.00  0.00    -0.031 C 
ATOM     12  C   UNL     1      30.548 169.257 159.899  1.00  0.00    -0.031 C 
BRANCH  12  13
ATOM     13  C   UNL     1      31.341 168.182 159.208  1.00  0.00     0.027 C 
BRANCH  13  14
ATOM     14  C   UNL     1      31.310 168.369 157.683  1.00  0.00     0.004 C 
BRANCH  14  15
ATOM     15  C   UNL     1      32.329 169.408 157.192  1.00  0.00     0.000 C 
BRANCH  15  16
ATOM     16  C   UNL     1      32.319 169.568 155.661  1.00  0.00    -0.000 C 
BRANCH  16  17
ATOM     17  C   UNL     1      33.556 168.945 154.996  1.00  0.00    -0.003 C 
ATOM     18  C   UNL     1      34.529 168.335 156.005  1.00  0.00     0.004 C 
ENDBRANCH  16  17
ENDBRANCH  15  16
ENDBRANCH  14  15
ENDBRANCH  13  14
ENDBRANCH  12  13
ENDBRANCH  10  11
ENDBRANCH   1  10
TORSDOF 13
ENDMDL
MODEL 9
REMARK VINA RESULT:    -3.540      1.221      2.775
REMARK INTER + INTRA:          -7.845
REMARK INTER:                  -6.740
REMARK INTRA:                  -1.105
REMARK UNBOUND:                -1.614
REMARK SMILES CCCCCCC=CCCCCCCCC(=O)[O-]
REMARK SMILES IDX 10 1 11 2 12 3 13 4 14 5 15 6 16 7 17 8 18 9 9 10 8 11 7 12
REMARK SMILES IDX 6 13 5 14 4 15 3 16 2 17 1 18
REMARK H PARENT
REMARK Flexibility Score: inf
ROOT
ATOM      1  C   UNL     1      29.287 168.517 158.055  1.00  0.00     0.004 C 
ENDROOT
BRANCH   1   2
ATOM      2  C   UNL     1      29.884 169.494 159.083  1.00  0.00     0.000 C 
BRANCH   2   3
ATOM      3  C   UNL     1      28.873 170.094 160.077  1.00  0.00     0.000 C 
BRANCH   3   4
ATOM      4  C   UNL     1      29.373 171.397 160.725  1.00  0.00     0.000 C 
BRANCH   4   5
ATOM      5  C   UNL     1      28.352 171.994 161.708  1.00  0.00     0.006 C 
BRANCH   5   6
ATOM      6  C   UNL     1      28.048 173.471 161.421  1.00  0.00     0.053 C 
BRANCH   6   7
ATOM      7  C   UNL     1      26.586 173.662 161.163  1.00  0.00     0.041 C 
ATOM      8  O   UNL     1      26.139 173.619 159.987  1.00  0.00    -0.550 OA
ATOM      9  O   UNL     1      25.725 173.937 162.218  1.00  0.00    -0.550 OA
ENDBRANCH   6   7
ENDBRANCH   5   6
ENDBRANCH   4   5
ENDBRANCH   3   4
ENDBRANCH   2   3
ENDBRANCH   1   2
BRANCH   1  10
ATOM     10  C   UNL     1      29.137 169.136 156.657  1.00  0.00     0.027 C 
BRANCH  10  11
ATOM     11  C   UNL     1      30.466 169.222 155.960  1.00  0.00    -0.031 C 
ATOM     12  C   UNL     1      30.579 169.734 154.724  1.00  0.00    -0.031 C 
BRANCH  12  13
ATOM     13  C   UNL     1      31.905 169.804 154.018  1.00  0.00     0.027 C 
BRANCH  13  14
ATOM     14  C   UNL     1      32.819 168.645 154.448  1.00  0.00     0.004 C 
BRANCH  14  15
ATOM     15  C   UNL     1      33.964 169.101 155.364  1.00  0.00     0.000 C 
BRANCH  15  16
ATOM     16  C   UNL     1      34.368 168.023 156.386  1.00  0.00    -0.000 C 
BRANCH  16  17
ATOM     17  C   UNL     1      33.201 167.091 156.749  1.00  0.00    -0.003 C 
ATOM     18  C   UNL     1      32.771 167.221 158.210  1.00  0.00     0.004 C 
ENDBRANCH  16  17
ENDBRANCH  15  16
ENDBRANCH  14  15
ENDBRANCH  13  14
ENDBRANCH  12  13
ENDBRANCH  10  11
ENDBRANCH   1  10
TORSDOF 13
ENDMDL
