MODEL 1
REMARK VINA RESULT:    -7.560      0.000      0.000
REMARK INTER + INTRA:          -7.560
REMARK INTER:                  -7.560
REMARK INTRA:                   0.000
REMARK UNBOUND:                 0.000
REMARK SMILES C=C1CCC[C@]2(C)CC(=O)C(=C(C)C)C[C@@H]12
REMARK SMILES IDX 13 1 12 2 11 3 15 4 16 5 2 6 1 7 3 8 4 9 5 10 6 11 8 12 9 13
REMARK SMILES IDX 10 14 7 15 14 16
REMARK H PARENT
REMARK Flexibility Score: inf
ROOT
ATOM      1  C   UNL     1       2.003 -25.351  -9.849  1.00  0.00     0.039 C 
ATOM      2  C   UNL     1       1.214 -24.924 -11.066  1.00  0.00    -0.070 C 
ATOM      3  C   UNL     1      -0.019 -24.347 -10.957  1.00  0.00    -0.006 C 
ATOM      4  C   UNL     1      -0.775 -23.867 -12.190  1.00  0.00     0.047 C 
ATOM      5  C   UNL     1      -1.695 -22.656 -11.895  1.00  0.00     0.025 C 
ATOM      6  C   UNL     1      -2.511 -22.155 -13.086  1.00  0.00    -0.073 C 
ATOM      7  C   UNL     1      -2.468 -22.706 -14.315  1.00  0.00     0.008 C 
ATOM      8  C   UNL     1      -3.371 -20.938 -12.843  1.00  0.00     0.031 C 
ATOM      9  C   UNL     1      -4.278 -21.162 -11.629  1.00  0.00     0.005 C 
ATOM     10  C   UNL     1      -3.477 -21.625 -10.400  1.00  0.00     0.008 C 
ATOM     11  C   UNL     1      -2.630 -22.905 -10.669  1.00  0.00    -0.018 C 
ATOM     12  C   UNL     1      -1.751 -23.171  -9.424  1.00  0.00     0.088 C 
ATOM     13  C   UNL     1      -0.750 -24.266  -9.659  1.00  0.00     0.159 C 
ATOM     14  O   UNL     1      -0.557 -25.113  -8.746  1.00  0.00    -0.295 OA
ATOM     15  C   UNL     1      -3.575 -24.116 -10.900  1.00  0.00     0.012 C 
ATOM     16  C   UNL     1       1.870 -25.129 -12.412  1.00  0.00     0.039 C 
ENDROOT
TORSDOF 0
ENDMDL
MODEL 2
REMARK VINA RESULT:    -7.064      1.706      5.306
REMARK INTER + INTRA:          -7.064
REMARK INTER:                  -7.064
REMARK INTRA:                   0.000
REMARK UNBOUND:                 0.000
REMARK SMILES C=C1CCC[C@]2(C)CC(=O)C(=C(C)C)C[C@@H]12
REMARK SMILES IDX 13 1 12 2 11 3 15 4 16 5 2 6 1 7 3 8 4 9 5 10 6 11 8 12 9 13
REMARK SMILES IDX 10 14 7 15 14 16
REMARK H PARENT
REMARK Flexibility Score: inf
ROOT
ATOM      1  C   UNL     1      -2.536 -21.788 -11.586  1.00  0.00     0.039 C 
ATOM      2  C   UNL     1      -1.721 -22.735 -12.437  1.00  0.00    -0.070 C 
ATOM      3  C   UNL     1      -0.782 -23.564 -11.893  1.00  0.00    -0.006 C 
ATOM      4  C   UNL     1      -0.012 -24.556 -12.758  1.00  0.00     0.047 C 
ATOM      5  C   UNL     1       0.395 -25.835 -11.984  1.00  0.00     0.025 C 
ATOM      6  C   UNL     1       1.207 -26.849 -12.789  1.00  0.00    -0.073 C 
ATOM      7  C   UNL     1       1.569 -26.675 -14.075  1.00  0.00     0.008 C 
ATOM      8  C   UNL     1       1.566 -28.132 -12.079  1.00  0.00     0.031 C 
ATOM      9  C   UNL     1       2.261 -27.827 -10.747  1.00  0.00     0.005 C 
ATOM     10  C   UNL     1       1.443 -26.841  -9.895  1.00  0.00     0.008 C 
ATOM     11  C   UNL     1       1.121 -25.510 -10.640  1.00  0.00    -0.018 C 
ATOM     12  C   UNL     1       0.164 -24.680  -9.750  1.00  0.00     0.088 C 
ATOM     13  C   UNL     1      -0.367 -23.470 -10.464  1.00  0.00     0.159 C 
ATOM     14  O   UNL     1      -0.438 -22.381  -9.833  1.00  0.00    -0.295 OA
ATOM     15  C   UNL     1       2.433 -24.711 -10.870  1.00  0.00     0.012 C 
ATOM     16  C   UNL     1      -2.018 -22.748 -13.919  1.00  0.00     0.039 C 
ENDROOT
TORSDOF 0
ENDMDL
MODEL 3
REMARK VINA RESULT:    -5.697      9.992     11.939
REMARK INTER + INTRA:          -5.697
REMARK INTER:                  -5.697
REMARK INTRA:                   0.000
REMARK UNBOUND:                 0.000
REMARK SMILES C=C1CCC[C@]2(C)CC(=O)C(=C(C)C)C[C@@H]12
REMARK SMILES IDX 13 1 12 2 11 3 15 4 16 5 2 6 1 7 3 8 4 9 5 10 6 11 8 12 9 13
REMARK SMILES IDX 10 14 7 15 14 16
REMARK H PARENT
REMARK Flexibility Score: inf
ROOT
ATOM      1  C   UNL     1       8.801 -23.464  -8.833  1.00  0.00     0.039 C 
ATOM      2  C   UNL     1       9.039 -24.914  -8.480  1.00  0.00    -0.070 C 
ATOM      3  C   UNL     1       8.732 -25.925  -9.346  1.00  0.00    -0.006 C 
ATOM      4  C   UNL     1       9.034 -27.378  -8.999  1.00  0.00     0.047 C 
ATOM      5  C   UNL     1       9.332 -28.243 -10.249  1.00  0.00     0.025 C 
ATOM      6  C   UNL     1       9.603 -29.720  -9.967  1.00  0.00    -0.073 C 
ATOM      7  C   UNL     1       9.582 -30.269  -8.738  1.00  0.00     0.008 C 
ATOM      8  C   UNL     1       9.956 -30.575 -11.161  1.00  0.00     0.031 C 
ATOM      9  C   UNL     1       8.894 -30.424 -12.256  1.00  0.00     0.005 C 
ATOM     10  C   UNL     1       8.632 -28.946 -12.593  1.00  0.00     0.008 C 
ATOM     11  C   UNL     1       8.232 -28.097 -11.348  1.00  0.00    -0.018 C 
ATOM     12  C   UNL     1       8.159 -26.613 -11.781  1.00  0.00     0.088 C 
ATOM     13  C   UNL     1       7.978 -25.689 -10.611  1.00  0.00     0.159 C 
ATOM     14  O   UNL     1       7.170 -24.728 -10.722  1.00  0.00    -0.295 OA
ATOM     15  C   UNL     1       6.838 -28.551 -10.834  1.00  0.00     0.012 C 
ATOM     16  C   UNL     1       9.670 -25.196  -7.136  1.00  0.00     0.039 C 
ENDROOT
TORSDOF 0
ENDMDL
MODEL 4
REMARK VINA RESULT:    -5.553      5.904     10.208
REMARK INTER + INTRA:          -5.553
REMARK INTER:                  -5.553
REMARK INTRA:                   0.000
REMARK UNBOUND:                 0.000
REMARK SMILES C=C1CCC[C@]2(C)CC(=O)C(=C(C)C)C[C@@H]12
REMARK SMILES IDX 13 1 12 2 11 3 15 4 16 5 2 6 1 7 3 8 4 9 5 10 6 11 8 12 9 13
REMARK SMILES IDX 10 14 7 15 14 16
REMARK H PARENT
REMARK Flexibility Score: inf
ROOT
ATOM      1  C   UNL     1       2.248 -26.756 -10.240  1.00  0.00     0.039 C 
ATOM      2  C   UNL     1       3.067 -27.811 -10.949  1.00  0.00    -0.070 C 
ATOM      3  C   UNL     1       4.431 -27.760 -10.982  1.00  0.00    -0.006 C 
ATOM      4  C   UNL     1       5.244 -28.863 -11.649  1.00  0.00     0.047 C 
ATOM      5  C   UNL     1       6.634 -29.062 -10.995  1.00  0.00     0.025 C 
ATOM      6  C   UNL     1       7.512 -30.129 -11.648  1.00  0.00    -0.073 C 
ATOM      7  C   UNL     1       7.144 -30.855 -12.721  1.00  0.00     0.008 C 
ATOM      8  C   UNL     1       8.849 -30.386 -10.994  1.00  0.00     0.031 C 
ATOM      9  C   UNL     1       9.626 -29.075 -10.837  1.00  0.00     0.005 C 
ATOM     10  C   UNL     1       8.781 -27.994 -10.141  1.00  0.00     0.008 C 
ATOM     11  C   UNL     1       7.425 -27.722 -10.860  1.00  0.00    -0.018 C 
ATOM     12  C   UNL     1       6.602 -26.748  -9.983  1.00  0.00     0.088 C 
ATOM     13  C   UNL     1       5.198 -26.580 -10.487  1.00  0.00     0.159 C 
ATOM     14  O   UNL     1       4.695 -25.424 -10.494  1.00  0.00    -0.295 OA
ATOM     15  C   UNL     1       7.691 -27.067 -12.244  1.00  0.00     0.012 C 
ATOM     16  C   UNL     1       2.307 -28.949 -11.590  1.00  0.00     0.039 C 
ENDROOT
TORSDOF 0
ENDMDL
MODEL 5
REMARK VINA RESULT:    -4.904      1.749      2.921
REMARK INTER + INTRA:          -4.904
REMARK INTER:                  -4.904
REMARK INTRA:                   0.000
REMARK UNBOUND:                 0.000
REMARK SMILES C=C1CCC[C@]2(C)CC(=O)C(=C(C)C)C[C@@H]12
REMARK SMILES IDX 13 1 12 2 11 3 15 4 16 5 2 6 1 7 3 8 4 9 5 10 6 11 8 12 9 13
REMARK SMILES IDX 10 14 7 15 14 16
REMARK H PARENT
REMARK Flexibility Score: inf
ROOT
ATOM      1  C   UNL     1       2.997 -26.602 -11.040  1.00  0.00     0.039 C 
ATOM      2  C   UNL     1       2.453 -25.241 -10.672  1.00  0.00    -0.070 C 
ATOM      3  C   UNL     1       1.199 -24.845 -11.038  1.00  0.00    -0.006 C 
ATOM      4  C   UNL     1       0.642 -23.493 -10.607  1.00  0.00     0.047 C 
ATOM      5  C   UNL     1      -0.897 -23.505 -10.436  1.00  0.00     0.025 C 
ATOM      6  C   UNL     1      -1.518 -22.165 -10.043  1.00  0.00    -0.073 C 
ATOM      7  C   UNL     1      -0.812 -21.032  -9.860  1.00  0.00     0.008 C 
ATOM      8  C   UNL     1      -3.010 -22.161  -9.811  1.00  0.00     0.031 C 
ATOM      9  C   UNL     1      -3.738 -22.754 -11.022  1.00  0.00     0.005 C 
ATOM     10  C   UNL     1      -3.163 -24.126 -11.414  1.00  0.00     0.008 C 
ATOM     11  C   UNL     1      -1.629 -24.092 -11.685  1.00  0.00    -0.018 C 
ATOM     12  C   UNL     1      -1.145 -25.546 -11.903  1.00  0.00     0.088 C 
ATOM     13  C   UNL     1       0.352 -25.641 -11.972  1.00  0.00     0.159 C 
ATOM     14  O   UNL     1       0.868 -26.394 -12.843  1.00  0.00    -0.295 OA
ATOM     15  C   UNL     1      -1.345 -23.258 -12.965  1.00  0.00     0.012 C 
ATOM     16  C   UNL     1       3.349 -24.348  -9.844  1.00  0.00     0.039 C 
ENDROOT
TORSDOF 0
ENDMDL
MODEL 6
REMARK VINA RESULT:    -4.861      8.934     11.467
REMARK INTER + INTRA:          -4.861
REMARK INTER:                  -4.861
REMARK INTRA:                   0.000
REMARK UNBOUND:                 0.000
REMARK SMILES C=C1CCC[C@]2(C)CC(=O)C(=C(C)C)C[C@@H]12
REMARK SMILES IDX 13 1 12 2 11 3 15 4 16 5 2 6 1 7 3 8 4 9 5 10 6 11 8 12 9 13
REMARK SMILES IDX 10 14 7 15 14 16
REMARK H PARENT
REMARK Flexibility Score: inf
ROOT
ATOM      1  C   UNL     1       8.484 -29.255 -16.630  1.00  0.00     0.039 C 
ATOM      2  C   UNL     1       7.526 -28.953 -15.500  1.00  0.00    -0.070 C 
ATOM      3  C   UNL     1       7.964 -28.741 -14.223  1.00  0.00    -0.006 C 
ATOM      4  C   UNL     1       6.991 -28.378 -13.107  1.00  0.00     0.047 C 
ATOM      5  C   UNL     1       7.637 -27.489 -12.015  1.00  0.00     0.025 C 
ATOM      6  C   UNL     1       6.720 -27.126 -10.848  1.00  0.00    -0.073 C 
ATOM      7  C   UNL     1       5.443 -27.537 -10.736  1.00  0.00     0.008 C 
ATOM      8  C   UNL     1       7.305 -26.210  -9.799  1.00  0.00     0.031 C 
ATOM      9  C   UNL     1       8.633 -26.774  -9.281  1.00  0.00     0.005 C 
ATOM     10  C   UNL     1       9.595 -27.108 -10.434  1.00  0.00     0.008 C 
ATOM     11  C   UNL     1       8.979 -28.084 -11.481  1.00  0.00    -0.018 C 
ATOM     12  C   UNL     1       9.969 -28.210 -12.664  1.00  0.00     0.088 C 
ATOM     13  C   UNL     1       9.381 -28.971 -13.817  1.00  0.00     0.159 C 
ATOM     14  O   UNL     1      10.105 -29.810 -14.418  1.00  0.00    -0.295 OA
ATOM     15  C   UNL     1       8.773 -29.481 -10.832  1.00  0.00     0.012 C 
ATOM     16  C   UNL     1       6.060 -28.858 -15.854  1.00  0.00     0.039 C 
ENDROOT
TORSDOF 0
ENDMDL
MODEL 7
REMARK VINA RESULT:    -4.594      1.594      2.984
REMARK INTER + INTRA:          -4.594
REMARK INTER:                  -4.594
REMARK INTRA:                   0.000
REMARK UNBOUND:                 0.000
REMARK SMILES C=C1CCC[C@]2(C)CC(=O)C(=C(C)C)C[C@@H]12
REMARK SMILES IDX 13 1 12 2 11 3 15 4 16 5 2 6 1 7 3 8 4 9 5 10 6 11 8 12 9 13
REMARK SMILES IDX 10 14 7 15 14 16
REMARK H PARENT
REMARK Flexibility Score: inf
ROOT
ATOM      1  C   UNL     1       1.438 -26.412 -11.398  1.00  0.00     0.039 C 
ATOM      2  C   UNL     1       0.602 -25.485 -10.546  1.00  0.00    -0.070 C 
ATOM      3  C   UNL     1      -0.190 -24.519 -11.099  1.00  0.00    -0.006 C 
ATOM      4  C   UNL     1      -1.073 -23.632 -10.230  1.00  0.00     0.047 C 
ATOM      5  C   UNL     1      -2.363 -23.174 -10.956  1.00  0.00     0.025 C 
ATOM      6  C   UNL     1      -3.270 -22.248 -10.147  1.00  0.00    -0.073 C 
ATOM      7  C   UNL     1      -2.997 -21.830  -8.896  1.00  0.00     0.008 C 
ATOM      8  C   UNL     1      -4.563 -21.835 -10.808  1.00  0.00     0.031 C 
ATOM      9  C   UNL     1      -4.286 -21.238 -12.192  1.00  0.00     0.005 C 
ATOM     10  C   UNL     1      -3.411 -22.171 -13.047  1.00  0.00     0.008 C 
ATOM     11  C   UNL     1      -2.066 -22.549 -12.356  1.00  0.00    -0.018 C 
ATOM     12  C   UNL     1      -1.357 -23.611 -13.231  1.00  0.00     0.088 C 
ATOM     13  C   UNL     1      -0.149 -24.190 -12.553  1.00  0.00     0.159 C 
ATOM     14  O   UNL     1       0.894 -24.375 -13.236  1.00  0.00    -0.295 OA
ATOM     15  C   UNL     1      -1.164 -21.289 -12.246  1.00  0.00     0.012 C 
ATOM     16  C   UNL     1       0.652 -25.699  -9.051  1.00  0.00     0.039 C 
ENDROOT
TORSDOF 0
ENDMDL
