MODEL 1
REMARK VINA RESULT:    -7.030      0.000      0.000
REMARK INTER + INTRA:          -8.805
REMARK INTER:                  -8.057
REMARK INTRA:                  -0.748
REMARK UNBOUND:                -0.748
REMARK SMILES C=C(C)[C@H]1CC[C@]2(C(=O)[O-])CC[C@@]3(C)[C@H](CC[C@@H]4[C@@]5(C)CC[C@@H](O)C(C)(C)[C@@H]5CC[C@@]43C)[C@H]12
REMARK SMILES IDX 7 1 6 2 33 3 11 4 5 5 15 6 4 7 12 8 16 9 13 10 17 11 31 12
REMARK SMILES IDX 14 13 18 14 30 15 32 16 19 17 29 18 21 19 20 20 28 21 22 22
REMARK SMILES IDX 25 23 23 24 26 25 27 26 8 27 9 28 10 29 2 30 3 31 1 32 24 33
REMARK H PARENT 24 34
REMARK Flexibility Score: inf
ROOT
ATOM      1  C   UNL     1      29.262  31.971  31.863  1.00  0.00     0.014 C 
ATOM      2  C   UNL     1      29.858  30.590  31.514  1.00  0.00     0.014 C 
ATOM      3  C   UNL     1      28.667  32.459  30.510  1.00  0.00     0.012 C 
ATOM      4  C   UNL     1      28.222  31.836  33.016  1.00  0.00     0.014 C 
ATOM      5  C   UNL     1      30.350  30.693  30.079  1.00  0.00     0.009 C 
ATOM      6  C   UNL     1      27.097  32.441  30.449  1.00  0.00     0.000 C 
ATOM      7  C   UNL     1      29.379  31.653  29.383  1.00  0.00     0.018 C 
ATOM      8  C   UNL     1      27.038  32.833  32.994  1.00  0.00     0.008 C 
ATOM      9  C   UNL     1      26.472  31.028  30.451  1.00  0.00     0.005 C 
ATOM     10  C   UNL     1      26.478  33.327  31.592  1.00  0.00    -0.024 C 
ATOM     11  C   UNL     1      24.964  31.084  30.319  1.00  0.00     0.005 C 
ATOM     12  C   UNL     1      24.852  33.327  31.564  1.00  0.00    -0.024 C 
ATOM     13  C   UNL     1      26.964  34.805  31.381  1.00  0.00     0.012 C 
ATOM     14  C   UNL     1      24.251  31.850  31.477  1.00  0.00     0.002 C 
ATOM     15  C   UNL     1      24.313  34.127  30.307  1.00  0.00     0.008 C 
ATOM     16  C   UNL     1      24.359  34.065  32.875  1.00  0.00     0.012 C 
ATOM     17  C   UNL     1      22.624  31.764  31.377  1.00  0.00    -0.026 C 
ATOM     18  C   UNL     1      22.857  33.820  29.862  1.00  0.00     0.005 C 
ATOM     19  C   UNL     1      21.998  31.330  32.756  1.00  0.00     0.010 C 
ATOM     20  C   UNL     1      22.188  30.666  30.346  1.00  0.00     0.012 C 
ATOM     21  C   UNL     1      22.024  33.165  30.980  1.00  0.00     0.003 C 
ATOM     22  C   UNL     1      20.646  32.003  33.109  1.00  0.00     0.033 C 
ATOM     23  C   UNL     1      20.447  33.267  30.844  1.00  0.00    -0.006 C 
ATOM     24  C   UNL     1      19.756  32.289  31.874  1.00  0.00     0.120 C 
ATOM     25  C   UNL     1      20.012  34.733  31.154  1.00  0.00     0.014 C 
ATOM     26  C   UNL     1      19.953  32.965  29.406  1.00  0.00     0.014 C 
ENDROOT
BRANCH   1  27
ATOM     27  C   UNL     1      30.369  32.921  32.321  1.00  0.00     0.048 C 
ATOM     28  O   UNL     1      30.320  34.142  32.018  1.00  0.00    -0.550 OA
ATOM     29  O   UNL     1      31.451  32.467  33.070  1.00  0.00    -0.550 OA
ENDBRANCH   1  27
BRANCH   7  30
ATOM     30  C   UNL     1      30.070  32.534  28.341  1.00  0.00    -0.077 C 
ATOM     31  C   UNL     1      29.735  34.001  28.250  1.00  0.00     0.039 C 
ATOM     32  C   UNL     1      30.994  32.037  27.500  1.00  0.00     0.008 C 
ENDBRANCH   7  30
BRANCH  24  33
ATOM     33  O   UNL     1      18.480  32.744  32.266  1.00  0.00    -0.393 OA
ATOM     34  H   UNL     1      17.976  33.016  31.454  1.00  0.00     0.210 HD
ENDBRANCH  24  33
TORSDOF 3
ENDMDL
MODEL 2
REMARK VINA RESULT:    -6.947      1.618      3.353
REMARK INTER + INTRA:          -8.710
REMARK INTER:                  -7.959
REMARK INTRA:                  -0.751
REMARK UNBOUND:                -0.748
REMARK SMILES C=C(C)[C@H]1CC[C@]2(C(=O)[O-])CC[C@@]3(C)[C@H](CC[C@@H]4[C@@]5(C)CC[C@@H](O)C(C)(C)[C@@H]5CC[C@@]43C)[C@H]12
REMARK SMILES IDX 7 1 6 2 33 3 11 4 5 5 15 6 4 7 12 8 16 9 13 10 17 11 31 12
REMARK SMILES IDX 14 13 18 14 30 15 32 16 19 17 29 18 21 19 20 20 28 21 22 22
REMARK SMILES IDX 25 23 23 24 26 25 27 26 8 27 9 28 10 29 2 30 3 31 1 32 24 33
REMARK H PARENT 24 34
REMARK Flexibility Score: inf
ROOT
ATOM      1  C   UNL     1      29.456  31.899  29.375  1.00  0.00     0.014 C 
ATOM      2  C   UNL     1      30.153  33.009  28.559  1.00  0.00     0.014 C 
ATOM      3  C   UNL     1      29.169  32.584  30.744  1.00  0.00     0.012 C 
ATOM      4  C   UNL     1      28.185  31.393  28.626  1.00  0.00     0.014 C 
ATOM      5  C   UNL     1      30.954  33.828  29.559  1.00  0.00     0.009 C 
ATOM      6  C   UNL     1      27.655  32.919  30.996  1.00  0.00     0.000 C 
ATOM      7  C   UNL     1      30.140  33.797  30.857  1.00  0.00     0.018 C 
ATOM      8  C   UNL     1      27.010  30.915  29.513  1.00  0.00     0.008 C 
ATOM      9  C   UNL     1      27.085  34.030  30.087  1.00  0.00     0.005 C 
ATOM     10  C   UNL     1      26.769  31.622  30.914  1.00  0.00    -0.024 C 
ATOM     11  C   UNL     1      25.645  34.351  30.431  1.00  0.00     0.005 C 
ATOM     12  C   UNL     1      25.192  31.932  31.163  1.00  0.00    -0.024 C 
ATOM     13  C   UNL     1      27.249  30.632  32.034  1.00  0.00     0.012 C 
ATOM     14  C   UNL     1      24.668  33.145  30.267  1.00  0.00     0.002 C 
ATOM     15  C   UNL     1      24.929  32.320  32.677  1.00  0.00     0.008 C 
ATOM     16  C   UNL     1      24.394  30.602  30.844  1.00  0.00     0.012 C 
ATOM     17  C   UNL     1      23.109  33.565  30.506  1.00  0.00    -0.026 C 
ATOM     18  C   UNL     1      23.622  33.102  32.976  1.00  0.00     0.005 C 
ATOM     19  C   UNL     1      22.198  33.043  29.331  1.00  0.00     0.010 C 
ATOM     20  C   UNL     1      22.948  35.125  30.509  1.00  0.00     0.012 C 
ATOM     21  C   UNL     1      22.575  32.951  31.855  1.00  0.00     0.003 C 
ATOM     22  C   UNL     1      20.784  32.568  29.751  1.00  0.00     0.033 C 
ATOM     23  C   UNL     1      21.067  33.254  32.245  1.00  0.00    -0.006 C 
ATOM     24  C   UNL     1      20.188  33.367  30.937  1.00  0.00     0.120 C 
ATOM     25  C   UNL     1      20.534  32.082  33.125  1.00  0.00     0.014 C 
ATOM     26  C   UNL     1      20.921  34.539  33.101  1.00  0.00     0.014 C 
ENDROOT
BRANCH   1  27
ATOM     27  C   UNL     1      30.404  30.715  29.571  1.00  0.00     0.048 C 
ATOM     28  O   UNL     1      30.385  30.061  30.647  1.00  0.00    -0.550 OA
ATOM     29  O   UNL     1      31.307  30.339  28.581  1.00  0.00    -0.550 OA
ENDBRANCH   1  27
BRANCH   7  30
ATOM     30  C   UNL     1      31.024  33.761  32.105  1.00  0.00    -0.077 C 
ATOM     31  C   UNL     1      31.987  34.886  32.383  1.00  0.00     0.039 C 
ATOM     32  C   UNL     1      30.957  32.746  32.985  1.00  0.00     0.008 C 
ENDBRANCH   7  30
BRANCH  24  33
ATOM     33  O   UNL     1      18.845  33.005  31.166  1.00  0.00    -0.393 OA
ATOM     34  H   UNL     1      18.826  32.108  31.591  1.00  0.00     0.210 HD
ENDBRANCH  24  33
TORSDOF 3
ENDMDL
MODEL 3
REMARK VINA RESULT:    -6.792      2.040      3.907
REMARK INTER + INTRA:          -8.533
REMARK INTER:                  -7.812
REMARK INTRA:                  -0.721
REMARK UNBOUND:                -0.748
REMARK SMILES C=C(C)[C@H]1CC[C@]2(C(=O)[O-])CC[C@@]3(C)[C@H](CC[C@@H]4[C@@]5(C)CC[C@@H](O)C(C)(C)[C@@H]5CC[C@@]43C)[C@H]12
REMARK SMILES IDX 7 1 6 2 33 3 11 4 5 5 15 6 4 7 12 8 16 9 13 10 17 11 31 12
REMARK SMILES IDX 14 13 18 14 30 15 32 16 19 17 29 18 21 19 20 20 28 21 22 22
REMARK SMILES IDX 25 23 23 24 26 25 27 26 8 27 9 28 10 29 2 30 3 31 1 32 24 33
REMARK H PARENT 24 34
REMARK Flexibility Score: inf
ROOT
ATOM      1  C   UNL     1      25.667  32.875  32.277  1.00  0.00     0.014 C 
ATOM      2  C   UNL     1      26.353  31.782  33.125  1.00  0.00     0.014 C 
ATOM      3  C   UNL     1      25.189  32.104  31.012  1.00  0.00     0.012 C 
ATOM      4  C   UNL     1      24.523  33.554  33.091  1.00  0.00     0.014 C 
ATOM      5  C   UNL     1      26.980  30.813  32.136  1.00  0.00     0.009 C 
ATOM      6  C   UNL     1      23.636  31.884  30.936  1.00  0.00     0.000 C 
ATOM      7  C   UNL     1      26.044  30.804  30.923  1.00  0.00     0.018 C 
ATOM      8  C   UNL     1      23.306  34.057  32.277  1.00  0.00     0.008 C 
ATOM      9  C   UNL     1      23.074  30.909  31.995  1.00  0.00     0.005 C 
ATOM     10  C   UNL     1      22.869  33.256  30.978  1.00  0.00    -0.024 C 
ATOM     11  C   UNL     1      21.586  30.689  31.819  1.00  0.00     0.005 C 
ATOM     12  C   UNL     1      21.254  33.066  30.907  1.00  0.00    -0.024 C 
ATOM     13  C   UNL     1      23.310  34.100  29.729  1.00  0.00     0.012 C 
ATOM     14  C   UNL     1      20.729  31.986  31.959  1.00  0.00     0.002 C 
ATOM     15  C   UNL     1      20.810  32.575  29.468  1.00  0.00     0.008 C 
ATOM     16  C   UNL     1      20.602  34.484  31.174  1.00  0.00     0.012 C 
ATOM     17  C   UNL     1      19.125  31.686  31.908  1.00  0.00    -0.026 C 
ATOM     18  C   UNL     1      19.421  31.889  29.368  1.00  0.00     0.005 C 
ATOM     19  C   UNL     1      18.383  32.386  33.109  1.00  0.00     0.010 C 
ATOM     20  C   UNL     1      18.841  30.153  32.067  1.00  0.00     0.012 C 
ATOM     21  C   UNL     1      18.509  32.227  30.563  1.00  0.00     0.003 C 
ATOM     22  C   UNL     1      16.976  32.947  32.780  1.00  0.00     0.033 C 
ATOM     23  C   UNL     1      16.950  32.026  30.346  1.00  0.00    -0.006 C 
ATOM     24  C   UNL     1      16.201  32.104  31.735  1.00  0.00     0.120 C 
ATOM     25  C   UNL     1      16.425  33.161  29.414  1.00  0.00     0.014 C 
ATOM     26  C   UNL     1      16.616  30.691  29.633  1.00  0.00     0.014 C 
ENDROOT
BRANCH   1  27
ATOM     27  C   UNL     1      26.681  33.949  31.883  1.00  0.00     0.048 C 
ATOM     28  O   UNL     1      27.487  34.403  32.739  1.00  0.00    -0.550 OA
ATOM     29  O   UNL     1      26.736  34.454  30.588  1.00  0.00    -0.550 OA
ENDBRANCH   1  27
BRANCH   7  30
ATOM     30  C   UNL     1      26.797  30.655  29.600  1.00  0.00    -0.077 C 
ATOM     31  C   UNL     1      28.077  31.416  29.369  1.00  0.00     0.039 C 
ATOM     32  C   UNL     1      26.354  29.841  28.626  1.00  0.00     0.008 C 
ENDBRANCH   7  30
BRANCH  24  33
ATOM     33  O   UNL     1      14.875  32.563  31.600  1.00  0.00    -0.393 OA
ATOM     34  H   UNL     1      14.748  33.346  32.197  1.00  0.00     0.210 HD
ENDBRANCH  24  33
TORSDOF 3
ENDMDL
MODEL 4
REMARK VINA RESULT:    -6.527      1.809      3.569
REMARK INTER + INTRA:          -8.229
REMARK INTER:                  -7.519
REMARK INTRA:                  -0.710
REMARK UNBOUND:                -0.748
REMARK SMILES C=C(C)[C@H]1CC[C@]2(C(=O)[O-])CC[C@@]3(C)[C@H](CC[C@@H]4[C@@]5(C)CC[C@@H](O)C(C)(C)[C@@H]5CC[C@@]43C)[C@H]12
REMARK SMILES IDX 7 1 6 2 33 3 11 4 5 5 15 6 4 7 12 8 16 9 13 10 17 11 31 12
REMARK SMILES IDX 14 13 18 14 30 15 32 16 19 17 29 18 21 19 20 20 28 21 22 22
REMARK SMILES IDX 25 23 23 24 26 25 27 26 8 27 9 28 10 29 2 30 3 31 1 32 24 33
REMARK H PARENT 24 34
REMARK Flexibility Score: inf
ROOT
ATOM      1  C   UNL     1      27.737  31.624  30.021  1.00  0.00     0.014 C 
ATOM      2  C   UNL     1      28.258  32.601  28.944  1.00  0.00     0.014 C 
ATOM      3  C   UNL     1      27.143  32.568  31.107  1.00  0.00     0.012 C 
ATOM      4  C   UNL     1      26.711  30.628  29.398  1.00  0.00     0.014 C 
ATOM      5  C   UNL     1      28.729  33.839  29.691  1.00  0.00     0.009 C 
ATOM      6  C   UNL     1      25.574  32.569  31.176  1.00  0.00     0.000 C 
ATOM      7  C   UNL     1      27.795  33.967  30.899  1.00  0.00     0.018 C 
ATOM      8  C   UNL     1      25.578  30.137  30.331  1.00  0.00     0.008 C 
ATOM      9  C   UNL     1      24.880  33.205  29.950  1.00  0.00     0.005 C 
ATOM     10  C   UNL     1      25.019  31.123  31.444  1.00  0.00    -0.024 C 
ATOM     11  C   UNL     1      23.374  33.237  30.115  1.00  0.00     0.005 C 
ATOM     12  C   UNL     1      23.394  31.084  31.514  1.00  0.00    -0.024 C 
ATOM     13  C   UNL     1      25.574  30.636  32.829  1.00  0.00     0.012 C 
ATOM     14  C   UNL     1      22.720  31.828  30.273  1.00  0.00     0.002 C 
ATOM     15  C   UNL     1      22.874  31.799  32.829  1.00  0.00     0.008 C 
ATOM     16  C   UNL     1      22.961  29.563  31.570  1.00  0.00     0.012 C 
ATOM     17  C   UNL     1      21.089  31.894  30.302  1.00  0.00    -0.026 C 
ATOM     18  C   UNL     1      21.398  32.280  32.819  1.00  0.00     0.005 C 
ATOM     19  C   UNL     1      20.466  30.855  29.295  1.00  0.00     0.010 C 
ATOM     20  C   UNL     1      20.582  33.301  29.832  1.00  0.00     0.012 C 
ATOM     21  C   UNL     1      20.552  31.567  31.746  1.00  0.00     0.003 C 
ATOM     22  C   UNL     1      19.156  30.177  29.771  1.00  0.00     0.033 C 
ATOM     23  C   UNL     1      18.980  31.579  31.956  1.00  0.00    -0.006 C 
ATOM     24  C   UNL     1      18.259  31.100  30.635  1.00  0.00     0.120 C 
ATOM     25  C   UNL     1      18.624  30.603  33.120  1.00  0.00     0.014 C 
ATOM     26  C   UNL     1      18.447  32.971  32.381  1.00  0.00     0.014 C 
ENDROOT
BRANCH   1  27
ATOM     27  C   UNL     1      28.897  30.818  30.605  1.00  0.00     0.048 C 
ATOM     28  O   UNL     1      28.905  30.516  31.828  1.00  0.00    -0.550 OA
ATOM     29  O   UNL     1      29.966  30.408  29.814  1.00  0.00    -0.550 OA
ENDBRANCH   1  27
BRANCH   7  30
ATOM     30  C   UNL     1      28.510  34.502  32.141  1.00  0.00    -0.077 C 
ATOM     31  C   UNL     1      30.004  34.352  32.276  1.00  0.00     0.039 C 
ATOM     32  C   UNL     1      27.839  35.125  33.125  1.00  0.00     0.008 C 
ENDBRANCH   7  30
BRANCH  24  33
ATOM     33  O   UNL     1      17.015  30.491  30.898  1.00  0.00    -0.393 OA
ATOM     34  H   UNL     1      16.634  30.892  31.723  1.00  0.00     0.210 HD
ENDBRANCH  24  33
TORSDOF 3
ENDMDL
MODEL 5
REMARK VINA RESULT:    -6.386      1.625      8.198
REMARK INTER + INTRA:          -8.067
REMARK INTER:                  -7.474
REMARK INTRA:                  -0.593
REMARK UNBOUND:                -0.748
REMARK SMILES C=C(C)[C@H]1CC[C@]2(C(=O)[O-])CC[C@@]3(C)[C@H](CC[C@@H]4[C@@]5(C)CC[C@@H](O)C(C)(C)[C@@H]5CC[C@@]43C)[C@H]12
REMARK SMILES IDX 7 1 6 2 33 3 11 4 5 5 15 6 4 7 12 8 16 9 13 10 17 11 31 12
REMARK SMILES IDX 14 13 18 14 30 15 32 16 19 17 29 18 21 19 20 20 28 21 22 22
REMARK SMILES IDX 25 23 23 24 26 25 27 26 8 27 9 28 10 29 2 30 3 31 1 32 24 33
REMARK H PARENT 24 34
REMARK Flexibility Score: inf
ROOT
ATOM      1  C   UNL     1      20.514  31.778  31.997  1.00  0.00     0.014 C 
ATOM      2  C   UNL     1      19.565  32.813  31.354  1.00  0.00     0.014 C 
ATOM      3  C   UNL     1      21.204  31.111  30.772  1.00  0.00     0.012 C 
ATOM      4  C   UNL     1      21.491  32.482  32.987  1.00  0.00     0.014 C 
ATOM      5  C   UNL     1      19.104  32.202  30.040  1.00  0.00     0.009 C 
ATOM      6  C   UNL     1      22.711  31.513  30.579  1.00  0.00     0.000 C 
ATOM      7  C   UNL     1      20.290  31.372  29.537  1.00  0.00     0.018 C 
ATOM      8  C   UNL     1      22.899  31.854  33.125  1.00  0.00     0.008 C 
ATOM      9  C   UNL     1      22.933  32.984  30.164  1.00  0.00     0.005 C 
ATOM     10  C   UNL     1      23.557  31.159  31.857  1.00  0.00    -0.024 C 
ATOM     11  C   UNL     1      24.399  33.283  29.927  1.00  0.00     0.005 C 
ATOM     12  C   UNL     1      25.123  31.568  31.696  1.00  0.00    -0.024 C 
ATOM     13  C   UNL     1      23.484  29.606  32.076  1.00  0.00     0.012 C 
ATOM     14  C   UNL     1      25.303  33.069  31.182  1.00  0.00     0.002 C 
ATOM     15  C   UNL     1      25.844  30.623  30.649  1.00  0.00     0.008 C 
ATOM     16  C   UNL     1      25.810  31.364  33.108  1.00  0.00     0.012 C 
ATOM     17  C   UNL     1      26.847  33.538  30.929  1.00  0.00    -0.026 C 
ATOM     18  C   UNL     1      27.159  31.160  30.021  1.00  0.00     0.005 C 
ATOM     19  C   UNL     1      27.347  34.475  32.093  1.00  0.00     0.010 C 
ATOM     20  C   UNL     1      26.961  34.389  29.617  1.00  0.00     0.012 C 
ATOM     21  C   UNL     1      27.797  32.284  30.859  1.00  0.00     0.003 C 
ATOM     22  C   UNL     1      28.834  34.292  32.495  1.00  0.00     0.033 C 
ATOM     23  C   UNL     1      29.342  32.556  30.625  1.00  0.00    -0.006 C 
ATOM     24  C   UNL     1      29.756  33.919  31.307  1.00  0.00     0.120 C 
ATOM     25  C   UNL     1      30.158  31.391  31.266  1.00  0.00     0.014 C 
ATOM     26  C   UNL     1      29.721  32.573  29.122  1.00  0.00     0.014 C 
ENDROOT
BRANCH   1  27
ATOM     27  C   UNL     1      19.707  30.737  32.775  1.00  0.00     0.048 C 
ATOM     28  O   UNL     1      20.245  29.653  33.124  1.00  0.00    -0.550 OA
ATOM     29  O   UNL     1      18.373  30.953  33.107  1.00  0.00    -0.550 OA
ENDBRANCH   1  27
BRANCH   7  30
ATOM     30  C   UNL     1      19.851  30.095  28.819  1.00  0.00    -0.077 C 
ATOM     31  C   UNL     1      20.782  28.912  28.743  1.00  0.00     0.039 C 
ATOM     32  C   UNL     1      18.634  29.987  28.257  1.00  0.00     0.008 C 
ENDBRANCH   7  30
BRANCH  24  33
ATOM     33  O   UNL     1      31.111  33.930  31.697  1.00  0.00    -0.393 OA
ATOM     34  H   UNL     1      31.199  33.431  32.551  1.00  0.00     0.210 HD
ENDBRANCH  24  33
TORSDOF 3
ENDMDL
MODEL 6
REMARK VINA RESULT:    -6.324      1.463      8.272
REMARK INTER + INTRA:          -7.996
REMARK INTER:                  -7.297
REMARK INTRA:                  -0.699
REMARK UNBOUND:                -0.748
REMARK SMILES C=C(C)[C@H]1CC[C@]2(C(=O)[O-])CC[C@@]3(C)[C@H](CC[C@@H]4[C@@]5(C)CC[C@@H](O)C(C)(C)[C@@H]5CC[C@@]43C)[C@H]12
REMARK SMILES IDX 7 1 6 2 33 3 11 4 5 5 15 6 4 7 12 8 16 9 13 10 17 11 31 12
REMARK SMILES IDX 14 13 18 14 30 15 32 16 19 17 29 18 21 19 20 20 28 21 22 22
REMARK SMILES IDX 25 23 23 24 26 25 27 26 8 27 9 28 10 29 2 30 3 31 1 32 24 33
REMARK H PARENT 24 34
REMARK Flexibility Score: inf
ROOT
ATOM      1  C   UNL     1      21.081  33.675  30.390  1.00  0.00     0.014 C 
ATOM      2  C   UNL     1      20.386  32.822  29.306  1.00  0.00     0.014 C 
ATOM      3  C   UNL     1      21.590  32.615  31.411  1.00  0.00     0.012 C 
ATOM      4  C   UNL     1      22.203  34.551  29.753  1.00  0.00     0.014 C 
ATOM      5  C   UNL     1      19.787  31.627  30.030  1.00  0.00     0.009 C 
ATOM      6  C   UNL     1      23.147  32.403  31.401  1.00  0.00     0.000 C 
ATOM      7  C   UNL     1      20.748  31.325  31.184  1.00  0.00     0.018 C 
ATOM      8  C   UNL     1      23.432  34.847  30.645  1.00  0.00     0.008 C 
ATOM      9  C   UNL     1      23.694  31.733  30.121  1.00  0.00     0.005 C 
ATOM     10  C   UNL     1      23.903  33.750  31.693  1.00  0.00    -0.024 C 
ATOM     11  C   UNL     1      25.187  31.494  30.209  1.00  0.00     0.005 C 
ATOM     12  C   UNL     1      25.519  33.570  31.684  1.00  0.00    -0.024 C 
ATOM     13  C   UNL     1      23.481  34.247  33.121  1.00  0.00     0.012 C 
ATOM     14  C   UNL     1      26.031  32.796  30.385  1.00  0.00     0.002 C 
ATOM     15  C   UNL     1      25.997  32.737  32.945  1.00  0.00     0.008 C 
ATOM     16  C   UNL     1      26.155  35.016  31.773  1.00  0.00     0.012 C 
ATOM     17  C   UNL     1      27.638  32.513  30.330  1.00  0.00    -0.026 C 
ATOM     18  C   UNL     1      27.393  32.065  32.844  1.00  0.00     0.005 C 
ATOM     19  C   UNL     1      28.350  33.502  29.331  1.00  0.00     0.010 C 
ATOM     20  C   UNL     1      27.930  31.072  29.785  1.00  0.00     0.012 C 
ATOM     21  C   UNL     1      28.278  32.705  31.757  1.00  0.00     0.003 C 
ATOM     22  C   UNL     1      29.759  33.979  29.766  1.00  0.00     0.033 C 
ATOM     23  C   UNL     1      29.842  32.475  31.888  1.00  0.00    -0.006 C 
ATOM     24  C   UNL     1      30.561  32.910  30.550  1.00  0.00     0.120 C 
ATOM     25  C   UNL     1      30.378  33.345  33.067  1.00  0.00     0.014 C 
ATOM     26  C   UNL     1      30.201  31.008  32.235  1.00  0.00     0.014 C 
ENDROOT
BRANCH   1  27
ATOM     27  C   UNL     1      20.067  34.602  31.060  1.00  0.00     0.048 C 
ATOM     28  O   UNL     1      19.132  35.110  30.386  1.00  0.00    -0.550 OA
ATOM     29  O   UNL     1      20.152  34.912  32.414  1.00  0.00    -0.550 OA
ENDBRANCH   1  27
BRANCH   7  30
ATOM     30  C   UNL     1      20.023  30.838  32.440  1.00  0.00    -0.077 C 
ATOM     31  C   UNL     1      18.791  31.556  32.929  1.00  0.00     0.039 C 
ATOM     32  C   UNL     1      20.448  29.762  33.125  1.00  0.00     0.008 C 
ENDBRANCH   7  30
BRANCH  24  33
ATOM     33  O   UNL     1      31.887  33.336  30.772  1.00  0.00    -0.393 OA
ATOM     34  H   UNL     1      32.506  32.663  30.384  1.00  0.00     0.210 HD
ENDBRANCH  24  33
TORSDOF 3
ENDMDL
MODEL 7
REMARK VINA RESULT:    -6.208      1.841      8.504
REMARK INTER + INTRA:          -7.864
REMARK INTER:                  -7.244
REMARK INTRA:                  -0.620
REMARK UNBOUND:                -0.748
REMARK SMILES C=C(C)[C@H]1CC[C@]2(C(=O)[O-])CC[C@@]3(C)[C@H](CC[C@@H]4[C@@]5(C)CC[C@@H](O)C(C)(C)[C@@H]5CC[C@@]43C)[C@H]12
REMARK SMILES IDX 7 1 6 2 33 3 11 4 5 5 15 6 4 7 12 8 16 9 13 10 17 11 31 12
REMARK SMILES IDX 14 13 18 14 30 15 32 16 19 17 29 18 21 19 20 20 28 21 22 22
REMARK SMILES IDX 25 23 23 24 26 25 27 26 8 27 9 28 10 29 2 30 3 31 1 32 24 33
REMARK H PARENT 24 34
REMARK Flexibility Score: inf
ROOT
ATOM      1  C   UNL     1      19.209  31.756  31.893  1.00  0.00     0.014 C 
ATOM      2  C   UNL     1      18.265  32.744  31.175  1.00  0.00     0.014 C 
ATOM      3  C   UNL     1      19.928  31.027  30.721  1.00  0.00     0.012 C 
ATOM      4  C   UNL     1      20.162  32.523  32.860  1.00  0.00     0.014 C 
ATOM      5  C   UNL     1      17.835  32.057  29.889  1.00  0.00     0.009 C 
ATOM      6  C   UNL     1      21.435  31.431  30.534  1.00  0.00     0.000 C 
ATOM      7  C   UNL     1      19.036  31.210  29.457  1.00  0.00     0.018 C 
ATOM      8  C   UNL     1      21.572  31.916  33.059  1.00  0.00     0.008 C 
ATOM      9  C   UNL     1      21.654  32.879  30.041  1.00  0.00     0.005 C 
ATOM     10  C   UNL     1      22.259  31.157  31.845  1.00  0.00    -0.024 C 
ATOM     11  C   UNL     1      23.122  33.177  29.816  1.00  0.00     0.005 C 
ATOM     12  C   UNL     1      23.825  31.571  31.691  1.00  0.00    -0.024 C 
ATOM     13  C   UNL     1      22.194  29.619  32.150  1.00  0.00     0.012 C 
ATOM     14  C   UNL     1      24.003  33.042  31.097  1.00  0.00     0.002 C 
ATOM     15  C   UNL     1      24.574  30.575  30.712  1.00  0.00     0.008 C 
ATOM     16  C   UNL     1      24.486  31.452  33.124  1.00  0.00     0.012 C 
ATOM     17  C   UNL     1      25.547  33.510  30.847  1.00  0.00    -0.026 C 
ATOM     18  C   UNL     1      25.896  31.087  30.080  1.00  0.00     0.005 C 
ATOM     19  C   UNL     1      26.018  34.515  31.965  1.00  0.00     0.010 C 
ATOM     20  C   UNL     1      25.680  34.287  29.492  1.00  0.00     0.012 C 
ATOM     21  C   UNL     1      26.509  32.262  30.866  1.00  0.00     0.003 C 
ATOM     22  C   UNL     1      27.498  34.368  32.405  1.00  0.00     0.033 C 
ATOM     23  C   UNL     1      28.056  32.535  30.645  1.00  0.00    -0.006 C 
ATOM     24  C   UNL     1      28.446  33.938  31.257  1.00  0.00     0.120 C 
ATOM     25  C   UNL     1      28.868  31.415  31.366  1.00  0.00     0.014 C 
ATOM     26  C   UNL     1      28.464  32.471  29.151  1.00  0.00     0.014 C 
ENDROOT
BRANCH   1  27
ATOM     27  C   UNL     1      18.396  30.753  32.713  1.00  0.00     0.048 C 
ATOM     28  O   UNL     1      17.239  31.051  33.110  1.00  0.00    -0.550 OA
ATOM     29  O   UNL     1      18.910  29.502  33.044  1.00  0.00    -0.550 OA
ENDBRANCH   1  27
BRANCH   7  30
ATOM     30  C   UNL     1      18.621  29.891  28.803  1.00  0.00    -0.077 C 
ATOM     31  C   UNL     1      17.327  29.226  29.197  1.00  0.00     0.039 C 
ATOM     32  C   UNL     1      19.380  29.303  27.862  1.00  0.00     0.008 C 
ENDBRANCH   7  30
BRANCH  24  33
ATOM     33  O   UNL     1      29.793  33.983  31.671  1.00  0.00    -0.393 OA
ATOM     34  H   UNL     1      29.869  33.531  32.552  1.00  0.00     0.210 HD
ENDBRANCH  24  33
TORSDOF 3
ENDMDL
MODEL 8
REMARK VINA RESULT:    -5.951      1.475      8.447
REMARK INTER + INTRA:          -7.568
REMARK INTER:                  -6.902
REMARK INTRA:                  -0.666
REMARK UNBOUND:                -0.748
REMARK SMILES C=C(C)[C@H]1CC[C@]2(C(=O)[O-])CC[C@@]3(C)[C@H](CC[C@@H]4[C@@]5(C)CC[C@@H](O)C(C)(C)[C@@H]5CC[C@@]43C)[C@H]12
REMARK SMILES IDX 7 1 6 2 33 3 11 4 5 5 15 6 4 7 12 8 16 9 13 10 17 11 31 12
REMARK SMILES IDX 14 13 18 14 30 15 32 16 19 17 29 18 21 19 20 20 28 21 22 22
REMARK SMILES IDX 25 23 23 24 26 25 27 26 8 27 9 28 10 29 2 30 3 31 1 32 24 33
REMARK H PARENT 24 34
REMARK Flexibility Score: inf
ROOT
ATOM      1  C   UNL     1      20.233  33.393  30.038  1.00  0.00     0.014 C 
ATOM      2  C   UNL     1      19.563  32.374  29.092  1.00  0.00     0.014 C 
ATOM      3  C   UNL     1      20.678  32.521  31.249  1.00  0.00     0.012 C 
ATOM      4  C   UNL     1      21.398  34.127  29.307  1.00  0.00     0.014 C 
ATOM      5  C   UNL     1      18.909  31.333  29.987  1.00  0.00     0.009 C 
ATOM      6  C   UNL     1      22.229  32.287  31.343  1.00  0.00     0.000 C 
ATOM      7  C   UNL     1      19.817  31.224  31.216  1.00  0.00     0.018 C 
ATOM      8  C   UNL     1      22.597  34.557  30.185  1.00  0.00     0.008 C 
ATOM      9  C   UNL     1      22.811  31.396  30.224  1.00  0.00     0.005 C 
ATOM     10  C   UNL     1      23.002  33.654  31.427  1.00  0.00    -0.024 C 
ATOM     11  C   UNL     1      24.294  31.154  30.416  1.00  0.00     0.005 C 
ATOM     12  C   UNL     1      24.613  33.451  31.519  1.00  0.00    -0.024 C 
ATOM     13  C   UNL     1      22.535  34.399  32.727  1.00  0.00     0.012 C 
ATOM     14  C   UNL     1      25.159  32.454  30.397  1.00  0.00     0.002 C 
ATOM     15  C   UNL     1      25.023  32.845  32.924  1.00  0.00     0.008 C 
ATOM     16  C   UNL     1      25.277  34.881  31.380  1.00  0.00     0.012 C 
ATOM     17  C   UNL     1      26.760  32.142  30.461  1.00  0.00    -0.026 C 
ATOM     18  C   UNL     1      26.407  32.146  33.001  1.00  0.00     0.005 C 
ATOM     19  C   UNL     1      27.532  32.930  29.336  1.00  0.00     0.010 C 
ATOM     20  C   UNL     1      27.042  30.624  30.189  1.00  0.00     0.012 C 
ATOM     21  C   UNL     1      27.347  32.572  31.858  1.00  0.00     0.003 C 
ATOM     22  C   UNL     1      28.934  33.455  29.740  1.00  0.00     0.033 C 
ATOM     23  C   UNL     1      28.900  32.346  32.093  1.00  0.00    -0.006 C 
ATOM     24  C   UNL     1      29.680  32.529  30.732  1.00  0.00     0.120 C 
ATOM     25  C   UNL     1      29.408  33.401  33.124  1.00  0.00     0.014 C 
ATOM     26  C   UNL     1      29.213  30.957  32.707  1.00  0.00     0.014 C 
ENDROOT
BRANCH   1  27
ATOM     27  C   UNL     1      19.214  34.438  30.492  1.00  0.00     0.048 C 
ATOM     28  O   UNL     1      18.293  34.803  29.715  1.00  0.00    -0.550 OA
ATOM     29  O   UNL     1      19.280  35.012  31.758  1.00  0.00    -0.550 OA
ENDBRANCH   1  27
BRANCH   7  30
ATOM     30  C   UNL     1      19.033  30.975  32.506  1.00  0.00    -0.077 C 
ATOM     31  C   UNL     1      19.012  29.601  33.125  1.00  0.00     0.039 C 
ATOM     32  C   UNL     1      18.364  31.964  33.124  1.00  0.00     0.008 C 
ENDBRANCH   7  30
BRANCH  24  33
ATOM     33  O   UNL     1      31.005  32.967  30.933  1.00  0.00    -0.393 OA
ATOM     34  H   UNL     1      31.107  33.867  30.524  1.00  0.00     0.210 HD
ENDBRANCH  24  33
TORSDOF 3
ENDMDL
MODEL 9
REMARK VINA RESULT:    -5.616      1.958      8.728
REMARK INTER + INTRA:          -7.185
REMARK INTER:                  -6.446
REMARK INTRA:                  -0.739
REMARK UNBOUND:                -0.748
REMARK SMILES C=C(C)[C@H]1CC[C@]2(C(=O)[O-])CC[C@@]3(C)[C@H](CC[C@@H]4[C@@]5(C)CC[C@@H](O)C(C)(C)[C@@H]5CC[C@@]43C)[C@H]12
REMARK SMILES IDX 7 1 6 2 33 3 11 4 5 5 15 6 4 7 12 8 16 9 13 10 17 11 31 12
REMARK SMILES IDX 14 13 18 14 30 15 32 16 19 17 29 18 21 19 20 20 28 21 22 22
REMARK SMILES IDX 25 23 23 24 26 25 27 26 8 27 9 28 10 29 2 30 3 31 1 32 24 33
REMARK H PARENT 24 34
REMARK Flexibility Score: inf
ROOT
ATOM      1  C   UNL     1      19.152  30.515  31.923  1.00  0.00     0.014 C 
ATOM      2  C   UNL     1      18.398  31.124  33.125  1.00  0.00     0.014 C 
ATOM      3  C   UNL     1      19.602  31.764  31.110  1.00  0.00     0.012 C 
ATOM      4  C   UNL     1      20.321  29.610  32.418  1.00  0.00     0.014 C 
ATOM      5  C   UNL     1      17.732  32.389  32.608  1.00  0.00     0.009 C 
ATOM      6  C   UNL     1      21.143  32.064  31.183  1.00  0.00     0.000 C 
ATOM      7  C   UNL     1      18.681  32.944  31.541  1.00  0.00     0.018 C 
ATOM      8  C   UNL     1      21.572  29.546  31.510  1.00  0.00     0.008 C 
ATOM      9  C   UNL     1      21.639  32.532  32.570  1.00  0.00     0.005 C 
ATOM     10  C   UNL     1      21.982  30.834  30.677  1.00  0.00    -0.024 C 
ATOM     11  C   UNL     1      23.115  32.870  32.551  1.00  0.00     0.005 C 
ATOM     12  C   UNL     1      23.584  31.106  30.745  1.00  0.00    -0.024 C 
ATOM     13  C   UNL     1      21.602  30.570  29.177  1.00  0.00     0.012 C 
ATOM     14  C   UNL     1      24.038  31.671  32.168  1.00  0.00     0.002 C 
ATOM     15  C   UNL     1      24.019  32.172  29.657  1.00  0.00     0.008 C 
ATOM     16  C   UNL     1      24.309  29.737  30.419  1.00  0.00     0.012 C 
ATOM     17  C   UNL     1      25.624  32.035  32.299  1.00  0.00    -0.026 C 
ATOM     18  C   UNL     1      25.371  32.897  29.897  1.00  0.00     0.005 C 
ATOM     19  C   UNL     1      26.388  30.932  33.125  1.00  0.00     0.010 C 
ATOM     20  C   UNL     1      25.824  33.374  33.091  1.00  0.00     0.012 C 
ATOM     21  C   UNL     1      26.285  32.132  30.873  1.00  0.00     0.003 C 
ATOM     22  C   UNL     1      27.828  30.622  32.639  1.00  0.00     0.033 C 
ATOM     23  C   UNL     1      27.834  32.473  30.812  1.00  0.00    -0.006 C 
ATOM     24  C   UNL     1      28.568  31.856  32.066  1.00  0.00     0.120 C 
ATOM     25  C   UNL     1      28.430  31.855  29.510  1.00  0.00     0.014 C 
ATOM     26  C   UNL     1      28.104  33.997  30.729  1.00  0.00     0.014 C 
ENDROOT
BRANCH   1  27
ATOM     27  C   UNL     1      18.202  29.660  31.084  1.00  0.00     0.048 C 
ATOM     28  O   UNL     1      18.153  29.809  29.834  1.00  0.00    -0.550 OA
ATOM     29  O   UNL     1      17.370  28.711  31.672  1.00  0.00    -0.550 OA
ENDBRANCH   1  27
BRANCH   7  30
ATOM     30  C   UNL     1      17.936  33.598  30.375  1.00  0.00    -0.077 C 
ATOM     31  C   UNL     1      16.621  33.032  29.905  1.00  0.00     0.039 C 
ATOM     32  C   UNL     1      18.419  34.689  29.756  1.00  0.00     0.008 C 
ENDBRANCH   7  30
BRANCH  24  33
ATOM     33  O   UNL     1      29.919  31.554  31.797  1.00  0.00    -0.393 OA
ATOM     34  H   UNL     1      30.036  30.568  31.827  1.00  0.00     0.210 HD
ENDBRANCH  24  33
TORSDOF 3
ENDMDL
