MODEL 1
REMARK VINA RESULT:    -5.507      0.000      0.000
REMARK INTER + INTRA:          -5.668
REMARK INTER:                  -5.668
REMARK INTRA:                   0.000
REMARK UNBOUND:                 0.000
REMARK SMILES O=c1ccc2ccc(O)cc2o1
REMARK SMILES IDX 6 1 7 2 8 3 10 4 11 5 5 6 4 7 3 8 2 9 1 10 12 11 9 12
REMARK H PARENT 9 13
REMARK Flexibility Score: inf
ROOT
ATOM      1  C   UNL     1      18.269 -50.877   7.122  1.00  0.00     0.016 A 
ATOM      2  C   UNL     1      18.098 -49.531   6.781  1.00  0.00     0.047 A 
ATOM      3  C   UNL     1      16.809 -48.996   6.634  1.00  0.00     0.119 A 
ATOM      4  C   UNL     1      15.688 -49.812   6.828  1.00  0.00     0.094 A 
ATOM      5  C   UNL     1      15.849 -51.159   7.170  1.00  0.00     0.142 A 
ATOM      6  C   UNL     1      17.147 -51.695   7.318  1.00  0.00     0.018 A 
ATOM      7  C   UNL     1      17.276 -53.045   7.660  1.00  0.00     0.019 A 
ATOM      8  C   UNL     1      16.129 -53.817   7.844  1.00  0.00     0.094 A 
ATOM      9  C   UNL     1      14.875 -53.218   7.681  1.00  0.00     0.336 A 
ATOM     10  O   UNL     1      13.829 -53.898   7.841  1.00  0.00    -0.246 OA
ATOM     11  O   UNL     1      14.780 -51.930   7.355  1.00  0.00    -0.423 OA
ENDROOT
BRANCH   3  12
ATOM     12  O   UNL     1      16.633 -47.657   6.294  1.00  0.00    -0.508 OA
ATOM     13  H   UNL     1      16.238 -47.385   5.402  1.00  0.00     0.293 HD
ENDBRANCH   3  12
TORSDOF 1
ENDMDL
MODEL 2
REMARK VINA RESULT:    -5.079      2.824      3.395
REMARK INTER + INTRA:          -5.227
REMARK INTER:                  -5.227
REMARK INTRA:                   0.000
REMARK UNBOUND:                 0.000
REMARK SMILES O=c1ccc2ccc(O)cc2o1
REMARK SMILES IDX 6 1 7 2 8 3 10 4 11 5 5 6 4 7 3 8 2 9 1 10 12 11 9 12
REMARK H PARENT 9 13
REMARK Flexibility Score: inf
ROOT
ATOM      1  C   UNL     1      17.953 -48.957   4.955  1.00  0.00     0.016 A 
ATOM      2  C   UNL     1      16.834 -48.775   4.136  1.00  0.00     0.047 A 
ATOM      3  C   UNL     1      15.542 -48.949   4.653  1.00  0.00     0.119 A 
ATOM      4  C   UNL     1      15.369 -49.307   5.996  1.00  0.00     0.094 A 
ATOM      5  C   UNL     1      16.483 -49.491   6.823  1.00  0.00     0.142 A 
ATOM      6  C   UNL     1      17.783 -49.316   6.300  1.00  0.00     0.018 A 
ATOM      7  C   UNL     1      18.876 -49.507   7.151  1.00  0.00     0.019 A 
ATOM      8  C   UNL     1      18.653 -49.863   8.481  1.00  0.00     0.094 A 
ATOM      9  C   UNL     1      17.337 -50.019   8.930  1.00  0.00     0.336 A 
ATOM     10  O   UNL     1      17.116 -50.341  10.126  1.00  0.00    -0.246 OA
ATOM     11  O   UNL     1      16.314 -49.831   8.098  1.00  0.00    -0.423 OA
ENDROOT
BRANCH   3  12
ATOM     12  O   UNL     1      14.423 -48.768   3.842  1.00  0.00    -0.508 OA
ATOM     13  H   UNL     1      13.918 -47.890   3.825  1.00  0.00     0.293 HD
ENDBRANCH   3  12
TORSDOF 1
ENDMDL
MODEL 3
REMARK VINA RESULT:    -4.978     10.877     11.176
REMARK INTER + INTRA:          -5.124
REMARK INTER:                  -5.124
REMARK INTRA:                   0.000
REMARK UNBOUND:                 0.000
REMARK SMILES O=c1ccc2ccc(O)cc2o1
REMARK SMILES IDX 6 1 7 2 8 3 10 4 11 5 5 6 4 7 3 8 2 9 1 10 12 11 9 12
REMARK H PARENT 9 13
REMARK Flexibility Score: inf
ROOT
ATOM      1  C   UNL     1      17.374 -54.390  -4.009  1.00  0.00     0.016 A 
ATOM      2  C   UNL     1      16.695 -54.849  -5.143  1.00  0.00     0.047 A 
ATOM      3  C   UNL     1      15.345 -54.522  -5.341  1.00  0.00     0.119 A 
ATOM      4  C   UNL     1      14.672 -53.734  -4.399  1.00  0.00     0.094 A 
ATOM      5  C   UNL     1      15.343 -53.270  -3.262  1.00  0.00     0.142 A 
ATOM      6  C   UNL     1      16.702 -53.601  -3.065  1.00  0.00     0.018 A 
ATOM      7  C   UNL     1      17.346 -53.123  -1.919  1.00  0.00     0.019 A 
ATOM      8  C   UNL     1      16.633 -52.340  -1.011  1.00  0.00     0.094 A 
ATOM      9  C   UNL     1      15.288 -52.053  -1.271  1.00  0.00     0.336 A 
ATOM     10  O   UNL     1      14.629 -51.350  -0.463  1.00  0.00    -0.246 OA
ATOM     11  O   UNL     1      14.700 -52.521  -2.370  1.00  0.00    -0.423 OA
ENDROOT
BRANCH   3  12
ATOM     12  O   UNL     1      14.664 -54.976  -6.468  1.00  0.00    -0.508 OA
ATOM     13  H   UNL     1      13.671 -55.174  -6.442  1.00  0.00     0.293 HD
ENDBRANCH   3  12
TORSDOF 1
ENDMDL
MODEL 4
REMARK VINA RESULT:    -4.949      0.861      4.220
REMARK INTER + INTRA:          -5.094
REMARK INTER:                  -5.094
REMARK INTRA:                   0.000
REMARK UNBOUND:                 0.000
REMARK SMILES O=c1ccc2ccc(O)cc2o1
REMARK SMILES IDX 6 1 7 2 8 3 10 4 11 5 5 6 4 7 3 8 2 9 1 10 12 11 9 12
REMARK H PARENT 9 13
REMARK Flexibility Score: inf
ROOT
ATOM      1  C   UNL     1      17.351 -52.746   7.589  1.00  0.00     0.016 A 
ATOM      2  C   UNL     1      16.308 -53.636   7.862  1.00  0.00     0.047 A 
ATOM      3  C   UNL     1      14.973 -53.216   7.758  1.00  0.00     0.119 A 
ATOM      4  C   UNL     1      14.683 -51.900   7.379  1.00  0.00     0.094 A 
ATOM      5  C   UNL     1      15.720 -51.002   7.103  1.00  0.00     0.142 A 
ATOM      6  C   UNL     1      17.063 -51.427   7.209  1.00  0.00     0.018 A 
ATOM      7  C   UNL     1      18.078 -50.507   6.928  1.00  0.00     0.019 A 
ATOM      8  C   UNL     1      17.738 -49.207   6.553  1.00  0.00     0.094 A 
ATOM      9  C   UNL     1      16.386 -48.857   6.469  1.00  0.00     0.336 A 
ATOM     10  O   UNL     1      16.060 -47.689   6.134  1.00  0.00    -0.246 OA
ATOM     11  O   UNL     1      15.439 -49.752   6.743  1.00  0.00    -0.423 OA
ENDROOT
BRANCH   3  12
ATOM     12  O   UNL     1      13.929 -54.098   8.028  1.00  0.00    -0.508 OA
ATOM     13  H   UNL     1      12.977 -53.893   7.749  1.00  0.00     0.293 HD
ENDBRANCH   3  12
TORSDOF 1
ENDMDL
MODEL 5
REMARK VINA RESULT:    -4.890      9.859     10.190
REMARK INTER + INTRA:          -5.033
REMARK INTER:                  -5.033
REMARK INTRA:                   0.000
REMARK UNBOUND:                 0.000
REMARK SMILES O=c1ccc2ccc(O)cc2o1
REMARK SMILES IDX 6 1 7 2 8 3 10 4 11 5 5 6 4 7 3 8 2 9 1 10 12 11 9 12
REMARK H PARENT 9 13
REMARK Flexibility Score: inf
ROOT
ATOM      1  C   UNL     1      13.661 -52.001  -2.127  1.00  0.00     0.016 A 
ATOM      2  C   UNL     1      13.904 -51.233  -0.984  1.00  0.00     0.047 A 
ATOM      3  C   UNL     1      15.186 -51.193  -0.417  1.00  0.00     0.119 A 
ATOM      4  C   UNL     1      16.229 -51.926  -0.996  1.00  0.00     0.094 A 
ATOM      5  C   UNL     1      15.996 -52.697  -2.140  1.00  0.00     0.142 A 
ATOM      6  C   UNL     1      14.704 -52.735  -2.710  1.00  0.00     0.018 A 
ATOM      7  C   UNL     1      14.501 -53.515  -3.853  1.00  0.00     0.019 A 
ATOM      8  C   UNL     1      15.572 -54.227  -4.394  1.00  0.00     0.094 A 
ATOM      9  C   UNL     1      16.824 -54.141  -3.776  1.00  0.00     0.336 A 
ATOM     10  O   UNL     1      17.802 -54.777  -4.249  1.00  0.00    -0.246 OA
ATOM     11  O   UNL     1      16.990 -53.392  -2.688  1.00  0.00    -0.423 OA
ENDROOT
BRANCH   3  12
ATOM     12  O   UNL     1      15.435 -50.430   0.722  1.00  0.00    -0.508 OA
ATOM     13  H   UNL     1      16.059 -49.633   0.699  1.00  0.00     0.293 HD
ENDBRANCH   3  12
TORSDOF 1
ENDMDL
MODEL 6
REMARK VINA RESULT:    -4.866     10.623     10.727
REMARK INTER + INTRA:          -5.008
REMARK INTER:                  -5.008
REMARK INTRA:                   0.000
REMARK UNBOUND:                 0.000
REMARK SMILES O=c1ccc2ccc(O)cc2o1
REMARK SMILES IDX 6 1 7 2 8 3 10 4 11 5 5 6 4 7 3 8 2 9 1 10 12 11 9 12
REMARK H PARENT 9 13
REMARK Flexibility Score: inf
ROOT
ATOM      1  C   UNL     1      17.286 -53.081  -1.778  1.00  0.00     0.016 A 
ATOM      2  C   UNL     1      16.631 -52.326  -0.800  1.00  0.00     0.047 A 
ATOM      3  C   UNL     1      15.277 -51.991  -0.953  1.00  0.00     0.119 A 
ATOM      4  C   UNL     1      14.577 -52.414  -2.089  1.00  0.00     0.094 A 
ATOM      5  C   UNL     1      15.224 -53.170  -3.073  1.00  0.00     0.142 A 
ATOM      6  C   UNL     1      16.587 -53.506  -2.917  1.00  0.00     0.018 A 
ATOM      7  C   UNL     1      17.206 -54.262  -3.917  1.00  0.00     0.019 A 
ATOM      8  C   UNL     1      16.466 -54.660  -5.031  1.00  0.00     0.094 A 
ATOM      9  C   UNL     1      15.120 -54.291  -5.118  1.00  0.00     0.336 A 
ATOM     10  O   UNL     1      14.436 -54.640  -6.115  1.00  0.00    -0.246 OA
ATOM     11  O   UNL     1      14.555 -53.570  -4.152  1.00  0.00    -0.423 OA
ENDROOT
BRANCH   3  12
ATOM     12  O   UNL     1      14.619 -51.239   0.018  1.00  0.00    -0.508 OA
ATOM     13  H   UNL     1      13.719 -50.812  -0.164  1.00  0.00     0.293 HD
ENDBRANCH   3  12
TORSDOF 1
ENDMDL
MODEL 7
REMARK VINA RESULT:    -4.795      1.372      4.129
REMARK INTER + INTRA:          -4.935
REMARK INTER:                  -4.935
REMARK INTRA:                   0.000
REMARK UNBOUND:                 0.000
REMARK SMILES O=c1ccc2ccc(O)cc2o1
REMARK SMILES IDX 6 1 7 2 8 3 10 4 11 5 5 6 4 7 3 8 2 9 1 10 12 11 9 12
REMARK H PARENT 9 13
REMARK Flexibility Score: inf
ROOT
ATOM      1  C   UNL     1      17.853 -51.542   7.183  1.00  0.00     0.016 A 
ATOM      2  C   UNL     1      17.403 -52.773   7.670  1.00  0.00     0.047 A 
ATOM      3  C   UNL     1      16.030 -53.006   7.845  1.00  0.00     0.119 A 
ATOM      4  C   UNL     1      15.106 -52.003   7.530  1.00  0.00     0.094 A 
ATOM      5  C   UNL     1      15.547 -50.768   7.042  1.00  0.00     0.142 A 
ATOM      6  C   UNL     1      16.929 -50.535   6.867  1.00  0.00     0.018 A 
ATOM      7  C   UNL     1      17.339 -49.291   6.378  1.00  0.00     0.019 A 
ATOM      8  C   UNL     1      16.380 -48.324   6.078  1.00  0.00     0.094 A 
ATOM      9  C   UNL     1      15.028 -48.625   6.276  1.00  0.00     0.336 A 
ATOM     10  O   UNL     1      14.148 -47.765   6.013  1.00  0.00    -0.246 OA
ATOM     11  O   UNL     1      14.664 -49.817   6.744  1.00  0.00    -0.423 OA
ENDROOT
BRANCH   3  12
ATOM     12  O   UNL     1      15.575 -54.231   8.330  1.00  0.00    -0.508 OA
ATOM     13  H   UNL     1      15.302 -54.348   9.298  1.00  0.00     0.293 HD
ENDBRANCH   3  12
TORSDOF 1
ENDMDL
MODEL 8
REMARK VINA RESULT:    -4.749      2.638      4.488
REMARK INTER + INTRA:          -4.888
REMARK INTER:                  -4.888
REMARK INTRA:                   0.000
REMARK UNBOUND:                 0.000
REMARK SMILES O=c1ccc2ccc(O)cc2o1
REMARK SMILES IDX 6 1 7 2 8 3 10 4 11 5 5 6 4 7 3 8 2 9 1 10 12 11 9 12
REMARK H PARENT 9 13
REMARK Flexibility Score: inf
ROOT
ATOM      1  C   UNL     1      16.251 -50.498   8.937  1.00  0.00     0.016 A 
ATOM      2  C   UNL     1      17.336 -51.192   8.391  1.00  0.00     0.047 A 
ATOM      3  C   UNL     1      17.901 -50.781   7.175  1.00  0.00     0.119 A 
ATOM      4  C   UNL     1      17.378 -49.670   6.502  1.00  0.00     0.094 A 
ATOM      5  C   UNL     1      16.293 -48.969   7.040  1.00  0.00     0.142 A 
ATOM      6  C   UNL     1      15.726 -49.385   8.264  1.00  0.00     0.018 A 
ATOM      7  C   UNL     1      14.642 -48.664   8.777  1.00  0.00     0.019 A 
ATOM      8  C   UNL     1      14.157 -47.564   8.070  1.00  0.00     0.094 A 
ATOM      9  C   UNL     1      14.770 -47.210   6.862  1.00  0.00     0.336 A 
ATOM     10  O   UNL     1      14.345 -46.221   6.210  1.00  0.00    -0.246 OA
ATOM     11  O   UNL     1      15.799 -47.914   6.397  1.00  0.00    -0.423 OA
ENDROOT
BRANCH   3  12
ATOM     12  O   UNL     1      18.981 -51.469   6.627  1.00  0.00    -0.508 OA
ATOM     13  H   UNL     1      19.096 -52.467   6.759  1.00  0.00     0.293 HD
ENDBRANCH   3  12
TORSDOF 1
ENDMDL
MODEL 9
REMARK VINA RESULT:    -4.738      2.637      3.904
REMARK INTER + INTRA:          -4.877
REMARK INTER:                  -4.877
REMARK INTRA:                   0.000
REMARK UNBOUND:                 0.000
REMARK SMILES O=c1ccc2ccc(O)cc2o1
REMARK SMILES IDX 6 1 7 2 8 3 10 4 11 5 5 6 4 7 3 8 2 9 1 10 12 11 9 12
REMARK H PARENT 9 13
REMARK Flexibility Score: inf
ROOT
ATOM      1  C   UNL     1      14.190 -50.107   6.114  1.00  0.00     0.016 A 
ATOM      2  C   UNL     1      13.708 -49.130   5.237  1.00  0.00     0.047 A 
ATOM      3  C   UNL     1      14.544 -48.089   4.808  1.00  0.00     0.119 A 
ATOM      4  C   UNL     1      15.868 -48.025   5.259  1.00  0.00     0.094 A 
ATOM      5  C   UNL     1      16.359 -48.998   6.137  1.00  0.00     0.142 A 
ATOM      6  C   UNL     1      15.515 -50.045   6.568  1.00  0.00     0.018 A 
ATOM      7  C   UNL     1      16.034 -51.002   7.446  1.00  0.00     0.019 A 
ATOM      8  C   UNL     1      17.360 -50.896   7.867  1.00  0.00     0.094 A 
ATOM      9  C   UNL     1      18.137 -49.831   7.398  1.00  0.00     0.336 A 
ATOM     10  O   UNL     1      19.335 -49.718   7.768  1.00  0.00    -0.246 OA
ATOM     11  O   UNL     1      17.618 -48.933   6.564  1.00  0.00    -0.423 OA
ENDROOT
BRANCH   3  12
ATOM     12  O   UNL     1      14.070 -47.113   3.934  1.00  0.00    -0.508 OA
ATOM     13  H   UNL     1      14.498 -46.197   3.881  1.00  0.00     0.293 HD
ENDBRANCH   3  12
TORSDOF 1
ENDMDL
