MODEL 1
REMARK VINA RESULT:    -5.273      0.000      0.000
REMARK INTER + INTRA:          -5.735
REMARK INTER:                  -5.735
REMARK INTRA:                   0.000
REMARK UNBOUND:                 0.000
REMARK SMILES Cc1cc(O)c2c(c1)C(=O)c1cc(O)cc(O)c1C2=O
REMARK SMILES IDX 1 1 2 2 8 3 7 4 6 5 4 6 3 7 19 8 20 9 18 10 11 11 9 12 10 13
REMARK SMILES IDX 12 14 13 15 15 16 16 17 5 18 17 20 14 22
REMARK H PARENT 5 19 17 21 14 23
REMARK Flexibility Score: inf
ROOT
ATOM      1  C   UNL     1      42.669  19.141 220.075  1.00  0.00     0.044 C 
ATOM      2  C   UNL     1      43.032  19.009 218.624  1.00  0.00    -0.047 A 
ATOM      3  C   UNL     1      44.374  19.014 218.232  1.00  0.00     0.016 A 
ATOM      4  C   UNL     1      44.725  18.916 216.874  1.00  0.00     0.038 A 
ATOM      5  C   UNL     1      43.714  18.810 215.890  1.00  0.00     0.076 A 
ATOM      6  C   UNL     1      42.354  18.906 216.291  1.00  0.00     0.127 A 
ATOM      7  C   UNL     1      42.031  18.976 217.649  1.00  0.00     0.050 A 
ATOM      8  C   UNL     1      44.121  18.549 214.482  1.00  0.00     0.201 C 
ATOM      9  O   UNL     1      43.301  18.046 213.668  1.00  0.00    -0.288 OA
ATOM     10  C   UNL     1      45.528  18.772 214.057  1.00  0.00     0.076 A 
ATOM     11  C   UNL     1      46.524  18.944 215.042  1.00  0.00     0.041 A 
ATOM     12  C   UNL     1      46.153  18.936 216.475  1.00  0.00     0.194 C 
ATOM     13  O   UNL     1      47.054  18.964 217.358  1.00  0.00    -0.289 OA
ATOM     14  C   UNL     1      47.865  19.119 214.657  1.00  0.00     0.059 A 
ATOM     15  C   UNL     1      48.220  19.132 213.308  1.00  0.00     0.120 A 
ATOM     16  C   UNL     1      47.236  18.970 212.328  1.00  0.00     0.093 A 
ATOM     17  C   UNL     1      45.895  18.793 212.691  1.00  0.00     0.131 A 
ENDROOT
BRANCH   6  18
ATOM     18  O   UNL     1      41.297  18.975 215.379  1.00  0.00    -0.507 OA
ATOM     19  H   UNL     1      40.671  19.764 215.304  1.00  0.00     0.293 HD
ENDBRANCH   6  18
BRANCH  17  20
ATOM     20  O   UNL     1      44.931  18.646 211.693  1.00  0.00    -0.507 OA
ATOM     21  H   UNL     1      44.028  19.101 211.751  1.00  0.00     0.293 HD
ENDBRANCH  17  20
BRANCH  15  22
ATOM     22  O   UNL     1      49.555  19.307 212.951  1.00  0.00    -0.508 OA
ATOM     23  H   UNL     1      49.831  19.456 211.987  1.00  0.00     0.293 HD
ENDBRANCH  15  22
TORSDOF 3
ENDMDL
MODEL 2
REMARK VINA RESULT:    -5.195      2.080      4.144
REMARK INTER + INTRA:          -5.650
REMARK INTER:                  -5.650
REMARK INTRA:                   0.000
REMARK UNBOUND:                 0.000
REMARK SMILES Cc1cc(O)c2c(c1)C(=O)c1cc(O)cc(O)c1C2=O
REMARK SMILES IDX 1 1 2 2 8 3 7 4 6 5 4 6 3 7 19 8 20 9 18 10 11 11 9 12 10 13
REMARK SMILES IDX 12 14 13 15 15 16 16 17 5 18 17 20 14 22
REMARK H PARENT 5 19 17 21 14 23
REMARK Flexibility Score: inf
ROOT
ATOM      1  C   UNL     1      39.797  17.756 211.568  1.00  0.00     0.044 C 
ATOM      2  C   UNL     1      40.968  17.941 212.489  1.00  0.00    -0.047 A 
ATOM      3  C   UNL     1      42.214  18.314 211.976  1.00  0.00     0.016 A 
ATOM      4  C   UNL     1      43.323  18.466 212.827  1.00  0.00     0.038 A 
ATOM      5  C   UNL     1      43.182  18.240 214.216  1.00  0.00     0.076 A 
ATOM      6  C   UNL     1      41.938  17.764 214.713  1.00  0.00     0.127 A 
ATOM      7  C   UNL     1      40.844  17.648 213.850  1.00  0.00     0.050 A 
ATOM      8  C   UNL     1      44.333  18.562 215.106  1.00  0.00     0.201 C 
ATOM      9  O   UNL     1      44.143  18.777 216.333  1.00  0.00    -0.288 OA
ATOM     10  C   UNL     1      45.692  18.745 214.533  1.00  0.00     0.076 A 
ATOM     11  C   UNL     1      45.833  18.903 213.138  1.00  0.00     0.041 A 
ATOM     12  C   UNL     1      44.640  18.850 212.265  1.00  0.00     0.194 C 
ATOM     13  O   UNL     1      44.748  19.114 211.035  1.00  0.00    -0.289 OA
ATOM     14  C   UNL     1      47.109  19.114 212.585  1.00  0.00     0.059 A 
ATOM     15  C   UNL     1      48.238  19.162 213.402  1.00  0.00     0.120 A 
ATOM     16  C   UNL     1      48.104  18.997 214.784  1.00  0.00     0.093 A 
ATOM     17  C   UNL     1      46.842  18.788 215.355  1.00  0.00     0.131 A 
ENDROOT
BRANCH   6  18
ATOM     18  O   UNL     1      41.753  17.361 216.037  1.00  0.00    -0.507 OA
ATOM     19  H   UNL     1      41.823  17.983 216.829  1.00  0.00     0.293 HD
ENDBRANCH   6  18
BRANCH  17  20
ATOM     20  O   UNL     1      46.738  18.614 216.736  1.00  0.00    -0.507 OA
ATOM     21  H   UNL     1      47.400  19.033 217.378  1.00  0.00     0.293 HD
ENDBRANCH  17  20
BRANCH  15  22
ATOM     22  O   UNL     1      49.492  19.371 212.832  1.00  0.00    -0.508 OA
ATOM     23  H   UNL     1      49.749  18.949 211.947  1.00  0.00     0.293 HD
ENDBRANCH  15  22
TORSDOF 3
ENDMDL
MODEL 3
REMARK VINA RESULT:    -5.142      6.891      9.010
REMARK INTER + INTRA:          -5.593
REMARK INTER:                  -5.593
REMARK INTRA:                   0.000
REMARK UNBOUND:                 0.000
REMARK SMILES Cc1cc(O)c2c(c1)C(=O)c1cc(O)cc(O)c1C2=O
REMARK SMILES IDX 1 1 2 2 8 3 7 4 6 5 4 6 3 7 19 8 20 9 18 10 11 11 9 12 10 13
REMARK SMILES IDX 12 14 13 15 15 16 16 17 5 18 17 20 14 22
REMARK H PARENT 5 19 17 21 14 23
REMARK Flexibility Score: inf
ROOT
ATOM      1  C   UNL     1      42.888  19.047 223.038  1.00  0.00     0.044 C 
ATOM      2  C   UNL     1      44.322  18.781 223.392  1.00  0.00    -0.047 A 
ATOM      3  C   UNL     1      45.276  18.613 222.383  1.00  0.00     0.016 A 
ATOM      4  C   UNL     1      46.618  18.340 222.703  1.00  0.00     0.038 A 
ATOM      5  C   UNL     1      47.012  18.232 224.057  1.00  0.00     0.076 A 
ATOM      6  C   UNL     1      46.018  18.305 225.070  1.00  0.00     0.127 A 
ATOM      7  C   UNL     1      44.696  18.605 224.727  1.00  0.00     0.050 A 
ATOM      8  C   UNL     1      48.464  18.100 224.364  1.00  0.00     0.201 C 
ATOM      9  O   UNL     1      48.901  18.411 225.504  1.00  0.00    -0.288 OA
ATOM     10  C   UNL     1      49.421  17.712 223.295  1.00  0.00     0.076 A 
ATOM     11  C   UNL     1      49.001  17.756 221.948  1.00  0.00     0.041 A 
ATOM     12  C   UNL     1      47.614  18.153 221.621  1.00  0.00     0.194 C 
ATOM     13  O   UNL     1      47.273  18.314 220.416  1.00  0.00    -0.289 OA
ATOM     14  C   UNL     1      49.906  17.427 220.923  1.00  0.00     0.059 A 
ATOM     15  C   UNL     1      51.214  17.049 221.226  1.00  0.00     0.120 A 
ATOM     16  C   UNL     1      51.632  16.995 222.559  1.00  0.00     0.093 A 
ATOM     17  C   UNL     1      50.746  17.321 223.595  1.00  0.00     0.131 A 
ENDROOT
BRANCH   6  18
ATOM     18  O   UNL     1      46.285  18.050 226.417  1.00  0.00    -0.507 OA
ATOM     19  H   UNL     1      46.053  18.686 227.167  1.00  0.00     0.293 HD
ENDBRANCH   6  18
BRANCH  17  20
ATOM     20  O   UNL     1      51.186  17.246 224.917  1.00  0.00    -0.507 OA
ATOM     21  H   UNL     1      50.949  17.957 225.599  1.00  0.00     0.293 HD
ENDBRANCH  17  20
BRANCH  15  22
ATOM     22  O   UNL     1      52.093  16.726 220.194  1.00  0.00    -0.508 OA
ATOM     23  H   UNL     1      52.883  16.109 220.343  1.00  0.00     0.293 HD
ENDBRANCH  15  22
TORSDOF 3
ENDMDL
MODEL 4
REMARK VINA RESULT:    -5.138      6.742      8.668
REMARK INTER + INTRA:          -5.589
REMARK INTER:                  -5.589
REMARK INTRA:                   0.000
REMARK UNBOUND:                 0.000
REMARK SMILES Cc1cc(O)c2c(c1)C(=O)c1cc(O)cc(O)c1C2=O
REMARK SMILES IDX 1 1 2 2 8 3 7 4 6 5 4 6 3 7 19 8 20 9 18 10 11 11 9 12 10 13
REMARK SMILES IDX 12 14 13 15 15 16 16 17 5 18 17 20 14 22
REMARK H PARENT 5 19 17 21 14 23
REMARK Flexibility Score: inf
ROOT
ATOM      1  C   UNL     1      43.546  15.768 208.032  1.00  0.00     0.044 C 
ATOM      2  C   UNL     1      42.594  16.567 208.874  1.00  0.00    -0.047 A 
ATOM      3  C   UNL     1      42.015  15.999 210.013  1.00  0.00     0.016 A 
ATOM      4  C   UNL     1      41.104  16.731 210.795  1.00  0.00     0.038 A 
ATOM      5  C   UNL     1      40.765  18.055 210.429  1.00  0.00     0.076 A 
ATOM      6  C   UNL     1      41.281  18.586 209.216  1.00  0.00     0.127 A 
ATOM      7  C   UNL     1      42.207  17.849 208.472  1.00  0.00     0.050 A 
ATOM      8  C   UNL     1      39.923  18.854 211.363  1.00  0.00     0.201 C 
ATOM      9  O   UNL     1      39.935  20.113 211.307  1.00  0.00    -0.288 OA
ATOM     10  C   UNL     1      39.153  18.177 212.440  1.00  0.00     0.076 A 
ATOM     11  C   UNL     1      39.449  16.834 212.755  1.00  0.00     0.041 A 
ATOM     12  C   UNL     1      40.490  16.110 211.993  1.00  0.00     0.194 C 
ATOM     13  O   UNL     1      40.843  14.952 212.353  1.00  0.00    -0.289 OA
ATOM     14  C   UNL     1      38.754  16.191 213.795  1.00  0.00     0.059 A 
ATOM     15  C   UNL     1      37.769  16.868 214.515  1.00  0.00     0.120 A 
ATOM     16  C   UNL     1      37.466  18.196 214.200  1.00  0.00     0.093 A 
ATOM     17  C   UNL     1      38.148  18.855 213.168  1.00  0.00     0.131 A 
ENDROOT
BRANCH   6  18
ATOM     18  O   UNL     1      40.878  19.817 208.693  1.00  0.00    -0.507 OA
ATOM     19  H   UNL     1      41.425  20.663 208.760  1.00  0.00     0.293 HD
ENDBRANCH   6  18
BRANCH  17  20
ATOM     20  O   UNL     1      37.817  20.176 212.867  1.00  0.00    -0.507 OA
ATOM     21  H   UNL     1      37.523  20.829 213.583  1.00  0.00     0.293 HD
ENDBRANCH  17  20
BRANCH  15  22
ATOM     22  O   UNL     1      37.094  16.211 215.541  1.00  0.00    -0.508 OA
ATOM     23  H   UNL     1      37.022  16.610 216.469  1.00  0.00     0.293 HD
ENDBRANCH  15  22
TORSDOF 3
ENDMDL
MODEL 5
REMARK VINA RESULT:    -5.136      3.257      6.671
REMARK INTER + INTRA:          -5.587
REMARK INTER:                  -5.587
REMARK INTRA:                   0.000
REMARK UNBOUND:                 0.000
REMARK SMILES Cc1cc(O)c2c(c1)C(=O)c1cc(O)cc(O)c1C2=O
REMARK SMILES IDX 1 1 2 2 8 3 7 4 6 5 4 6 3 7 19 8 20 9 18 10 11 11 9 12 10 13
REMARK SMILES IDX 12 14 13 15 15 16 16 17 5 18 17 20 14 22
REMARK H PARENT 5 19 17 21 14 23
REMARK Flexibility Score: inf
ROOT
ATOM      1  C   UNL     1      46.556  18.951 214.328  1.00  0.00     0.044 C 
ATOM      2  C   UNL     1      45.144  18.802 213.841  1.00  0.00    -0.047 A 
ATOM      3  C   UNL     1      44.122  18.476 214.737  1.00  0.00     0.016 A 
ATOM      4  C   UNL     1      42.800  18.310 214.288  1.00  0.00     0.038 A 
ATOM      5  C   UNL     1      42.496  18.473 212.916  1.00  0.00     0.076 A 
ATOM      6  C   UNL     1      43.558  18.706 212.000  1.00  0.00     0.127 A 
ATOM      7  C   UNL     1      44.859  18.894 212.476  1.00  0.00     0.050 A 
ATOM      8  C   UNL     1      41.066  18.447 212.500  1.00  0.00     0.201 C 
ATOM      9  O   UNL     1      40.713  18.982 211.415  1.00  0.00    -0.288 OA
ATOM     10  C   UNL     1      40.032  17.893 213.413  1.00  0.00     0.076 A 
ATOM     11  C   UNL     1      40.361  17.669 214.766  1.00  0.00     0.041 A 
ATOM     12  C   UNL     1      41.730  17.953 215.250  1.00  0.00     0.194 C 
ATOM     13  O   UNL     1      41.992  17.872 216.482  1.00  0.00    -0.289 OA
ATOM     14  C   UNL     1      39.383  17.180 215.651  1.00  0.00     0.059 A 
ATOM     15  C   UNL     1      38.091  16.907 215.200  1.00  0.00     0.120 A 
ATOM     16  C   UNL     1      37.764  17.119 213.858  1.00  0.00     0.093 A 
ATOM     17  C   UNL     1      38.723  17.607 212.961  1.00  0.00     0.131 A 
ENDROOT
BRANCH   6  18
ATOM     18  O   UNL     1      43.377  18.719 210.615  1.00  0.00    -0.507 OA
ATOM     19  H   UNL     1      43.341  19.562 210.061  1.00  0.00     0.293 HD
ENDBRANCH   6  18
BRANCH  17  20
ATOM     20  O   UNL     1      38.372  17.798 211.624  1.00  0.00    -0.507 OA
ATOM     21  H   UNL     1      38.393  17.040 210.953  1.00  0.00     0.293 HD
ENDBRANCH  17  20
BRANCH  15  22
ATOM     22  O   UNL     1      37.139  16.422 216.095  1.00  0.00    -0.508 OA
ATOM     23  H   UNL     1      36.965  15.429 216.197  1.00  0.00     0.293 HD
ENDBRANCH  15  22
TORSDOF 3
ENDMDL
MODEL 6
REMARK VINA RESULT:    -5.058      6.375      9.263
REMARK INTER + INTRA:          -5.502
REMARK INTER:                  -5.502
REMARK INTRA:                   0.000
REMARK UNBOUND:                 0.000
REMARK SMILES Cc1cc(O)c2c(c1)C(=O)c1cc(O)cc(O)c1C2=O
REMARK SMILES IDX 1 1 2 2 8 3 7 4 6 5 4 6 3 7 19 8 20 9 18 10 11 11 9 12 10 13
REMARK SMILES IDX 12 14 13 15 15 16 16 17 5 18 17 20 14 22
REMARK H PARENT 5 19 17 21 14 23
REMARK Flexibility Score: inf
ROOT
ATOM      1  C   UNL     1      50.967  16.703 225.168  1.00  0.00     0.044 C 
ATOM      2  C   UNL     1      49.818  17.021 224.255  1.00  0.00    -0.047 A 
ATOM      3  C   UNL     1      48.620  17.517 224.778  1.00  0.00     0.016 A 
ATOM      4  C   UNL     1      47.530  17.796 223.935  1.00  0.00     0.038 A 
ATOM      5  C   UNL     1      47.641  17.574 222.543  1.00  0.00     0.076 A 
ATOM      6  C   UNL     1      48.827  16.976 222.035  1.00  0.00     0.127 A 
ATOM      7  C   UNL     1      49.906  16.735 222.890  1.00  0.00     0.050 A 
ATOM      8  C   UNL     1      46.528  18.027 221.662  1.00  0.00     0.201 C 
ATOM      9  O   UNL     1      46.735  18.236 220.437  1.00  0.00    -0.288 OA
ATOM     10  C   UNL     1      45.197  18.345 222.244  1.00  0.00     0.076 A 
ATOM     11  C   UNL     1      45.079  18.499 223.642  1.00  0.00     0.041 A 
ATOM     12  C   UNL     1      46.263  18.310 224.508  1.00  0.00     0.194 C 
ATOM     13  O   UNL     1      46.188  18.569 225.741  1.00  0.00    -0.289 OA
ATOM     14  C   UNL     1      43.834  18.837 224.204  1.00  0.00     0.059 A 
ATOM     15  C   UNL     1      42.714  19.013 223.392  1.00  0.00     0.120 A 
ATOM     16  C   UNL     1      42.825  18.853 222.008  1.00  0.00     0.093 A 
ATOM     17  C   UNL     1      44.056  18.519 221.428  1.00  0.00     0.131 A 
ENDROOT
BRANCH   6  18
ATOM     18  O   UNL     1      48.963  16.572 220.704  1.00  0.00    -0.507 OA
ATOM     19  H   UNL     1      48.261  16.048 220.201  1.00  0.00     0.293 HD
ENDBRANCH   6  18
BRANCH  17  20
ATOM     20  O   UNL     1      44.136  18.352 220.045  1.00  0.00    -0.507 OA
ATOM     21  H   UNL     1      43.743  19.029 219.402  1.00  0.00     0.293 HD
ENDBRANCH  17  20
BRANCH  15  22
ATOM     22  O   UNL     1      41.491  19.347 223.972  1.00  0.00    -0.508 OA
ATOM     23  H   UNL     1      40.613  19.159 223.503  1.00  0.00     0.293 HD
ENDBRANCH  15  22
TORSDOF 3
ENDMDL
MODEL 7
REMARK VINA RESULT:    -5.025      2.576      5.877
REMARK INTER + INTRA:          -5.465
REMARK INTER:                  -5.465
REMARK INTRA:                   0.000
REMARK UNBOUND:                 0.000
REMARK SMILES Cc1cc(O)c2c(c1)C(=O)c1cc(O)cc(O)c1C2=O
REMARK SMILES IDX 1 1 2 2 8 3 7 4 6 5 4 6 3 7 19 8 20 9 18 10 11 11 9 12 10 13
REMARK SMILES IDX 12 14 13 15 15 16 16 17 5 18 17 20 14 22
REMARK H PARENT 5 19 17 21 14 23
REMARK Flexibility Score: inf
ROOT
ATOM      1  C   UNL     1      48.745  19.258 213.851  1.00  0.00     0.044 C 
ATOM      2  C   UNL     1      47.327  19.064 213.398  1.00  0.00    -0.047 A 
ATOM      3  C   UNL     1      46.327  18.760 214.326  1.00  0.00     0.016 A 
ATOM      4  C   UNL     1      45.000  18.553 213.910  1.00  0.00     0.038 A 
ATOM      5  C   UNL     1      44.668  18.652 212.539  1.00  0.00     0.076 A 
ATOM      6  C   UNL     1      45.708  18.863 211.593  1.00  0.00     0.127 A 
ATOM      7  C   UNL     1      47.014  19.093 212.036  1.00  0.00     0.050 A 
ATOM      8  C   UNL     1      43.231  18.584 212.151  1.00  0.00     0.201 C 
ATOM      9  O   UNL     1      42.848  19.067 211.052  1.00  0.00    -0.288 OA
ATOM     10  C   UNL     1      42.224  18.053 213.106  1.00  0.00     0.076 A 
ATOM     11  C   UNL     1      42.582  17.892 214.462  1.00  0.00     0.041 A 
ATOM     12  C   UNL     1      43.954  18.219 214.906  1.00  0.00     0.194 C 
ATOM     13  O   UNL     1      44.240  18.195 216.136  1.00  0.00    -0.289 OA
ATOM     14  C   UNL     1      41.629  17.424 215.385  1.00  0.00     0.059 A 
ATOM     15  C   UNL     1      40.334  17.111 214.971  1.00  0.00     0.120 A 
ATOM     16  C   UNL     1      39.978  17.260 213.628  1.00  0.00     0.093 A 
ATOM     17  C   UNL     1      40.912  17.726 212.693  1.00  0.00     0.131 A 
ENDROOT
BRANCH   6  18
ATOM     18  O   UNL     1      45.501  18.814 210.212  1.00  0.00    -0.507 OA
ATOM     19  H   UNL     1      44.629  18.539 209.785  1.00  0.00     0.293 HD
ENDBRANCH   6  18
BRANCH  17  20
ATOM     20  O   UNL     1      40.533  17.854 211.356  1.00  0.00    -0.507 OA
ATOM     21  H   UNL     1      41.214  17.996 210.619  1.00  0.00     0.293 HD
ENDBRANCH  17  20
BRANCH  15  22
ATOM     22  O   UNL     1      39.407  16.649 215.903  1.00  0.00    -0.508 OA
ATOM     23  H   UNL     1      39.586  16.701 216.899  1.00  0.00     0.293 HD
ENDBRANCH  15  22
TORSDOF 3
ENDMDL
MODEL 8
REMARK VINA RESULT:    -5.018      2.770      4.863
REMARK INTER + INTRA:          -5.458
REMARK INTER:                  -5.458
REMARK INTRA:                   0.000
REMARK UNBOUND:                 0.000
REMARK SMILES Cc1cc(O)c2c(c1)C(=O)c1cc(O)cc(O)c1C2=O
REMARK SMILES IDX 1 1 2 2 8 3 7 4 6 5 4 6 3 7 19 8 20 9 18 10 11 11 9 12 10 13
REMARK SMILES IDX 12 14 13 15 15 16 16 17 5 18 17 20 14 22
REMARK H PARENT 5 19 17 21 14 23
REMARK Flexibility Score: inf
ROOT
ATOM      1  C   UNL     1      39.036  17.056 211.101  1.00  0.00     0.044 C 
ATOM      2  C   UNL     1      39.836  17.299 212.348  1.00  0.00    -0.047 A 
ATOM      3  C   UNL     1      41.164  17.727 212.259  1.00  0.00     0.016 A 
ATOM      4  C   UNL     1      41.930  17.934 213.419  1.00  0.00     0.038 A 
ATOM      5  C   UNL     1      41.357  17.709 214.692  1.00  0.00     0.076 A 
ATOM      6  C   UNL     1      40.040  17.178 214.769  1.00  0.00     0.127 A 
ATOM      7  C   UNL     1      39.290  17.007 213.601  1.00  0.00     0.050 A 
ATOM      8  C   UNL     1      42.142  18.088 215.900  1.00  0.00     0.201 C 
ATOM      9  O   UNL     1      41.555  18.300 216.996  1.00  0.00    -0.288 OA
ATOM     10  C   UNL     1      43.604  18.332 215.795  1.00  0.00     0.076 A 
ATOM     11  C   UNL     1      44.183  18.489 214.517  1.00  0.00     0.041 A 
ATOM     12  C   UNL     1      43.341  18.376 213.306  1.00  0.00     0.194 C 
ATOM     13  O   UNL     1      43.830  18.640 212.173  1.00  0.00    -0.289 OA
ATOM     14  C   UNL     1      45.560  18.757 214.403  1.00  0.00     0.059 A 
ATOM     15  C   UNL     1      46.360  18.860 215.541  1.00  0.00     0.120 A 
ATOM     16  C   UNL     1      45.792  18.696 216.808  1.00  0.00     0.093 A 
ATOM     17  C   UNL     1      44.423  18.431 216.943  1.00  0.00     0.131 A 
ENDROOT
BRANCH   6  18
ATOM     18  O   UNL     1      39.453  16.773 215.969  1.00  0.00    -0.507 OA
ATOM     19  H   UNL     1      38.513  17.019 216.247  1.00  0.00     0.293 HD
ENDBRANCH   6  18
BRANCH  17  20
ATOM     20  O   UNL     1      43.884  18.260 218.219  1.00  0.00    -0.507 OA
ATOM     21  H   UNL     1      43.011  18.694 218.493  1.00  0.00     0.293 HD
ENDBRANCH  17  20
BRANCH  15  22
ATOM     22  O   UNL     1      47.720  19.125 215.402  1.00  0.00    -0.508 OA
ATOM     23  H   UNL     1      48.071  20.073 215.327  1.00  0.00     0.293 HD
ENDBRANCH  15  22
TORSDOF 3
ENDMDL
MODEL 9
REMARK VINA RESULT:    -4.919      4.128      7.869
REMARK INTER + INTRA:          -5.350
REMARK INTER:                  -5.350
REMARK INTRA:                   0.000
REMARK UNBOUND:                 0.000
REMARK SMILES Cc1cc(O)c2c(c1)C(=O)c1cc(O)cc(O)c1C2=O
REMARK SMILES IDX 1 1 2 2 8 3 7 4 6 5 4 6 3 7 19 8 20 9 18 10 11 11 9 12 10 13
REMARK SMILES IDX 12 14 13 15 15 16 16 17 5 18 17 20 14 22
REMARK H PARENT 5 19 17 21 14 23
REMARK Flexibility Score: inf
ROOT
ATOM      1  C   UNL     1      42.448  15.905 208.424  1.00  0.00     0.044 C 
ATOM      2  C   UNL     1      42.291  16.587 209.752  1.00  0.00    -0.047 A 
ATOM      3  C   UNL     1      41.231  16.245 210.598  1.00  0.00     0.016 A 
ATOM      4  C   UNL     1      41.061  16.895 211.833  1.00  0.00     0.038 A 
ATOM      5  C   UNL     1      41.968  17.905 212.229  1.00  0.00     0.076 A 
ATOM      6  C   UNL     1      42.981  18.314 211.320  1.00  0.00     0.127 A 
ATOM      7  C   UNL     1      43.146  17.633 210.110  1.00  0.00     0.050 A 
ATOM      8  C   UNL     1      41.853  18.460 213.607  1.00  0.00     0.201 C 
ATOM      9  O   UNL     1      42.841  19.028 214.145  1.00  0.00    -0.288 OA
ATOM     10  C   UNL     1      40.612  18.247 214.397  1.00  0.00     0.076 A 
ATOM     11  C   UNL     1      39.678  17.284 213.960  1.00  0.00     0.041 A 
ATOM     12  C   UNL     1      39.925  16.528 212.712  1.00  0.00     0.194 C 
ATOM     13  O   UNL     1      39.156  15.582 212.386  1.00  0.00    -0.289 OA
ATOM     14  C   UNL     1      38.516  17.044 214.717  1.00  0.00     0.059 A 
ATOM     15  C   UNL     1      38.276  17.756 215.892  1.00  0.00     0.120 A 
ATOM     16  C   UNL     1      39.195  18.717 216.324  1.00  0.00     0.093 A 
ATOM     17  C   UNL     1      40.358  18.969 215.585  1.00  0.00     0.131 A 
ENDROOT
BRANCH   6  18
ATOM     18  O   UNL     1      43.817  19.408 211.555  1.00  0.00    -0.507 OA
ATOM     19  H   UNL     1      44.742  19.504 211.160  1.00  0.00     0.293 HD
ENDBRANCH   6  18
BRANCH  17  20
ATOM     20  O   UNL     1      41.252  19.942 216.032  1.00  0.00    -0.507 OA
ATOM     21  H   UNL     1      41.711  20.580 215.393  1.00  0.00     0.293 HD
ENDBRANCH  17  20
BRANCH  15  22
ATOM     22  O   UNL     1      37.118  17.502 216.625  1.00  0.00    -0.508 OA
ATOM     23  H   UNL     1      37.065  17.698 217.617  1.00  0.00     0.293 HD
ENDBRANCH  15  22
TORSDOF 3
ENDMDL
