MODEL 1
REMARK VINA RESULT:    -3.665      0.000      0.000
REMARK INTER + INTRA:          -7.854
REMARK INTER:                  -6.236
REMARK INTRA:                  -1.617
REMARK UNBOUND:                -1.617
REMARK SMILES CCCCCCCCCCCCCC(=O)[O-]
REMARK SMILES IDX 8 1 9 2 10 3 11 4 12 5 13 6 14 7 15 8 16 9 7 10 6 11 5 12
REMARK SMILES IDX 4 13 3 14 2 15 1 16
REMARK H PARENT
REMARK Flexibility Score: inf
ROOT
ATOM      1  C   UNL     1     120.098 109.570 109.463  1.00  0.00     0.000 C 
ENDROOT
BRANCH   1   2
ATOM      2  C   UNL     1     120.112 109.764 107.935  1.00  0.00     0.000 C 
BRANCH   2   3
ATOM      3  C   UNL     1     120.365 111.205 107.456  1.00  0.00     0.000 C 
BRANCH   3   4
ATOM      4  C   UNL     1     121.765 111.398 106.848  1.00  0.00     0.000 C 
BRANCH   4   5
ATOM      5  C   UNL     1     121.929 112.767 106.169  1.00  0.00     0.006 C 
BRANCH   5   6
ATOM      6  C   UNL     1     120.839 113.765 106.580  1.00  0.00     0.053 C 
BRANCH   6   7
ATOM      7  C   UNL     1     120.758 114.884 105.590  1.00  0.00     0.041 C 
ATOM      8  O   UNL     1     121.690 115.068 104.762  1.00  0.00    -0.550 OA
ATOM      9  O   UNL     1     119.675 115.755 105.611  1.00  0.00    -0.550 OA
ENDBRANCH   6   7
ENDBRANCH   5   6
ENDBRANCH   4   5
ENDBRANCH   3   4
ENDBRANCH   2   3
ENDBRANCH   1   2
BRANCH   1  10
ATOM     10  C   UNL     1     118.982 110.366 110.158  1.00  0.00     0.000 C 
BRANCH  10  11
ATOM     11  C   UNL     1     119.032 110.239 111.689  1.00  0.00    -0.000 C 
BRANCH  11  12
ATOM     12  C   UNL     1     120.463 110.083 112.226  1.00  0.00    -0.000 C 
BRANCH  12  13
ATOM     13  C   UNL     1     121.119 111.456 112.441  1.00  0.00    -0.000 C 
BRANCH  13  14
ATOM     14  C   UNL     1     122.296 111.707 111.485  1.00  0.00    -0.000 C 
BRANCH  14  15
ATOM     15  C   UNL     1     121.958 112.727 110.387  1.00  0.00    -0.003 C 
ATOM     16  C   UNL     1     120.700 113.516 110.738  1.00  0.00     0.004 C 
ENDBRANCH  14  15
ENDBRANCH  13  14
ENDBRANCH  12  13
ENDBRANCH  11  12
ENDBRANCH  10  11
ENDBRANCH   1  10
TORSDOF 12
ENDMDL
MODEL 2
REMARK VINA RESULT:    -3.571      3.943      5.437
REMARK INTER + INTRA:          -7.694
REMARK INTER:                  -6.945
REMARK INTRA:                  -0.749
REMARK UNBOUND:                -1.617
REMARK SMILES CCCCCCCCCCCCCC(=O)[O-]
REMARK SMILES IDX 8 1 9 2 10 3 11 4 12 5 13 6 14 7 15 8 16 9 7 10 6 11 5 12
REMARK SMILES IDX 4 13 3 14 2 15 1 16
REMARK H PARENT
REMARK Flexibility Score: inf
ROOT
ATOM      1  C   UNL     1     120.051 112.242 112.569  1.00  0.00     0.000 C 
ENDROOT
BRANCH   1   2
ATOM      2  C   UNL     1     119.947 110.723 112.338  1.00  0.00     0.000 C 
BRANCH   2   3
ATOM      3  C   UNL     1     119.297 110.301 111.008  1.00  0.00     0.000 C 
BRANCH   3   4
ATOM      4  C   UNL     1     120.284 109.613 110.050  1.00  0.00     0.000 C 
BRANCH   4   5
ATOM      5  C   UNL     1     120.286 110.248 108.650  1.00  0.00     0.006 C 
BRANCH   5   6
ATOM      6  C   UNL     1     119.906 109.250 107.547  1.00  0.00     0.053 C 
BRANCH   6   7
ATOM      7  C   UNL     1     121.124 108.816 106.795  1.00  0.00     0.041 C 
ATOM      8  O   UNL     1     121.055 107.870 105.968  1.00  0.00    -0.550 OA
ATOM      9  O   UNL     1     122.348 109.426 107.043  1.00  0.00    -0.550 OA
ENDBRANCH   6   7
ENDBRANCH   5   6
ENDBRANCH   4   5
ENDBRANCH   3   4
ENDBRANCH   2   3
ENDBRANCH   1   2
BRANCH   1  10
ATOM     10  C   UNL     1     120.646 112.600 113.940  1.00  0.00     0.000 C 
BRANCH  10  11
ATOM     11  C   UNL     1     120.970 111.358 114.786  1.00  0.00    -0.000 C 
BRANCH  11  12
ATOM     12  C   UNL     1     120.702 111.574 116.284  1.00  0.00    -0.000 C 
BRANCH  12  13
ATOM     13  C   UNL     1     120.114 112.970 116.540  1.00  0.00    -0.000 C 
BRANCH  13  14
ATOM     14  C   UNL     1     119.034 112.968 117.632  1.00  0.00    -0.000 C 
BRANCH  14  15
ATOM     15  C   UNL     1     117.798 113.794 117.244  1.00  0.00    -0.003 C 
ATOM     16  C   UNL     1     118.077 114.655 116.016  1.00  0.00     0.004 C 
ENDBRANCH  14  15
ENDBRANCH  13  14
ENDBRANCH  12  13
ENDBRANCH  11  12
ENDBRANCH  10  11
ENDBRANCH   1  10
TORSDOF 12
ENDMDL
MODEL 3
REMARK VINA RESULT:    -3.535      3.932      6.543
REMARK INTER + INTRA:          -7.633
REMARK INTER:                  -5.808
REMARK INTRA:                  -1.825
REMARK UNBOUND:                -1.617
REMARK SMILES CCCCCCCCCCCCCC(=O)[O-]
REMARK SMILES IDX 8 1 9 2 10 3 11 4 12 5 13 6 14 7 15 8 16 9 7 10 6 11 5 12
REMARK SMILES IDX 4 13 3 14 2 15 1 16
REMARK H PARENT
REMARK Flexibility Score: inf
ROOT
ATOM      1  C   UNL     1     122.189 111.633 107.333  1.00  0.00     0.000 C 
ENDROOT
BRANCH   1   2
ATOM      2  C   UNL     1     120.712 111.226 107.183  1.00  0.00     0.000 C 
BRANCH   2   3
ATOM      3  C   UNL     1     119.898 111.206 108.490  1.00  0.00     0.000 C 
BRANCH   3   4
ATOM      4  C   UNL     1     119.635 109.783 109.011  1.00  0.00     0.000 C 
BRANCH   4   5
ATOM      5  C   UNL     1     120.753 109.279 109.938  1.00  0.00     0.006 C 
BRANCH   5   6
ATOM      6  C   UNL     1     121.296 110.378 110.861  1.00  0.00     0.053 C 
BRANCH   6   7
ATOM      7  C   UNL     1     120.501 110.434 112.127  1.00  0.00     0.041 C 
ATOM      8  O   UNL     1     119.318 110.866 112.114  1.00  0.00    -0.550 OA
ATOM      9  O   UNL     1     121.082 110.054 113.330  1.00  0.00    -0.550 OA
ENDBRANCH   6   7
ENDBRANCH   5   6
ENDBRANCH   4   5
ENDBRANCH   3   4
ENDBRANCH   2   3
ENDBRANCH   1   2
BRANCH   1  10
ATOM     10  C   UNL     1     123.162 110.487 107.013  1.00  0.00     0.000 C 
BRANCH  10  11
ATOM     11  C   UNL     1     122.457 109.273 106.387  1.00  0.00    -0.000 C 
BRANCH  11  12
ATOM     12  C   UNL     1     122.747 107.965 107.140  1.00  0.00    -0.000 C 
BRANCH  12  13
ATOM     13  C   UNL     1     121.536 107.020 107.082  1.00  0.00    -0.000 C 
BRANCH  13  14
ATOM     14  C   UNL     1     120.391 107.576 106.222  1.00  0.00    -0.000 C 
BRANCH  14  15
ATOM     15  C   UNL     1     119.876 106.558 105.193  1.00  0.00    -0.003 C 
ATOM     16  C   UNL     1     120.635 106.678 103.875  1.00  0.00     0.004 C 
ENDBRANCH  14  15
ENDBRANCH  13  14
ENDBRANCH  12  13
ENDBRANCH  11  12
ENDBRANCH  10  11
ENDBRANCH   1  10
TORSDOF 12
ENDMDL
MODEL 4
REMARK VINA RESULT:    -3.516      3.430      5.182
REMARK INTER + INTRA:          -7.600
REMARK INTER:                  -6.570
REMARK INTRA:                  -1.029
REMARK UNBOUND:                -1.617
REMARK SMILES CCCCCCCCCCCCCC(=O)[O-]
REMARK SMILES IDX 8 1 9 2 10 3 11 4 12 5 13 6 14 7 15 8 16 9 7 10 6 11 5 12
REMARK SMILES IDX 4 13 3 14 2 15 1 16
REMARK H PARENT
REMARK Flexibility Score: inf
ROOT
ATOM      1  C   UNL     1     121.179 111.607 112.805  1.00  0.00     0.000 C 
ENDROOT
BRANCH   1   2
ATOM      2  C   UNL     1     120.473 110.269 112.515  1.00  0.00     0.000 C 
BRANCH   2   3
ATOM      3  C   UNL     1     119.124 110.382 111.781  1.00  0.00     0.000 C 
BRANCH   3   4
ATOM      4  C   UNL     1     119.241 110.125 110.269  1.00  0.00     0.000 C 
BRANCH   4   5
ATOM      5  C   UNL     1     120.500 109.324 109.902  1.00  0.00     0.006 C 
BRANCH   5   6
ATOM      6  C   UNL     1     121.335 110.002 108.807  1.00  0.00     0.053 C 
BRANCH   6   7
ATOM      7  C   UNL     1     120.496 110.253 107.595  1.00  0.00     0.041 C 
ATOM      8  O   UNL     1     120.321 111.428 107.177  1.00  0.00    -0.550 OA
ATOM      9  O   UNL     1     119.867 109.194 106.952  1.00  0.00    -0.550 OA
ENDBRANCH   6   7
ENDBRANCH   5   6
ENDBRANCH   4   5
ENDBRANCH   3   4
ENDBRANCH   2   3
ENDBRANCH   1   2
BRANCH   1  10
ATOM     10  C   UNL     1     120.363 112.826 112.346  1.00  0.00     0.000 C 
BRANCH  10  11
ATOM     11  C   UNL     1     120.009 113.769 113.508  1.00  0.00    -0.000 C 
BRANCH  11  12
ATOM     12  C   UNL     1     120.920 113.575 114.730  1.00  0.00    -0.000 C 
BRANCH  12  13
ATOM     13  C   UNL     1     120.109 113.105 115.948  1.00  0.00    -0.000 C 
BRANCH  13  14
ATOM     14  C   UNL     1     120.668 111.816 116.571  1.00  0.00    -0.000 C 
BRANCH  14  15
ATOM     15  C   UNL     1     119.761 111.252 117.676  1.00  0.00    -0.003 C 
ATOM     16  C   UNL     1     118.714 112.276 118.103  1.00  0.00     0.004 C 
ENDBRANCH  14  15
ENDBRANCH  13  14
ENDBRANCH  12  13
ENDBRANCH  11  12
ENDBRANCH  10  11
ENDBRANCH   1  10
TORSDOF 12
ENDMDL
MODEL 5
REMARK VINA RESULT:    -3.498      3.765      5.350
REMARK INTER + INTRA:          -7.569
REMARK INTER:                  -6.710
REMARK INTRA:                  -0.859
REMARK UNBOUND:                -1.617
REMARK SMILES CCCCCCCCCCCCCC(=O)[O-]
REMARK SMILES IDX 8 1 9 2 10 3 11 4 12 5 13 6 14 7 15 8 16 9 7 10 6 11 5 12
REMARK SMILES IDX 4 13 3 14 2 15 1 16
REMARK H PARENT
REMARK Flexibility Score: inf
ROOT
ATOM      1  C   UNL     1     120.373 109.996 112.293  1.00  0.00     0.000 C 
ENDROOT
BRANCH   1   2
ATOM      2  C   UNL     1     119.048 110.332 111.585  1.00  0.00     0.000 C 
BRANCH   2   3
ATOM      3  C   UNL     1     119.112 110.361 110.047  1.00  0.00     0.000 C 
BRANCH   3   4
ATOM      4  C   UNL     1     120.525 110.093 109.501  1.00  0.00     0.000 C 
BRANCH   4   5
ATOM      5  C   UNL     1     120.525 109.776 107.996  1.00  0.00     0.006 C 
BRANCH   5   6
ATOM      6  C   UNL     1     121.089 108.383 107.685  1.00  0.00     0.053 C 
BRANCH   6   7
ATOM      7  C   UNL     1     120.511 107.862 106.408  1.00  0.00     0.041 C 
ATOM      8  O   UNL     1     119.263 107.760 106.271  1.00  0.00    -0.550 OA
ATOM      9  O   UNL     1     121.352 107.442 105.384  1.00  0.00    -0.550 OA
ENDBRANCH   6   7
ENDBRANCH   5   6
ENDBRANCH   4   5
ENDBRANCH   3   4
ENDBRANCH   2   3
ENDBRANCH   1   2
BRANCH   1  10
ATOM     10  C   UNL     1     120.789 111.060 113.323  1.00  0.00     0.000 C 
BRANCH  10  11
ATOM     11  C   UNL     1     120.536 112.492 112.826  1.00  0.00    -0.000 C 
BRANCH  11  12
ATOM     12  C   UNL     1     119.895 113.389 113.897  1.00  0.00    -0.000 C 
BRANCH  12  13
ATOM     13  C   UNL     1     120.488 113.093 115.284  1.00  0.00    -0.000 C 
BRANCH  13  14
ATOM     14  C   UNL     1     119.538 113.476 116.429  1.00  0.00    -0.000 C 
BRANCH  14  15
ATOM     15  C   UNL     1     119.594 112.484 117.601  1.00  0.00    -0.003 C 
ATOM     16  C   UNL     1     120.149 111.136 117.153  1.00  0.00     0.004 C 
ENDBRANCH  14  15
ENDBRANCH  13  14
ENDBRANCH  12  13
ENDBRANCH  11  12
ENDBRANCH  10  11
ENDBRANCH   1  10
TORSDOF 12
ENDMDL
MODEL 6
REMARK VINA RESULT:    -3.477      5.227      7.677
REMARK INTER + INTRA:          -7.533
REMARK INTER:                  -6.458
REMARK INTRA:                  -1.075
REMARK UNBOUND:                -1.617
REMARK SMILES CCCCCCCCCCCCCC(=O)[O-]
REMARK SMILES IDX 8 1 9 2 10 3 11 4 12 5 13 6 14 7 15 8 16 9 7 10 6 11 5 12
REMARK SMILES IDX 4 13 3 14 2 15 1 16
REMARK H PARENT
REMARK Flexibility Score: inf
ROOT
ATOM      1  C   UNL     1     120.825 111.137 113.490  1.00  0.00     0.000 C 
ENDROOT
BRANCH   1   2
ATOM      2  C   UNL     1     120.597 112.543 112.905  1.00  0.00     0.000 C 
BRANCH   2   3
ATOM      3  C   UNL     1     120.665 113.698 113.922  1.00  0.00     0.000 C 
BRANCH   3   4
ATOM      4  C   UNL     1     119.286 114.089 114.479  1.00  0.00     0.000 C 
BRANCH   4   5
ATOM      5  C   UNL     1     119.245 114.076 116.015  1.00  0.00     0.006 C 
BRANCH   5   6
ATOM      6  C   UNL     1     120.270 113.111 116.626  1.00  0.00     0.053 C 
BRANCH   6   7
ATOM      7  C   UNL     1     119.578 112.051 117.422  1.00  0.00     0.041 C 
ATOM      8  O   UNL     1     118.599 112.348 118.157  1.00  0.00    -0.550 OA
ATOM      9  O   UNL     1     120.042 110.742 117.390  1.00  0.00    -0.550 OA
ENDBRANCH   6   7
ENDBRANCH   5   6
ENDBRANCH   4   5
ENDBRANCH   3   4
ENDBRANCH   2   3
ENDBRANCH   1   2
BRANCH   1  10
ATOM     10  C   UNL     1     120.387 110.014 112.535  1.00  0.00     0.000 C 
BRANCH  10  11
ATOM     11  C   UNL     1     119.129 110.379 111.731  1.00  0.00    -0.000 C 
BRANCH  11  12
ATOM     12  C   UNL     1     119.235 109.984 110.250  1.00  0.00    -0.000 C 
BRANCH  12  13
ATOM     13  C   UNL     1     120.683 109.627 109.881  1.00  0.00    -0.000 C 
BRANCH  13  14
ATOM     14  C   UNL     1     121.363 110.709 109.028  1.00  0.00    -0.000 C 
BRANCH  14  15
ATOM     15  C   UNL     1     120.357 111.695 108.412  1.00  0.00    -0.003 C 
ATOM     16  C   UNL     1     120.849 112.207 107.062  1.00  0.00     0.004 C 
ENDBRANCH  14  15
ENDBRANCH  13  14
ENDBRANCH  12  13
ENDBRANCH  11  12
ENDBRANCH  10  11
ENDBRANCH   1  10
TORSDOF 12
ENDMDL
MODEL 7
REMARK VINA RESULT:    -3.472      1.643      3.373
REMARK INTER + INTRA:          -7.525
REMARK INTER:                  -6.252
REMARK INTRA:                  -1.273
REMARK UNBOUND:                -1.617
REMARK SMILES CCCCCCCCCCCCCC(=O)[O-]
REMARK SMILES IDX 8 1 9 2 10 3 11 4 12 5 13 6 14 7 15 8 16 9 7 10 6 11 5 12
REMARK SMILES IDX 4 13 3 14 2 15 1 16
REMARK H PARENT
REMARK Flexibility Score: inf
ROOT
ATOM      1  C   UNL     1     123.658 109.568 106.779  1.00  0.00     0.000 C 
ENDROOT
BRANCH   1   2
ATOM      2  C   UNL     1     123.382 111.043 106.431  1.00  0.00     0.000 C 
BRANCH   2   3
ATOM      3  C   UNL     1     122.932 111.925 107.610  1.00  0.00     0.000 C 
BRANCH   3   4
ATOM      4  C   UNL     1     121.637 112.702 107.317  1.00  0.00     0.000 C 
BRANCH   4   5
ATOM      5  C   UNL     1     121.616 113.300 105.901  1.00  0.00     0.006 C 
BRANCH   5   6
ATOM      6  C   UNL     1     120.407 114.215 105.663  1.00  0.00     0.053 C 
BRANCH   6   7
ATOM      7  C   UNL     1     120.832 115.650 105.671  1.00  0.00     0.041 C 
ATOM      8  O   UNL     1     121.921 115.986 106.205  1.00  0.00    -0.550 OA
ATOM      9  O   UNL     1     120.001 116.623 105.129  1.00  0.00    -0.550 OA
ENDBRANCH   6   7
ENDBRANCH   5   6
ENDBRANCH   4   5
ENDBRANCH   3   4
ENDBRANCH   2   3
ENDBRANCH   1   2
BRANCH   1  10
ATOM     10  C   UNL     1     122.516 108.917 107.575  1.00  0.00     0.000 C 
BRANCH  10  11
ATOM     11  C   UNL     1     121.207 108.839 106.772  1.00  0.00    -0.000 C 
BRANCH  11  12
ATOM     12  C   UNL     1     120.014 109.454 107.520  1.00  0.00    -0.000 C 
BRANCH  12  13
ATOM     13  C   UNL     1     120.264 109.465 109.037  1.00  0.00    -0.000 C 
BRANCH  13  14
ATOM     14  C   UNL     1     119.556 110.629 109.747  1.00  0.00    -0.000 C 
BRANCH  14  15
ATOM     15  C   UNL     1     119.074 110.256 111.157  1.00  0.00    -0.003 C 
ATOM     16  C   UNL     1     120.253 110.013 112.094  1.00  0.00     0.004 C 
ENDBRANCH  14  15
ENDBRANCH  13  14
ENDBRANCH  12  13
ENDBRANCH  11  12
ENDBRANCH  10  11
ENDBRANCH   1  10
TORSDOF 12
ENDMDL
MODEL 8
REMARK VINA RESULT:    -3.453      1.057      2.915
REMARK INTER + INTRA:          -7.493
REMARK INTER:                  -6.227
REMARK INTRA:                  -1.266
REMARK UNBOUND:                -1.617
REMARK SMILES CCCCCCCCCCCCCC(=O)[O-]
REMARK SMILES IDX 8 1 9 2 10 3 11 4 12 5 13 6 14 7 15 8 16 9 7 10 6 11 5 12
REMARK SMILES IDX 4 13 3 14 2 15 1 16
REMARK H PARENT
REMARK Flexibility Score: inf
ROOT
ATOM      1  C   UNL     1     121.111 113.550 110.534  1.00  0.00     0.000 C 
ENDROOT
BRANCH   1   2
ATOM      2  C   UNL     1     121.740 112.962 109.257  1.00  0.00     0.000 C 
BRANCH   2   3
ATOM      3  C   UNL     1     121.536 113.796 107.978  1.00  0.00     0.000 C 
BRANCH   3   4
ATOM      4  C   UNL     1     121.162 112.939 106.757  1.00  0.00     0.000 C 
BRANCH   4   5
ATOM      5  C   UNL     1     120.953 113.781 105.488  1.00  0.00     0.006 C 
BRANCH   5   6
ATOM      6  C   UNL     1     120.256 115.118 105.774  1.00  0.00     0.053 C 
BRANCH   6   7
ATOM      7  C   UNL     1     120.881 116.213 104.968  1.00  0.00     0.041 C 
ATOM      8  O   UNL     1     122.072 116.108 104.572  1.00  0.00    -0.550 OA
ATOM      9  O   UNL     1     120.164 117.371 104.695  1.00  0.00    -0.550 OA
ENDBRANCH   6   7
ENDBRANCH   5   6
ENDBRANCH   4   5
ENDBRANCH   3   4
ENDBRANCH   2   3
ENDBRANCH   1   2
BRANCH   1  10
ATOM     10  C   UNL     1     121.541 112.808 111.810  1.00  0.00     0.000 C 
BRANCH  10  11
ATOM     11  C   UNL     1     120.352 112.186 112.560  1.00  0.00    -0.000 C 
BRANCH  11  12
ATOM     12  C   UNL     1     120.241 110.669 112.346  1.00  0.00    -0.000 C 
BRANCH  12  13
ATOM     13  C   UNL     1     118.927 110.311 111.633  1.00  0.00    -0.000 C 
BRANCH  13  14
ATOM     14  C   UNL     1     119.033 110.420 110.104  1.00  0.00    -0.000 C 
BRANCH  14  15
ATOM     15  C   UNL     1     120.187 109.585 109.529  1.00  0.00    -0.003 C 
ATOM     16  C   UNL     1     120.161 109.589 108.004  1.00  0.00     0.004 C 
ENDBRANCH  14  15
ENDBRANCH  13  14
ENDBRANCH  12  13
ENDBRANCH  11  12
ENDBRANCH  10  11
ENDBRANCH   1  10
TORSDOF 12
ENDMDL
MODEL 9
REMARK VINA RESULT:    -3.438      3.298      4.651
REMARK INTER + INTRA:          -7.467
REMARK INTER:                  -5.595
REMARK INTRA:                  -1.873
REMARK UNBOUND:                -1.617
REMARK SMILES CCCCCCCCCCCCCC(=O)[O-]
REMARK SMILES IDX 8 1 9 2 10 3 11 4 12 5 13 6 14 7 15 8 16 9 7 10 6 11 5 12
REMARK SMILES IDX 4 13 3 14 2 15 1 16
REMARK H PARENT
REMARK Flexibility Score: inf
ROOT
ATOM      1  C   UNL     1     122.228 112.520 109.372  1.00  0.00     0.000 C 
ENDROOT
BRANCH   1   2
ATOM      2  C   UNL     1     121.026 112.745 108.437  1.00  0.00     0.000 C 
BRANCH   2   3
ATOM      3  C   UNL     1     120.923 111.769 107.250  1.00  0.00     0.000 C 
BRANCH   3   4
ATOM      4  C   UNL     1     122.295 111.287 106.749  1.00  0.00     0.000 C 
BRANCH   4   5
ATOM      5  C   UNL     1     122.451 109.760 106.839  1.00  0.00     0.006 C 
BRANCH   5   6
ATOM      6  C   UNL     1     121.133 109.015 106.592  1.00  0.00     0.053 C 
BRANCH   6   7
ATOM      7  C   UNL     1     121.392 107.559 106.368  1.00  0.00     0.041 C 
ATOM      8  O   UNL     1     121.170 107.040 105.242  1.00  0.00    -0.550 OA
ATOM      9  O   UNL     1     121.835 106.762 107.417  1.00  0.00    -0.550 OA
ENDBRANCH   6   7
ENDBRANCH   5   6
ENDBRANCH   4   5
ENDBRANCH   3   4
ENDBRANCH   2   3
ENDBRANCH   1   2
BRANCH   1  10
ATOM     10  C   UNL     1     121.969 113.003 110.808  1.00  0.00     0.000 C 
BRANCH  10  11
ATOM     11  C   UNL     1     120.472 113.172 111.113  1.00  0.00    -0.000 C 
BRANCH  11  12
ATOM     12  C   UNL     1     120.042 112.452 112.400  1.00  0.00    -0.000 C 
BRANCH  12  13
ATOM     13  C   UNL     1     120.042 110.928 112.202  1.00  0.00    -0.000 C 
BRANCH  13  14
ATOM     14  C   UNL     1     118.925 110.453 111.259  1.00  0.00    -0.000 C 
BRANCH  14  15
ATOM     15  C   UNL     1     119.469 109.767 109.996  1.00  0.00    -0.003 C 
ATOM     16  C   UNL     1     120.896 109.275 110.210  1.00  0.00     0.004 C 
ENDBRANCH  14  15
ENDBRANCH  13  14
ENDBRANCH  12  13
ENDBRANCH  11  12
ENDBRANCH  10  11
ENDBRANCH   1  10
TORSDOF 12
ENDMDL
