MODEL 1
REMARK VINA RESULT:    -5.253      0.000      0.000
REMARK INTER + INTRA:          -6.810
REMARK INTER:                  -7.096
REMARK INTRA:                   0.286
REMARK UNBOUND:                 0.286
REMARK SMILES O=c1c(-c2ccc(O)cc2)coc2c([C@H]3O[C@@H](CO)[C@H](O)[C@@H](O)[C@@H]3O)c(O)ccc12
REMARK SMILES IDX 3 1 11 2 12 3 13 4 30 5 2 6 1 7 29 8 28 9 26 10 14 11 4 12
REMARK SMILES IDX 5 13 6 14 7 15 10 16 9 17 8 18 15 20 24 21 16 22 22 23 17 24
REMARK SMILES IDX 20 25 25 26 23 28 18 30 19 31 21 33 27 35
REMARK H PARENT 8 19 25 27 23 29 19 32 21 34 27 36
REMARK Flexibility Score: inf
ROOT
ATOM      1  C   UNL     1      15.147  12.023  15.589  1.00  0.00     0.065 A 
ATOM      2  C   UNL     1      14.929  12.089  14.206  1.00  0.00     0.208 A 
ATOM      3  O   UNL     1      13.701  12.037  13.707  1.00  0.00    -0.463 OA
ATOM      4  C   UNL     1      12.609  11.920  14.461  1.00  0.00     0.147 A 
ATOM      5  C   UNL     1      12.739  11.843  15.866  1.00  0.00     0.066 A 
ATOM      6  C   UNL     1      14.026  11.906  16.431  1.00  0.00     0.200 A 
ATOM      7  O   UNL     1      14.174  11.876  17.684  1.00  0.00    -0.288 OA
ATOM      8  C   UNL     1      11.592  11.708  16.661  1.00  0.00     0.020 A 
ATOM      9  C   UNL     1      10.337  11.613  16.069  1.00  0.00     0.047 A 
ATOM     10  C   UNL     1      10.190  11.664  14.680  1.00  0.00     0.125 A 
ATOM     11  C   UNL     1      11.328  11.875  13.853  1.00  0.00     0.069 A 
ENDROOT
BRANCH   1  12
ATOM     12  C   UNL     1      16.530  12.080  16.124  1.00  0.00    -0.011 A 
ATOM     13  C   UNL     1      16.753  12.080  17.513  1.00  0.00     0.013 A 
ATOM     14  C   UNL     1      18.054  12.143  18.021  1.00  0.00     0.047 A 
ATOM     15  C   UNL     1      19.147  12.212  17.151  1.00  0.00     0.115 A 
ATOM     16  C   UNL     1      17.634  12.156  15.256  1.00  0.00     0.013 A 
ATOM     17  C   UNL     1      18.933  12.220  15.766  1.00  0.00     0.047 A 
BRANCH  15  18
ATOM     18  O   UNL     1      20.438  12.274  17.671  1.00  0.00    -0.508 OA
ATOM     19  H   UNL     1      20.606  12.483  18.647  1.00  0.00     0.293 HD
ENDBRANCH  15  18
ENDBRANCH   1  12
BRANCH  11  20
ATOM     20  C   UNL     1      11.202  12.012  12.338  1.00  0.00     0.188 C 
ATOM     21  C   UNL     1      12.149  11.015  11.629  1.00  0.00     0.179 C 
ATOM     22  O   UNL     1      11.511  13.347  11.963  1.00  0.00    -0.362 OA
ATOM     23  C   UNL     1      12.050  11.198  10.106  1.00  0.00     0.177 C 
ATOM     24  C   UNL     1      11.278  13.563  10.582  1.00  0.00     0.176 C 
ATOM     25  C   UNL     1      12.235  12.680   9.738  1.00  0.00     0.177 C 
BRANCH  21  26
ATOM     26  O   UNL     1      11.799   9.693  11.954  1.00  0.00    -0.387 OA
ATOM     27  H   UNL     1      10.896   9.529  11.574  1.00  0.00     0.211 HD
ENDBRANCH  21  26
BRANCH  23  28
ATOM     28  O   UNL     1      13.040  10.437   9.464  1.00  0.00    -0.387 OA
ATOM     29  H   UNL     1      12.583   9.899   8.765  1.00  0.00     0.211 HD
ENDBRANCH  23  28
BRANCH  24  30
ATOM     30  C   UNL     1      11.498  15.058  10.299  1.00  0.00     0.191 C 
BRANCH  30  31
ATOM     31  O   UNL     1      12.778  15.297   9.778  1.00  0.00    -0.394 OA
ATOM     32  H   UNL     1      12.962  16.263   9.908  1.00  0.00     0.210 HD
ENDBRANCH  30  31
ENDBRANCH  24  30
BRANCH  25  33
ATOM     33  O   UNL     1      12.033  12.869   8.359  1.00  0.00    -0.388 OA
ATOM     34  H   UNL     1      12.028  11.973   7.930  1.00  0.00     0.211 HD
ENDBRANCH  25  33
ENDBRANCH  11  20
BRANCH  10  35
ATOM     35  O   UNL     1       8.901  11.479  14.172  1.00  0.00    -0.507 OA
ATOM     36  H   UNL     1       8.156  11.002  14.661  1.00  0.00     0.293 HD
ENDBRANCH  10  35
TORSDOF 9
ENDMDL
MODEL 2
REMARK VINA RESULT:    -4.534      1.150      1.479
REMARK INTER + INTRA:          -5.838
REMARK INTER:                  -6.439
REMARK INTRA:                   0.600
REMARK UNBOUND:                 0.286
REMARK SMILES O=c1c(-c2ccc(O)cc2)coc2c([C@H]3O[C@@H](CO)[C@H](O)[C@@H](O)[C@@H]3O)c(O)ccc12
REMARK SMILES IDX 3 1 11 2 12 3 13 4 30 5 2 6 1 7 29 8 28 9 26 10 14 11 4 12
REMARK SMILES IDX 5 13 6 14 7 15 10 16 9 17 8 18 15 20 24 21 16 22 22 23 17 24
REMARK SMILES IDX 20 25 25 26 23 28 18 30 19 31 21 33 27 35
REMARK H PARENT 8 19 25 27 23 29 19 32 21 34 27 36
REMARK Flexibility Score: inf
ROOT
ATOM      1  C   UNL     1      15.279  11.997  15.867  1.00  0.00     0.065 A 
ATOM      2  C   UNL     1      14.824  11.882  14.547  1.00  0.00     0.208 A 
ATOM      3  O   UNL     1      13.527  11.802  14.278  1.00  0.00    -0.463 OA
ATOM      4  C   UNL     1      12.583  11.825  15.217  1.00  0.00     0.147 A 
ATOM      5  C   UNL     1      12.955  11.935  16.576  1.00  0.00     0.066 A 
ATOM      6  C   UNL     1      14.321  12.032  16.897  1.00  0.00     0.200 A 
ATOM      7  O   UNL     1      14.685  12.168  18.098  1.00  0.00    -0.288 OA
ATOM      8  C   UNL     1      11.963  11.947  17.566  1.00  0.00     0.020 A 
ATOM      9  C   UNL     1      10.623  11.812  17.218  1.00  0.00     0.047 A 
ATOM     10  C   UNL     1      10.236  11.678  15.882  1.00  0.00     0.125 A 
ATOM     11  C   UNL     1      11.215  11.738  14.850  1.00  0.00     0.069 A 
ENDROOT
BRANCH   1  12
ATOM     12  C   UNL     1      16.735  12.082  16.144  1.00  0.00    -0.011 A 
ATOM     13  C   UNL     1      17.652  12.202  15.084  1.00  0.00     0.013 A 
ATOM     14  C   UNL     1      19.025  12.272  15.341  1.00  0.00     0.047 A 
ATOM     15  C   UNL     1      19.498  12.217  16.655  1.00  0.00     0.115 A 
ATOM     16  C   UNL     1      17.220  12.020  17.463  1.00  0.00     0.013 A 
ATOM     17  C   UNL     1      18.592  12.089  17.716  1.00  0.00     0.047 A 
BRANCH  15  18
ATOM     18  O   UNL     1      20.869  12.288  16.896  1.00  0.00    -0.508 OA
ATOM     19  H   UNL     1      21.314  11.707  17.596  1.00  0.00     0.293 HD
ENDBRANCH  15  18
ENDBRANCH   1  12
BRANCH  11  20
ATOM     20  C   UNL     1      10.827  11.672  13.375  1.00  0.00     0.188 C 
ATOM     21  C   UNL     1      11.838  10.797  12.595  1.00  0.00     0.179 C 
ATOM     22  O   UNL     1      10.792  12.988  12.843  1.00  0.00    -0.362 OA
ATOM     23  C   UNL     1      11.466  10.780  11.104  1.00  0.00     0.177 C 
ATOM     24  C   UNL     1      10.306  12.994  11.511  1.00  0.00     0.176 C 
ATOM     25  C   UNL     1      11.281  12.217  10.587  1.00  0.00     0.177 C 
BRANCH  21  26
ATOM     26  O   UNL     1      11.823   9.480  13.085  1.00  0.00    -0.387 OA
ATOM     27  H   UNL     1      11.036   9.401  13.685  1.00  0.00     0.211 HD
ENDBRANCH  21  26
BRANCH  23  28
ATOM     28  O   UNL     1      12.479  10.151  10.361  1.00  0.00    -0.387 OA
ATOM     29  H   UNL     1      12.034   9.674   9.612  1.00  0.00     0.211 HD
ENDBRANCH  23  28
BRANCH  24  30
ATOM     30  C   UNL     1      10.165  14.461  11.072  1.00  0.00     0.191 C 
BRANCH  30  31
ATOM     31  O   UNL     1       9.973  15.308  12.173  1.00  0.00    -0.394 OA
ATOM     32  H   UNL     1       9.132  15.017  12.611  1.00  0.00     0.210 HD
ENDBRANCH  30  31
ENDBRANCH  24  30
BRANCH  25  33
ATOM     33  O   UNL     1      10.831  12.203   9.255  1.00  0.00    -0.388 OA
ATOM     34  H   UNL     1      11.537  11.774   8.703  1.00  0.00     0.211 HD
ENDBRANCH  25  33
ENDBRANCH  11  20
BRANCH  10  35
ATOM     35  O   UNL     1       8.878  11.468  15.633  1.00  0.00    -0.507 OA
ATOM     36  H   UNL     1       8.154  11.509  16.337  1.00  0.00     0.293 HD
ENDBRANCH  10  35
TORSDOF 9
ENDMDL
MODEL 3
REMARK VINA RESULT:    -4.497      2.936      6.505
REMARK INTER + INTRA:          -5.788
REMARK INTER:                  -6.445
REMARK INTRA:                   0.657
REMARK UNBOUND:                 0.286
REMARK SMILES O=c1c(-c2ccc(O)cc2)coc2c([C@H]3O[C@@H](CO)[C@H](O)[C@@H](O)[C@@H]3O)c(O)ccc12
REMARK SMILES IDX 3 1 11 2 12 3 13 4 30 5 2 6 1 7 29 8 28 9 26 10 14 11 4 12
REMARK SMILES IDX 5 13 6 14 7 15 10 16 9 17 8 18 15 20 24 21 16 22 22 23 17 24
REMARK SMILES IDX 20 25 25 26 23 28 18 30 19 31 21 33 27 35
REMARK H PARENT 8 19 25 27 23 29 19 32 21 34 27 36
REMARK Flexibility Score: inf
ROOT
ATOM      1  C   UNL     1      15.081  11.999  16.684  1.00  0.00     0.065 A 
ATOM      2  C   UNL     1      14.255  11.990  17.816  1.00  0.00     0.208 A 
ATOM      3  O   UNL     1      12.939  11.878  17.697  1.00  0.00    -0.463 OA
ATOM      4  C   UNL     1      12.317  11.771  16.525  1.00  0.00     0.147 A 
ATOM      5  C   UNL     1      13.075  11.776  15.331  1.00  0.00     0.066 A 
ATOM      6  C   UNL     1      14.474  11.882  15.420  1.00  0.00     0.200 A 
ATOM      7  O   UNL     1      15.183  11.853  14.376  1.00  0.00    -0.288 OA
ATOM      8  C   UNL     1      12.421  11.674  14.096  1.00  0.00     0.020 A 
ATOM      9  C   UNL     1      11.032  11.608  14.041  1.00  0.00     0.047 A 
ATOM     10  C   UNL     1      10.264  11.625  15.208  1.00  0.00     0.125 A 
ATOM     11  C   UNL     1      10.904  11.652  16.479  1.00  0.00     0.069 A 
ENDROOT
BRANCH   1  12
ATOM     12  C   UNL     1      16.552  12.128  16.841  1.00  0.00    -0.011 A 
ATOM     13  C   UNL     1      17.367  12.360  15.718  1.00  0.00     0.013 A 
ATOM     14  C   UNL     1      18.753  12.472  15.861  1.00  0.00     0.047 A 
ATOM     15  C   UNL     1      19.343  12.350  17.123  1.00  0.00     0.115 A 
ATOM     16  C   UNL     1      17.153  12.000  18.106  1.00  0.00     0.013 A 
ATOM     17  C   UNL     1      18.539  12.111  18.246  1.00  0.00     0.047 A 
BRANCH  15  18
ATOM     18  O   UNL     1      20.726  12.464  17.251  1.00  0.00    -0.508 OA
ATOM     19  H   UNL     1      21.150  13.255  17.720  1.00  0.00     0.293 HD
ENDBRANCH  15  18
ENDBRANCH   1  12
BRANCH  11  20
ATOM     20  C   UNL     1      10.104  11.595  17.778  1.00  0.00     0.188 C 
ATOM     21  C   UNL     1      10.823  12.404  18.885  1.00  0.00     0.179 C 
ATOM     22  O   UNL     1       9.950  10.239  18.172  1.00  0.00    -0.362 OA
ATOM     23  C   UNL     1      10.036  12.297  20.200  1.00  0.00     0.177 C 
ATOM     24  C   UNL     1       9.100  10.122  19.300  1.00  0.00     0.176 C 
ATOM     25  C   UNL     1       9.746  10.822  20.525  1.00  0.00     0.177 C 
BRANCH  21  26
ATOM     26  O   UNL     1      10.917  13.757  18.517  1.00  0.00    -0.387 OA
ATOM     27  H   UNL     1      11.701  14.135  18.995  1.00  0.00     0.211 HD
ENDBRANCH  21  26
BRANCH  23  28
ATOM     28  O   UNL     1      10.774  12.864  21.252  1.00  0.00    -0.387 OA
ATOM     29  H   UNL     1      10.130  13.070  21.979  1.00  0.00     0.211 HD
ENDBRANCH  23  28
BRANCH  24  30
ATOM     30  C   UNL     1       8.875   8.624  19.563  1.00  0.00     0.191 C 
BRANCH  30  31
ATOM     31  O   UNL     1       9.748   8.142  20.549  1.00  0.00    -0.394 OA
ATOM     32  H   UNL     1       9.240   8.138  21.402  1.00  0.00     0.210 HD
ENDBRANCH  30  31
ENDBRANCH  24  30
BRANCH  25  33
ATOM     33  O   UNL     1       8.929  10.725  21.667  1.00  0.00    -0.388 OA
ATOM     34  H   UNL     1       8.963  11.600  22.136  1.00  0.00     0.211 HD
ENDBRANCH  25  33
ENDBRANCH  11  20
BRANCH  10  35
ATOM     35  O   UNL     1       8.875  11.635  15.053  1.00  0.00    -0.507 OA
ATOM     36  H   UNL     1       8.399  11.627  14.162  1.00  0.00     0.293 HD
ENDBRANCH  10  35
TORSDOF 9
ENDMDL
MODEL 4
REMARK VINA RESULT:    -4.401      2.839      8.239
REMARK INTER + INTRA:          -5.659
REMARK INTER:                  -5.723
REMARK INTRA:                   0.064
REMARK UNBOUND:                 0.286
REMARK SMILES O=c1c(-c2ccc(O)cc2)coc2c([C@H]3O[C@@H](CO)[C@H](O)[C@@H](O)[C@@H]3O)c(O)ccc12
REMARK SMILES IDX 3 1 11 2 12 3 13 4 30 5 2 6 1 7 29 8 28 9 26 10 14 11 4 12
REMARK SMILES IDX 5 13 6 14 7 15 10 16 9 17 8 18 15 20 24 21 16 22 22 23 17 24
REMARK SMILES IDX 20 25 25 26 23 28 18 30 19 31 21 33 27 35
REMARK H PARENT 8 19 25 27 23 29 19 32 21 34 27 36
REMARK Flexibility Score: inf
ROOT
ATOM      1  C   UNL     1      11.497  11.590  13.766  1.00  0.00     0.065 A 
ATOM      2  C   UNL     1      10.752  11.636  14.952  1.00  0.00     0.208 A 
ATOM      3  O   UNL     1      11.352  11.761  16.129  1.00  0.00    -0.463 OA
ATOM      4  C   UNL     1      12.673  11.848  16.270  1.00  0.00     0.147 A 
ATOM      5  C   UNL     1      13.500  11.805  15.125  1.00  0.00     0.066 A 
ATOM      6  C   UNL     1      12.897  11.684  13.860  1.00  0.00     0.200 A 
ATOM      7  O   UNL     1      13.605  11.679  12.815  1.00  0.00    -0.288 OA
ATOM      8  C   UNL     1      14.892  11.884  15.273  1.00  0.00     0.020 A 
ATOM      9  C   UNL     1      15.458  11.967  16.542  1.00  0.00     0.047 A 
ATOM     10  C   UNL     1      14.658  11.987  17.687  1.00  0.00     0.125 A 
ATOM     11  C   UNL     1      13.240  11.983  17.564  1.00  0.00     0.069 A 
ENDROOT
BRANCH   1  12
ATOM     12  C   UNL     1      10.804  11.446  12.461  1.00  0.00    -0.011 A 
ATOM     13  C   UNL     1      10.620  10.173  11.893  1.00  0.00     0.013 A 
ATOM     14  C   UNL     1       9.977  10.035  10.658  1.00  0.00     0.047 A 
ATOM     15  C   UNL     1       9.515  11.165   9.976  1.00  0.00     0.115 A 
ATOM     16  C   UNL     1      10.343  12.578  11.765  1.00  0.00     0.013 A 
ATOM     17  C   UNL     1       9.701  12.438  10.532  1.00  0.00     0.047 A 
BRANCH  15  18
ATOM     18  O   UNL     1       8.875  11.013   8.747  1.00  0.00    -0.508 OA
ATOM     19  H   UNL     1       8.459  10.131   8.472  1.00  0.00     0.293 HD
ENDBRANCH  15  18
ENDBRANCH   1  12
BRANCH  11  20
ATOM     20  C   UNL     1      12.331  12.080  18.785  1.00  0.00     0.188 C 
ATOM     21  C   UNL     1      12.243  10.709  19.498  1.00  0.00     0.179 C 
ATOM     22  O   UNL     1      11.042  12.512  18.374  1.00  0.00    -0.362 OA
ATOM     23  C   UNL     1      11.284  10.808  20.696  1.00  0.00     0.177 C 
ATOM     24  C   UNL     1      10.196  12.748  19.486  1.00  0.00     0.176 C 
ATOM     25  C   UNL     1       9.946  11.424  20.254  1.00  0.00     0.177 C 
BRANCH  21  26
ATOM     26  O   UNL     1      13.511  10.317  19.959  1.00  0.00    -0.387 OA
ATOM     27  H   UNL     1      13.872  11.070  20.497  1.00  0.00     0.211 HD
ENDBRANCH  21  26
BRANCH  23  28
ATOM     28  O   UNL     1      11.050   9.531  21.232  1.00  0.00    -0.387 OA
ATOM     29  H   UNL     1      10.068   9.382  21.204  1.00  0.00     0.211 HD
ENDBRANCH  23  28
BRANCH  24  30
ATOM     30  C   UNL     1       8.882  13.347  18.956  1.00  0.00     0.191 C 
BRANCH  30  31
ATOM     31  O   UNL     1       9.082  14.629  18.426  1.00  0.00    -0.394 OA
ATOM     32  H   UNL     1       8.209  14.924  18.058  1.00  0.00     0.210 HD
ENDBRANCH  30  31
ENDBRANCH  24  30
BRANCH  25  33
ATOM     33  O   UNL     1       9.108  11.620  21.367  1.00  0.00    -0.388 OA
ATOM     34  H   UNL     1       8.280  11.093  21.216  1.00  0.00     0.211 HD
ENDBRANCH  25  33
ENDBRANCH  11  20
BRANCH  10  35
ATOM     35  O   UNL     1      15.316  11.990  18.920  1.00  0.00    -0.507 OA
ATOM     36  H   UNL     1      16.301  12.182  19.043  1.00  0.00     0.293 HD
ENDBRANCH  10  35
TORSDOF 9
ENDMDL
MODEL 5
REMARK VINA RESULT:    -4.041      1.629      2.799
REMARK INTER + INTRA:          -5.172
REMARK INTER:                  -4.672
REMARK INTRA:                  -0.500
REMARK UNBOUND:                 0.286
REMARK SMILES O=c1c(-c2ccc(O)cc2)coc2c([C@H]3O[C@@H](CO)[C@H](O)[C@@H](O)[C@@H]3O)c(O)ccc12
REMARK SMILES IDX 3 1 11 2 12 3 13 4 30 5 2 6 1 7 29 8 28 9 26 10 14 11 4 12
REMARK SMILES IDX 5 13 6 14 7 15 10 16 9 17 8 18 15 20 24 21 16 22 22 23 17 24
REMARK SMILES IDX 20 25 25 26 23 28 18 30 19 31 21 33 27 35
REMARK H PARENT 8 19 25 27 23 29 19 32 21 34 27 36
REMARK Flexibility Score: inf
ROOT
ATOM      1  C   UNL     1      15.262  12.213  14.211  1.00  0.00     0.065 A 
ATOM      2  C   UNL     1      15.177  12.746  12.918  1.00  0.00     0.208 A 
ATOM      3  O   UNL     1      14.018  12.786  12.274  1.00  0.00    -0.463 OA
ATOM      4  C   UNL     1      12.878  12.333  12.790  1.00  0.00     0.147 A 
ATOM      5  C   UNL     1      12.875  11.775  14.089  1.00  0.00     0.066 A 
ATOM      6  C   UNL     1      14.084  11.727  14.807  1.00  0.00     0.200 A 
ATOM      7  O   UNL     1      14.109  11.268  15.982  1.00  0.00    -0.288 OA
ATOM      8  C   UNL     1      11.678  11.287  14.631  1.00  0.00     0.020 A 
ATOM      9  C   UNL     1      10.506  11.317  13.880  1.00  0.00     0.047 A 
ATOM     10  C   UNL     1      10.493  11.842  12.586  1.00  0.00     0.125 A 
ATOM     11  C   UNL     1      11.677  12.413  12.039  1.00  0.00     0.069 A 
ENDROOT
BRANCH   1  12
ATOM     12  C   UNL     1      16.571  12.177  14.913  1.00  0.00    -0.011 A 
ATOM     13  C   UNL     1      16.630  12.337  16.309  1.00  0.00     0.013 A 
ATOM     14  C   UNL     1      17.862  12.314  16.971  1.00  0.00     0.047 A 
ATOM     15  C   UNL     1      19.046  12.135  16.250  1.00  0.00     0.115 A 
ATOM     16  C   UNL     1      17.766  12.005  14.193  1.00  0.00     0.013 A 
ATOM     17  C   UNL     1      18.995  11.982  14.857  1.00  0.00     0.047 A 
BRANCH  15  18
ATOM     18  O   UNL     1      20.266  12.113  16.923  1.00  0.00    -0.508 OA
ATOM     19  H   UNL     1      20.324  12.288  17.919  1.00  0.00     0.293 HD
ENDBRANCH  15  18
ENDBRANCH   1  12
BRANCH  11  20
ATOM     20  C   UNL     1      11.687  13.065  10.659  1.00  0.00     0.188 C 
ATOM     21  C   UNL     1      10.721  14.274  10.631  1.00  0.00     0.179 C 
ATOM     22  O   UNL     1      11.308  12.102   9.686  1.00  0.00    -0.362 OA
ATOM     23  C   UNL     1      10.701  14.890   9.223  1.00  0.00     0.177 C 
ATOM     24  C   UNL     1      11.431  12.619   8.372  1.00  0.00     0.176 C 
ATOM     25  C   UNL     1      10.443  13.798   8.171  1.00  0.00     0.177 C 
BRANCH  21  26
ATOM     26  O   UNL     1      11.136  15.251  11.552  1.00  0.00    -0.387 OA
ATOM     27  H   UNL     1      11.395  14.775  12.384  1.00  0.00     0.211 HD
ENDBRANCH  21  26
BRANCH  23  28
ATOM     28  O   UNL     1       9.691  15.862   9.136  1.00  0.00    -0.387 OA
ATOM     29  H   UNL     1       9.887  16.545   9.831  1.00  0.00     0.211 HD
ENDBRANCH  23  28
BRANCH  24  30
ATOM     30  C   UNL     1      11.144  11.472   7.389  1.00  0.00     0.191 C 
BRANCH  30  31
ATOM     31  O   UNL     1       9.771  11.353   7.130  1.00  0.00    -0.394 OA
ATOM     32  H   UNL     1       9.327  11.214   8.006  1.00  0.00     0.210 HD
ENDBRANCH  30  31
ENDBRANCH  24  30
BRANCH  25  33
ATOM     33  O   UNL     1      10.537  14.337   6.875  1.00  0.00    -0.388 OA
ATOM     34  H   UNL     1      10.345  13.606   6.230  1.00  0.00     0.211 HD
ENDBRANCH  25  33
ENDBRANCH  11  20
BRANCH  10  35
ATOM     35  O   UNL     1       9.291  11.757  11.879  1.00  0.00    -0.507 OA
ATOM     36  H   UNL     1       8.407  12.119  12.208  1.00  0.00     0.293 HD
ENDBRANCH  10  35
TORSDOF 9
ENDMDL
MODEL 6
REMARK VINA RESULT:    -3.883      2.831      5.300
REMARK INTER + INTRA:          -4.959
REMARK INTER:                  -3.711
REMARK INTRA:                  -1.248
REMARK UNBOUND:                 0.286
REMARK SMILES O=c1c(-c2ccc(O)cc2)coc2c([C@H]3O[C@@H](CO)[C@H](O)[C@@H](O)[C@@H]3O)c(O)ccc12
REMARK SMILES IDX 3 1 11 2 12 3 13 4 30 5 2 6 1 7 29 8 28 9 26 10 14 11 4 12
REMARK SMILES IDX 5 13 6 14 7 15 10 16 9 17 8 18 15 20 24 21 16 22 22 23 17 24
REMARK SMILES IDX 20 25 25 26 23 28 18 30 19 31 21 33 27 35
REMARK H PARENT 8 19 25 27 23 29 19 32 21 34 27 36
REMARK Flexibility Score: inf
ROOT
ATOM      1  C   UNL     1      10.958  11.580  17.983  1.00  0.00     0.065 A 
ATOM      2  C   UNL     1      10.023  11.834  16.972  1.00  0.00     0.208 A 
ATOM      3  O   UNL     1      10.408  11.992  15.712  1.00  0.00    -0.463 OA
ATOM      4  C   UNL     1      11.679  11.926  15.323  1.00  0.00     0.147 A 
ATOM      5  C   UNL     1      12.689  11.677  16.280  1.00  0.00     0.066 A 
ATOM      6  C   UNL     1      12.315  11.494  17.624  1.00  0.00     0.200 A 
ATOM      7  O   UNL     1      13.188  11.235  18.498  1.00  0.00    -0.288 OA
ATOM      8  C   UNL     1      14.029  11.619  15.874  1.00  0.00     0.020 A 
ATOM      9  C   UNL     1      14.368  11.841  14.543  1.00  0.00     0.047 A 
ATOM     10  C   UNL     1      13.387  12.111  13.585  1.00  0.00     0.125 A 
ATOM     11  C   UNL     1      12.013  12.103  13.955  1.00  0.00     0.069 A 
ENDROOT
BRANCH   1  12
ATOM     12  C   UNL     1      10.504  11.409  19.387  1.00  0.00    -0.011 A 
ATOM     13  C   UNL     1      10.523  12.500  20.275  1.00  0.00     0.013 A 
ATOM     14  C   UNL     1      10.105  12.340  21.600  1.00  0.00     0.047 A 
ATOM     15  C   UNL     1       9.669  11.092  22.055  1.00  0.00     0.115 A 
ATOM     16  C   UNL     1      10.070  10.156  19.853  1.00  0.00     0.013 A 
ATOM     17  C   UNL     1       9.654   9.999  21.178  1.00  0.00     0.047 A 
BRANCH  15  18
ATOM     18  O   UNL     1       9.255  10.947  23.377  1.00  0.00    -0.508 OA
ATOM     19  H   UNL     1       9.105  11.750  23.976  1.00  0.00     0.293 HD
ENDBRANCH  15  18
ENDBRANCH   1  12
BRANCH  11  20
ATOM     20  C   UNL     1      10.907  12.318  12.926  1.00  0.00     0.188 C 
ATOM     21  C   UNL     1      10.592  10.992  12.192  1.00  0.00     0.179 C 
ATOM     22  O   UNL     1      11.319  13.315  12.001  1.00  0.00    -0.362 OA
ATOM     23  C   UNL     1       9.514  11.234  11.124  1.00  0.00     0.177 C 
ATOM     24  C   UNL     1      10.274  13.649  11.102  1.00  0.00     0.176 C 
ATOM     25  C   UNL     1       9.911  12.420  10.229  1.00  0.00     0.177 C 
BRANCH  21  26
ATOM     26  O   UNL     1      10.125  10.030  13.104  1.00  0.00    -0.387 OA
ATOM     27  H   UNL     1      10.703  10.088  13.910  1.00  0.00     0.211 HD
ENDBRANCH  21  26
BRANCH  23  28
ATOM     28  O   UNL     1       9.359  10.087  10.328  1.00  0.00    -0.387 OA
ATOM     29  H   UNL     1       8.657   9.531  10.756  1.00  0.00     0.211 HD
ENDBRANCH  23  28
BRANCH  24  30
ATOM     30  C   UNL     1      10.758  14.827  10.241  1.00  0.00     0.191 C 
BRANCH  30  31
ATOM     31  O   UNL     1      11.463  14.380   9.114  1.00  0.00    -0.394 OA
ATOM     32  H   UNL     1      11.663  13.420   9.267  1.00  0.00     0.210 HD
ENDBRANCH  30  31
ENDBRANCH  24  30
BRANCH  25  33
ATOM     33  O   UNL     1       8.876  12.716   9.323  1.00  0.00    -0.388 OA
ATOM     34  H   UNL     1       8.049  12.870   9.851  1.00  0.00     0.211 HD
ENDBRANCH  25  33
ENDBRANCH  11  20
BRANCH  10  35
ATOM     35  O   UNL     1      13.827  12.401  12.291  1.00  0.00    -0.507 OA
ATOM     36  H   UNL     1      13.275  12.267  11.456  1.00  0.00     0.293 HD
ENDBRANCH  10  35
TORSDOF 9
ENDMDL
MODEL 7
REMARK VINA RESULT:    -3.732      1.243      2.105
REMARK INTER + INTRA:          -4.754
REMARK INTER:                  -5.186
REMARK INTRA:                   0.432
REMARK UNBOUND:                 0.286
REMARK SMILES O=c1c(-c2ccc(O)cc2)coc2c([C@H]3O[C@@H](CO)[C@H](O)[C@@H](O)[C@@H]3O)c(O)ccc12
REMARK SMILES IDX 3 1 11 2 12 3 13 4 30 5 2 6 1 7 29 8 28 9 26 10 14 11 4 12
REMARK SMILES IDX 5 13 6 14 7 15 10 16 9 17 8 18 15 20 24 21 16 22 22 23 17 24
REMARK SMILES IDX 20 25 25 26 23 28 18 30 19 31 21 33 27 35
REMARK H PARENT 8 19 25 27 23 29 19 32 21 34 27 36
REMARK Flexibility Score: inf
ROOT
ATOM      1  C   UNL     1      15.213  11.965  15.533  1.00  0.00     0.065 A 
ATOM      2  C   UNL     1      15.109  11.983  14.136  1.00  0.00     0.208 A 
ATOM      3  O   UNL     1      13.924  11.940  13.541  1.00  0.00    -0.463 OA
ATOM      4  C   UNL     1      12.773  11.876  14.207  1.00  0.00     0.147 A 
ATOM      5  C   UNL     1      12.787  11.849  15.620  1.00  0.00     0.066 A 
ATOM      6  C   UNL     1      14.025  11.904  16.285  1.00  0.00     0.200 A 
ATOM      7  O   UNL     1      14.071  11.918  17.546  1.00  0.00    -0.288 OA
ATOM      8  C   UNL     1      11.577  11.770  16.323  1.00  0.00     0.020 A 
ATOM      9  C   UNL     1      10.371  11.680  15.634  1.00  0.00     0.047 A 
ATOM     10  C   UNL     1      10.338  11.681  14.237  1.00  0.00     0.125 A 
ATOM     11  C   UNL     1      11.544  11.836  13.498  1.00  0.00     0.069 A 
ENDROOT
BRANCH   1  12
ATOM     12  C   UNL     1      16.550  12.011  16.178  1.00  0.00    -0.011 A 
ATOM     13  C   UNL     1      16.660  12.026  17.580  1.00  0.00     0.013 A 
ATOM     14  C   UNL     1      17.917  12.079  18.190  1.00  0.00     0.047 A 
ATOM     15  C   UNL     1      19.077  12.124  17.410  1.00  0.00     0.115 A 
ATOM     16  C   UNL     1      17.720  12.063  15.400  1.00  0.00     0.013 A 
ATOM     17  C   UNL     1      18.975  12.117  16.012  1.00  0.00     0.047 A 
BRANCH  15  18
ATOM     18  O   UNL     1      20.323  12.176  18.031  1.00  0.00    -0.508 OA
ATOM     19  H   UNL     1      21.182  12.175  17.495  1.00  0.00     0.293 HD
ENDBRANCH  15  18
ENDBRANCH   1  12
BRANCH  11  20
ATOM     20  C   UNL     1      11.544  11.918  11.974  1.00  0.00     0.188 C 
ATOM     21  C   UNL     1      11.836  13.368  11.516  1.00  0.00     0.179 C 
ATOM     22  O   UNL     1      10.283  11.485  11.484  1.00  0.00    -0.362 OA
ATOM     23  C   UNL     1      11.782  13.448   9.982  1.00  0.00     0.177 C 
ATOM     24  C   UNL     1      10.275  11.414  10.069  1.00  0.00     0.176 C 
ATOM     25  C   UNL     1      10.472  12.830   9.465  1.00  0.00     0.177 C 
BRANCH  21  26
ATOM     26  O   UNL     1      13.111  13.768  11.951  1.00  0.00    -0.387 OA
ATOM     27  H   UNL     1      13.426  14.470  11.322  1.00  0.00     0.211 HD
ENDBRANCH  21  26
BRANCH  23  28
ATOM     28  O   UNL     1      11.856  14.787   9.567  1.00  0.00    -0.387 OA
ATOM     29  H   UNL     1      11.689  14.796   8.588  1.00  0.00     0.211 HD
ENDBRANCH  23  28
BRANCH  24  30
ATOM     30  C   UNL     1       8.932  10.802   9.638  1.00  0.00     0.191 C 
BRANCH  30  31
ATOM     31  O   UNL     1       8.875  10.620   8.249  1.00  0.00    -0.394 OA
ATOM     32  H   UNL     1       8.623   9.673   8.096  1.00  0.00     0.210 HD
ENDBRANCH  30  31
ENDBRANCH  24  30
BRANCH  25  33
ATOM     33  O   UNL     1      10.469  12.798   8.059  1.00  0.00    -0.388 OA
ATOM     34  H   UNL     1      10.672  11.867   7.778  1.00  0.00     0.211 HD
ENDBRANCH  25  33
ENDBRANCH  11  20
BRANCH  10  35
ATOM     35  O   UNL     1       9.090  11.506  13.632  1.00  0.00    -0.507 OA
ATOM     36  H   UNL     1       8.680  10.608  13.416  1.00  0.00     0.293 HD
ENDBRANCH  10  35
TORSDOF 9
ENDMDL
