MODEL 1
REMARK VINA RESULT:     8.436      0.000      0.000
REMARK INTER + INTRA:          11.332
REMARK INTER:                  11.642
REMARK INTRA:                  -0.310
REMARK UNBOUND:                -0.310
REMARK SMILES O=C([O-])[C@@H]1O[C@H](Oc2cc3oc(-c4ccccc4)cc(=O)c3c(O)c2O)[C@@H](O)[C@@H](O)[C@@H]1O
REMARK SMILES IDX 7 1 6 2 4 3 31 4 5 5 29 6 27 7 2 8 1 9 3 10 32 11 30 13
REMARK SMILES IDX 28 15 8 17 25 18 9 19 23 20 10 21 22 22 11 23 20 24 12 25
REMARK SMILES IDX 19 26 21 27 26 28 24 30 13 32 14 33 18 34 15 35 17 36 16 37
REMARK H PARENT 32 12 30 14 28 16 26 29 24 31
REMARK Flexibility Score: inf
ROOT
ATOM      1  O   UNL     1       6.699  12.913   6.804  1.00  0.00    -0.458 OA
ENDROOT
BRANCH   1   2
ATOM      2  C   UNL     1       6.489  13.123   5.403  1.00  0.00     0.339 C 
ATOM      3  C   UNL     1       8.365  11.818   4.720  1.00  0.00     0.199 C 
ATOM      4  C   UNL     1       7.451  10.700   4.155  1.00  0.00     0.180 C 
ATOM      5  O   UNL     1       7.732  13.093   4.711  1.00  0.00    -0.328 OA
ATOM      6  C   UNL     1       6.071  10.695   4.839  1.00  0.00     0.181 C 
ATOM      7  C   UNL     1       5.479  12.114   4.814  1.00  0.00     0.214 C 
BRANCH   3   8
ATOM      8  C   UNL     1       9.023  11.532   6.052  1.00  0.00     0.073 C 
ATOM      9  O   UNL     1       9.148  10.358   6.489  1.00  0.00    -0.547 OA
ATOM     10  O   UNL     1       9.446  12.595   6.840  1.00  0.00    -0.547 OA
ENDBRANCH   3   8
BRANCH   4  11
ATOM     11  O   UNL     1       8.082   9.444   4.198  1.00  0.00    -0.387 OA
ATOM     12  H   UNL     1       8.103   9.128   5.138  1.00  0.00     0.211 HD
ENDBRANCH   4  11
BRANCH   6  13
ATOM     13  O   UNL     1       5.223   9.796   4.173  1.00  0.00    -0.387 OA
ATOM     14  H   UNL     1       4.337   9.856   4.614  1.00  0.00     0.211 HD
ENDBRANCH   6  13
BRANCH   7  15
ATOM     15  O   UNL     1       5.170  12.497   3.497  1.00  0.00    -0.384 OA
ATOM     16  H   UNL     1       5.808  12.027   2.897  1.00  0.00     0.211 HD
ENDBRANCH   7  15
ENDBRANCH   1   2
BRANCH   1  17
ATOM     17  C   UNL     1       5.879  12.230   7.723  1.00  0.00     0.172 A 
ATOM     18  C   UNL     1       6.325  11.208   8.600  1.00  0.00     0.201 A 
ATOM     19  C   UNL     1       4.530  12.587   7.720  1.00  0.00     0.098 A 
ATOM     20  C   UNL     1       5.410  10.606   9.503  1.00  0.00     0.176 A 
ATOM     21  C   UNL     1       3.614  11.964   8.561  1.00  0.00     0.146 A 
ATOM     22  C   UNL     1       4.041  10.965   9.461  1.00  0.00     0.111 A 
ATOM     23  O   UNL     1       2.337  12.323   8.499  1.00  0.00    -0.456 OA
ATOM     24  C   UNL     1       3.059  10.374  10.288  1.00  0.00     0.197 A 
ATOM     25  C   UNL     1       1.386  11.777   9.252  1.00  0.00     0.138 A 
ATOM     26  C   UNL     1       1.728  10.781  10.179  1.00  0.00     0.100 A 
ATOM     27  O   UNL     1       3.353   9.479  11.125  1.00  0.00    -0.289 OA
BRANCH  18  28
ATOM     28  O   UNL     1       7.651  10.777   8.533  1.00  0.00    -0.502 OA
ATOM     29  H   UNL     1       8.078  10.366   7.716  1.00  0.00     0.293 HD
ENDBRANCH  18  28
BRANCH  20  30
ATOM     30  O   UNL     1       5.837   9.669  10.450  1.00  0.00    -0.504 OA
ATOM     31  H   UNL     1       5.303   8.859  10.731  1.00  0.00     0.293 HD
ENDBRANCH  20  30
BRANCH  25  32
ATOM     32  C   UNL     1      -0.009  12.251   9.091  1.00  0.00     0.017 A 
ATOM     33  C   UNL     1      -0.613  12.206   7.822  1.00  0.00     0.012 A 
ATOM     34  C   UNL     1      -0.765  12.709  10.188  1.00  0.00     0.012 A 
ATOM     35  C   UNL     1      -1.935  12.626   7.649  1.00  0.00     0.001 A 
ATOM     36  C   UNL     1      -2.089  13.124  10.010  1.00  0.00     0.001 A 
ATOM     37  C   UNL     1      -2.673  13.084   8.741  1.00  0.00     0.000 A 
ENDBRANCH  25  32
ENDBRANCH   1  17
TORSDOF 9
ENDMDL
