MODEL 1
REMARK VINA RESULT:    -6.558      0.000      0.000
REMARK INTER + INTRA:         -13.838
REMARK INTER:                 -10.774
REMARK INTRA:                  -3.063
REMARK UNBOUND:                -3.063
REMARK SMILES COc1ccc([C@@H]2CC(=O)c3c(O)cc(O[C@H]4O[C@@H](CO[C@H]5O[C@H](C)[C@@H](O)[C@@H](O)[C@H]5O)[C@H](O)[C@H](O)[C@H]4O)cc3O2)cc1O
REMARK SMILES IDX 19 1 32 2 34 3 36 4 17 5 18 6 20 7 21 8 22 9 25 10 24 11
REMARK SMILES IDX 26 12 23 13 28 14 30 15 27 16 29 18 31 20 33 22 35 24 16 26
REMARK SMILES IDX 15 27 14 28 38 29 12 30 39 31 11 32 40 33 9 34 7 35 10 36
REMARK SMILES IDX 8 37 13 38 6 40 41 41 5 42 42 43 4 44 3 45 43 46 2 48 1 49
REMARK SMILES IDX 37 50
REMARK H PARENT 27 17 29 19 31 21 33 23 35 25 13 39 43 47 37 51
REMARK Flexibility Score: inf
ROOT
ATOM      1  C   UNL     1      30.891   7.603  22.691  1.00  0.00     0.180 C 
ATOM      2  C   UNL     1      31.939   7.002  21.720  1.00  0.00     0.177 C 
ATOM      3  C   UNL     1      31.598   5.543  21.377  1.00  0.00     0.180 C 
ATOM      4  C   UNL     1      30.139   5.450  20.918  1.00  0.00     0.214 C 
ATOM      5  C   UNL     1      29.208   6.069  21.983  1.00  0.00     0.339 C 
ATOM      6  O   UNL     1      29.551   7.421  22.249  1.00  0.00    -0.332 OA
ENDROOT
BRANCH   1   7
ATOM      7  C   UNL     1      31.098   7.164  24.157  1.00  0.00     0.198 C 
BRANCH   7   8
ATOM      8  O   UNL     1      31.209   8.314  24.973  1.00  0.00    -0.347 OA
BRANCH   8   9
ATOM      9  C   UNL     1      30.044   9.125  24.908  1.00  0.00     0.281 C 
ATOM     10  C   UNL     1      28.752   8.483  28.299  1.00  0.00     0.041 C 
ATOM     11  C   UNL     1      29.741   8.971  27.239  1.00  0.00     0.150 C 
ATOM     12  C   UNL     1      30.093  10.459  27.482  1.00  0.00     0.174 C 
ATOM     13  O   UNL     1      29.153   8.784  25.959  1.00  0.00    -0.344 OA
ATOM     14  C   UNL     1      30.976  11.017  26.341  1.00  0.00     0.179 C 
ATOM     15  C   UNL     1      30.394  10.631  24.972  1.00  0.00     0.202 C 
BRANCH  12  16
ATOM     16  O   UNL     1      30.745  10.605  28.720  1.00  0.00    -0.388 OA
ATOM     17  H   UNL     1      30.155  10.202  29.409  1.00  0.00     0.211 HD
ENDBRANCH  12  16
BRANCH  14  18
ATOM     18  O   UNL     1      32.329  10.633  26.453  1.00  0.00    -0.387 OA
ATOM     19  H   UNL     1      32.901  11.354  26.086  1.00  0.00     0.211 HD
ENDBRANCH  14  18
BRANCH  15  20
ATOM     20  O   UNL     1      31.293  10.993  23.957  1.00  0.00    -0.385 OA
ATOM     21  H   UNL     1      30.797  10.932  23.100  1.00  0.00     0.211 HD
ENDBRANCH  15  20
ENDBRANCH   8   9
ENDBRANCH   7   8
ENDBRANCH   1   7
BRANCH   2  22
ATOM     22  O   UNL     1      31.986   7.760  20.536  1.00  0.00    -0.387 OA
ATOM     23  H   UNL     1      32.481   8.594  20.746  1.00  0.00     0.211 HD
ENDBRANCH   2  22
BRANCH   3  24
ATOM     24  O   UNL     1      32.443   5.081  20.354  1.00  0.00    -0.387 OA
ATOM     25  H   UNL     1      33.200   4.617  20.795  1.00  0.00     0.211 HD
ENDBRANCH   3  24
BRANCH   5  26
ATOM     26  O   UNL     1      29.199   5.310  23.199  1.00  0.00    -0.462 OA
BRANCH  26  27
ATOM     27  C   UNL     1      28.347   5.503  24.300  1.00  0.00     0.130 A 
ATOM     28  C   UNL     1      28.717   4.926  25.520  1.00  0.00     0.093 A 
ATOM     29  C   UNL     1      27.158   6.249  24.231  1.00  0.00     0.094 A 
ATOM     30  C   UNL     1      27.901   5.051  26.654  1.00  0.00     0.133 A 
ATOM     31  C   UNL     1      26.347   6.397  25.358  1.00  0.00     0.138 A 
ATOM     32  C   UNL     1      26.699   5.785  26.573  1.00  0.00     0.102 A 
ATOM     33  O   UNL     1      25.170   7.148  25.256  1.00  0.00    -0.484 OA
ATOM     34  C   UNL     1      25.754   5.904  27.709  1.00  0.00     0.174 C 
ATOM     35  C   UNL     1      24.454   7.619  26.400  1.00  0.00     0.211 C 
ATOM     36  O   UNL     1      26.033   5.432  28.843  1.00  0.00    -0.294 OA
ATOM     37  C   UNL     1      24.403   6.527  27.489  1.00  0.00     0.131 C 
BRANCH  30  38
ATOM     38  O   UNL     1      28.278   4.435  27.845  1.00  0.00    -0.507 OA
ATOM     39  H   UNL     1      29.241   4.168  28.029  1.00  0.00     0.293 HD
ENDBRANCH  30  38
BRANCH  35  40
ATOM     40  C   UNL     1      25.026   8.962  26.832  1.00  0.00    -0.003 A 
ATOM     41  C   UNL     1      25.810   9.671  25.907  1.00  0.00     0.057 A 
ATOM     42  C   UNL     1      24.824   9.521  28.111  1.00  0.00     0.011 A 
ATOM     43  C   UNL     1      26.364  10.914  26.230  1.00  0.00     0.158 A 
ATOM     44  C   UNL     1      25.372  10.764  28.439  1.00  0.00     0.051 A 
ATOM     45  C   UNL     1      26.142  11.476  27.500  1.00  0.00     0.160 A 
BRANCH  43  46
ATOM     46  O   UNL     1      27.135  11.575  25.274  1.00  0.00    -0.504 OA
ATOM     47  H   UNL     1      27.972  11.165  24.878  1.00  0.00     0.293 HD
ENDBRANCH  43  46
BRANCH  45  48
ATOM     48  O   UNL     1      26.699  12.730  27.795  1.00  0.00    -0.493 OA
ATOM     49  C   UNL     1      27.580  12.985  28.883  1.00  0.00     0.278 C 
ENDBRANCH  45  48
ENDBRANCH  35  40
ENDBRANCH  26  27
ENDBRANCH   5  26
BRANCH   4  50
ATOM     50  O   UNL     1      29.789   4.110  20.688  1.00  0.00    -0.384 OA
ATOM     51  H   UNL     1      30.630   3.617  20.508  1.00  0.00     0.211 HD
ENDBRANCH   4  50
TORSDOF 15
ENDMDL
MODEL 2
REMARK VINA RESULT:    -6.252      3.429      6.810
REMARK INTER + INTRA:         -13.336
REMARK INTER:                 -11.137
REMARK INTRA:                  -2.199
REMARK UNBOUND:                -3.063
REMARK SMILES COc1ccc([C@@H]2CC(=O)c3c(O)cc(O[C@H]4O[C@@H](CO[C@H]5O[C@H](C)[C@@H](O)[C@@H](O)[C@H]5O)[C@H](O)[C@H](O)[C@H]4O)cc3O2)cc1O
REMARK SMILES IDX 19 1 32 2 34 3 36 4 17 5 18 6 20 7 21 8 22 9 25 10 24 11
REMARK SMILES IDX 26 12 23 13 28 14 30 15 27 16 29 18 31 20 33 22 35 24 16 26
REMARK SMILES IDX 15 27 14 28 38 29 12 30 39 31 11 32 40 33 9 34 7 35 10 36
REMARK SMILES IDX 8 37 13 38 6 40 41 41 5 42 42 43 4 44 3 45 43 46 2 48 1 49
REMARK SMILES IDX 37 50
REMARK H PARENT 27 17 29 19 31 21 33 23 35 25 13 39 43 47 37 51
REMARK Flexibility Score: inf
ROOT
ATOM      1  C   UNL     1      29.200   8.349  26.694  1.00  0.00     0.180 C 
ATOM      2  C   UNL     1      30.230   8.436  25.537  1.00  0.00     0.177 C 
ATOM      3  C   UNL     1      30.307   9.866  24.977  1.00  0.00     0.180 C 
ATOM      4  C   UNL     1      30.515  10.858  26.127  1.00  0.00     0.214 C 
ATOM      5  C   UNL     1      29.415  10.671  27.193  1.00  0.00     0.339 C 
ATOM      6  O   UNL     1      29.398   9.342  27.694  1.00  0.00    -0.332 OA
ENDROOT
BRANCH   1   7
ATOM      7  C   UNL     1      27.738   8.282  26.202  1.00  0.00     0.198 C 
BRANCH   7   8
ATOM      8  O   UNL     1      26.932   7.727  27.223  1.00  0.00    -0.347 OA
BRANCH   8   9
ATOM      9  C   UNL     1      25.958   6.833  26.702  1.00  0.00     0.281 C 
ATOM     10  C   UNL     1      27.518   3.665  27.753  1.00  0.00     0.041 C 
ATOM     11  C   UNL     1      26.870   5.040  27.926  1.00  0.00     0.150 C 
ATOM     12  C   UNL     1      25.653   4.939  28.877  1.00  0.00     0.174 C 
ATOM     13  O   UNL     1      26.485   5.516  26.644  1.00  0.00    -0.344 OA
ATOM     14  C   UNL     1      24.893   6.286  28.954  1.00  0.00     0.179 C 
ATOM     15  C   UNL     1      24.659   6.852  27.545  1.00  0.00     0.202 C 
BRANCH  12  16
ATOM     16  O   UNL     1      26.072   4.543  30.160  1.00  0.00    -0.388 OA
ATOM     17  H   UNL     1      27.052   4.694  30.205  1.00  0.00     0.211 HD
ENDBRANCH  12  16
BRANCH  14  18
ATOM     18  O   UNL     1      25.525   7.229  29.791  1.00  0.00    -0.387 OA
ATOM     19  H   UNL     1      25.200   7.107  30.718  1.00  0.00     0.211 HD
ENDBRANCH  14  18
BRANCH  15  20
ATOM     20  O   UNL     1      24.127   8.147  27.638  1.00  0.00    -0.385 OA
ATOM     21  H   UNL     1      24.654   8.625  28.329  1.00  0.00     0.211 HD
ENDBRANCH  15  20
ENDBRANCH   8   9
ENDBRANCH   7   8
ENDBRANCH   1   7
BRANCH   2  22
ATOM     22  O   UNL     1      31.500   8.046  25.997  1.00  0.00    -0.387 OA
ATOM     23  H   UNL     1      31.366   7.593  26.869  1.00  0.00     0.211 HD
ENDBRANCH   2  22
BRANCH   3  24
ATOM     24  O   UNL     1      31.375   9.967  24.070  1.00  0.00    -0.387 OA
ATOM     25  H   UNL     1      32.178  10.208  24.600  1.00  0.00     0.211 HD
ENDBRANCH   3  24
BRANCH   5  26
ATOM     26  O   UNL     1      28.118  11.034  26.702  1.00  0.00    -0.462 OA
BRANCH  26  27
ATOM     27  C   UNL     1      27.056  11.565  27.454  1.00  0.00     0.130 A 
ATOM     28  C   UNL     1      27.338  12.627  28.321  1.00  0.00     0.093 A 
ATOM     29  C   UNL     1      25.738  11.086  27.366  1.00  0.00     0.094 A 
ATOM     30  C   UNL     1      26.334  13.186  29.126  1.00  0.00     0.133 A 
ATOM     31  C   UNL     1      24.726  11.648  28.149  1.00  0.00     0.138 A 
ATOM     32  C   UNL     1      25.016  12.689  29.047  1.00  0.00     0.102 A 
ATOM     33  O   UNL     1      23.423  11.149  28.037  1.00  0.00    -0.484 OA
ATOM     34  C   UNL     1      23.919  13.183  29.913  1.00  0.00     0.174 C 
ATOM     35  C   UNL     1      22.283  11.850  28.538  1.00  0.00     0.211 C 
ATOM     36  O   UNL     1      24.094  14.152  30.699  1.00  0.00    -0.294 OA
ATOM     37  C   UNL     1      22.596  12.468  29.918  1.00  0.00     0.131 C 
BRANCH  30  38
ATOM     38  O   UNL     1      26.653  14.218  30.006  1.00  0.00    -0.507 OA
ATOM     39  H   UNL     1      27.242  14.997  29.727  1.00  0.00     0.293 HD
ENDBRANCH  30  38
BRANCH  35  40
ATOM     40  C   UNL     1      21.780  12.817  27.476  1.00  0.00    -0.003 A 
ATOM     41  C   UNL     1      21.467  12.298  26.209  1.00  0.00     0.057 A 
ATOM     42  C   UNL     1      21.630  14.203  27.691  1.00  0.00     0.011 A 
ATOM     43  C   UNL     1      20.993  13.124  25.185  1.00  0.00     0.158 A 
ATOM     44  C   UNL     1      21.154  15.034  26.673  1.00  0.00     0.051 A 
ATOM     45  C   UNL     1      20.825  14.502  25.412  1.00  0.00     0.160 A 
BRANCH  43  46
ATOM     46  O   UNL     1      20.697  12.556  23.946  1.00  0.00    -0.504 OA
ATOM     47  H   UNL     1      19.748  12.460  23.608  1.00  0.00     0.293 HD
ENDBRANCH  43  46
BRANCH  45  48
ATOM     48  O   UNL     1      20.338  15.308  24.371  1.00  0.00    -0.493 OA
ATOM     49  C   UNL     1      19.194  16.148  24.470  1.00  0.00     0.278 C 
ENDBRANCH  45  48
ENDBRANCH  35  40
ENDBRANCH  26  27
ENDBRANCH   5  26
BRANCH   4  50
ATOM     50  O   UNL     1      30.497  12.174  25.638  1.00  0.00    -0.384 OA
ATOM     51  H   UNL     1      31.396  12.558  25.807  1.00  0.00     0.211 HD
ENDBRANCH   4  50
TORSDOF 15
ENDMDL
MODEL 3
REMARK VINA RESULT:    -6.117      2.376      7.541
REMARK INTER + INTRA:         -13.113
REMARK INTER:                 -10.263
REMARK INTRA:                  -2.850
REMARK UNBOUND:                -3.063
REMARK SMILES COc1ccc([C@@H]2CC(=O)c3c(O)cc(O[C@H]4O[C@@H](CO[C@H]5O[C@H](C)[C@@H](O)[C@@H](O)[C@H]5O)[C@H](O)[C@H](O)[C@H]4O)cc3O2)cc1O
REMARK SMILES IDX 19 1 32 2 34 3 36 4 17 5 18 6 20 7 21 8 22 9 25 10 24 11
REMARK SMILES IDX 26 12 23 13 28 14 30 15 27 16 29 18 31 20 33 22 35 24 16 26
REMARK SMILES IDX 15 27 14 28 38 29 12 30 39 31 11 32 40 33 9 34 7 35 10 36
REMARK SMILES IDX 8 37 13 38 6 40 41 41 5 42 42 43 4 44 3 45 43 46 2 48 1 49
REMARK SMILES IDX 37 50
REMARK H PARENT 27 17 29 19 31 21 33 23 35 25 13 39 43 47 37 51
REMARK Flexibility Score: inf
ROOT
ATOM      1  C   UNL     1      27.287   7.256  27.274  1.00  0.00     0.180 C 
ATOM      2  C   UNL     1      25.931   7.282  28.025  1.00  0.00     0.177 C 
ATOM      3  C   UNL     1      25.257   5.901  27.990  1.00  0.00     0.180 C 
ATOM      4  C   UNL     1      26.252   4.831  28.454  1.00  0.00     0.214 C 
ATOM      5  C   UNL     1      27.544   4.910  27.613  1.00  0.00     0.339 C 
ATOM      6  O   UNL     1      28.139   6.197  27.694  1.00  0.00    -0.332 OA
ENDROOT
BRANCH   1   7
ATOM      7  C   UNL     1      27.133   7.322  25.739  1.00  0.00     0.198 C 
BRANCH   7   8
ATOM      8  O   UNL     1      28.390   7.614  25.160  1.00  0.00    -0.347 OA
BRANCH   8   9
ATOM      9  C   UNL     1      28.361   8.820  24.410  1.00  0.00     0.281 C 
ATOM     10  C   UNL     1      29.484  11.126  27.055  1.00  0.00     0.041 C 
ATOM     11  C   UNL     1      29.577   9.952  26.080  1.00  0.00     0.150 C 
ATOM     12  C   UNL     1      30.847  10.085  25.205  1.00  0.00     0.174 C 
ATOM     13  O   UNL     1      28.401   9.939  25.283  1.00  0.00    -0.344 OA
ATOM     14  C   UNL     1      30.888   8.989  24.113  1.00  0.00     0.179 C 
ATOM     15  C   UNL     1      29.531   8.890  23.399  1.00  0.00     0.202 C 
BRANCH  12  16
ATOM     16  O   UNL     1      31.998  10.014  26.010  1.00  0.00    -0.388 OA
ATOM     17  H   UNL     1      32.776   9.926  25.398  1.00  0.00     0.211 HD
ENDBRANCH  12  16
BRANCH  14  18
ATOM     18  O   UNL     1      31.305   7.735  24.605  1.00  0.00    -0.387 OA
ATOM     19  H   UNL     1      30.841   7.019  24.101  1.00  0.00     0.211 HD
ENDBRANCH  14  18
BRANCH  15  20
ATOM     20  O   UNL     1      29.531   7.783  22.536  1.00  0.00    -0.385 OA
ATOM     21  H   UNL     1      30.463   7.447  22.500  1.00  0.00     0.211 HD
ENDBRANCH  15  20
ENDBRANCH   8   9
ENDBRANCH   7   8
ENDBRANCH   1   7
BRANCH   2  22
ATOM     22  O   UNL     1      26.132   7.669  29.362  1.00  0.00    -0.387 OA
ATOM     23  H   UNL     1      26.922   7.169  29.693  1.00  0.00     0.211 HD
ENDBRANCH   2  22
BRANCH   3  24
ATOM     24  O   UNL     1      24.134   5.894  28.834  1.00  0.00    -0.387 OA
ATOM     25  H   UNL     1      24.427   6.274  29.702  1.00  0.00     0.211 HD
ENDBRANCH   3  24
BRANCH   5  26
ATOM     26  O   UNL     1      27.321   4.551  26.243  1.00  0.00    -0.462 OA
BRANCH  26  27
ATOM     27  C   UNL     1      28.140   3.732  25.447  1.00  0.00     0.130 A 
ATOM     28  C   UNL     1      27.522   2.732  24.688  1.00  0.00     0.093 A 
ATOM     29  C   UNL     1      29.536   3.879  25.377  1.00  0.00     0.094 A 
ATOM     30  C   UNL     1      28.279   1.858  23.895  1.00  0.00     0.133 A 
ATOM     31  C   UNL     1      30.299   3.026  24.576  1.00  0.00     0.138 A 
ATOM     32  C   UNL     1      29.682   1.998  23.843  1.00  0.00     0.102 A 
ATOM     33  O   UNL     1      31.687   3.199  24.526  1.00  0.00    -0.484 OA
ATOM     34  C   UNL     1      30.553   1.070  23.082  1.00  0.00     0.174 C 
ATOM     35  C   UNL     1      32.503   2.605  23.514  1.00  0.00     0.211 C 
ATOM     36  O   UNL     1      30.065   0.163  22.356  1.00  0.00    -0.294 OA
ATOM     37  C   UNL     1      32.046   1.157  23.237  1.00  0.00     0.131 C 
BRANCH  30  38
ATOM     38  O   UNL     1      27.639   0.849  23.178  1.00  0.00    -0.507 OA
ATOM     39  H   UNL     1      26.656   0.634  23.318  1.00  0.00     0.293 HD
ENDBRANCH  30  38
BRANCH  35  40
ATOM     40  C   UNL     1      32.554   3.528  22.304  1.00  0.00    -0.003 A 
ATOM     41  C   UNL     1      32.393   4.907  22.522  1.00  0.00     0.057 A 
ATOM     42  C   UNL     1      32.738   3.072  20.982  1.00  0.00     0.011 A 
ATOM     43  C   UNL     1      32.435   5.817  21.460  1.00  0.00     0.158 A 
ATOM     44  C   UNL     1      32.784   3.977  19.918  1.00  0.00     0.051 A 
ATOM     45  C   UNL     1      32.639   5.358  20.147  1.00  0.00     0.160 A 
BRANCH  43  46
ATOM     46  O   UNL     1      32.268   7.174  21.733  1.00  0.00    -0.504 OA
ATOM     47  H   UNL     1      32.635   7.896  21.124  1.00  0.00     0.293 HD
ENDBRANCH  43  46
BRANCH  45  48
ATOM     48  O   UNL     1      32.688   6.292  19.101  1.00  0.00    -0.493 OA
ATOM     49  C   UNL     1      31.591   6.614  18.254  1.00  0.00     0.278 C 
ENDBRANCH  45  48
ENDBRANCH  35  40
ENDBRANCH  26  27
ENDBRANCH   5  26
BRANCH   4  50
ATOM     50  O   UNL     1      25.678   3.556  28.341  1.00  0.00    -0.384 OA
ATOM     51  H   UNL     1      24.875   3.649  27.766  1.00  0.00     0.211 HD
ENDBRANCH   4  50
TORSDOF 15
ENDMDL
MODEL 4
REMARK VINA RESULT:    -6.114      1.991      7.046
REMARK INTER + INTRA:         -13.109
REMARK INTER:                 -10.636
REMARK INTRA:                  -2.473
REMARK UNBOUND:                -3.063
REMARK SMILES COc1ccc([C@@H]2CC(=O)c3c(O)cc(O[C@H]4O[C@@H](CO[C@H]5O[C@H](C)[C@@H](O)[C@@H](O)[C@H]5O)[C@H](O)[C@H](O)[C@H]4O)cc3O2)cc1O
REMARK SMILES IDX 19 1 32 2 34 3 36 4 17 5 18 6 20 7 21 8 22 9 25 10 24 11
REMARK SMILES IDX 26 12 23 13 28 14 30 15 27 16 29 18 31 20 33 22 35 24 16 26
REMARK SMILES IDX 15 27 14 28 38 29 12 30 39 31 11 32 40 33 9 34 7 35 10 36
REMARK SMILES IDX 8 37 13 38 6 40 41 41 5 42 42 43 4 44 3 45 43 46 2 48 1 49
REMARK SMILES IDX 37 50
REMARK H PARENT 27 17 29 19 31 21 33 23 35 25 13 39 43 47 37 51
REMARK Flexibility Score: inf
ROOT
ATOM      1  C   UNL     1      25.261   6.870  28.819  1.00  0.00     0.180 C 
ATOM      2  C   UNL     1      24.706   5.728  29.710  1.00  0.00     0.177 C 
ATOM      3  C   UNL     1      25.018   4.353  29.099  1.00  0.00     0.180 C 
ATOM      4  C   UNL     1      26.511   4.266  28.762  1.00  0.00     0.214 C 
ATOM      5  C   UNL     1      26.920   5.450  27.861  1.00  0.00     0.339 C 
ATOM      6  O   UNL     1      26.631   6.696  28.478  1.00  0.00    -0.332 OA
ENDROOT
BRANCH   1   7
ATOM      7  C   UNL     1      24.375   7.167  27.590  1.00  0.00     0.198 C 
BRANCH   7   8
ATOM      8  O   UNL     1      24.760   8.407  27.031  1.00  0.00    -0.347 OA
BRANCH   8   9
ATOM      9  C   UNL     1      24.709   9.458  27.986  1.00  0.00     0.281 C 
ATOM     10  C   UNL     1      27.774  11.243  26.989  1.00  0.00     0.041 C 
ATOM     11  C   UNL     1      26.367  10.665  26.828  1.00  0.00     0.150 C 
ATOM     12  C   UNL     1      25.384  11.773  26.375  1.00  0.00     0.174 C 
ATOM     13  O   UNL     1      25.971  10.102  28.072  1.00  0.00    -0.344 OA
ATOM     14  C   UNL     1      23.929  11.248  26.347  1.00  0.00     0.179 C 
ATOM     15  C   UNL     1      23.605  10.488  27.642  1.00  0.00     0.202 C 
BRANCH  12  16
ATOM     16  O   UNL     1      25.753  12.256  25.107  1.00  0.00    -0.388 OA
ATOM     17  H   UNL     1      24.921  12.555  24.656  1.00  0.00     0.211 HD
ENDBRANCH  12  16
BRANCH  14  18
ATOM     18  O   UNL     1      23.645  10.468  25.206  1.00  0.00    -0.387 OA
ATOM     19  H   UNL     1      23.849  10.998  24.394  1.00  0.00     0.211 HD
ENDBRANCH  14  18
BRANCH  15  20
ATOM     20  O   UNL     1      22.348   9.875  27.529  1.00  0.00    -0.385 OA
ATOM     21  H   UNL     1      22.219   9.658  26.570  1.00  0.00     0.211 HD
ENDBRANCH  15  20
ENDBRANCH   8   9
ENDBRANCH   7   8
ENDBRANCH   1   7
BRANCH   2  22
ATOM     22  O   UNL     1      25.272   5.806  30.996  1.00  0.00    -0.387 OA
ATOM     23  H   UNL     1      24.814   5.125  31.555  1.00  0.00     0.211 HD
ENDBRANCH   2  22
BRANCH   3  24
ATOM     24  O   UNL     1      24.682   3.337  30.008  1.00  0.00    -0.387 OA
ATOM     25  H   UNL     1      23.982   2.784  29.575  1.00  0.00     0.211 HD
ENDBRANCH   3  24
BRANCH   5  26
ATOM     26  O   UNL     1      26.307   5.382  26.567  1.00  0.00    -0.462 OA
BRANCH  26  27
ATOM     27  C   UNL     1      26.854   5.840  25.356  1.00  0.00     0.130 A 
ATOM     28  C   UNL     1      25.968   6.249  24.353  1.00  0.00     0.093 A 
ATOM     29  C   UNL     1      28.237   5.911  25.115  1.00  0.00     0.094 A 
ATOM     30  C   UNL     1      26.441   6.688  23.108  1.00  0.00     0.133 A 
ATOM     31  C   UNL     1      28.720   6.364  23.886  1.00  0.00     0.138 A 
ATOM     32  C   UNL     1      27.830   6.739  22.865  1.00  0.00     0.102 A 
ATOM     33  O   UNL     1      30.104   6.424  23.678  1.00  0.00    -0.484 OA
ATOM     34  C   UNL     1      28.402   7.127  21.554  1.00  0.00     0.174 C 
ATOM     35  C   UNL     1      30.691   7.160  22.603  1.00  0.00     0.211 C 
ATOM     36  O   UNL     1      27.665   7.530  20.614  1.00  0.00    -0.294 OA
ATOM     37  C   UNL     1      29.876   6.962  21.308  1.00  0.00     0.131 C 
BRANCH  30  38
ATOM     38  O   UNL     1      25.533   7.054  22.117  1.00  0.00    -0.507 OA
ATOM     39  H   UNL     1      24.546   7.188  22.317  1.00  0.00     0.293 HD
ENDBRANCH  30  38
BRANCH  35  40
ATOM     40  C   UNL     1      30.904   8.603  23.039  1.00  0.00    -0.003 A 
ATOM     41  C   UNL     1      31.090   8.855  24.409  1.00  0.00     0.057 A 
ATOM     42  C   UNL     1      30.909   9.695  22.147  1.00  0.00     0.011 A 
ATOM     43  C   UNL     1      31.298  10.154  24.884  1.00  0.00     0.158 A 
ATOM     44  C   UNL     1      31.119  10.995  22.615  1.00  0.00     0.051 A 
ATOM     45  C   UNL     1      31.322  11.237  23.986  1.00  0.00     0.160 A 
BRANCH  43  46
ATOM     46  O   UNL     1      31.476  10.348  26.253  1.00  0.00    -0.504 OA
ATOM     47  H   UNL     1      32.331  10.730  26.638  1.00  0.00     0.293 HD
ENDBRANCH  43  46
BRANCH  45  48
ATOM     48  O   UNL     1      31.544  12.529  24.487  1.00  0.00    -0.493 OA
ATOM     49  C   UNL     1      31.320  13.728  23.754  1.00  0.00     0.278 C 
ENDBRANCH  45  48
ENDBRANCH  35  40
ENDBRANCH  26  27
ENDBRANCH   5  26
BRANCH   4  50
ATOM     50  O   UNL     1      26.791   3.050  28.121  1.00  0.00    -0.384 OA
ATOM     51  H   UNL     1      27.636   3.176  27.615  1.00  0.00     0.211 HD
ENDBRANCH   4  50
TORSDOF 15
ENDMDL
MODEL 5
REMARK VINA RESULT:    -6.057      1.996      8.542
REMARK INTER + INTRA:         -13.015
REMARK INTER:                 -10.621
REMARK INTRA:                  -2.394
REMARK UNBOUND:                -3.063
REMARK SMILES COc1ccc([C@@H]2CC(=O)c3c(O)cc(O[C@H]4O[C@@H](CO[C@H]5O[C@H](C)[C@@H](O)[C@@H](O)[C@H]5O)[C@H](O)[C@H](O)[C@H]4O)cc3O2)cc1O
REMARK SMILES IDX 19 1 32 2 34 3 36 4 17 5 18 6 20 7 21 8 22 9 25 10 24 11
REMARK SMILES IDX 26 12 23 13 28 14 30 15 27 16 29 18 31 20 33 22 35 24 16 26
REMARK SMILES IDX 15 27 14 28 38 29 12 30 39 31 11 32 40 33 9 34 7 35 10 36
REMARK SMILES IDX 8 37 13 38 6 40 41 41 5 42 42 43 4 44 3 45 43 46 2 48 1 49
REMARK SMILES IDX 37 50
REMARK H PARENT 27 17 29 19 31 21 33 23 35 25 13 39 43 47 37 51
REMARK Flexibility Score: inf
ROOT
ATOM      1  C   UNL     1      23.773  10.555  28.006  1.00  0.00     0.180 C 
ATOM      2  C   UNL     1      22.941  11.373  29.026  1.00  0.00     0.177 C 
ATOM      3  C   UNL     1      23.736  12.587  29.536  1.00  0.00     0.180 C 
ATOM      4  C   UNL     1      24.288  13.377  28.344  1.00  0.00     0.214 C 
ATOM      5  C   UNL     1      25.105  12.445  27.424  1.00  0.00     0.339 C 
ATOM      6  O   UNL     1      24.322  11.353  26.964  1.00  0.00    -0.332 OA
ENDROOT
BRANCH   1   7
ATOM      7  C   UNL     1      24.825   9.641  28.672  1.00  0.00     0.198 C 
BRANCH   7   8
ATOM      8  O   UNL     1      25.352   8.758  27.701  1.00  0.00    -0.347 OA
BRANCH   8   9
ATOM      9  C   UNL     1      24.680   7.506  27.702  1.00  0.00     0.281 C 
ATOM     10  C   UNL     1      25.519   6.440  24.277  1.00  0.00     0.041 C 
ATOM     11  C   UNL     1      25.781   6.851  25.726  1.00  0.00     0.150 C 
ATOM     12  C   UNL     1      26.632   5.772  26.440  1.00  0.00     0.174 C 
ATOM     13  O   UNL     1      24.529   7.031  26.373  1.00  0.00    -0.344 OA
ATOM     14  C   UNL     1      26.788   6.092  27.946  1.00  0.00     0.179 C 
ATOM     15  C   UNL     1      25.429   6.459  28.562  1.00  0.00     0.202 C 
BRANCH  12  16
ATOM     16  O   UNL     1      27.895   5.670  25.830  1.00  0.00    -0.388 OA
ATOM     17  H   UNL     1      28.290   4.807  26.123  1.00  0.00     0.211 HD
ENDBRANCH  12  16
BRANCH  14  18
ATOM     18  O   UNL     1      27.755   7.087  28.201  1.00  0.00    -0.387 OA
ATOM     19  H   UNL     1      28.218   6.876  29.052  1.00  0.00     0.211 HD
ENDBRANCH  14  18
BRANCH  15  20
ATOM     20  O   UNL     1      25.613   6.911  29.878  1.00  0.00    -0.385 OA
ATOM     21  H   UNL     1      26.013   6.160  30.386  1.00  0.00     0.211 HD
ENDBRANCH  15  20
ENDBRANCH   8   9
ENDBRANCH   7   8
ENDBRANCH   1   7
BRANCH   2  22
ATOM     22  O   UNL     1      21.748  11.816  28.427  1.00  0.00    -0.387 OA
ATOM     23  H   UNL     1      21.187  11.012  28.271  1.00  0.00     0.211 HD
ENDBRANCH   2  22
BRANCH   3  24
ATOM     24  O   UNL     1      22.903  13.417  30.304  1.00  0.00    -0.387 OA
ATOM     25  H   UNL     1      22.450  14.031  29.671  1.00  0.00     0.211 HD
ENDBRANCH   3  24
BRANCH   5  26
ATOM     26  O   UNL     1      26.299  11.969  28.059  1.00  0.00    -0.462 OA
BRANCH  26  27
ATOM     27  C   UNL     1      27.552  11.779  27.451  1.00  0.00     0.130 A 
ATOM     28  C   UNL     1      28.652  11.545  28.284  1.00  0.00     0.093 A 
ATOM     29  C   UNL     1      27.743  11.806  26.059  1.00  0.00     0.094 A 
ATOM     30  C   UNL     1      29.938  11.378  27.750  1.00  0.00     0.133 A 
ATOM     31  C   UNL     1      29.016  11.622  25.514  1.00  0.00     0.138 A 
ATOM     32  C   UNL     1      30.127  11.425  26.353  1.00  0.00     0.102 A 
ATOM     33  O   UNL     1      29.173  11.653  24.124  1.00  0.00    -0.484 OA
ATOM     34  C   UNL     1      31.464  11.324  25.720  1.00  0.00     0.174 C 
ATOM     35  C   UNL     1      30.345  11.166  23.468  1.00  0.00     0.211 C 
ATOM     36  O   UNL     1      32.494  11.089  26.405  1.00  0.00    -0.294 OA
ATOM     37  C   UNL     1      31.610  11.587  24.247  1.00  0.00     0.131 C 
BRANCH  30  38
ATOM     38  O   UNL     1      31.019  11.183  28.607  1.00  0.00    -0.507 OA
ATOM     39  H   UNL     1      31.666  10.409  28.485  1.00  0.00     0.293 HD
ENDBRANCH  30  38
BRANCH  35  40
ATOM     40  C   UNL     1      30.192   9.673  23.209  1.00  0.00    -0.003 A 
ATOM     41  C   UNL     1      31.356   8.926  22.963  1.00  0.00     0.057 A 
ATOM     42  C   UNL     1      28.948   9.009  23.185  1.00  0.00     0.011 A 
ATOM     43  C   UNL     1      31.294   7.549  22.723  1.00  0.00     0.158 A 
ATOM     44  C   UNL     1      28.880   7.634  22.949  1.00  0.00     0.051 A 
ATOM     45  C   UNL     1      30.052   6.889  22.722  1.00  0.00     0.160 A 
BRANCH  43  46
ATOM     46  O   UNL     1      32.480   6.855  22.484  1.00  0.00    -0.504 OA
ATOM     47  H   UNL     1      33.061   6.504  23.236  1.00  0.00     0.293 HD
ENDBRANCH  43  46
BRANCH  45  48
ATOM     48  O   UNL     1      30.019   5.505  22.489  1.00  0.00    -0.493 OA
ATOM     49  C   UNL     1      30.328   4.516  23.464  1.00  0.00     0.278 C 
ENDBRANCH  45  48
ENDBRANCH  35  40
ENDBRANCH  26  27
ENDBRANCH   5  26
BRANCH   4  50
ATOM     50  O   UNL     1      25.091  14.436  28.797  1.00  0.00    -0.384 OA
ATOM     51  H   UNL     1      25.917  14.034  29.171  1.00  0.00     0.211 HD
ENDBRANCH   4  50
TORSDOF 15
ENDMDL
MODEL 6
REMARK VINA RESULT:    -6.022      3.242      6.609
REMARK INTER + INTRA:         -12.958
REMARK INTER:                 -10.073
REMARK INTRA:                  -2.885
REMARK UNBOUND:                -3.063
REMARK SMILES COc1ccc([C@@H]2CC(=O)c3c(O)cc(O[C@H]4O[C@@H](CO[C@H]5O[C@H](C)[C@@H](O)[C@@H](O)[C@H]5O)[C@H](O)[C@H](O)[C@H]4O)cc3O2)cc1O
REMARK SMILES IDX 19 1 32 2 34 3 36 4 17 5 18 6 20 7 21 8 22 9 25 10 24 11
REMARK SMILES IDX 26 12 23 13 28 14 30 15 27 16 29 18 31 20 33 22 35 24 16 26
REMARK SMILES IDX 15 27 14 28 38 29 12 30 39 31 11 32 40 33 9 34 7 35 10 36
REMARK SMILES IDX 8 37 13 38 6 40 41 41 5 42 42 43 4 44 3 45 43 46 2 48 1 49
REMARK SMILES IDX 37 50
REMARK H PARENT 27 17 29 19 31 21 33 23 35 25 13 39 43 47 37 51
REMARK Flexibility Score: inf
ROOT
ATOM      1  C   UNL     1      29.680   9.687  25.451  1.00  0.00     0.180 C 
ATOM      2  C   UNL     1      31.193  10.015  25.372  1.00  0.00     0.177 C 
ATOM      3  C   UNL     1      31.577  11.090  26.401  1.00  0.00     0.180 C 
ATOM      4  C   UNL     1      31.057  10.686  27.786  1.00  0.00     0.214 C 
ATOM      5  C   UNL     1      29.540  10.405  27.720  1.00  0.00     0.339 C 
ATOM      6  O   UNL     1      29.240   9.392  26.771  1.00  0.00    -0.332 OA
ENDROOT
BRANCH   1   7
ATOM      7  C   UNL     1      28.793  10.738  24.749  1.00  0.00     0.198 C 
BRANCH   7   8
ATOM      8  O   UNL     1      27.618  10.109  24.275  1.00  0.00    -0.347 OA
BRANCH   8   9
ATOM      9  C   UNL     1      27.911   9.001  23.436  1.00  0.00     0.281 C 
ATOM     10  C   UNL     1      25.226   6.745  24.567  1.00  0.00     0.041 C 
ATOM     11  C   UNL     1      25.840   7.999  23.944  1.00  0.00     0.150 C 
ATOM     12  C   UNL     1      25.272   8.221  22.521  1.00  0.00     0.174 C 
ATOM     13  O   UNL     1      27.252   7.838  23.915  1.00  0.00    -0.344 OA
ATOM     14  C   UNL     1      25.984   9.399  21.814  1.00  0.00     0.179 C 
ATOM     15  C   UNL     1      27.508   9.276  21.967  1.00  0.00     0.202 C 
BRANCH  12  16
ATOM     16  O   UNL     1      23.886   8.457  22.585  1.00  0.00    -0.388 OA
ATOM     17  H   UNL     1      23.750   9.214  23.214  1.00  0.00     0.211 HD
ENDBRANCH  12  16
BRANCH  14  18
ATOM     18  O   UNL     1      25.523  10.661  22.243  1.00  0.00    -0.387 OA
ATOM     19  H   UNL     1      24.561  10.746  22.022  1.00  0.00     0.211 HD
ENDBRANCH  14  18
BRANCH  15  20
ATOM     20  O   UNL     1      28.128  10.433  21.473  1.00  0.00    -0.385 OA
ATOM     21  H   UNL     1      27.405  11.073  21.249  1.00  0.00     0.211 HD
ENDBRANCH  15  20
ENDBRANCH   8   9
ENDBRANCH   7   8
ENDBRANCH   1   7
BRANCH   2  22
ATOM     22  O   UNL     1      31.948   8.852  25.609  1.00  0.00    -0.387 OA
ATOM     23  H   UNL     1      32.533   9.040  26.388  1.00  0.00     0.211 HD
ENDBRANCH   2  22
BRANCH   3  24
ATOM     24  O   UNL     1      32.973  11.232  26.448  1.00  0.00    -0.387 OA
ATOM     25  H   UNL     1      33.167  11.933  27.122  1.00  0.00     0.211 HD
ENDBRANCH   3  24
BRANCH   5  26
ATOM     26  O   UNL     1      28.783  11.590  27.439  1.00  0.00    -0.462 OA
BRANCH  26  27
ATOM     27  C   UNL     1      27.463  11.856  27.842  1.00  0.00     0.130 A 
ATOM     28  C   UNL     1      27.230  13.016  28.587  1.00  0.00     0.093 A 
ATOM     29  C   UNL     1      26.380  11.018  27.525  1.00  0.00     0.094 A 
ATOM     30  C   UNL     1      25.943  13.330  29.050  1.00  0.00     0.133 A 
ATOM     31  C   UNL     1      25.091  11.329  27.964  1.00  0.00     0.138 A 
ATOM     32  C   UNL     1      24.863  12.476  28.745  1.00  0.00     0.102 A 
ATOM     33  O   UNL     1      24.033  10.476  27.630  1.00  0.00    -0.484 OA
ATOM     34  C   UNL     1      23.490  12.705  29.255  1.00  0.00     0.174 C 
ATOM     35  C   UNL     1      22.662  10.862  27.749  1.00  0.00     0.211 C 
ATOM     36  O   UNL     1      23.201  13.741  29.910  1.00  0.00    -0.294 OA
ATOM     37  C   UNL     1      22.438  11.648  29.059  1.00  0.00     0.131 C 
BRANCH  30  38
ATOM     38  O   UNL     1      25.748  14.474  29.821  1.00  0.00    -0.507 OA
ATOM     39  H   UNL     1      25.392  15.336  29.419  1.00  0.00     0.293 HD
ENDBRANCH  30  38
BRANCH  35  40
ATOM     40  C   UNL     1      22.225  11.563  26.471  1.00  0.00    -0.003 A 
ATOM     41  C   UNL     1      22.630  11.009  25.245  1.00  0.00     0.057 A 
ATOM     42  C   UNL     1      21.453  12.743  26.454  1.00  0.00     0.011 A 
ATOM     43  C   UNL     1      22.261  11.594  24.029  1.00  0.00     0.158 A 
ATOM     44  C   UNL     1      21.078  13.331  25.242  1.00  0.00     0.051 A 
ATOM     45  C   UNL     1      21.473  12.759  24.018  1.00  0.00     0.160 A 
BRANCH  43  46
ATOM     46  O   UNL     1      22.691  11.003  22.842  1.00  0.00    -0.504 OA
ATOM     47  H   UNL     1      23.604  10.574  22.752  1.00  0.00     0.293 HD
ENDBRANCH  43  46
BRANCH  45  48
ATOM     48  O   UNL     1      21.107  13.320  22.785  1.00  0.00    -0.493 OA
ATOM     49  C   UNL     1      20.834  14.700  22.576  1.00  0.00     0.278 C 
ENDBRANCH  45  48
ENDBRANCH  35  40
ENDBRANCH  26  27
ENDBRANCH   5  26
BRANCH   4  50
ATOM     50  O   UNL     1      31.322  11.701  28.717  1.00  0.00    -0.384 OA
ATOM     51  H   UNL     1      31.908  12.362  28.266  1.00  0.00     0.211 HD
ENDBRANCH   4  50
TORSDOF 15
ENDMDL
MODEL 7
REMARK VINA RESULT:    -5.960      3.160      8.926
REMARK INTER + INTRA:         -12.856
REMARK INTER:                 -10.215
REMARK INTRA:                  -2.641
REMARK UNBOUND:                -3.063
REMARK SMILES COc1ccc([C@@H]2CC(=O)c3c(O)cc(O[C@H]4O[C@@H](CO[C@H]5O[C@H](C)[C@@H](O)[C@@H](O)[C@H]5O)[C@H](O)[C@H](O)[C@H]4O)cc3O2)cc1O
REMARK SMILES IDX 19 1 32 2 34 3 36 4 17 5 18 6 20 7 21 8 22 9 25 10 24 11
REMARK SMILES IDX 26 12 23 13 28 14 30 15 27 16 29 18 31 20 33 22 35 24 16 26
REMARK SMILES IDX 15 27 14 28 38 29 12 30 39 31 11 32 40 33 9 34 7 35 10 36
REMARK SMILES IDX 8 37 13 38 6 40 41 41 5 42 42 43 4 44 3 45 43 46 2 48 1 49
REMARK SMILES IDX 37 50
REMARK H PARENT 27 17 29 19 31 21 33 23 35 25 13 39 43 47 37 51
REMARK Flexibility Score: inf
ROOT
ATOM      1  C   UNL     1      24.912  15.148  29.471  1.00  0.00     0.180 C 
ATOM      2  C   UNL     1      25.523  16.217  30.413  1.00  0.00     0.177 C 
ATOM      3  C   UNL     1      27.033  15.989  30.596  1.00  0.00     0.180 C 
ATOM      4  C   UNL     1      27.703  15.854  29.224  1.00  0.00     0.214 C 
ATOM      5  C   UNL     1      27.005  14.749  28.402  1.00  0.00     0.339 C 
ATOM      6  O   UNL     1      25.619  15.015  28.244  1.00  0.00    -0.332 OA
ENDROOT
BRANCH   1   7
ATOM      7  C   UNL     1      24.667  13.792  30.168  1.00  0.00     0.198 C 
BRANCH   7   8
ATOM      8  O   UNL     1      24.301  12.833  29.195  1.00  0.00    -0.347 OA
BRANCH   8   9
ATOM      9  C   UNL     1      22.924  12.921  28.855  1.00  0.00     0.281 C 
ATOM     10  C   UNL     1      23.287  13.163  25.197  1.00  0.00     0.041 C 
ATOM     11  C   UNL     1      23.404  12.528  26.583  1.00  0.00     0.150 C 
ATOM     12  C   UNL     1      22.747  11.126  26.584  1.00  0.00     0.174 C 
ATOM     13  O   UNL     1      22.779  13.391  27.523  1.00  0.00    -0.344 OA
ATOM     14  C   UNL     1      22.722  10.524  28.009  1.00  0.00     0.179 C 
ATOM     15  C   UNL     1      22.208  11.559  29.022  1.00  0.00     0.202 C 
BRANCH  12  16
ATOM     16  O   UNL     1      23.433  10.269  25.705  1.00  0.00    -0.388 OA
ATOM     17  H   UNL     1      23.892   9.587  26.262  1.00  0.00     0.211 HD
ENDBRANCH  12  16
BRANCH  14  18
ATOM     18  O   UNL     1      23.966   9.989  28.405  1.00  0.00    -0.387 OA
ATOM     19  H   UNL     1      24.058  10.077  29.387  1.00  0.00     0.211 HD
ENDBRANCH  14  18
BRANCH  15  20
ATOM     20  O   UNL     1      22.353  11.058  30.325  1.00  0.00    -0.385 OA
ATOM     21  H   UNL     1      22.406  10.071  30.249  1.00  0.00     0.211 HD
ENDBRANCH  15  20
ENDBRANCH   8   9
ENDBRANCH   7   8
ENDBRANCH   1   7
BRANCH   2  22
ATOM     22  O   UNL     1      25.306  17.502  29.885  1.00  0.00    -0.387 OA
ATOM     23  H   UNL     1      26.123  17.749  29.378  1.00  0.00     0.211 HD
ENDBRANCH   2  22
BRANCH   3  24
ATOM     24  O   UNL     1      27.600  17.071  31.290  1.00  0.00    -0.387 OA
ATOM     25  H   UNL     1      27.121  17.137  32.156  1.00  0.00     0.211 HD
ENDBRANCH   3  24
BRANCH   5  26
ATOM     26  O   UNL     1      27.200  13.447  28.971  1.00  0.00    -0.462 OA
BRANCH  26  27
ATOM     27  C   UNL     1      27.643  12.296  28.297  1.00  0.00     0.130 A 
ATOM     28  C   UNL     1      28.962  11.882  28.512  1.00  0.00     0.093 A 
ATOM     29  C   UNL     1      26.824  11.548  27.433  1.00  0.00     0.094 A 
ATOM     30  C   UNL     1      29.483  10.760  27.849  1.00  0.00     0.133 A 
ATOM     31  C   UNL     1      27.326  10.419  26.783  1.00  0.00     0.138 A 
ATOM     32  C   UNL     1      28.662  10.024  26.969  1.00  0.00     0.102 A 
ATOM     33  O   UNL     1      26.485   9.694  25.930  1.00  0.00    -0.484 OA
ATOM     34  C   UNL     1      29.160   8.871  26.183  1.00  0.00     0.174 C 
ATOM     35  C   UNL     1      26.793   8.373  25.481  1.00  0.00     0.211 C 
ATOM     36  O   UNL     1      30.329   8.427  26.344  1.00  0.00    -0.294 OA
ATOM     37  C   UNL     1      28.289   8.265  25.117  1.00  0.00     0.131 C 
BRANCH  30  38
ATOM     38  O   UNL     1      30.811  10.394  28.056  1.00  0.00    -0.507 OA
ATOM     39  H   UNL     1      31.426  10.929  28.661  1.00  0.00     0.293 HD
ENDBRANCH  30  38
BRANCH  35  40
ATOM     40  C   UNL     1      26.283   7.364  26.500  1.00  0.00    -0.003 A 
ATOM     41  C   UNL     1      24.893   7.239  26.662  1.00  0.00     0.057 A 
ATOM     42  C   UNL     1      27.129   6.565  27.297  1.00  0.00     0.011 A 
ATOM     43  C   UNL     1      24.350   6.328  27.575  1.00  0.00     0.158 A 
ATOM     44  C   UNL     1      26.592   5.651  28.208  1.00  0.00     0.051 A 
ATOM     45  C   UNL     1      25.199   5.519  28.352  1.00  0.00     0.160 A 
BRANCH  43  46
ATOM     46  O   UNL     1      22.963   6.245  27.696  1.00  0.00    -0.504 OA
ATOM     47  H   UNL     1      22.353   7.019  27.464  1.00  0.00     0.293 HD
ENDBRANCH  43  46
BRANCH  45  48
ATOM     48  O   UNL     1      24.629   4.605  29.252  1.00  0.00    -0.493 OA
ATOM     49  C   UNL     1      24.997   4.485  30.621  1.00  0.00     0.278 C 
ENDBRANCH  45  48
ENDBRANCH  35  40
ENDBRANCH  26  27
ENDBRANCH   5  26
BRANCH   4  50
ATOM     50  O   UNL     1      29.065  15.556  29.379  1.00  0.00    -0.384 OA
ATOM     51  H   UNL     1      29.572  16.355  29.083  1.00  0.00     0.211 HD
ENDBRANCH   4  50
TORSDOF 15
ENDMDL
MODEL 8
REMARK VINA RESULT:    -5.914      1.993      4.978
REMARK INTER + INTRA:         -12.780
REMARK INTER:                  -9.955
REMARK INTRA:                  -2.825
REMARK UNBOUND:                -3.063
REMARK SMILES COc1ccc([C@@H]2CC(=O)c3c(O)cc(O[C@H]4O[C@@H](CO[C@H]5O[C@H](C)[C@@H](O)[C@@H](O)[C@H]5O)[C@H](O)[C@H](O)[C@H]4O)cc3O2)cc1O
REMARK SMILES IDX 19 1 32 2 34 3 36 4 17 5 18 6 20 7 21 8 22 9 25 10 24 11
REMARK SMILES IDX 26 12 23 13 28 14 30 15 27 16 29 18 31 20 33 22 35 24 16 26
REMARK SMILES IDX 15 27 14 28 38 29 12 30 39 31 11 32 40 33 9 34 7 35 10 36
REMARK SMILES IDX 8 37 13 38 6 40 41 41 5 42 42 43 4 44 3 45 43 46 2 48 1 49
REMARK SMILES IDX 37 50
REMARK H PARENT 27 17 29 19 31 21 33 23 35 25 13 39 43 47 37 51
REMARK Flexibility Score: inf
ROOT
ATOM      1  C   UNL     1      29.045   6.246  21.292  1.00  0.00     0.180 C 
ATOM      2  C   UNL     1      29.938   5.804  20.104  1.00  0.00     0.177 C 
ATOM      3  C   UNL     1      31.421   6.092  20.394  1.00  0.00     0.180 C 
ATOM      4  C   UNL     1      31.799   5.511  21.762  1.00  0.00     0.214 C 
ATOM      5  C   UNL     1      30.841   6.046  22.848  1.00  0.00     0.339 C 
ATOM      6  O   UNL     1      29.488   5.737  22.545  1.00  0.00    -0.332 OA
ENDROOT
BRANCH   1   7
ATOM      7  C   UNL     1      28.788   7.768  21.325  1.00  0.00     0.198 C 
BRANCH   7   8
ATOM      8  O   UNL     1      27.466   8.004  21.770  1.00  0.00    -0.347 OA
BRANCH   8   9
ATOM      9  C   UNL     1      27.436   8.552  23.080  1.00  0.00     0.281 C 
ATOM     10  C   UNL     1      25.265  11.451  22.404  1.00  0.00     0.041 C 
ATOM     11  C   UNL     1      25.649   9.974  22.504  1.00  0.00     0.150 C 
ATOM     12  C   UNL     1      24.631   9.218  23.393  1.00  0.00     0.174 C 
ATOM     13  O   UNL     1      26.963   9.889  23.040  1.00  0.00    -0.344 OA
ATOM     14  C   UNL     1      25.077   7.755  23.631  1.00  0.00     0.179 C 
ATOM     15  C   UNL     1      26.559   7.703  24.033  1.00  0.00     0.202 C 
BRANCH  12  16
ATOM     16  O   UNL     1      23.356   9.249  22.801  1.00  0.00    -0.388 OA
ATOM     17  H   UNL     1      22.695   9.320  23.539  1.00  0.00     0.211 HD
ENDBRANCH  12  16
BRANCH  14  18
ATOM     18  O   UNL     1      24.811   6.912  22.532  1.00  0.00    -0.387 OA
ATOM     19  H   UNL     1      25.644   6.440  22.277  1.00  0.00     0.211 HD
ENDBRANCH  14  18
BRANCH  15  20
ATOM     20  O   UNL     1      26.991   6.368  24.076  1.00  0.00    -0.385 OA
ATOM     21  H   UNL     1      27.800   6.310  23.506  1.00  0.00     0.211 HD
ENDBRANCH  15  20
ENDBRANCH   8   9
ENDBRANCH   7   8
ENDBRANCH   1   7
BRANCH   2  22
ATOM     22  O   UNL     1      29.770   4.428  19.863  1.00  0.00    -0.387 OA
ATOM     23  H   UNL     1      28.925   4.158  20.309  1.00  0.00     0.211 HD
ENDBRANCH   2  22
BRANCH   3  24
ATOM     24  O   UNL     1      32.225   5.513  19.400  1.00  0.00    -0.387 OA
ATOM     25  H   UNL     1      33.152   5.503  19.751  1.00  0.00     0.211 HD
ENDBRANCH   3  24
BRANCH   5  26
ATOM     26  O   UNL     1      30.994   7.456  23.057  1.00  0.00    -0.462 OA
BRANCH  26  27
ATOM     27  C   UNL     1      30.736   8.159  24.246  1.00  0.00     0.130 A 
ATOM     28  C   UNL     1      31.232   9.463  24.354  1.00  0.00     0.093 A 
ATOM     29  C   UNL     1      30.002   7.616  25.316  1.00  0.00     0.094 A 
ATOM     30  C   UNL     1      31.039  10.213  25.524  1.00  0.00     0.133 A 
ATOM     31  C   UNL     1      29.787   8.361  26.478  1.00  0.00     0.138 A 
ATOM     32  C   UNL     1      30.318   9.656  26.601  1.00  0.00     0.102 A 
ATOM     33  O   UNL     1      29.050   7.793  27.524  1.00  0.00    -0.484 OA
ATOM     34  C   UNL     1      30.132  10.361  27.892  1.00  0.00     0.174 C 
ATOM     35  C   UNL     1      28.511   8.567  28.597  1.00  0.00     0.211 C 
ATOM     36  O   UNL     1      30.530  11.546  28.052  1.00  0.00    -0.294 OA
ATOM     37  C   UNL     1      29.532   9.629  29.059  1.00  0.00     0.131 C 
BRANCH  30  38
ATOM     38  O   UNL     1      31.576  11.495  25.616  1.00  0.00    -0.507 OA
ATOM     39  H   UNL     1      31.113  12.233  26.137  1.00  0.00     0.293 HD
ENDBRANCH  30  38
BRANCH  35  40
ATOM     40  C   UNL     1      27.140   9.094  28.196  1.00  0.00    -0.003 A 
ATOM     41  C   UNL     1      26.107   8.161  28.006  1.00  0.00     0.057 A 
ATOM     42  C   UNL     1      26.859  10.461  27.991  1.00  0.00     0.011 A 
ATOM     43  C   UNL     1      24.819   8.572  27.644  1.00  0.00     0.158 A 
ATOM     44  C   UNL     1      25.574  10.877  27.632  1.00  0.00     0.051 A 
ATOM     45  C   UNL     1      24.540   9.938  27.461  1.00  0.00     0.160 A 
BRANCH  43  46
ATOM     46  O   UNL     1      23.831   7.604  27.468  1.00  0.00    -0.504 OA
ATOM     47  H   UNL     1      23.169   7.368  28.197  1.00  0.00     0.293 HD
ENDBRANCH  43  46
BRANCH  45  48
ATOM     48  O   UNL     1      23.238  10.324  27.109  1.00  0.00    -0.493 OA
ATOM     49  C   UNL     1      22.907  11.084  25.953  1.00  0.00     0.278 C 
ENDBRANCH  45  48
ENDBRANCH  35  40
ENDBRANCH  26  27
ENDBRANCH   5  26
BRANCH   4  50
ATOM     50  O   UNL     1      33.125   5.846  22.078  1.00  0.00    -0.384 OA
ATOM     51  H   UNL     1      33.676   5.038  21.912  1.00  0.00     0.211 HD
ENDBRANCH   4  50
TORSDOF 15
ENDMDL
MODEL 9
REMARK VINA RESULT:    -5.884      2.858      6.262
REMARK INTER + INTRA:         -12.731
REMARK INTER:                 -10.639
REMARK INTRA:                  -2.093
REMARK UNBOUND:                -3.063
REMARK SMILES COc1ccc([C@@H]2CC(=O)c3c(O)cc(O[C@H]4O[C@@H](CO[C@H]5O[C@H](C)[C@@H](O)[C@@H](O)[C@H]5O)[C@H](O)[C@H](O)[C@H]4O)cc3O2)cc1O
REMARK SMILES IDX 19 1 32 2 34 3 36 4 17 5 18 6 20 7 21 8 22 9 25 10 24 11
REMARK SMILES IDX 26 12 23 13 28 14 30 15 27 16 29 18 31 20 33 22 35 24 16 26
REMARK SMILES IDX 15 27 14 28 38 29 12 30 39 31 11 32 40 33 9 34 7 35 10 36
REMARK SMILES IDX 8 37 13 38 6 40 41 41 5 42 42 43 4 44 3 45 43 46 2 48 1 49
REMARK SMILES IDX 37 50
REMARK H PARENT 27 17 29 19 31 21 33 23 35 25 13 39 43 47 37 51
REMARK Flexibility Score: inf
ROOT
ATOM      1  C   UNL     1      27.695   6.568  26.766  1.00  0.00     0.180 C 
ATOM      2  C   UNL     1      27.295   5.301  27.564  1.00  0.00     0.177 C 
ATOM      3  C   UNL     1      26.021   5.549  28.387  1.00  0.00     0.180 C 
ATOM      4  C   UNL     1      24.930   6.134  27.482  1.00  0.00     0.214 C 
ATOM      5  C   UNL     1      25.458   7.395  26.765  1.00  0.00     0.339 C 
ATOM      6  O   UNL     1      26.623   7.110  26.003  1.00  0.00    -0.332 OA
ENDROOT
BRANCH   1   7
ATOM      7  C   UNL     1      28.407   7.632  27.630  1.00  0.00     0.198 C 
BRANCH   7   8
ATOM      8  O   UNL     1      29.352   8.318  26.832  1.00  0.00    -0.347 OA
BRANCH   8   9
ATOM      9  C   UNL     1      28.905   9.620  26.483  1.00  0.00     0.281 C 
ATOM     10  C   UNL     1      30.863  11.542  28.942  1.00  0.00     0.041 C 
ATOM     11  C   UNL     1      30.623  10.612  27.752  1.00  0.00     0.150 C 
ATOM     12  C   UNL     1      31.378  11.135  26.506  1.00  0.00     0.174 C 
ATOM     13  O   UNL     1      29.224  10.541  27.516  1.00  0.00    -0.344 OA
ATOM     14  C   UNL     1      31.035  10.294  25.253  1.00  0.00     0.179 C 
ATOM     15  C   UNL     1      29.516  10.091  25.140  1.00  0.00     0.202 C 
BRANCH  12  16
ATOM     16  O   UNL     1      32.765  11.120  26.739  1.00  0.00    -0.388 OA
ATOM     17  H   UNL     1      33.066  10.180  26.638  1.00  0.00     0.211 HD
ENDBRANCH  12  16
BRANCH  14  18
ATOM     18  O   UNL     1      31.724   9.064  25.208  1.00  0.00    -0.387 OA
ATOM     19  H   UNL     1      31.859   8.804  24.262  1.00  0.00     0.211 HD
ENDBRANCH  14  18
BRANCH  15  20
ATOM     20  O   UNL     1      29.235   9.188  24.104  1.00  0.00    -0.385 OA
ATOM     21  H   UNL     1      28.365   9.461  23.713  1.00  0.00     0.211 HD
ENDBRANCH  15  20
ENDBRANCH   8   9
ENDBRANCH   7   8
ENDBRANCH   1   7
BRANCH   2  22
ATOM     22  O   UNL     1      27.079   4.227  26.682  1.00  0.00    -0.387 OA
ATOM     23  H   UNL     1      27.104   3.397  27.225  1.00  0.00     0.211 HD
ENDBRANCH   2  22
BRANCH   3  24
ATOM     24  O   UNL     1      25.569   4.342  28.946  1.00  0.00    -0.387 OA
ATOM     25  H   UNL     1      24.934   4.582  29.669  1.00  0.00     0.211 HD
ENDBRANCH   3  24
BRANCH   5  26
ATOM     26  O   UNL     1      25.713   8.470  27.678  1.00  0.00    -0.462 OA
BRANCH  26  27
ATOM     27  C   UNL     1      25.068   9.719  27.703  1.00  0.00     0.130 A 
ATOM     28  C   UNL     1      23.816   9.795  28.323  1.00  0.00     0.093 A 
ATOM     29  C   UNL     1      25.624  10.882  27.143  1.00  0.00     0.094 A 
ATOM     30  C   UNL     1      23.100  11.001  28.357  1.00  0.00     0.133 A 
ATOM     31  C   UNL     1      24.929  12.093  27.188  1.00  0.00     0.138 A 
ATOM     32  C   UNL     1      23.655  12.161  27.778  1.00  0.00     0.102 A 
ATOM     33  O   UNL     1      25.512  13.234  26.624  1.00  0.00    -0.484 OA
ATOM     34  C   UNL     1      22.931  13.452  27.716  1.00  0.00     0.174 C 
ATOM     35  C   UNL     1      25.042  14.556  26.896  1.00  0.00     0.211 C 
ATOM     36  O   UNL     1      21.811  13.600  28.275  1.00  0.00    -0.294 OA
ATOM     37  C   UNL     1      23.498  14.585  26.907  1.00  0.00     0.131 C 
BRANCH  30  38
ATOM     38  O   UNL     1      21.840  11.036  28.950  1.00  0.00    -0.507 OA
ATOM     39  H   UNL     1      21.017  11.343  28.441  1.00  0.00     0.293 HD
ENDBRANCH  30  38
BRANCH  35  40
ATOM     40  C   UNL     1      25.724  15.083  28.151  1.00  0.00    -0.003 A 
ATOM     41  C   UNL     1      27.128  15.123  28.168  1.00  0.00     0.057 A 
ATOM     42  C   UNL     1      25.024  15.515  29.297  1.00  0.00     0.011 A 
ATOM     43  C   UNL     1      27.825  15.602  29.283  1.00  0.00     0.158 A 
ATOM     44  C   UNL     1      25.715  15.996  30.412  1.00  0.00     0.051 A 
ATOM     45  C   UNL     1      27.121  16.051  30.414  1.00  0.00     0.160 A 
BRANCH  43  46
ATOM     46  O   UNL     1      29.219  15.619  29.246  1.00  0.00    -0.504 OA
ATOM     47  H   UNL     1      29.750  16.480  29.305  1.00  0.00     0.293 HD
ENDBRANCH  43  46
BRANCH  45  48
ATOM     48  O   UNL     1      27.843  16.536  31.515  1.00  0.00    -0.493 OA
ATOM     49  C   UNL     1      27.482  16.321  32.875  1.00  0.00     0.278 C 
ENDBRANCH  45  48
ENDBRANCH  35  40
ENDBRANCH  26  27
ENDBRANCH   5  26
BRANCH   4  50
ATOM     50  O   UNL     1      23.792   6.449  28.240  1.00  0.00    -0.384 OA
ATOM     51  H   UNL     1      23.046   6.586  27.600  1.00  0.00     0.211 HD
ENDBRANCH   4  50
TORSDOF 15
ENDMDL
