MODEL 1
REMARK VINA RESULT:    -3.916      0.000      0.000
REMARK INTER + INTRA:          -6.077
REMARK INTER:                  -5.976
REMARK INTRA:                  -0.101
REMARK UNBOUND:                -0.101
REMARK SMILES CC1=CCC[C@H](C)C(=O)C[C@@H](C(C)C)C(=O)C1
REMARK SMILES IDX 8 1 9 2 6 3 7 4 5 5 4 6 3 7 2 8 1 9 10 11 11 12 15 13 16 14
REMARK SMILES IDX 17 15 12 17 13 18 14 19
REMARK H PARENT
REMARK Flexibility Score: 70.00
ROOT
ATOM      1  C   UNL     1     -14.321  -6.844   7.284  1.00  0.00     0.136 C 
ATOM      2  O   UNL     1     -13.129  -6.700   7.521  1.00  0.00    -0.299 OA
ENDROOT
BRANCH   1   3
ATOM      3  C   UNL     1     -14.747  -7.592   6.035  1.00  0.00     0.053 C 
ATOM      4  C   UNL     1     -16.278  -7.626   5.926  1.00  0.00     0.016 C 
BRANCH   3   5
ATOM      5  C   UNL     1     -14.118  -6.948   4.777  1.00  0.00     0.015 C 
BRANCH   5   6
ATOM      6  C   UNL     1     -14.632  -5.512   4.557  1.00  0.00     0.028 C 
BRANCH   6   7
ATOM      7  C   UNL     1     -13.560  -4.462   4.716  1.00  0.00    -0.028 C 
ATOM      8  C   UNL     1     -13.615  -3.402   5.561  1.00  0.00    -0.070 CG0
ATOM      9  C   UNL     1     -12.396  -2.518   5.652  1.00  0.00     0.039 C 
ATOM     10  G   UNL     1     -14.848  -3.032   6.376  1.00  0.00     0.000 G0
ENDBRANCH   6   7
ENDBRANCH   5   6
ENDBRANCH   3   5
ENDBRANCH   1   3
BRANCH   1  11
ATOM     11  C   UNL     1     -15.335  -6.262   8.244  1.00  0.00     0.087 C 
BRANCH  11  12
ATOM     12  C   UNL     1     -16.004  -4.983   7.680  1.00  0.00     0.066 C 
BRANCH  12  13
ATOM     13  C   UNL     1     -15.024  -3.819   7.644  1.00  0.00     0.140 C 
ATOM     14  O   UNL     1     -14.391  -3.508   8.642  1.00  0.00    -0.299 OA
BRANCH  13  15
ATOM     15  C   UNL     1     -14.854  -3.023   6.373  1.00  0.00     0.106 CG0
ATOM     16  G   UNL     1     -13.615  -3.395   5.568  1.00  0.00     0.000 G0
ENDBRANCH  13  15
ENDBRANCH  12  13
BRANCH  12  17
ATOM     17  C   UNL     1     -17.357  -4.658   8.388  1.00  0.00    -0.006 C 
ATOM     18  C   UNL     1     -17.974  -5.908   9.035  1.00  0.00     0.008 C 
ATOM     19  C   UNL     1     -18.394  -3.949   7.497  1.00  0.00     0.008 C 
ENDBRANCH  12  17
ENDBRANCH  11  12
ENDBRANCH   1  11
TORSDOF 1
ENDMDL
MODEL 2
REMARK VINA RESULT:    -3.903      1.637      3.684
REMARK INTER + INTRA:          -6.058
REMARK INTER:                  -6.127
REMARK INTRA:                   0.069
REMARK UNBOUND:                -0.101
REMARK SMILES CC1=CCC[C@H](C)C(=O)C[C@@H](C(C)C)C(=O)C1
REMARK SMILES IDX 8 1 9 2 6 3 7 4 5 5 4 6 3 7 2 8 1 9 10 11 11 12 15 13 16 14
REMARK SMILES IDX 17 15 12 17 13 18 14 19
REMARK H PARENT
REMARK Flexibility Score: 70.00
ROOT
ATOM      1  C   UNL     1     -14.636  -3.386   7.056  1.00  0.00     0.136 C 
ATOM      2  O   UNL     1     -14.079  -3.030   8.086  1.00  0.00    -0.299 OA
ENDROOT
BRANCH   1   3
ATOM      3  C   UNL     1     -14.137  -2.865   5.721  1.00  0.00     0.053 C 
ATOM      4  C   UNL     1     -13.747  -1.385   5.835  1.00  0.00     0.016 C 
BRANCH   3   5
ATOM      5  C   UNL     1     -12.946  -3.714   5.219  1.00  0.00     0.015 C 
BRANCH   5   6
ATOM      6  C   UNL     1     -13.349  -4.614   4.035  1.00  0.00     0.028 C 
BRANCH   6   7
ATOM      7  C   UNL     1     -12.810  -6.019   4.141  1.00  0.00    -0.028 C 
ATOM      8  C   UNL     1     -13.402  -7.043   4.806  1.00  0.00    -0.070 CG0
ATOM      9  C   UNL     1     -12.759  -8.403   4.710  1.00  0.00     0.039 C 
ATOM     10  G   UNL     1     -14.642  -6.880   5.677  1.00  0.00     0.000 G0
ENDBRANCH   6   7
ENDBRANCH   5   6
ENDBRANCH   3   5
ENDBRANCH   1   3
BRANCH   1  11
ATOM     11  C   UNL     1     -15.813  -4.332   7.148  1.00  0.00     0.087 C 
BRANCH  11  12
ATOM     12  C   UNL     1     -15.444  -5.654   7.869  1.00  0.00     0.066 C 
BRANCH  12  13
ATOM     13  C   UNL     1     -14.372  -6.417   7.103  1.00  0.00     0.140 C 
ATOM     14  O   UNL     1     -13.279  -6.628   7.607  1.00  0.00    -0.299 OA
BRANCH  13  15
ATOM     15  C   UNL     1     -14.650  -6.889   5.696  1.00  0.00     0.106 CG0
ATOM     16  G   UNL     1     -13.407  -7.002   4.823  1.00  0.00     0.000 G0
ENDBRANCH  13  15
ENDBRANCH  12  13
BRANCH  12  17
ATOM     17  C   UNL     1     -16.701  -6.505   8.231  1.00  0.00    -0.006 C 
ATOM     18  C   UNL     1     -17.639  -5.753   9.188  1.00  0.00     0.008 C 
ATOM     19  C   UNL     1     -16.389  -7.909   8.781  1.00  0.00     0.008 C 
ENDBRANCH  12  17
ENDBRANCH  11  12
ENDBRANCH   1  11
TORSDOF 1
ENDMDL
MODEL 3
REMARK VINA RESULT:    -3.796      1.890      2.447
REMARK INTER + INTRA:          -5.895
REMARK INTER:                  -5.819
REMARK INTRA:                  -0.076
REMARK UNBOUND:                -0.101
REMARK SMILES CC1=CCC[C@H](C)C(=O)C[C@@H](C(C)C)C(=O)C1
REMARK SMILES IDX 8 1 9 2 6 3 7 4 5 5 4 6 3 7 2 8 1 9 10 11 11 12 15 13 16 14
REMARK SMILES IDX 17 15 12 17 13 18 14 19
REMARK H PARENT
REMARK Flexibility Score: 70.00
ROOT
ATOM      1  C   UNL     1     -15.038  -5.033   8.223  1.00  0.00     0.136 C 
ATOM      2  O   UNL     1     -14.283  -4.127   8.549  1.00  0.00    -0.299 OA
ENDROOT
BRANCH   1   3
ATOM      3  C   UNL     1     -14.459  -6.339   7.712  1.00  0.00     0.053 C 
ATOM      4  C   UNL     1     -15.234  -7.532   8.288  1.00  0.00     0.016 C 
BRANCH   3   5
ATOM      5  C   UNL     1     -14.469  -6.367   6.166  1.00  0.00     0.015 C 
BRANCH   5   6
ATOM      6  C   UNL     1     -13.857  -5.085   5.570  1.00  0.00     0.028 C 
BRANCH   6   7
ATOM      7  C   UNL     1     -14.638  -4.536   4.401  1.00  0.00    -0.028 C 
ATOM      8  C   UNL     1     -15.525  -3.511   4.457  1.00  0.00    -0.070 CG0
ATOM      9  C   UNL     1     -16.128  -3.040   3.158  1.00  0.00     0.039 C 
ATOM     10  G   UNL     1     -15.977  -2.854   5.754  1.00  0.00     0.000 G0
ENDBRANCH   6   7
ENDBRANCH   5   6
ENDBRANCH   3   5
ENDBRANCH   1   3
BRANCH   1  11
ATOM     11  C   UNL     1     -16.531  -4.818   8.333  1.00  0.00     0.087 C 
BRANCH  11  12
ATOM     12  C   UNL     1     -17.226  -4.830   6.948  1.00  0.00     0.066 C 
BRANCH  12  13
ATOM     13  C   UNL     1     -17.262  -3.436   6.338  1.00  0.00     0.140 C 
ATOM     14  O   UNL     1     -18.308  -2.806   6.287  1.00  0.00    -0.299 OA
BRANCH  13  15
ATOM     15  C   UNL     1     -16.001  -2.838   5.762  1.00  0.00     0.106 CG0
ATOM     16  G   UNL     1     -15.533  -3.500   4.472  1.00  0.00     0.000 G0
ENDBRANCH  13  15
ENDBRANCH  12  13
BRANCH  12  17
ATOM     17  C   UNL     1     -18.611  -5.550   6.983  1.00  0.00    -0.006 C 
ATOM     18  C   UNL     1     -19.023  -5.917   8.417  1.00  0.00     0.008 C 
ATOM     19  C   UNL     1     -18.720  -6.779   6.062  1.00  0.00     0.008 C 
ENDBRANCH  12  17
ENDBRANCH  11  12
ENDBRANCH   1  11
TORSDOF 1
ENDMDL
MODEL 4
REMARK VINA RESULT:    -3.608      2.362      4.702
REMARK INTER + INTRA:          -5.607
REMARK INTER:                  -5.458
REMARK INTRA:                  -0.149
REMARK UNBOUND:                -0.101
REMARK SMILES CC1=CCC[C@H](C)C(=O)C[C@@H](C(C)C)C(=O)C1
REMARK SMILES IDX 8 1 9 2 6 3 7 4 5 5 4 6 3 7 2 8 1 9 10 11 11 12 15 13 16 14
REMARK SMILES IDX 17 15 12 17 13 18 14 19
REMARK H PARENT
REMARK Flexibility Score: 70.00
ROOT
ATOM      1  C   UNL     1     -14.653  -4.116   7.052  1.00  0.00     0.136 C 
ATOM      2  O   UNL     1     -14.218  -3.456   7.986  1.00  0.00    -0.299 OA
ENDROOT
BRANCH   1   3
ATOM      3  C   UNL     1     -15.501  -5.341   7.337  1.00  0.00     0.053 C 
ATOM      4  C   UNL     1     -14.629  -6.484   7.874  1.00  0.00     0.016 C 
BRANCH   3   5
ATOM      5  C   UNL     1     -16.634  -4.997   8.331  1.00  0.00     0.015 C 
BRANCH   5   6
ATOM      6  C   UNL     1     -17.765  -4.202   7.650  1.00  0.00     0.028 C 
BRANCH   6   7
ATOM      7  C   UNL     1     -18.070  -4.677   6.250  1.00  0.00    -0.028 C 
ATOM      8  C   UNL     1     -17.857  -3.968   5.113  1.00  0.00    -0.070 CG0
ATOM      9  C   UNL     1     -18.132  -4.656   3.800  1.00  0.00     0.039 C 
ATOM     10  G   UNL     1     -17.409  -2.512   5.096  1.00  0.00     0.000 G0
ENDBRANCH   6   7
ENDBRANCH   5   6
ENDBRANCH   3   5
ENDBRANCH   1   3
BRANCH   1  11
ATOM     11  C   UNL     1     -14.321  -3.692   5.638  1.00  0.00     0.087 C 
BRANCH  11  12
ATOM     12  C   UNL     1     -14.802  -2.251   5.334  1.00  0.00     0.066 C 
BRANCH  12  13
ATOM     13  C   UNL     1     -16.059  -2.260   4.476  1.00  0.00     0.140 C 
ATOM     14  O   UNL     1     -15.994  -2.045   3.275  1.00  0.00    -0.299 OA
BRANCH  13  15
ATOM     15  C   UNL     1     -17.403  -2.505   5.119  1.00  0.00     0.106 CG0
ATOM     16  G   UNL     1     -17.831  -3.967   5.126  1.00  0.00     0.000 G0
ENDBRANCH  13  15
ENDBRANCH  12  13
BRANCH  12  17
ATOM     17  C   UNL     1     -13.657  -1.345   4.781  1.00  0.00    -0.006 C 
ATOM     18  C   UNL     1     -12.459  -2.178   4.298  1.00  0.00     0.008 C 
ATOM     19  C   UNL     1     -13.187  -0.242   5.747  1.00  0.00     0.008 C 
ENDBRANCH  12  17
ENDBRANCH  11  12
ENDBRANCH   1  11
TORSDOF 1
ENDMDL
MODEL 5
REMARK VINA RESULT:    -3.599      2.756      4.481
REMARK INTER + INTRA:          -5.594
REMARK INTER:                  -5.300
REMARK INTRA:                  -0.294
REMARK UNBOUND:                -0.101
REMARK SMILES CC1=CCC[C@H](C)C(=O)C[C@@H](C(C)C)C(=O)C1
REMARK SMILES IDX 8 1 9 2 6 3 7 4 5 5 4 6 3 7 2 8 1 9 10 11 11 12 15 13 16 14
REMARK SMILES IDX 17 15 12 17 13 18 14 19
REMARK H PARENT
REMARK Flexibility Score: 70.00
ROOT
ATOM      1  C   UNL     1     -13.751  -2.647   6.086  1.00  0.00     0.136 C 
ATOM      2  O   UNL     1     -12.974  -3.568   5.872  1.00  0.00    -0.299 OA
ENDROOT
BRANCH   1   3
ATOM      3  C   UNL     1     -13.404  -1.253   5.600  1.00  0.00     0.053 C 
ATOM      4  C   UNL     1     -11.962  -0.894   5.984  1.00  0.00     0.016 C 
BRANCH   3   5
ATOM      5  C   UNL     1     -13.612  -1.144   4.072  1.00  0.00     0.015 C 
BRANCH   5   6
ATOM      6  C   UNL     1     -15.023  -0.630   3.726  1.00  0.00     0.028 C 
BRANCH   6   7
ATOM      7  C   UNL     1     -15.870  -1.649   3.003  1.00  0.00    -0.028 C 
ATOM      8  C   UNL     1     -16.953  -2.283   3.519  1.00  0.00    -0.070 CG0
ATOM      9  C   UNL     1     -17.732  -3.192   2.602  1.00  0.00     0.039 C 
ATOM     10  G   UNL     1     -17.388  -2.165   4.974  1.00  0.00     0.000 G0
ENDBRANCH   6   7
ENDBRANCH   5   6
ENDBRANCH   3   5
ENDBRANCH   1   3
BRANCH   1  11
ATOM     11  C   UNL     1     -15.033  -2.929   6.838  1.00  0.00     0.087 C 
BRANCH  11  12
ATOM     12  C   UNL     1     -15.905  -3.994   6.125  1.00  0.00     0.066 C 
BRANCH  12  13
ATOM     13  C   UNL     1     -17.281  -3.441   5.784  1.00  0.00     0.140 C 
ATOM     14  O   UNL     1     -18.293  -4.040   6.119  1.00  0.00    -0.299 OA
BRANCH  13  15
ATOM     15  C   UNL     1     -17.399  -2.158   4.998  1.00  0.00     0.106 CG0
ATOM     16  G   UNL     1     -16.964  -2.279   3.543  1.00  0.00     0.000 G0
ENDBRANCH  13  15
ENDBRANCH  12  13
BRANCH  12  17
ATOM     17  C   UNL     1     -15.934  -5.352   6.896  1.00  0.00    -0.006 C 
ATOM     18  C   UNL     1     -15.079  -5.297   8.172  1.00  0.00     0.008 C 
ATOM     19  C   UNL     1     -15.553  -6.580   6.048  1.00  0.00     0.008 C 
ENDBRANCH  12  17
ENDBRANCH  11  12
ENDBRANCH   1  11
TORSDOF 1
ENDMDL
MODEL 6
REMARK VINA RESULT:    -3.536      2.511      3.929
REMARK INTER + INTRA:          -5.497
REMARK INTER:                  -5.917
REMARK INTRA:                   0.420
REMARK UNBOUND:                -0.101
REMARK SMILES CC1=CCC[C@H](C)C(=O)C[C@@H](C(C)C)C(=O)C1
REMARK SMILES IDX 8 1 9 2 6 3 7 4 5 5 4 6 3 7 2 8 1 9 10 11 11 12 15 13 16 14
REMARK SMILES IDX 17 15 12 17 13 18 14 19
REMARK H PARENT
REMARK Flexibility Score: 70.00
ROOT
ATOM      1  C   UNL     1     -17.071  -2.611   4.729  1.00  0.00     0.136 C 
ATOM      2  O   UNL     1     -17.813  -1.900   5.393  1.00  0.00    -0.299 OA
ENDROOT
BRANCH   1   3
ATOM      3  C   UNL     1     -16.926  -2.352   3.242  1.00  0.00     0.053 C 
ATOM      4  C   UNL     1     -18.085  -1.484   2.733  1.00  0.00     0.016 C 
BRANCH   3   5
ATOM      5  C   UNL     1     -15.563  -1.686   2.938  1.00  0.00     0.015 C 
BRANCH   5   6
ATOM      6  C   UNL     1     -15.101  -0.785   4.099  1.00  0.00     0.028 C 
BRANCH   6   7
ATOM      7  C   UNL     1     -13.609  -0.821   4.327  1.00  0.00    -0.028 C 
ATOM      8  C   UNL     1     -12.909  -1.884   4.796  1.00  0.00    -0.070 CG0
ATOM      9  C   UNL     1     -11.408  -1.759   4.857  1.00  0.00     0.039 C 
ATOM     10  G   UNL     1     -13.558  -3.165   5.306  1.00  0.00     0.000 G0
ENDBRANCH   6   7
ENDBRANCH   5   6
ENDBRANCH   3   5
ENDBRANCH   1   3
BRANCH   1  11
ATOM     11  C   UNL     1     -16.326  -3.735   5.415  1.00  0.00     0.087 C 
BRANCH  11  12
ATOM     12  C   UNL     1     -15.717  -3.290   6.769  1.00  0.00     0.066 C 
BRANCH  12  13
ATOM     13  C   UNL     1     -14.217  -3.064   6.650  1.00  0.00     0.140 C 
ATOM     14  O   UNL     1     -13.554  -2.756   7.630  1.00  0.00    -0.299 OA
BRANCH  13  15
ATOM     15  C   UNL     1     -13.545  -3.188   5.304  1.00  0.00     0.106 CG0
ATOM     16  G   UNL     1     -12.892  -1.902   4.814  1.00  0.00     0.000 G0
ENDBRANCH  13  15
ENDBRANCH  12  13
BRANCH  12  17
ATOM     17  C   UNL     1     -16.131  -4.229   7.945  1.00  0.00    -0.006 C 
ATOM     18  C   UNL     1     -15.073  -5.313   8.205  1.00  0.00     0.008 C 
ATOM     19  C   UNL     1     -17.525  -4.866   7.798  1.00  0.00     0.008 C 
ENDBRANCH  12  17
ENDBRANCH  11  12
ENDBRANCH   1  11
TORSDOF 1
ENDMDL
MODEL 7
REMARK VINA RESULT:    -3.480      1.508      1.925
REMARK INTER + INTRA:          -5.412
REMARK INTER:                  -5.180
REMARK INTRA:                  -0.232
REMARK UNBOUND:                -0.101
REMARK SMILES CC1=CCC[C@H](C)C(=O)C[C@@H](C(C)C)C(=O)C1
REMARK SMILES IDX 8 1 9 2 6 3 7 4 5 5 4 6 3 7 2 8 1 9 10 11 11 12 15 13 16 14
REMARK SMILES IDX 17 15 12 17 13 18 14 19
REMARK H PARENT
REMARK Flexibility Score: 70.00
ROOT
ATOM      1  C   UNL     1     -13.803  -7.597   5.852  1.00  0.00     0.136 C 
ATOM      2  O   UNL     1     -14.520  -8.585   5.781  1.00  0.00    -0.299 OA
ENDROOT
BRANCH   1   3
ATOM      3  C   UNL     1     -12.816  -7.310   4.737  1.00  0.00     0.053 C 
ATOM      4  C   UNL     1     -13.551  -7.145   3.399  1.00  0.00     0.016 C 
BRANCH   3   5
ATOM      5  C   UNL     1     -11.977  -6.053   5.065  1.00  0.00     0.015 C 
BRANCH   5   6
ATOM      6  C   UNL     1     -12.438  -4.833   4.244  1.00  0.00     0.028 C 
BRANCH   6   7
ATOM      7  C   UNL     1     -12.122  -3.514   4.905  1.00  0.00    -0.028 C 
ATOM      8  C   UNL     1     -12.939  -2.843   5.756  1.00  0.00    -0.070 CG0
ATOM      9  C   UNL     1     -12.401  -1.588   6.395  1.00  0.00     0.039 C 
ATOM     10  G   UNL     1     -14.373  -3.259   6.055  1.00  0.00     0.000 G0
ENDBRANCH   6   7
ENDBRANCH   5   6
ENDBRANCH   3   5
ENDBRANCH   1   3
BRANCH   1  11
ATOM     11  C   UNL     1     -13.918  -6.693   7.060  1.00  0.00     0.087 C 
BRANCH  11  12
ATOM     12  C   UNL     1     -15.033  -5.631   6.889  1.00  0.00     0.066 C 
BRANCH  12  13
ATOM     13  C   UNL     1     -14.512  -4.233   7.190  1.00  0.00     0.140 C 
ATOM     14  O   UNL     1     -14.234  -3.905   8.334  1.00  0.00    -0.299 OA
BRANCH  13  15
ATOM     15  C   UNL     1     -14.366  -3.231   6.070  1.00  0.00     0.106 CG0
ATOM     16  G   UNL     1     -12.923  -2.847   5.765  1.00  0.00     0.000 G0
ENDBRANCH  13  15
ENDBRANCH  12  13
BRANCH  12  17
ATOM     17  C   UNL     1     -16.338  -6.007   7.660  1.00  0.00    -0.006 C 
ATOM     18  C   UNL     1     -16.108  -7.184   8.621  1.00  0.00     0.008 C 
ATOM     19  C   UNL     1     -17.559  -6.278   6.763  1.00  0.00     0.008 C 
ENDBRANCH  12  17
ENDBRANCH  11  12
ENDBRANCH   1  11
TORSDOF 1
ENDMDL
MODEL 8
REMARK VINA RESULT:    -3.323      3.176      5.415
REMARK INTER + INTRA:          -5.172
REMARK INTER:                  -5.045
REMARK INTRA:                  -0.127
REMARK UNBOUND:                -0.101
REMARK SMILES CC1=CCC[C@H](C)C(=O)C[C@@H](C(C)C)C(=O)C1
REMARK SMILES IDX 8 1 9 2 6 3 7 4 5 5 4 6 3 7 2 8 1 9 10 11 11 12 15 13 16 14
REMARK SMILES IDX 17 15 12 17 13 18 14 19
REMARK H PARENT
REMARK Flexibility Score: 70.00
ROOT
ATOM      1  C   UNL     1     -13.737  -3.284   6.142  1.00  0.00     0.136 C 
ATOM      2  O   UNL     1     -13.207  -2.688   7.070  1.00  0.00    -0.299 OA
ENDROOT
BRANCH   1   3
ATOM      3  C   UNL     1     -14.775  -4.351   6.437  1.00  0.00     0.053 C 
ATOM      4  C   UNL     1     -15.369  -4.148   7.838  1.00  0.00     0.016 C 
BRANCH   3   5
ATOM      5  C   UNL     1     -15.884  -4.341   5.360  1.00  0.00     0.015 C 
BRANCH   5   6
ATOM      6  C   UNL     1     -16.725  -3.051   5.423  1.00  0.00     0.028 C 
BRANCH   6   7
ATOM      7  C   UNL     1     -17.251  -2.613   4.078  1.00  0.00    -0.028 C 
ATOM      8  C   UNL     1     -16.762  -1.587   3.337  1.00  0.00    -0.070 CG0
ATOM      9  C   UNL     1     -17.356  -1.369   1.969  1.00  0.00     0.039 C 
ATOM     10  G   UNL     1     -15.691  -0.622   3.831  1.00  0.00     0.000 G0
ENDBRANCH   6   7
ENDBRANCH   5   6
ENDBRANCH   3   5
ENDBRANCH   1   3
BRANCH   1  11
ATOM     11  C   UNL     1     -13.333  -2.943   4.725  1.00  0.00     0.087 C 
BRANCH  11  12
ATOM     12  C   UNL     1     -13.286  -1.412   4.485  1.00  0.00     0.066 C 
BRANCH  12  13
ATOM     13  C   UNL     1     -14.292  -0.991   3.424  1.00  0.00     0.140 C 
ATOM     14  O   UNL     1     -13.967  -0.932   2.247  1.00  0.00    -0.299 OA
BRANCH  13  15
ATOM     15  C   UNL     1     -15.695  -0.610   3.831  1.00  0.00     0.106 CG0
ATOM     16  G   UNL     1     -16.768  -1.569   3.331  1.00  0.00     0.000 G0
ENDBRANCH  13  15
ENDBRANCH  12  13
BRANCH  12  17
ATOM     17  C   UNL     1     -11.835  -0.893   4.233  1.00  0.00    -0.006 C 
ATOM     18  C   UNL     1     -10.957  -1.966   3.570  1.00  0.00     0.008 C 
ATOM     19  C   UNL     1     -11.133  -0.320   5.477  1.00  0.00     0.008 C 
ENDBRANCH  12  17
ENDBRANCH  11  12
ENDBRANCH   1  11
TORSDOF 1
ENDMDL
MODEL 9
REMARK VINA RESULT:    -3.311     13.570     16.130
REMARK INTER + INTRA:          -5.153
REMARK INTER:                  -4.827
REMARK INTRA:                  -0.327
REMARK UNBOUND:                -0.101
REMARK SMILES CC1=CCC[C@H](C)C(=O)C[C@@H](C(C)C)C(=O)C1
REMARK SMILES IDX 8 1 9 2 6 3 7 4 5 5 4 6 3 7 2 8 1 9 10 11 11 12 15 13 16 14
REMARK SMILES IDX 17 15 12 17 13 18 14 19
REMARK H PARENT
REMARK Flexibility Score: 70.00
ROOT
ATOM      1  C   UNL     1      -3.163   4.820  10.823  1.00  0.00     0.136 C 
ATOM      2  O   UNL     1      -2.250   4.043  10.580  1.00  0.00    -0.299 OA
ENDROOT
BRANCH   1   3
ATOM      3  C   UNL     1      -2.897   6.033  11.695  1.00  0.00     0.053 C 
ATOM      4  C   UNL     1      -2.080   5.635  12.932  1.00  0.00     0.016 C 
BRANCH   3   5
ATOM      5  C   UNL     1      -2.174   7.134  10.885  1.00  0.00     0.015 C 
BRANCH   5   6
ATOM      6  C   UNL     1      -3.131   8.279  10.504  1.00  0.00     0.028 C 
BRANCH   6   7
ATOM      7  C   UNL     1      -4.389   8.311  11.339  1.00  0.00    -0.028 C 
ATOM      8  C   UNL     1      -5.632   7.986  10.903  1.00  0.00    -0.070 CG0
ATOM      9  C   UNL     1      -6.747   7.981  11.918  1.00  0.00     0.039 C 
ATOM     10  G   UNL     1      -5.965   7.680   9.449  1.00  0.00     0.000 G0
ENDBRANCH   6   7
ENDBRANCH   5   6
ENDBRANCH   3   5
ENDBRANCH   1   3
BRANCH   1  11
ATOM     11  C   UNL     1      -4.535   4.540  10.251  1.00  0.00     0.087 C 
BRANCH  11  12
ATOM     12  C   UNL     1      -4.816   5.374   8.975  1.00  0.00     0.066 C 
BRANCH  12  13
ATOM     13  C   UNL     1      -6.081   6.205   9.128  1.00  0.00     0.140 C 
ATOM     14  O   UNL     1      -7.182   5.697   8.975  1.00  0.00    -0.299 OA
BRANCH  13  15
ATOM     15  C   UNL     1      -5.976   7.679   9.440  1.00  0.00     0.106 CG0
ATOM     16  G   UNL     1      -5.621   7.982  10.890  1.00  0.00     0.000 G0
ENDBRANCH  13  15
ENDBRANCH  12  13
BRANCH  12  17
ATOM     17  C   UNL     1      -4.772   4.507   7.677  1.00  0.00    -0.006 C 
ATOM     18  C   UNL     1      -4.804   3.004   7.997  1.00  0.00     0.008 C 
ATOM     19  C   UNL     1      -3.603   4.829   6.729  1.00  0.00     0.008 C 
ENDBRANCH  12  17
ENDBRANCH  11  12
ENDBRANCH   1  11
TORSDOF 1
ENDMDL
