MODEL 1
REMARK VINA RESULT:    -5.558      0.000      0.000
REMARK INTER + INTRA:         -17.198
REMARK INTER:                 -14.656
REMARK INTRA:                  -2.542
REMARK UNBOUND:                -2.542
REMARK SMILES CCCCCCCCCCCCCCCCCCCCCCCCCCCCCC(=O)[O-]
REMARK SMILES IDX 16 1 17 2 18 3 19 4 20 5 21 6 22 7 23 8 24 9 25 10 26 11
REMARK SMILES IDX 27 12 28 13 29 14 30 15 31 16 32 17 15 18 14 19 13 20 12 21
REMARK SMILES IDX 11 22 10 23 9 24 8 25 7 26 6 27 5 28 4 29 3 30 2 31 1 32
REMARK H PARENT
REMARK Flexibility Score: inf
ROOT
ATOM      1  C   UNL     1      21.174  45.191  35.342  1.00  0.00     0.000 C 
ENDROOT
BRANCH   1   2
ATOM      2  C   UNL     1      22.114  45.219  36.564  1.00  0.00     0.000 C 
BRANCH   2   3
ATOM      3  C   UNL     1      23.519  44.632  36.331  1.00  0.00     0.000 C 
BRANCH   3   4
ATOM      4  C   UNL     1      23.582  43.456  35.336  1.00  0.00     0.000 C 
BRANCH   4   5
ATOM      5  C   UNL     1      24.864  42.623  35.477  1.00  0.00     0.000 C 
BRANCH   5   6
ATOM      6  C   UNL     1      26.013  43.481  36.030  1.00  0.00     0.000 C 
BRANCH   6   7
ATOM      7  C   UNL     1      27.141  43.695  35.005  1.00  0.00     0.000 C 
BRANCH   7   8
ATOM      8  C   UNL     1      27.864  42.406  34.574  1.00  0.00     0.000 C 
BRANCH   8   9
ATOM      9  C   UNL     1      27.617  42.054  33.099  1.00  0.00     0.000 C 
BRANCH   9  10
ATOM     10  C   UNL     1      27.819  40.554  32.851  1.00  0.00     0.000 C 
BRANCH  10  11
ATOM     11  C   UNL     1      27.059  39.718  33.891  1.00  0.00     0.000 C 
BRANCH  11  12
ATOM     12  C   UNL     1      27.340  38.208  33.772  1.00  0.00     0.000 C 
BRANCH  12  13
ATOM     13  C   UNL     1      27.437  37.672  32.330  1.00  0.00     0.006 C 
BRANCH  13  14
ATOM     14  C   UNL     1      26.874  36.254  32.136  1.00  0.00     0.053 C 
BRANCH  14  15
ATOM     15  C   UNL     1      27.952  35.214  32.160  1.00  0.00     0.041 C 
ATOM     16  O   UNL     1      28.103  34.483  33.175  1.00  0.00    -0.550 OA
ATOM     17  O   UNL     1      28.808  35.070  31.075  1.00  0.00    -0.550 OA
ENDBRANCH  14  15
ENDBRANCH  13  14
ENDBRANCH  12  13
ENDBRANCH  11  12
ENDBRANCH  10  11
ENDBRANCH   9  10
ENDBRANCH   8   9
ENDBRANCH   7   8
ENDBRANCH   6   7
ENDBRANCH   5   6
ENDBRANCH   4   5
ENDBRANCH   3   4
ENDBRANCH   2   3
ENDBRANCH   1   2
BRANCH   1  18
ATOM     18  C   UNL     1      20.815  46.586  34.788  1.00  0.00     0.000 C 
BRANCH  18  19
ATOM     19  C   UNL     1      20.552  46.571  33.271  1.00  0.00     0.000 C 
BRANCH  19  20
ATOM     20  C   UNL     1      19.433  47.539  32.851  1.00  0.00     0.000 C 
BRANCH  20  21
ATOM     21  C   UNL     1      18.122  46.874  32.380  1.00  0.00     0.000 C 
BRANCH  21  22
ATOM     22  C   UNL     1      17.790  45.508  33.019  1.00  0.00     0.000 C 
BRANCH  22  23
ATOM     23  C   UNL     1      16.768  45.559  34.176  1.00  0.00     0.000 C 
BRANCH  23  24
ATOM     24  C   UNL     1      15.553  46.459  33.901  1.00  0.00    -0.000 C 
BRANCH  24  25
ATOM     25  C   UNL     1      14.282  45.669  33.540  1.00  0.00    -0.000 C 
BRANCH  25  26
ATOM     26  C   UNL     1      13.861  45.865  32.076  1.00  0.00    -0.000 C 
BRANCH  26  27
ATOM     27  C   UNL     1      14.779  45.124  31.089  1.00  0.00    -0.000 C 
BRANCH  27  28
ATOM     28  C   UNL     1      14.816  43.603  31.344  1.00  0.00    -0.000 C 
BRANCH  28  29
ATOM     29  C   UNL     1      13.813  42.803  30.488  1.00  0.00    -0.000 C 
BRANCH  29  30
ATOM     30  C   UNL     1      12.428  42.592  31.128  1.00  0.00    -0.000 C 
BRANCH  30  31
ATOM     31  C   UNL     1      11.235  42.999  30.242  1.00  0.00    -0.003 C 
ATOM     32  C   UNL     1      11.121  44.513  30.057  1.00  0.00     0.004 C 
ENDBRANCH  30  31
ENDBRANCH  29  30
ENDBRANCH  28  29
ENDBRANCH  27  28
ENDBRANCH  26  27
ENDBRANCH  25  26
ENDBRANCH  24  25
ENDBRANCH  23  24
ENDBRANCH  22  23
ENDBRANCH  21  22
ENDBRANCH  20  21
ENDBRANCH  19  20
ENDBRANCH  18  19
ENDBRANCH   1  18
TORSDOF 28
ENDMDL
MODEL 2
REMARK VINA RESULT:    -5.537      4.288     12.965
REMARK INTER + INTRA:         -17.143
REMARK INTER:                 -15.463
REMARK INTRA:                  -1.680
REMARK UNBOUND:                -2.542
REMARK SMILES CCCCCCCCCCCCCCCCCCCCCCCCCCCCCC(=O)[O-]
REMARK SMILES IDX 16 1 17 2 18 3 19 4 20 5 21 6 22 7 23 8 24 9 25 10 26 11
REMARK SMILES IDX 27 12 28 13 29 14 30 15 31 16 32 17 15 18 14 19 13 20 12 21
REMARK SMILES IDX 11 22 10 23 9 24 8 25 7 26 6 27 5 28 4 29 3 30 2 31 1 32
REMARK H PARENT
REMARK Flexibility Score: inf
ROOT
ATOM      1  C   UNL     1      25.283  42.484  35.393  1.00  0.00     0.000 C 
ENDROOT
BRANCH   1   2
ATOM      2  C   UNL     1      23.800  42.872  35.225  1.00  0.00     0.000 C 
BRANCH   2   3
ATOM      3  C   UNL     1      23.451  44.326  35.598  1.00  0.00     0.000 C 
BRANCH   3   4
ATOM      4  C   UNL     1      21.947  44.612  35.781  1.00  0.00     0.000 C 
BRANCH   4   5
ATOM      5  C   UNL     1      21.675  45.931  36.518  1.00  0.00     0.000 C 
BRANCH   5   6
ATOM      6  C   UNL     1      20.704  46.812  35.717  1.00  0.00     0.000 C 
BRANCH   6   7
ATOM      7  C   UNL     1      21.242  47.172  34.321  1.00  0.00     0.000 C 
BRANCH   7   8
ATOM      8  C   UNL     1      20.197  47.086  33.193  1.00  0.00     0.000 C 
BRANCH   8   9
ATOM      9  C   UNL     1      18.754  47.141  33.718  1.00  0.00     0.000 C 
BRANCH   9  10
ATOM     10  C   UNL     1      17.947  45.929  33.235  1.00  0.00     0.000 C 
BRANCH  10  11
ATOM     11  C   UNL     1      16.706  46.374  32.448  1.00  0.00     0.000 C 
BRANCH  11  12
ATOM     12  C   UNL     1      15.689  45.237  32.236  1.00  0.00     0.000 C 
BRANCH  12  13
ATOM     13  C   UNL     1      14.469  45.603  31.367  1.00  0.00     0.006 C 
BRANCH  13  14
ATOM     14  C   UNL     1      13.998  44.486  30.421  1.00  0.00     0.053 C 
BRANCH  14  15
ATOM     15  C   UNL     1      14.089  43.135  31.062  1.00  0.00     0.041 C 
ATOM     16  O   UNL     1      15.099  42.407  30.865  1.00  0.00    -0.550 OA
ATOM     17  O   UNL     1      13.047  42.666  31.853  1.00  0.00    -0.550 OA
ENDBRANCH  14  15
ENDBRANCH  13  14
ENDBRANCH  12  13
ENDBRANCH  11  12
ENDBRANCH  10  11
ENDBRANCH   9  10
ENDBRANCH   8   9
ENDBRANCH   7   8
ENDBRANCH   6   7
ENDBRANCH   5   6
ENDBRANCH   4   5
ENDBRANCH   3   4
ENDBRANCH   2   3
ENDBRANCH   1   2
BRANCH   1  18
ATOM     18  C   UNL     1      26.246  43.687  35.485  1.00  0.00     0.000 C 
BRANCH  18  19
ATOM     19  C   UNL     1      27.651  43.363  34.949  1.00  0.00     0.000 C 
BRANCH  19  20
ATOM     20  C   UNL     1      27.742  41.959  34.326  1.00  0.00     0.000 C 
BRANCH  20  21
ATOM     21  C   UNL     1      27.600  41.904  32.790  1.00  0.00     0.000 C 
BRANCH  21  22
ATOM     22  C   UNL     1      28.141  40.630  32.107  1.00  0.00     0.000 C 
BRANCH  22  23
ATOM     23  C   UNL     1      27.740  39.302  32.787  1.00  0.00     0.000 C 
BRANCH  23  24
ATOM     24  C   UNL     1      27.772  38.083  31.852  1.00  0.00    -0.000 C 
BRANCH  24  25
ATOM     25  C   UNL     1      26.961  36.889  32.384  1.00  0.00    -0.000 C 
BRANCH  25  26
ATOM     26  C   UNL     1      27.556  36.297  33.671  1.00  0.00    -0.000 C 
BRANCH  26  27
ATOM     27  C   UNL     1      27.868  34.796  33.546  1.00  0.00    -0.000 C 
BRANCH  27  28
ATOM     28  C   UNL     1      28.689  34.466  32.282  1.00  0.00    -0.000 C 
BRANCH  28  29
ATOM     29  C   UNL     1      28.070  33.357  31.407  1.00  0.00    -0.000 C 
BRANCH  29  30
ATOM     30  C   UNL     1      27.546  33.821  30.035  1.00  0.00    -0.000 C 
BRANCH  30  31
ATOM     31  C   UNL     1      28.233  35.080  29.471  1.00  0.00    -0.003 C 
ATOM     32  C   UNL     1      29.593  34.783  28.839  1.00  0.00     0.004 C 
ENDBRANCH  30  31
ENDBRANCH  29  30
ENDBRANCH  28  29
ENDBRANCH  27  28
ENDBRANCH  26  27
ENDBRANCH  25  26
ENDBRANCH  24  25
ENDBRANCH  23  24
ENDBRANCH  22  23
ENDBRANCH  21  22
ENDBRANCH  20  21
ENDBRANCH  19  20
ENDBRANCH  18  19
ENDBRANCH   1  18
TORSDOF 28
ENDMDL
MODEL 3
REMARK VINA RESULT:    -5.493      2.385      4.779
REMARK INTER + INTRA:         -17.026
REMARK INTER:                 -15.467
REMARK INTRA:                  -1.560
REMARK UNBOUND:                -2.542
REMARK SMILES CCCCCCCCCCCCCCCCCCCCCCCCCCCCCC(=O)[O-]
REMARK SMILES IDX 16 1 17 2 18 3 19 4 20 5 21 6 22 7 23 8 24 9 25 10 26 11
REMARK SMILES IDX 27 12 28 13 29 14 30 15 31 16 32 17 15 18 14 19 13 20 12 21
REMARK SMILES IDX 11 22 10 23 9 24 8 25 7 26 6 27 5 28 4 29 3 30 2 31 1 32
REMARK H PARENT
REMARK Flexibility Score: inf
ROOT
ATOM      1  C   UNL     1      25.598  42.874  35.499  1.00  0.00     0.000 C 
ENDROOT
BRANCH   1   2
ATOM      2  C   UNL     1      26.998  43.520  35.488  1.00  0.00     0.000 C 
BRANCH   2   3
ATOM      3  C   UNL     1      27.889  43.150  34.286  1.00  0.00     0.000 C 
BRANCH   3   4
ATOM      4  C   UNL     1      27.442  41.903  33.498  1.00  0.00     0.000 C 
BRANCH   4   5
ATOM      5  C   UNL     1      28.021  40.599  34.065  1.00  0.00     0.000 C 
BRANCH   5   6
ATOM      6  C   UNL     1      26.993  39.462  33.973  1.00  0.00     0.000 C 
BRANCH   6   7
ATOM      7  C   UNL     1      27.496  38.270  33.138  1.00  0.00     0.000 C 
BRANCH   7   8
ATOM      8  C   UNL     1      27.417  36.910  33.854  1.00  0.00     0.000 C 
BRANCH   8   9
ATOM      9  C   UNL     1      27.512  35.723  32.883  1.00  0.00     0.000 C 
BRANCH   9  10
ATOM     10  C   UNL     1      26.711  35.995  31.603  1.00  0.00     0.000 C 
BRANCH  10  11
ATOM     11  C   UNL     1      27.420  35.405  30.376  1.00  0.00     0.000 C 
BRANCH  11  12
ATOM     12  C   UNL     1      27.440  33.865  30.375  1.00  0.00     0.000 C 
BRANCH  12  13
ATOM     13  C   UNL     1      26.397  33.197  29.456  1.00  0.00     0.006 C 
BRANCH  13  14
ATOM     14  C   UNL     1      24.937  33.399  29.892  1.00  0.00     0.053 C 
BRANCH  14  15
ATOM     15  C   UNL     1      23.984  32.614  29.043  1.00  0.00     0.041 C 
ATOM     16  O   UNL     1      22.868  32.260  29.507  1.00  0.00    -0.550 OA
ATOM     17  O   UNL     1      24.339  32.250  27.750  1.00  0.00    -0.550 OA
ENDBRANCH  14  15
ENDBRANCH  13  14
ENDBRANCH  12  13
ENDBRANCH  11  12
ENDBRANCH  10  11
ENDBRANCH   9  10
ENDBRANCH   8   9
ENDBRANCH   7   8
ENDBRANCH   6   7
ENDBRANCH   5   6
ENDBRANCH   4   5
ENDBRANCH   3   4
ENDBRANCH   2   3
ENDBRANCH   1   2
BRANCH   1  18
ATOM     18  C   UNL     1      24.501  43.753  36.137  1.00  0.00     0.000 C 
BRANCH  18  19
ATOM     19  C   UNL     1      23.186  43.730  35.339  1.00  0.00     0.000 C 
BRANCH  19  20
ATOM     20  C   UNL     1      22.125  44.685  35.912  1.00  0.00     0.000 C 
BRANCH  20  21
ATOM     21  C   UNL     1      21.199  45.352  34.872  1.00  0.00     0.000 C 
BRANCH  21  22
ATOM     22  C   UNL     1      21.320  46.886  34.746  1.00  0.00     0.000 C 
BRANCH  22  23
ATOM     23  C   UNL     1      20.066  47.596  34.188  1.00  0.00     0.000 C 
BRANCH  23  24
ATOM     24  C   UNL     1      19.958  47.565  32.655  1.00  0.00    -0.000 C 
BRANCH  24  25
ATOM     25  C   UNL     1      18.532  47.280  32.153  1.00  0.00    -0.000 C 
BRANCH  25  26
ATOM     26  C   UNL     1      17.659  46.593  33.215  1.00  0.00    -0.000 C 
BRANCH  26  27
ATOM     27  C   UNL     1      17.310  45.141  32.848  1.00  0.00    -0.000 C 
BRANCH  27  28
ATOM     28  C   UNL     1      15.795  44.927  32.655  1.00  0.00    -0.000 C 
BRANCH  28  29
ATOM     29  C   UNL     1      15.058  46.157  32.086  1.00  0.00    -0.000 C 
BRANCH  29  30
ATOM     30  C   UNL     1      14.770  46.107  30.574  1.00  0.00    -0.000 C 
BRANCH  30  31
ATOM     31  C   UNL     1      13.285  45.936  30.203  1.00  0.00    -0.003 C 
ATOM     32  C   UNL     1      12.760  44.528  30.486  1.00  0.00     0.004 C 
ENDBRANCH  30  31
ENDBRANCH  29  30
ENDBRANCH  28  29
ENDBRANCH  27  28
ENDBRANCH  26  27
ENDBRANCH  25  26
ENDBRANCH  24  25
ENDBRANCH  23  24
ENDBRANCH  22  23
ENDBRANCH  21  22
ENDBRANCH  20  21
ENDBRANCH  19  20
ENDBRANCH  18  19
ENDBRANCH   1  18
TORSDOF 28
ENDMDL
MODEL 4
REMARK VINA RESULT:    -5.479      5.103     12.312
REMARK INTER + INTRA:         -16.988
REMARK INTER:                 -14.274
REMARK INTRA:                  -2.714
REMARK UNBOUND:                -2.542
REMARK SMILES CCCCCCCCCCCCCCCCCCCCCCCCCCCCCC(=O)[O-]
REMARK SMILES IDX 16 1 17 2 18 3 19 4 20 5 21 6 22 7 23 8 24 9 25 10 26 11
REMARK SMILES IDX 27 12 28 13 29 14 30 15 31 16 32 17 15 18 14 19 13 20 12 21
REMARK SMILES IDX 11 22 10 23 9 24 8 25 7 26 6 27 5 28 4 29 3 30 2 31 1 32
REMARK H PARENT
REMARK Flexibility Score: inf
ROOT
ATOM      1  C   UNL     1      23.312  43.817  35.204  1.00  0.00     0.000 C 
ENDROOT
BRANCH   1   2
ATOM      2  C   UNL     1      22.063  44.620  35.619  1.00  0.00     0.000 C 
BRANCH   2   3
ATOM      3  C   UNL     1      22.237  46.151  35.639  1.00  0.00     0.000 C 
BRANCH   3   4
ATOM      4  C   UNL     1      21.951  46.826  36.996  1.00  0.00     0.000 C 
BRANCH   4   5
ATOM      5  C   UNL     1      22.037  45.850  38.178  1.00  0.00     0.000 C 
BRANCH   5   6
ATOM      6  C   UNL     1      21.227  46.372  39.374  1.00  0.00     0.000 C 
BRANCH   6   7
ATOM      7  C   UNL     1      19.724  46.058  39.257  1.00  0.00     0.000 C 
BRANCH   7   8
ATOM      8  C   UNL     1      19.405  44.724  38.559  1.00  0.00     0.000 C 
BRANCH   8   9
ATOM      9  C   UNL     1      17.895  44.498  38.377  1.00  0.00     0.000 C 
BRANCH   9  10
ATOM     10  C   UNL     1      17.452  44.866  36.955  1.00  0.00     0.000 C 
BRANCH  10  11
ATOM     11  C   UNL     1      18.355  44.196  35.909  1.00  0.00     0.000 C 
BRANCH  11  12
ATOM     12  C   UNL     1      18.568  45.064  34.654  1.00  0.00     0.000 C 
BRANCH  12  13
ATOM     13  C   UNL     1      18.790  46.565  34.926  1.00  0.00     0.006 C 
BRANCH  13  14
ATOM     14  C   UNL     1      18.206  47.502  33.856  1.00  0.00     0.053 C 
BRANCH  14  15
ATOM     15  C   UNL     1      19.260  48.012  32.922  1.00  0.00     0.041 C 
ATOM     16  O   UNL     1      19.051  49.048  32.236  1.00  0.00    -0.550 OA
ATOM     17  O   UNL     1      20.464  47.329  32.788  1.00  0.00    -0.550 OA
ENDBRANCH  14  15
ENDBRANCH  13  14
ENDBRANCH  12  13
ENDBRANCH  11  12
ENDBRANCH  10  11
ENDBRANCH   9  10
ENDBRANCH   8   9
ENDBRANCH   7   8
ENDBRANCH   6   7
ENDBRANCH   5   6
ENDBRANCH   4   5
ENDBRANCH   3   4
ENDBRANCH   2   3
ENDBRANCH   1   2
BRANCH   1  18
ATOM     18  C   UNL     1      24.477  43.892  36.213  1.00  0.00     0.000 C 
BRANCH  18  19
ATOM     19  C   UNL     1      25.663  42.995  35.816  1.00  0.00     0.000 C 
BRANCH  19  20
ATOM     20  C   UNL     1      26.910  43.800  35.413  1.00  0.00     0.000 C 
BRANCH  20  21
ATOM     21  C   UNL     1      27.896  43.072  34.475  1.00  0.00     0.000 C 
BRANCH  21  22
ATOM     22  C   UNL     1      27.438  41.694  33.952  1.00  0.00     0.000 C 
BRANCH  22  23
ATOM     23  C   UNL     1      27.588  41.490  32.427  1.00  0.00     0.000 C 
BRANCH  23  24
ATOM     24  C   UNL     1      28.244  40.157  32.034  1.00  0.00    -0.000 C 
BRANCH  24  25
ATOM     25  C   UNL     1      27.919  39.011  33.007  1.00  0.00    -0.000 C 
BRANCH  25  26
ATOM     26  C   UNL     1      27.004  37.946  32.381  1.00  0.00    -0.000 C 
BRANCH  26  27
ATOM     27  C   UNL     1      27.785  36.734  31.844  1.00  0.00    -0.000 C 
BRANCH  27  28
ATOM     28  C   UNL     1      27.988  35.641  32.912  1.00  0.00    -0.000 C 
BRANCH  28  29
ATOM     29  C   UNL     1      28.699  34.377  32.385  1.00  0.00    -0.000 C 
BRANCH  29  30
ATOM     30  C   UNL     1      27.771  33.307  31.781  1.00  0.00    -0.000 C 
BRANCH  30  31
ATOM     31  C   UNL     1      27.360  33.557  30.317  1.00  0.00    -0.003 C 
ATOM     32  C   UNL     1      25.867  33.342  30.073  1.00  0.00     0.004 C 
ENDBRANCH  30  31
ENDBRANCH  29  30
ENDBRANCH  28  29
ENDBRANCH  27  28
ENDBRANCH  26  27
ENDBRANCH  25  26
ENDBRANCH  24  25
ENDBRANCH  23  24
ENDBRANCH  22  23
ENDBRANCH  21  22
ENDBRANCH  20  21
ENDBRANCH  19  20
ENDBRANCH  18  19
ENDBRANCH   1  18
TORSDOF 28
ENDMDL
MODEL 5
REMARK VINA RESULT:    -5.445      2.921      5.532
REMARK INTER + INTRA:         -16.901
REMARK INTER:                 -14.441
REMARK INTRA:                  -2.460
REMARK UNBOUND:                -2.542
REMARK SMILES CCCCCCCCCCCCCCCCCCCCCCCCCCCCCC(=O)[O-]
REMARK SMILES IDX 16 1 17 2 18 3 19 4 20 5 21 6 22 7 23 8 24 9 25 10 26 11
REMARK SMILES IDX 27 12 28 13 29 14 30 15 31 16 32 17 15 18 14 19 13 20 12 21
REMARK SMILES IDX 11 22 10 23 9 24 8 25 7 26 6 27 5 28 4 29 3 30 2 31 1 32
REMARK H PARENT
REMARK Flexibility Score: inf
ROOT
ATOM      1  C   UNL     1      25.559  43.447  35.263  1.00  0.00     0.000 C 
ENDROOT
BRANCH   1   2
ATOM      2  C   UNL     1      27.064  43.774  35.208  1.00  0.00     0.000 C 
BRANCH   2   3
ATOM      3  C   UNL     1      27.871  43.003  34.146  1.00  0.00     0.000 C 
BRANCH   3   4
ATOM      4  C   UNL     1      27.382  41.568  33.865  1.00  0.00     0.000 C 
BRANCH   4   5
ATOM      5  C   UNL     1      27.929  40.998  32.549  1.00  0.00     0.000 C 
BRANCH   5   6
ATOM      6  C   UNL     1      27.932  39.462  32.581  1.00  0.00     0.000 C 
BRANCH   6   7
ATOM      7  C   UNL     1      27.998  38.898  34.013  1.00  0.00     0.000 C 
BRANCH   7   8
ATOM      8  C   UNL     1      26.813  37.993  34.396  1.00  0.00     0.000 C 
BRANCH   8   9
ATOM      9  C   UNL     1      27.263  36.660  35.016  1.00  0.00     0.000 C 
BRANCH   9  10
ATOM     10  C   UNL     1      27.100  35.507  34.017  1.00  0.00     0.000 C 
BRANCH  10  11
ATOM     11  C   UNL     1      28.165  35.582  32.914  1.00  0.00     0.000 C 
BRANCH  11  12
ATOM     12  C   UNL     1      28.748  34.205  32.546  1.00  0.00     0.000 C 
BRANCH  12  13
ATOM     13  C   UNL     1      27.936  33.406  31.507  1.00  0.00     0.006 C 
BRANCH  13  14
ATOM     14  C   UNL     1      27.410  34.239  30.327  1.00  0.00     0.053 C 
BRANCH  14  15
ATOM     15  C   UNL     1      25.920  34.389  30.367  1.00  0.00     0.041 C 
ATOM     16  O   UNL     1      25.178  33.399  30.127  1.00  0.00    -0.550 OA
ATOM     17  O   UNL     1      25.349  35.626  30.640  1.00  0.00    -0.550 OA
ENDBRANCH  14  15
ENDBRANCH  13  14
ENDBRANCH  12  13
ENDBRANCH  11  12
ENDBRANCH  10  11
ENDBRANCH   9  10
ENDBRANCH   8   9
ENDBRANCH   7   8
ENDBRANCH   6   7
ENDBRANCH   5   6
ENDBRANCH   4   5
ENDBRANCH   3   4
ENDBRANCH   2   3
ENDBRANCH   1   2
BRANCH   1  18
ATOM     18  C   UNL     1      24.913  43.669  36.647  1.00  0.00     0.000 C 
BRANCH  18  19
ATOM     19  C   UNL     1      23.710  44.628  36.592  1.00  0.00     0.000 C 
BRANCH  19  20
ATOM     20  C   UNL     1      22.821  44.398  35.358  1.00  0.00     0.000 C 
BRANCH  20  21
ATOM     21  C   UNL     1      21.336  44.785  35.527  1.00  0.00     0.000 C 
BRANCH  21  22
ATOM     22  C   UNL     1      21.062  46.247  35.939  1.00  0.00     0.000 C 
BRANCH  22  23
ATOM     23  C   UNL     1      20.329  47.099  34.878  1.00  0.00     0.000 C 
BRANCH  23  24
ATOM     24  C   UNL     1      20.747  46.795  33.431  1.00  0.00    -0.000 C 
BRANCH  24  25
ATOM     25  C   UNL     1      19.570  46.372  32.535  1.00  0.00    -0.000 C 
BRANCH  25  26
ATOM     26  C   UNL     1      18.229  46.371  33.285  1.00  0.00    -0.000 C 
BRANCH  26  27
ATOM     27  C   UNL     1      17.515  45.009  33.220  1.00  0.00    -0.000 C 
BRANCH  27  28
ATOM     28  C   UNL     1      17.859  44.103  34.420  1.00  0.00    -0.000 C 
BRANCH  28  29
ATOM     29  C   UNL     1      17.557  44.741  35.791  1.00  0.00    -0.000 C 
BRANCH  29  30
ATOM     30  C   UNL     1      18.287  44.102  36.987  1.00  0.00    -0.000 C 
BRANCH  30  31
ATOM     31  C   UNL     1      17.609  44.322  38.353  1.00  0.00    -0.003 C 
ATOM     32  C   UNL     1      18.604  44.668  39.461  1.00  0.00     0.004 C 
ENDBRANCH  30  31
ENDBRANCH  29  30
ENDBRANCH  28  29
ENDBRANCH  27  28
ENDBRANCH  26  27
ENDBRANCH  25  26
ENDBRANCH  24  25
ENDBRANCH  23  24
ENDBRANCH  22  23
ENDBRANCH  21  22
ENDBRANCH  20  21
ENDBRANCH  19  20
ENDBRANCH  18  19
ENDBRANCH   1  18
TORSDOF 28
ENDMDL
MODEL 6
REMARK VINA RESULT:    -5.438      6.358     12.613
REMARK INTER + INTRA:         -16.882
REMARK INTER:                 -14.537
REMARK INTRA:                  -2.346
REMARK UNBOUND:                -2.542
REMARK SMILES CCCCCCCCCCCCCCCCCCCCCCCCCCCCCC(=O)[O-]
REMARK SMILES IDX 16 1 17 2 18 3 19 4 20 5 21 6 22 7 23 8 24 9 25 10 26 11
REMARK SMILES IDX 27 12 28 13 29 14 30 15 31 16 32 17 15 18 14 19 13 20 12 21
REMARK SMILES IDX 11 22 10 23 9 24 8 25 7 26 6 27 5 28 4 29 3 30 2 31 1 32
REMARK H PARENT
REMARK Flexibility Score: inf
ROOT
ATOM      1  C   UNL     1      27.865  35.639  32.760  1.00  0.00     0.000 C 
ENDROOT
BRANCH   1   2
ATOM      2  C   UNL     1      27.339  36.737  31.814  1.00  0.00     0.000 C 
BRANCH   2   3
ATOM      3  C   UNL     1      27.507  38.183  32.319  1.00  0.00     0.000 C 
BRANCH   3   4
ATOM      4  C   UNL     1      27.534  38.342  33.852  1.00  0.00     0.000 C 
BRANCH   4   5
ATOM      5  C   UNL     1      27.994  39.737  34.299  1.00  0.00     0.000 C 
BRANCH   5   6
ATOM      6  C   UNL     1      27.182  40.831  33.589  1.00  0.00     0.000 C 
BRANCH   6   7
ATOM      7  C   UNL     1      27.884  42.201  33.611  1.00  0.00     0.000 C 
BRANCH   7   8
ATOM      8  C   UNL     1      27.902  42.887  34.989  1.00  0.00     0.000 C 
BRANCH   8   9
ATOM      9  C   UNL     1      26.772  43.916  35.152  1.00  0.00     0.000 C 
BRANCH   9  10
ATOM     10  C   UNL     1      25.827  43.517  36.294  1.00  0.00     0.000 C 
BRANCH  10  11
ATOM     11  C   UNL     1      24.711  42.593  35.785  1.00  0.00     0.000 C 
BRANCH  11  12
ATOM     12  C   UNL     1      23.541  43.361  35.141  1.00  0.00     0.000 C 
BRANCH  12  13
ATOM     13  C   UNL     1      23.023  44.566  35.951  1.00  0.00     0.006 C 
BRANCH  13  14
ATOM     14  C   UNL     1      21.640  45.081  35.519  1.00  0.00     0.053 C 
BRANCH  14  15
ATOM     15  C   UNL     1      21.653  46.551  35.236  1.00  0.00     0.041 C 
ATOM     16  O   UNL     1      21.115  46.999  34.188  1.00  0.00    -0.550 OA
ATOM     17  O   UNL     1      22.282  47.426  36.114  1.00  0.00    -0.550 OA
ENDBRANCH  14  15
ENDBRANCH  13  14
ENDBRANCH  12  13
ENDBRANCH  11  12
ENDBRANCH  10  11
ENDBRANCH   9  10
ENDBRANCH   8   9
ENDBRANCH   7   8
ENDBRANCH   6   7
ENDBRANCH   5   6
ENDBRANCH   4   5
ENDBRANCH   3   4
ENDBRANCH   2   3
ENDBRANCH   1   2
BRANCH   1  18
ATOM     18  C   UNL     1      28.565  34.466  32.041  1.00  0.00     0.000 C 
BRANCH  18  19
ATOM     19  C   UNL     1      28.767  34.729  30.538  1.00  0.00     0.000 C 
BRANCH  19  20
ATOM     20  C   UNL     1      27.958  33.766  29.651  1.00  0.00     0.000 C 
BRANCH  20  21
ATOM     21  C   UNL     1      26.454  33.661  29.983  1.00  0.00     0.000 C 
BRANCH  21  22
ATOM     22  C   UNL     1      25.666  32.581  29.212  1.00  0.00     0.000 C 
BRANCH  22  23
ATOM     23  C   UNL     1      24.143  32.822  29.122  1.00  0.00     0.000 C 
BRANCH  23  24
ATOM     24  C   UNL     1      23.391  31.777  28.282  1.00  0.00    -0.000 C 
BRANCH  24  25
ATOM     25  C   UNL     1      22.425  32.402  27.261  1.00  0.00    -0.000 C 
BRANCH  25  26
ATOM     26  C   UNL     1      21.645  31.346  26.463  1.00  0.00    -0.000 C 
BRANCH  26  27
ATOM     27  C   UNL     1      21.961  29.909  26.912  1.00  0.00    -0.000 C 
BRANCH  27  28
ATOM     28  C   UNL     1      20.742  29.203  27.540  1.00  0.00    -0.000 C 
BRANCH  28  29
ATOM     29  C   UNL     1      19.503  30.110  27.686  1.00  0.00    -0.000 C 
BRANCH  29  30
ATOM     30  C   UNL     1      19.121  30.470  29.133  1.00  0.00    -0.000 C 
BRANCH  30  31
ATOM     31  C   UNL     1      20.057  31.486  29.816  1.00  0.00    -0.003 C 
ATOM     32  C   UNL     1      20.753  30.916  31.052  1.00  0.00     0.004 C 
ENDBRANCH  30  31
ENDBRANCH  29  30
ENDBRANCH  28  29
ENDBRANCH  27  28
ENDBRANCH  26  27
ENDBRANCH  25  26
ENDBRANCH  24  25
ENDBRANCH  23  24
ENDBRANCH  22  23
ENDBRANCH  21  22
ENDBRANCH  20  21
ENDBRANCH  19  20
ENDBRANCH  18  19
ENDBRANCH   1  18
TORSDOF 28
ENDMDL
MODEL 7
REMARK VINA RESULT:    -5.407      9.451     12.790
REMARK INTER + INTRA:         -16.801
REMARK INTER:                 -12.445
REMARK INTRA:                  -4.356
REMARK UNBOUND:                -2.542
REMARK SMILES CCCCCCCCCCCCCCCCCCCCCCCCCCCCCC(=O)[O-]
REMARK SMILES IDX 16 1 17 2 18 3 19 4 20 5 21 6 22 7 23 8 24 9 25 10 26 11
REMARK SMILES IDX 27 12 28 13 29 14 30 15 31 16 32 17 15 18 14 19 13 20 12 21
REMARK SMILES IDX 11 22 10 23 9 24 8 25 7 26 6 27 5 28 4 29 3 30 2 31 1 32
REMARK H PARENT
REMARK Flexibility Score: inf
ROOT
ATOM      1  C   UNL     1      17.105  30.165  27.268  1.00  0.00     0.000 C 
ENDROOT
BRANCH   1   2
ATOM      2  C   UNL     1      18.261  30.944  26.609  1.00  0.00     0.000 C 
BRANCH   2   3
ATOM      3  C   UNL     1      18.389  32.420  27.029  1.00  0.00     0.000 C 
BRANCH   3   4
ATOM      4  C   UNL     1      19.732  32.802  27.683  1.00  0.00     0.000 C 
BRANCH   4   5
ATOM      5  C   UNL     1      19.886  32.243  29.104  1.00  0.00     0.000 C 
BRANCH   5   6
ATOM      6  C   UNL     1      20.977  31.162  29.148  1.00  0.00     0.000 C 
BRANCH   6   7
ATOM      7  C   UNL     1      22.384  31.747  29.366  1.00  0.00     0.000 C 
BRANCH   7   8
ATOM      8  C   UNL     1      23.382  31.446  28.233  1.00  0.00     0.000 C 
BRANCH   8   9
ATOM      9  C   UNL     1      24.704  32.215  28.388  1.00  0.00     0.000 C 
BRANCH   9  10
ATOM     10  C   UNL     1      24.599  33.267  29.500  1.00  0.00     0.000 C 
BRANCH  10  11
ATOM     11  C   UNL     1      25.864  33.272  30.371  1.00  0.00     0.000 C 
BRANCH  11  12
ATOM     12  C   UNL     1      27.108  33.788  29.623  1.00  0.00     0.000 C 
BRANCH  12  13
ATOM     13  C   UNL     1      27.605  35.180  30.060  1.00  0.00     0.006 C 
BRANCH  13  14
ATOM     14  C   UNL     1      26.846  35.785  31.252  1.00  0.00     0.053 C 
BRANCH  14  15
ATOM     15  C   UNL     1      27.679  35.803  32.497  1.00  0.00     0.041 C 
ATOM     16  O   UNL     1      28.517  34.886  32.710  1.00  0.00    -0.550 OA
ATOM     17  O   UNL     1      27.513  36.815  33.435  1.00  0.00    -0.550 OA
ENDBRANCH  14  15
ENDBRANCH  13  14
ENDBRANCH  12  13
ENDBRANCH  11  12
ENDBRANCH  10  11
ENDBRANCH   9  10
ENDBRANCH   8   9
ENDBRANCH   7   8
ENDBRANCH   6   7
ENDBRANCH   5   6
ENDBRANCH   4   5
ENDBRANCH   3   4
ENDBRANCH   2   3
ENDBRANCH   1   2
BRANCH   1  18
ATOM     18  C   UNL     1      16.629  30.756  28.613  1.00  0.00     0.000 C 
BRANCH  18  19
ATOM     19  C   UNL     1      15.103  30.671  28.789  1.00  0.00     0.000 C 
BRANCH  19  20
ATOM     20  C   UNL     1      14.465  32.032  29.116  1.00  0.00     0.000 C 
BRANCH  20  21
ATOM     21  C   UNL     1      15.340  33.267  28.812  1.00  0.00     0.000 C 
BRANCH  21  22
ATOM     22  C   UNL     1      14.592  34.516  28.298  1.00  0.00     0.000 C 
BRANCH  22  23
ATOM     23  C   UNL     1      13.052  34.391  28.275  1.00  0.00     0.000 C 
BRANCH  23  24
ATOM     24  C   UNL     1      12.432  34.534  26.875  1.00  0.00    -0.000 C 
BRANCH  24  25
ATOM     25  C   UNL     1      11.187  33.654  26.671  1.00  0.00    -0.000 C 
BRANCH  25  26
ATOM     26  C   UNL     1      11.181  32.417  27.582  1.00  0.00    -0.000 C 
BRANCH  26  27
ATOM     27  C   UNL     1      11.657  31.145  26.858  1.00  0.00    -0.000 C 
BRANCH  27  28
ATOM     28  C   UNL     1      12.158  31.431  25.428  1.00  0.00    -0.000 C 
BRANCH  28  29
ATOM     29  C   UNL     1      13.594  30.938  25.159  1.00  0.00    -0.000 C 
BRANCH  29  30
ATOM     30  C   UNL     1      14.700  31.983  25.395  1.00  0.00    -0.000 C 
BRANCH  30  31
ATOM     31  C   UNL     1      14.746  33.125  24.362  1.00  0.00    -0.003 C 
ATOM     32  C   UNL     1      15.832  34.157  24.664  1.00  0.00     0.004 C 
ENDBRANCH  30  31
ENDBRANCH  29  30
ENDBRANCH  28  29
ENDBRANCH  27  28
ENDBRANCH  26  27
ENDBRANCH  25  26
ENDBRANCH  24  25
ENDBRANCH  23  24
ENDBRANCH  22  23
ENDBRANCH  21  22
ENDBRANCH  20  21
ENDBRANCH  19  20
ENDBRANCH  18  19
ENDBRANCH   1  18
TORSDOF 28
ENDMDL
MODEL 8
REMARK VINA RESULT:    -5.381     10.194     12.779
REMARK INTER + INTRA:         -16.732
REMARK INTER:                 -12.714
REMARK INTRA:                  -4.018
REMARK UNBOUND:                -2.542
REMARK SMILES CCCCCCCCCCCCCCCCCCCCCCCCCCCCCC(=O)[O-]
REMARK SMILES IDX 16 1 17 2 18 3 19 4 20 5 21 6 22 7 23 8 24 9 25 10 26 11
REMARK SMILES IDX 27 12 28 13 29 14 30 15 31 16 32 17 15 18 14 19 13 20 12 21
REMARK SMILES IDX 11 22 10 23 9 24 8 25 7 26 6 27 5 28 4 29 3 30 2 31 1 32
REMARK H PARENT
REMARK Flexibility Score: inf
ROOT
ATOM      1  C   UNL     1      20.376  32.940  26.497  1.00  0.00     0.000 C 
ENDROOT
BRANCH   1   2
ATOM      2  C   UNL     1      19.817  33.008  27.932  1.00  0.00     0.000 C 
BRANCH   2   3
ATOM      3  C   UNL     1      18.804  31.906  28.300  1.00  0.00     0.000 C 
BRANCH   3   4
ATOM      4  C   UNL     1      19.302  30.878  29.336  1.00  0.00     0.000 C 
BRANCH   4   5
ATOM      5  C   UNL     1      20.484  31.393  30.169  1.00  0.00     0.000 C 
BRANCH   5   6
ATOM      6  C   UNL     1      21.639  30.380  30.159  1.00  0.00     0.000 C 
BRANCH   6   7
ATOM      7  C   UNL     1      22.245  30.184  28.757  1.00  0.00     0.000 C 
BRANCH   7   8
ATOM      8  C   UNL     1      23.711  30.635  28.627  1.00  0.00     0.000 C 
BRANCH   8   9
ATOM      9  C   UNL     1      23.850  32.158  28.474  1.00  0.00     0.000 C 
BRANCH   9  10
ATOM     10  C   UNL     1      25.108  32.669  29.187  1.00  0.00     0.000 C 
BRANCH  10  11
ATOM     11  C   UNL     1      24.784  33.885  30.068  1.00  0.00     0.000 C 
BRANCH  11  12
ATOM     12  C   UNL     1      26.040  34.655  30.516  1.00  0.00     0.000 C 
BRANCH  12  13
ATOM     13  C   UNL     1      27.379  33.939  30.247  1.00  0.00     0.006 C 
BRANCH  13  14
ATOM     14  C   UNL     1      28.503  34.291  31.235  1.00  0.00     0.053 C 
BRANCH  14  15
ATOM     15  C   UNL     1      28.182  33.848  32.630  1.00  0.00     0.041 C 
ATOM     16  O   UNL     1      28.240  32.627  32.935  1.00  0.00    -0.550 OA
ATOM     17  O   UNL     1      27.793  34.779  33.586  1.00  0.00    -0.550 OA
ENDBRANCH  14  15
ENDBRANCH  13  14
ENDBRANCH  12  13
ENDBRANCH  11  12
ENDBRANCH  10  11
ENDBRANCH   9  10
ENDBRANCH   8   9
ENDBRANCH   7   8
ENDBRANCH   6   7
ENDBRANCH   5   6
ENDBRANCH   4   5
ENDBRANCH   3   4
ENDBRANCH   2   3
ENDBRANCH   1   2
BRANCH   1  18
ATOM     18  C   UNL     1      19.994  31.657  25.729  1.00  0.00     0.000 C 
BRANCH  18  19
ATOM     19  C   UNL     1      19.181  31.951  24.455  1.00  0.00     0.000 C 
BRANCH  19  20
ATOM     20  C   UNL     1      17.841  31.196  24.416  1.00  0.00     0.000 C 
BRANCH  20  21
ATOM     21  C   UNL     1      16.706  31.814  25.262  1.00  0.00     0.000 C 
BRANCH  21  22
ATOM     22  C   UNL     1      16.733  33.351  25.408  1.00  0.00     0.000 C 
BRANCH  22  23
ATOM     23  C   UNL     1      15.437  34.072  24.975  1.00  0.00     0.000 C 
BRANCH  23  24
ATOM     24  C   UNL     1      14.165  33.222  25.130  1.00  0.00    -0.000 C 
BRANCH  24  25
ATOM     25  C   UNL     1      13.003  33.986  25.786  1.00  0.00    -0.000 C 
BRANCH  25  26
ATOM     26  C   UNL     1      11.882  33.053  26.270  1.00  0.00    -0.000 C 
BRANCH  26  27
ATOM     27  C   UNL     1      11.670  33.120  27.793  1.00  0.00    -0.000 C 
BRANCH  27  28
ATOM     28  C   UNL     1      12.065  31.809  28.503  1.00  0.00    -0.000 C 
BRANCH  28  29
ATOM     29  C   UNL     1      13.487  31.319  28.163  1.00  0.00    -0.000 C 
BRANCH  29  30
ATOM     30  C   UNL     1      14.554  31.605  29.236  1.00  0.00    -0.000 C 
BRANCH  30  31
ATOM     31  C   UNL     1      15.601  32.665  28.844  1.00  0.00    -0.003 C 
ATOM     32  C   UNL     1      15.030  34.083  28.819  1.00  0.00     0.004 C 
ENDBRANCH  30  31
ENDBRANCH  29  30
ENDBRANCH  28  29
ENDBRANCH  27  28
ENDBRANCH  26  27
ENDBRANCH  25  26
ENDBRANCH  24  25
ENDBRANCH  23  24
ENDBRANCH  22  23
ENDBRANCH  21  22
ENDBRANCH  20  21
ENDBRANCH  19  20
ENDBRANCH  18  19
ENDBRANCH   1  18
TORSDOF 28
ENDMDL
MODEL 9
REMARK VINA RESULT:    -5.323      3.375      6.692
REMARK INTER + INTRA:         -16.579
REMARK INTER:                 -12.539
REMARK INTRA:                  -4.040
REMARK UNBOUND:                -2.542
REMARK SMILES CCCCCCCCCCCCCCCCCCCCCCCCCCCCCC(=O)[O-]
REMARK SMILES IDX 16 1 17 2 18 3 19 4 20 5 21 6 22 7 23 8 24 9 25 10 26 11
REMARK SMILES IDX 27 12 28 13 29 14 30 15 31 16 32 17 15 18 14 19 13 20 12 21
REMARK SMILES IDX 11 22 10 23 9 24 8 25 7 26 6 27 5 28 4 29 3 30 2 31 1 32
REMARK H PARENT
REMARK Flexibility Score: inf
ROOT
ATOM      1  C   UNL     1      16.424  44.668  32.597  1.00  0.00     0.000 C 
ENDROOT
BRANCH   1   2
ATOM      2  C   UNL     1      17.614  44.881  33.554  1.00  0.00     0.000 C 
BRANCH   2   3
ATOM      3  C   UNL     1      18.926  45.336  32.887  1.00  0.00     0.000 C 
BRANCH   3   4
ATOM      4  C   UNL     1      19.273  46.827  33.073  1.00  0.00     0.000 C 
BRANCH   4   5
ATOM      5  C   UNL     1      18.444  47.500  34.177  1.00  0.00     0.000 C 
BRANCH   5   6
ATOM      6  C   UNL     1      19.356  48.057  35.280  1.00  0.00     0.000 C 
BRANCH   6   7
ATOM      7  C   UNL     1      20.604  47.186  35.515  1.00  0.00     0.000 C 
BRANCH   7   8
ATOM      8  C   UNL     1      20.469  46.177  36.670  1.00  0.00     0.000 C 
BRANCH   8   9
ATOM      9  C   UNL     1      21.099  44.814  36.343  1.00  0.00     0.000 C 
BRANCH   9  10
ATOM     10  C   UNL     1      21.999  44.909  35.103  1.00  0.00     0.000 C 
BRANCH  10  11
ATOM     11  C   UNL     1      23.047  43.786  35.100  1.00  0.00     0.000 C 
BRANCH  11  12
ATOM     12  C   UNL     1      24.235  44.070  36.038  1.00  0.00     0.000 C 
BRANCH  12  13
ATOM     13  C   UNL     1      25.446  43.132  35.864  1.00  0.00     0.006 C 
BRANCH  13  14
ATOM     14  C   UNL     1      26.750  43.838  35.456  1.00  0.00     0.053 C 
BRANCH  14  15
ATOM     15  C   UNL     1      27.744  42.885  34.870  1.00  0.00     0.041 C 
ATOM     16  O   UNL     1      28.700  42.457  35.570  1.00  0.00    -0.550 OA
ATOM     17  O   UNL     1      27.633  42.488  33.542  1.00  0.00    -0.550 OA
ENDBRANCH  14  15
ENDBRANCH  13  14
ENDBRANCH  12  13
ENDBRANCH  11  12
ENDBRANCH  10  11
ENDBRANCH   9  10
ENDBRANCH   8   9
ENDBRANCH   7   8
ENDBRANCH   6   7
ENDBRANCH   5   6
ENDBRANCH   4   5
ENDBRANCH   3   4
ENDBRANCH   2   3
ENDBRANCH   1   2
BRANCH   1  18
ATOM     18  C   UNL     1      15.866  45.969  31.982  1.00  0.00     0.000 C 
BRANCH  18  19
ATOM     19  C   UNL     1      14.735  45.708  30.971  1.00  0.00     0.000 C 
BRANCH  19  20
ATOM     20  C   UNL     1      13.594  46.735  31.075  1.00  0.00     0.000 C 
BRANCH  20  21
ATOM     21  C   UNL     1      12.570  46.709  29.920  1.00  0.00     0.000 C 
BRANCH  21  22
ATOM     22  C   UNL     1      11.088  46.588  30.334  1.00  0.00     0.000 C 
BRANCH  22  23
ATOM     23  C   UNL     1      10.411  45.251  29.957  1.00  0.00     0.000 C 
BRANCH  23  24
ATOM     24  C   UNL     1      11.357  44.040  29.981  1.00  0.00    -0.000 C 
BRANCH  24  25
ATOM     25  C   UNL     1      11.133  43.120  31.193  1.00  0.00    -0.000 C 
BRANCH  25  26
ATOM     26  C   UNL     1      11.542  43.780  32.520  1.00  0.00    -0.000 C 
BRANCH  26  27
ATOM     27  C   UNL     1      12.866  43.228  33.075  1.00  0.00    -0.000 C 
BRANCH  27  28
ATOM     28  C   UNL     1      12.927  43.274  34.615  1.00  0.00    -0.000 C 
BRANCH  28  29
ATOM     29  C   UNL     1      14.047  44.178  35.169  1.00  0.00    -0.000 C 
BRANCH  29  30
ATOM     30  C   UNL     1      13.648  45.647  35.403  1.00  0.00    -0.000 C 
BRANCH  30  31
ATOM     31  C   UNL     1      14.828  46.636  35.471  1.00  0.00    -0.003 C 
ATOM     32  C   UNL     1      15.877  46.239  36.511  1.00  0.00     0.004 C 
ENDBRANCH  30  31
ENDBRANCH  29  30
ENDBRANCH  28  29
ENDBRANCH  27  28
ENDBRANCH  26  27
ENDBRANCH  25  26
ENDBRANCH  24  25
ENDBRANCH  23  24
ENDBRANCH  22  23
ENDBRANCH  21  22
ENDBRANCH  20  21
ENDBRANCH  19  20
ENDBRANCH  18  19
ENDBRANCH   1  18
TORSDOF 28
ENDMDL
