MODEL 1
REMARK VINA RESULT:    -3.966      0.000      0.000
REMARK INTER + INTRA:          -5.533
REMARK INTER:                  -5.357
REMARK INTRA:                  -0.177
REMARK UNBOUND:                -0.177
REMARK SMILES CCCCCCCC(=O)[O-]
REMARK SMILES IDX 5 1 6 2 7 3 8 4 9 5 10 6 4 7 3 8 2 9 1 10
REMARK H PARENT
REMARK Flexibility Score: inf
ROOT
ATOM      1  C   UNL     1      35.464  25.114  69.303  1.00  0.00     0.000 C 
ENDROOT
BRANCH   1   2
ATOM      2  C   UNL     1      34.121  24.727  69.944  1.00  0.00     0.006 C 
BRANCH   2   3
ATOM      3  C   UNL     1      33.535  25.845  70.816  1.00  0.00     0.053 C 
BRANCH   3   4
ATOM      4  C   UNL     1      32.042  25.843  70.730  1.00  0.00     0.041 C 
ATOM      5  O   UNL     1      31.455  25.101  69.898  1.00  0.00    -0.550 OA
ATOM      6  O   UNL     1      31.294  26.622  71.604  1.00  0.00    -0.550 OA
ENDBRANCH   3   4
ENDBRANCH   2   3
ENDBRANCH   1   2
BRANCH   1   7
ATOM      7  C   UNL     1      36.607  24.109  69.537  1.00  0.00     0.000 C 
BRANCH   7   8
ATOM      8  C   UNL     1      37.133  24.092  70.989  1.00  0.00    -0.000 C 
BRANCH   8   9
ATOM      9  C   UNL     1      38.668  24.066  71.051  1.00  0.00    -0.003 C 
ATOM     10  C   UNL     1      39.168  24.377  72.459  1.00  0.00     0.004 C 
ENDBRANCH   8   9
ENDBRANCH   7   8
ENDBRANCH   1   7
TORSDOF 6
ENDMDL
MODEL 2
REMARK VINA RESULT:    -3.860     18.750     19.519
REMARK INTER + INTRA:          -5.390
REMARK INTER:                  -4.876
REMARK INTRA:                  -0.514
REMARK UNBOUND:                -0.177
REMARK SMILES CCCCCCCC(=O)[O-]
REMARK SMILES IDX 5 1 6 2 7 3 8 4 9 5 10 6 4 7 3 8 2 9 1 10
REMARK H PARENT
REMARK Flexibility Score: inf
ROOT
ATOM      1  C   UNL     1      39.537  43.159  61.236  1.00  0.00     0.000 C 
ENDROOT
BRANCH   1   2
ATOM      2  C   UNL     1      39.041  42.559  62.562  1.00  0.00     0.006 C 
BRANCH   2   3
ATOM      3  C   UNL     1      39.117  41.027  62.587  1.00  0.00     0.053 C 
BRANCH   3   4
ATOM      4  C   UNL     1      37.912  40.435  61.931  1.00  0.00     0.041 C 
ATOM      5  O   UNL     1      36.851  41.108  61.827  1.00  0.00    -0.550 OA
ATOM      6  O   UNL     1      37.972  39.159  61.387  1.00  0.00    -0.550 OA
ENDBRANCH   3   4
ENDBRANCH   2   3
ENDBRANCH   1   2
BRANCH   1   7
ATOM      7  C   UNL     1      40.584  42.308  60.493  1.00  0.00     0.000 C 
BRANCH   7   8
ATOM      8  C   UNL     1      40.071  41.712  59.163  1.00  0.00    -0.000 C 
BRANCH   8   9
ATOM      9  C   UNL     1      40.464  40.237  58.996  1.00  0.00    -0.003 C 
ATOM     10  C   UNL     1      41.478  39.813  60.055  1.00  0.00     0.004 C 
ENDBRANCH   8   9
ENDBRANCH   7   8
ENDBRANCH   1   7
TORSDOF 6
ENDMDL
MODEL 3
REMARK VINA RESULT:    -3.860      0.972      1.614
REMARK INTER + INTRA:          -5.390
REMARK INTER:                  -5.164
REMARK INTRA:                  -0.226
REMARK UNBOUND:                -0.177
REMARK SMILES CCCCCCCC(=O)[O-]
REMARK SMILES IDX 5 1 6 2 7 3 8 4 9 5 10 6 4 7 3 8 2 9 1 10
REMARK H PARENT
REMARK Flexibility Score: inf
ROOT
ATOM      1  C   UNL     1      35.128  26.204  70.865  1.00  0.00     0.000 C 
ENDROOT
BRANCH   1   2
ATOM      2  C   UNL     1      33.608  26.408  70.981  1.00  0.00     0.006 C 
BRANCH   2   3
ATOM      3  C   UNL     1      32.806  25.233  70.409  1.00  0.00     0.053 C 
BRANCH   3   4
ATOM      4  C   UNL     1      31.365  25.351  70.791  1.00  0.00     0.041 C 
ATOM      5  O   UNL     1      30.951  26.377  71.394  1.00  0.00    -0.550 OA
ATOM      6  O   UNL     1      30.467  24.352  70.437  1.00  0.00    -0.550 OA
ENDBRANCH   3   4
ENDBRANCH   2   3
ENDBRANCH   1   2
BRANCH   1   7
ATOM      7  C   UNL     1      35.556  25.030  69.964  1.00  0.00     0.000 C 
BRANCH   7   8
ATOM      8  C   UNL     1      36.263  23.888  70.726  1.00  0.00    -0.000 C 
BRANCH   8   9
ATOM      9  C   UNL     1      37.780  23.878  70.484  1.00  0.00    -0.003 C 
ATOM     10  C   UNL     1      38.545  24.201  71.764  1.00  0.00     0.004 C 
ENDBRANCH   8   9
ENDBRANCH   7   8
ENDBRANCH   1   7
TORSDOF 6
ENDMDL
MODEL 4
REMARK VINA RESULT:    -3.829      3.202      5.668
REMARK INTER + INTRA:          -5.349
REMARK INTER:                  -4.988
REMARK INTRA:                  -0.361
REMARK UNBOUND:                -0.177
REMARK SMILES CCCCCCCC(=O)[O-]
REMARK SMILES IDX 5 1 6 2 7 3 8 4 9 5 10 6 4 7 3 8 2 9 1 10
REMARK H PARENT
REMARK Flexibility Score: inf
ROOT
ATOM      1  C   UNL     1      34.044  26.156  71.390  1.00  0.00     0.000 C 
ENDROOT
BRANCH   1   2
ATOM      2  C   UNL     1      34.969  25.456  70.380  1.00  0.00     0.006 C 
BRANCH   2   3
ATOM      3  C   UNL     1      35.603  24.178  70.943  1.00  0.00     0.053 C 
BRANCH   3   4
ATOM      4  C   UNL     1      37.066  24.144  70.634  1.00  0.00     0.041 C 
ATOM      5  O   UNL     1      37.463  24.182  69.439  1.00  0.00    -0.550 OA
ATOM      6  O   UNL     1      37.995  24.120  71.666  1.00  0.00    -0.550 OA
ENDBRANCH   3   4
ENDBRANCH   2   3
ENDBRANCH   1   2
BRANCH   1   7
ATOM      7  C   UNL     1      32.710  26.657  70.807  1.00  0.00     0.000 C 
BRANCH   7   8
ATOM      8  C   UNL     1      31.465  26.032  71.474  1.00  0.00    -0.000 C 
BRANCH   8   9
ATOM      9  C   UNL     1      31.142  24.639  70.913  1.00  0.00    -0.003 C 
ATOM     10  C   UNL     1      31.232  24.623  69.390  1.00  0.00     0.004 C 
ENDBRANCH   8   9
ENDBRANCH   7   8
ENDBRANCH   1   7
TORSDOF 6
ENDMDL
MODEL 5
REMARK VINA RESULT:    -3.821     19.395     20.271
REMARK INTER + INTRA:          -5.337
REMARK INTER:                  -4.668
REMARK INTRA:                  -0.669
REMARK UNBOUND:                -0.177
REMARK SMILES CCCCCCCC(=O)[O-]
REMARK SMILES IDX 5 1 6 2 7 3 8 4 9 5 10 6 4 7 3 8 2 9 1 10
REMARK H PARENT
REMARK Flexibility Score: inf
ROOT
ATOM      1  C   UNL     1      39.114  43.206  60.695  1.00  0.00     0.000 C 
ENDROOT
BRANCH   1   2
ATOM      2  C   UNL     1      40.257  42.805  59.747  1.00  0.00     0.006 C 
BRANCH   2   3
ATOM      3  C   UNL     1      39.917  41.578  58.892  1.00  0.00     0.053 C 
BRANCH   3   4
ATOM      4  C   UNL     1      40.850  40.452  59.204  1.00  0.00     0.041 C 
ATOM      5  O   UNL     1      41.176  39.632  58.305  1.00  0.00    -0.550 OA
ATOM      6  O   UNL     1      41.401  40.336  60.473  1.00  0.00    -0.550 OA
ENDBRANCH   3   4
ENDBRANCH   2   3
ENDBRANCH   1   2
BRANCH   1   7
ATOM      7  C   UNL     1      39.403  42.975  62.190  1.00  0.00     0.000 C 
BRANCH   7   8
ATOM      8  C   UNL     1      39.011  41.567  62.690  1.00  0.00    -0.000 C 
BRANCH   8   9
ATOM      9  C   UNL     1      37.800  40.998  61.935  1.00  0.00    -0.003 C 
ATOM     10  C   UNL     1      38.044  39.553  61.512  1.00  0.00     0.004 C 
ENDBRANCH   8   9
ENDBRANCH   7   8
ENDBRANCH   1   7
TORSDOF 6
ENDMDL
MODEL 6
REMARK VINA RESULT:    -3.794     10.109     12.509
REMARK INTER + INTRA:          -5.301
REMARK INTER:                  -5.081
REMARK INTRA:                  -0.220
REMARK UNBOUND:                -0.177
REMARK SMILES CCCCCCCC(=O)[O-]
REMARK SMILES IDX 5 1 6 2 7 3 8 4 9 5 10 6 4 7 3 8 2 9 1 10
REMARK H PARENT
REMARK Flexibility Score: inf
ROOT
ATOM      1  C   UNL     1      26.960  24.203  61.860  1.00  0.00     0.000 C 
ENDROOT
BRANCH   1   2
ATOM      2  C   UNL     1      27.483  25.561  62.355  1.00  0.00     0.006 C 
BRANCH   2   3
ATOM      3  C   UNL     1      28.986  25.544  62.659  1.00  0.00     0.053 C 
BRANCH   3   4
ATOM      4  C   UNL     1      29.489  26.934  62.880  1.00  0.00     0.041 C 
ATOM      5  O   UNL     1      28.678  27.879  63.071  1.00  0.00    -0.550 OA
ATOM      6  O   UNL     1      30.855  27.181  62.927  1.00  0.00    -0.550 OA
ENDBRANCH   3   4
ENDBRANCH   2   3
ENDBRANCH   1   2
BRANCH   1   7
ATOM      7  C   UNL     1      25.560  24.244  61.217  1.00  0.00     0.000 C 
BRANCH   7   8
ATOM      8  C   UNL     1      24.522  25.041  62.036  1.00  0.00    -0.000 C 
BRANCH   8   9
ATOM      9  C   UNL     1      24.005  24.251  63.247  1.00  0.00    -0.003 C 
ATOM     10  C   UNL     1      23.008  25.074  64.058  1.00  0.00     0.004 C 
ENDBRANCH   8   9
ENDBRANCH   7   8
ENDBRANCH   1   7
TORSDOF 6
ENDMDL
MODEL 7
REMARK VINA RESULT:    -3.773      9.268     11.709
REMARK INTER + INTRA:          -5.273
REMARK INTER:                  -5.073
REMARK INTRA:                  -0.200
REMARK UNBOUND:                -0.177
REMARK SMILES CCCCCCCC(=O)[O-]
REMARK SMILES IDX 5 1 6 2 7 3 8 4 9 5 10 6 4 7 3 8 2 9 1 10
REMARK H PARENT
REMARK Flexibility Score: inf
ROOT
ATOM      1  C   UNL     1      28.127  25.798  62.532  1.00  0.00     0.000 C 
ENDROOT
BRANCH   1   2
ATOM      2  C   UNL     1      29.467  26.060  63.238  1.00  0.00     0.006 C 
BRANCH   2   3
ATOM      3  C   UNL     1      30.157  27.339  62.746  1.00  0.00     0.053 C 
BRANCH   3   4
ATOM      4  C   UNL     1      31.641  27.212  62.875  1.00  0.00     0.041 C 
ATOM      5  O   UNL     1      32.399  28.069  62.348  1.00  0.00    -0.550 OA
ATOM      6  O   UNL     1      32.189  26.176  63.621  1.00  0.00    -0.550 OA
ENDBRANCH   3   4
ENDBRANCH   2   3
ENDBRANCH   1   2
BRANCH   1   7
ATOM      7  C   UNL     1      27.929  24.353  62.036  1.00  0.00     0.000 C 
BRANCH   7   8
ATOM      8  C   UNL     1      26.469  24.018  61.661  1.00  0.00    -0.000 C 
BRANCH   8   9
ATOM      9  C   UNL     1      25.474  25.050  62.213  1.00  0.00    -0.003 C 
ATOM     10  C   UNL     1      24.582  25.604  61.106  1.00  0.00     0.004 C 
ENDBRANCH   8   9
ENDBRANCH   7   8
ENDBRANCH   1   7
TORSDOF 6
ENDMDL
MODEL 8
REMARK VINA RESULT:    -3.695      2.200      3.173
REMARK INTER + INTRA:          -5.167
REMARK INTER:                  -4.864
REMARK INTRA:                  -0.303
REMARK UNBOUND:                -0.177
REMARK SMILES CCCCCCCC(=O)[O-]
REMARK SMILES IDX 5 1 6 2 7 3 8 4 9 5 10 6 4 7 3 8 2 9 1 10
REMARK H PARENT
REMARK Flexibility Score: inf
ROOT
ATOM      1  C   UNL     1      32.808  26.131  70.928  1.00  0.00     0.000 C 
ENDROOT
BRANCH   1   2
ATOM      2  C   UNL     1      32.385  24.715  70.504  1.00  0.00     0.006 C 
BRANCH   2   3
ATOM      3  C   UNL     1      31.075  24.700  69.706  1.00  0.00     0.053 C 
BRANCH   3   4
ATOM      4  C   UNL     1      31.347  24.405  68.266  1.00  0.00     0.041 C 
ATOM      5  O   UNL     1      32.531  24.362  67.839  1.00  0.00    -0.550 OA
ATOM      6  O   UNL     1      30.295  24.126  67.402  1.00  0.00    -0.550 OA
ENDBRANCH   3   4
ENDBRANCH   2   3
ENDBRANCH   1   2
BRANCH   1   7
ATOM      7  C   UNL     1      34.330  26.367  70.967  1.00  0.00     0.000 C 
BRANCH   7   8
ATOM      8  C   UNL     1      35.117  25.526  69.938  1.00  0.00    -0.000 C 
BRANCH   8   9
ATOM      9  C   UNL     1      36.109  24.564  70.608  1.00  0.00    -0.003 C 
ATOM     10  C   UNL     1      37.185  24.111  69.627  1.00  0.00     0.004 C 
ENDBRANCH   8   9
ENDBRANCH   7   8
ENDBRANCH   1   7
TORSDOF 6
ENDMDL
