MODEL 1
REMARK VINA RESULT:    -5.693      0.000      0.000
REMARK INTER + INTRA:          -6.935
REMARK INTER:                  -6.691
REMARK INTRA:                  -0.244
REMARK UNBOUND:                -0.244
REMARK SMILES COc1cc2ccc(=O)oc2c(OC)c1OC
REMARK SMILES IDX 3 1 15 2 12 3 11 4 5 5 4 6 6 7 7 8 8 9 9 10 10 11 2 12 1 13
REMARK SMILES IDX 16 14 17 15 13 16 14 17
REMARK H PARENT
REMARK Flexibility Score: inf
ROOT
ATOM      1  C   UNL     1     -39.206  -6.062 -13.078  1.00  0.00     0.165 A 
ATOM      2  C   UNL     1     -38.757  -7.213 -13.785  1.00  0.00     0.207 A 
ATOM      3  C   UNL     1     -37.778  -7.066 -14.807  1.00  0.00     0.208 A 
ATOM      4  C   UNL     1     -37.268  -5.795 -15.105  1.00  0.00     0.184 A 
ATOM      5  C   UNL     1     -37.717  -4.663 -14.401  1.00  0.00     0.025 A 
ATOM      6  C   UNL     1     -38.676  -4.799 -13.400  1.00  0.00     0.062 A 
ATOM      7  C   UNL     1     -37.181  -3.413 -14.731  1.00  0.00     0.020 A 
ATOM      8  C   UNL     1     -36.225  -3.320 -15.741  1.00  0.00     0.094 A 
ATOM      9  C   UNL     1     -35.825  -4.486 -16.399  1.00  0.00     0.336 A 
ATOM     10  O   UNL     1     -34.962  -4.428 -17.314  1.00  0.00    -0.246 OA
ATOM     11  O   UNL     1     -36.352  -5.661 -16.064  1.00  0.00    -0.419 OA
ENDROOT
BRANCH   1  12
ATOM     12  O   UNL     1     -40.172  -6.191 -12.067  1.00  0.00    -0.493 OA
ATOM     13  C   UNL     1     -40.253  -5.380 -10.899  1.00  0.00     0.278 C 
ENDBRANCH   1  12
BRANCH   2  14
ATOM     14  O   UNL     1     -39.247  -8.505 -13.513  1.00  0.00    -0.490 OA
ATOM     15  C   UNL     1     -40.406  -9.123 -14.060  1.00  0.00     0.278 C 
ENDBRANCH   2  14
BRANCH   3  16
ATOM     16  O   UNL     1     -37.266  -8.137 -15.567  1.00  0.00    -0.490 OA
ATOM     17  C   UNL     1     -36.210  -9.019 -15.202  1.00  0.00     0.278 C 
ENDBRANCH   3  16
TORSDOF 3
ENDMDL
MODEL 2
REMARK VINA RESULT:    -5.688      1.721      5.697
REMARK INTER + INTRA:          -6.930
REMARK INTER:                  -6.627
REMARK INTRA:                  -0.303
REMARK UNBOUND:                -0.244
REMARK SMILES COc1cc2ccc(=O)oc2c(OC)c1OC
REMARK SMILES IDX 3 1 15 2 12 3 11 4 5 5 4 6 6 7 7 8 8 9 9 10 10 11 2 12 1 13
REMARK SMILES IDX 16 14 17 15 13 16 14 17
REMARK H PARENT
REMARK Flexibility Score: inf
ROOT
ATOM      1  C   UNL     1     -35.700  -4.875 -16.464  1.00  0.00     0.165 A 
ATOM      2  C   UNL     1     -36.324  -4.122 -15.429  1.00  0.00     0.207 A 
ATOM      3  C   UNL     1     -37.306  -4.745 -14.608  1.00  0.00     0.208 A 
ATOM      4  C   UNL     1     -37.647  -6.086 -14.827  1.00  0.00     0.184 A 
ATOM      5  C   UNL     1     -37.025  -6.823 -15.851  1.00  0.00     0.025 A 
ATOM      6  C   UNL     1     -36.063  -6.220 -16.659  1.00  0.00     0.062 A 
ATOM      7  C   UNL     1     -37.396  -8.160 -16.034  1.00  0.00     0.020 A 
ATOM      8  C   UNL     1     -38.363  -8.725 -15.205  1.00  0.00     0.094 A 
ATOM      9  C   UNL     1     -38.939  -7.934 -14.207  1.00  0.00     0.336 A 
ATOM     10  O   UNL     1     -39.815  -8.421 -13.445  1.00  0.00    -0.246 OA
ATOM     11  O   UNL     1     -38.567  -6.666 -14.056  1.00  0.00    -0.419 OA
ENDROOT
BRANCH   1  12
ATOM     12  O   UNL     1     -34.729  -4.275 -17.281  1.00  0.00    -0.493 OA
ATOM     13  C   UNL     1     -34.992  -3.597 -18.506  1.00  0.00     0.278 C 
ENDBRANCH   1  12
BRANCH   2  14
ATOM     14  O   UNL     1     -36.007  -2.773 -15.181  1.00  0.00    -0.490 OA
ATOM     15  C   UNL     1     -36.623  -1.622 -15.748  1.00  0.00     0.278 C 
ENDBRANCH   2  14
BRANCH   3  16
ATOM     16  O   UNL     1     -37.983  -4.092 -13.558  1.00  0.00    -0.490 OA
ATOM     17  C   UNL     1     -37.513  -3.887 -12.230  1.00  0.00     0.278 C 
ENDBRANCH   3  16
TORSDOF 3
ENDMDL
MODEL 3
REMARK VINA RESULT:    -5.667      1.866      4.192
REMARK INTER + INTRA:          -6.905
REMARK INTER:                  -6.602
REMARK INTRA:                  -0.302
REMARK UNBOUND:                -0.244
REMARK SMILES COc1cc2ccc(=O)oc2c(OC)c1OC
REMARK SMILES IDX 3 1 15 2 12 3 11 4 5 5 4 6 6 7 7 8 8 9 9 10 10 11 2 12 1 13
REMARK SMILES IDX 16 14 17 15 13 16 14 17
REMARK H PARENT
REMARK Flexibility Score: inf
ROOT
ATOM      1  C   UNL     1     -39.291  -4.517 -12.578  1.00  0.00     0.165 A 
ATOM      2  C   UNL     1     -38.031  -4.065 -13.064  1.00  0.00     0.207 A 
ATOM      3  C   UNL     1     -37.198  -4.966 -13.786  1.00  0.00     0.208 A 
ATOM      4  C   UNL     1     -37.626  -6.281 -14.010  1.00  0.00     0.184 A 
ATOM      5  C   UNL     1     -38.872  -6.719 -13.528  1.00  0.00     0.025 A 
ATOM      6  C   UNL     1     -39.693  -5.844 -12.819  1.00  0.00     0.062 A 
ATOM      7  C   UNL     1     -39.260  -8.041 -13.775  1.00  0.00     0.020 A 
ATOM      8  C   UNL     1     -38.409  -8.885 -14.486  1.00  0.00     0.094 A 
ATOM      9  C   UNL     1     -37.185  -8.383 -14.937  1.00  0.00     0.336 A 
ATOM     10  O   UNL     1     -36.399  -9.125 -15.582  1.00  0.00    -0.246 OA
ATOM     11  O   UNL     1     -36.843  -7.121 -14.687  1.00  0.00    -0.419 OA
ENDROOT
BRANCH   1  12
ATOM     12  O   UNL     1     -40.124  -3.640 -11.864  1.00  0.00    -0.493 OA
ATOM     13  C   UNL     1     -40.111  -3.463 -10.451  1.00  0.00     0.278 C 
ENDBRANCH   1  12
BRANCH   2  14
ATOM     14  O   UNL     1     -37.570  -2.752 -12.857  1.00  0.00    -0.490 OA
ATOM     15  C   UNL     1     -36.747  -2.282 -11.795  1.00  0.00     0.278 C 
ENDBRANCH   2  14
BRANCH   3  16
ATOM     16  O   UNL     1     -35.935  -4.622 -14.309  1.00  0.00    -0.490 OA
ATOM     17  C   UNL     1     -35.671  -3.901 -15.508  1.00  0.00     0.278 C 
ENDBRANCH   3  16
TORSDOF 3
ENDMDL
MODEL 4
REMARK VINA RESULT:    -5.651      2.709      5.024
REMARK INTER + INTRA:          -6.887
REMARK INTER:                  -6.584
REMARK INTRA:                  -0.302
REMARK UNBOUND:                -0.244
REMARK SMILES COc1cc2ccc(=O)oc2c(OC)c1OC
REMARK SMILES IDX 3 1 15 2 12 3 11 4 5 5 4 6 6 7 7 8 8 9 9 10 10 11 2 12 1 13
REMARK SMILES IDX 16 14 17 15 13 16 14 17
REMARK H PARENT
REMARK Flexibility Score: inf
ROOT
ATOM      1  C   UNL     1     -38.496  -4.974 -16.563  1.00  0.00     0.165 A 
ATOM      2  C   UNL     1     -38.026  -4.181 -15.478  1.00  0.00     0.207 A 
ATOM      3  C   UNL     1     -37.165  -4.766 -14.507  1.00  0.00     0.208 A 
ATOM      4  C   UNL     1     -36.790  -6.111 -14.630  1.00  0.00     0.184 A 
ATOM      5  C   UNL     1     -37.258  -6.887 -15.706  1.00  0.00     0.025 A 
ATOM      6  C   UNL     1     -38.101  -6.321 -16.660  1.00  0.00     0.062 A 
ATOM      7  C   UNL     1     -36.858  -8.225 -15.790  1.00  0.00     0.020 A 
ATOM      8  C   UNL     1     -36.014  -8.753 -14.814  1.00  0.00     0.094 A 
ATOM      9  C   UNL     1     -35.587  -7.924 -13.773  1.00  0.00     0.336 A 
ATOM     10  O   UNL     1     -34.825  -8.377 -12.880  1.00  0.00    -0.246 OA
ATOM     11  O   UNL     1     -35.984  -6.655 -13.719  1.00  0.00    -0.419 OA
ENDROOT
BRANCH   1  12
ATOM     12  O   UNL     1     -39.345  -4.410 -17.528  1.00  0.00    -0.493 OA
ATOM     13  C   UNL     1     -38.929  -3.898 -18.790  1.00  0.00     0.278 C 
ENDBRANCH   1  12
BRANCH   2  14
ATOM     14  O   UNL     1     -38.382  -2.828 -15.322  1.00  0.00    -0.490 OA
ATOM     15  C   UNL     1     -37.696  -1.689 -15.828  1.00  0.00     0.278 C 
ENDBRANCH   2  14
BRANCH   3  16
ATOM     16  O   UNL     1     -36.645  -4.072 -13.396  1.00  0.00    -0.490 OA
ATOM     17  C   UNL     1     -37.292  -3.842 -12.148  1.00  0.00     0.278 C 
ENDBRANCH   3  16
TORSDOF 3
ENDMDL
MODEL 5
REMARK VINA RESULT:    -5.523      5.266      7.389
REMARK INTER + INTRA:          -6.736
REMARK INTER:                  -6.467
REMARK INTRA:                  -0.269
REMARK UNBOUND:                -0.244
REMARK SMILES COc1cc2ccc(=O)oc2c(OC)c1OC
REMARK SMILES IDX 3 1 15 2 12 3 11 4 5 5 4 6 6 7 7 8 8 9 9 10 10 11 2 12 1 13
REMARK SMILES IDX 16 14 17 15 13 16 14 17
REMARK H PARENT
REMARK Flexibility Score: inf
ROOT
ATOM      1  C   UNL     1     -34.659  -3.896 -18.693  1.00  0.00     0.165 A 
ATOM      2  C   UNL     1     -35.865  -3.170 -18.483  1.00  0.00     0.207 A 
ATOM      3  C   UNL     1     -36.982  -3.412 -19.332  1.00  0.00     0.208 A 
ATOM      4  C   UNL     1     -36.882  -4.359 -20.360  1.00  0.00     0.184 A 
ATOM      5  C   UNL     1     -35.687  -5.073 -20.560  1.00  0.00     0.025 A 
ATOM      6  C   UNL     1     -34.589  -4.841 -19.733  1.00  0.00     0.062 A 
ATOM      7  C   UNL     1     -35.631  -6.010 -21.598  1.00  0.00     0.020 A 
ATOM      8  C   UNL     1     -36.751  -6.211 -22.403  1.00  0.00     0.094 A 
ATOM      9  C   UNL     1     -37.906  -5.467 -22.147  1.00  0.00     0.336 A 
ATOM     10  O   UNL     1     -38.931  -5.631 -22.860  1.00  0.00    -0.246 OA
ATOM     11  O   UNL     1     -37.930  -4.583 -21.153  1.00  0.00    -0.419 OA
ENDROOT
BRANCH   1  12
ATOM     12  O   UNL     1     -33.549  -3.668 -17.864  1.00  0.00    -0.493 OA
ATOM     13  C   UNL     1     -32.253  -3.283 -18.312  1.00  0.00     0.278 C 
ENDBRANCH   1  12
BRANCH   2  14
ATOM     14  O   UNL     1     -36.002  -2.211 -17.462  1.00  0.00    -0.490 OA
ATOM     15  C   UNL     1     -36.326  -2.443 -16.096  1.00  0.00     0.278 C 
ENDBRANCH   2  14
BRANCH   3  16
ATOM     16  O   UNL     1     -38.220  -2.749 -19.212  1.00  0.00    -0.490 OA
ATOM     17  C   UNL     1     -39.299  -3.097 -18.351  1.00  0.00     0.278 C 
ENDBRANCH   3  16
TORSDOF 3
ENDMDL
MODEL 6
REMARK VINA RESULT:    -5.446      2.177      3.745
REMARK INTER + INTRA:          -6.646
REMARK INTER:                  -6.376
REMARK INTRA:                  -0.270
REMARK UNBOUND:                -0.244
REMARK SMILES COc1cc2ccc(=O)oc2c(OC)c1OC
REMARK SMILES IDX 3 1 15 2 12 3 11 4 5 5 4 6 6 7 7 8 8 9 9 10 10 11 2 12 1 13
REMARK SMILES IDX 16 14 17 15 13 16 14 17
REMARK H PARENT
REMARK Flexibility Score: inf
ROOT
ATOM      1  C   UNL     1     -36.686  -7.400 -15.136  1.00  0.00     0.165 A 
ATOM      2  C   UNL     1     -37.873  -6.704 -14.769  1.00  0.00     0.207 A 
ATOM      3  C   UNL     1     -38.334  -5.633 -15.587  1.00  0.00     0.208 A 
ATOM      4  C   UNL     1     -37.619  -5.280 -16.739  1.00  0.00     0.184 A 
ATOM      5  C   UNL     1     -36.448  -5.973 -17.094  1.00  0.00     0.025 A 
ATOM      6  C   UNL     1     -35.990  -7.021 -16.298  1.00  0.00     0.062 A 
ATOM      7  C   UNL     1     -35.765  -5.586 -18.253  1.00  0.00     0.020 A 
ATOM      8  C   UNL     1     -36.256  -4.532 -19.020  1.00  0.00     0.094 A 
ATOM      9  C   UNL     1     -37.426  -3.887 -18.608  1.00  0.00     0.336 A 
ATOM     10  O   UNL     1     -37.890  -2.932 -19.285  1.00  0.00    -0.246 OA
ATOM     11  O   UNL     1     -38.054  -4.277 -17.502  1.00  0.00    -0.419 OA
ENDROOT
BRANCH   1  12
ATOM     12  O   UNL     1     -36.219  -8.458 -14.339  1.00  0.00    -0.493 OA
ATOM     13  C   UNL     1     -35.221  -8.347 -13.329  1.00  0.00     0.278 C 
ENDBRANCH   1  12
BRANCH   2  14
ATOM     14  O   UNL     1     -38.616  -7.031 -13.620  1.00  0.00    -0.490 OA
ATOM     15  C   UNL     1     -39.727  -7.916 -13.532  1.00  0.00     0.278 C 
ENDBRANCH   2  14
BRANCH   3  16
ATOM     16  O   UNL     1     -39.494  -4.880 -15.316  1.00  0.00    -0.490 OA
ATOM     17  C   UNL     1     -39.606  -3.762 -14.441  1.00  0.00     0.278 C 
ENDBRANCH   3  16
TORSDOF 3
ENDMDL
MODEL 7
REMARK VINA RESULT:    -5.442      2.656      5.427
REMARK INTER + INTRA:          -6.641
REMARK INTER:                  -6.342
REMARK INTRA:                  -0.299
REMARK UNBOUND:                -0.244
REMARK SMILES COc1cc2ccc(=O)oc2c(OC)c1OC
REMARK SMILES IDX 3 1 15 2 12 3 11 4 5 5 4 6 6 7 7 8 8 9 9 10 10 11 2 12 1 13
REMARK SMILES IDX 16 14 17 15 13 16 14 17
REMARK H PARENT
REMARK Flexibility Score: inf
ROOT
ATOM      1  C   UNL     1     -36.523  -3.197 -16.485  1.00  0.00     0.165 A 
ATOM      2  C   UNL     1     -36.409  -2.962 -15.085  1.00  0.00     0.207 A 
ATOM      3  C   UNL     1     -36.261  -4.069 -14.202  1.00  0.00     0.208 A 
ATOM      4  C   UNL     1     -36.228  -5.371 -14.718  1.00  0.00     0.184 A 
ATOM      5  C   UNL     1     -36.341  -5.594 -16.102  1.00  0.00     0.025 A 
ATOM      6  C   UNL     1     -36.487  -4.516 -16.973  1.00  0.00     0.062 A 
ATOM      7  C   UNL     1     -36.303  -6.911 -16.574  1.00  0.00     0.020 A 
ATOM      8  C   UNL     1     -36.157  -7.961 -15.670  1.00  0.00     0.094 A 
ATOM      9  C   UNL     1     -36.050  -7.667 -14.308  1.00  0.00     0.336 A 
ATOM     10  O   UNL     1     -35.916  -8.598 -13.471  1.00  0.00    -0.246 OA
ATOM     11  O   UNL     1     -36.089  -6.405 -13.888  1.00  0.00    -0.419 OA
ENDROOT
BRANCH   1  12
ATOM     12  O   UNL     1     -36.670  -2.115 -17.368  1.00  0.00    -0.493 OA
ATOM     13  C   UNL     1     -37.910  -1.633 -17.877  1.00  0.00     0.278 C 
ENDBRANCH   1  12
BRANCH   2  14
ATOM     14  O   UNL     1     -36.438  -1.668 -14.531  1.00  0.00    -0.490 OA
ATOM     15  C   UNL     1     -37.576  -0.954 -14.062  1.00  0.00     0.278 C 
ENDBRANCH   2  14
BRANCH   3  16
ATOM     16  O   UNL     1     -36.140  -3.949 -12.802  1.00  0.00    -0.490 OA
ATOM     17  C   UNL     1     -37.198  -3.838 -11.857  1.00  0.00     0.278 C 
ENDBRANCH   3  16
TORSDOF 3
ENDMDL
MODEL 8
REMARK VINA RESULT:    -5.331      1.812      4.684
REMARK INTER + INTRA:          -6.510
REMARK INTER:                  -6.241
REMARK INTRA:                  -0.269
REMARK UNBOUND:                -0.244
REMARK SMILES COc1cc2ccc(=O)oc2c(OC)c1OC
REMARK SMILES IDX 3 1 15 2 12 3 11 4 5 5 4 6 6 7 7 8 8 9 9 10 10 11 2 12 1 13
REMARK SMILES IDX 16 14 17 15 13 16 14 17
REMARK H PARENT
REMARK Flexibility Score: inf
ROOT
ATOM      1  C   UNL     1     -37.801  -3.005 -14.066  1.00  0.00     0.165 A 
ATOM      2  C   UNL     1     -36.857  -3.579 -14.964  1.00  0.00     0.207 A 
ATOM      3  C   UNL     1     -36.900  -4.979 -15.220  1.00  0.00     0.208 A 
ATOM      4  C   UNL     1     -37.867  -5.772 -14.589  1.00  0.00     0.184 A 
ATOM      5  C   UNL     1     -38.797  -5.198 -13.704  1.00  0.00     0.025 A 
ATOM      6  C   UNL     1     -38.761  -3.828 -13.448  1.00  0.00     0.062 A 
ATOM      7  C   UNL     1     -39.745  -6.027 -13.096  1.00  0.00     0.020 A 
ATOM      8  C   UNL     1     -39.746  -7.392 -13.379  1.00  0.00     0.094 A 
ATOM      9  C   UNL     1     -38.793  -7.896 -14.269  1.00  0.00     0.336 A 
ATOM     10  O   UNL     1     -38.774  -9.125 -14.541  1.00  0.00    -0.246 OA
ATOM     11  O   UNL     1     -37.904  -7.083 -14.832  1.00  0.00    -0.419 OA
ENDROOT
BRANCH   1  12
ATOM     12  O   UNL     1     -37.772  -1.626 -13.803  1.00  0.00    -0.493 OA
ATOM     13  C   UNL     1     -37.539  -1.038 -12.527  1.00  0.00     0.278 C 
ENDBRANCH   1  12
BRANCH   2  14
ATOM     14  O   UNL     1     -35.872  -2.813 -15.615  1.00  0.00    -0.490 OA
ATOM     15  C   UNL     1     -36.024  -2.033 -16.796  1.00  0.00     0.278 C 
ENDBRANCH   2  14
BRANCH   3  16
ATOM     16  O   UNL     1     -36.014  -5.647 -16.090  1.00  0.00    -0.490 OA
ATOM     17  C   UNL     1     -36.099  -5.724 -17.509  1.00  0.00     0.278 C 
ENDBRANCH   3  16
TORSDOF 3
ENDMDL
MODEL 9
REMARK VINA RESULT:    -3.506      2.268      3.964
REMARK INTER + INTRA:          -4.365
REMARK INTER:                  -4.073
REMARK INTRA:                  -0.292
REMARK UNBOUND:                -0.244
REMARK SMILES COc1cc2ccc(=O)oc2c(OC)c1OC
REMARK SMILES IDX 3 1 15 2 12 3 11 4 5 5 4 6 6 7 7 8 8 9 9 10 10 11 2 12 1 13
REMARK SMILES IDX 16 14 17 15 13 16 14 17
REMARK H PARENT
REMARK Flexibility Score: inf
ROOT
ATOM      1  C   UNL     1     -39.129  -6.691 -13.753  1.00  0.00     0.165 A 
ATOM      2  C   UNL     1     -37.854  -6.401 -14.317  1.00  0.00     0.207 A 
ATOM      3  C   UNL     1     -37.110  -5.290 -13.826  1.00  0.00     0.208 A 
ATOM      4  C   UNL     1     -37.639  -4.500 -12.796  1.00  0.00     0.184 A 
ATOM      5  C   UNL     1     -38.899  -4.794 -12.244  1.00  0.00     0.025 A 
ATOM      6  C   UNL     1     -39.633  -5.879 -12.721  1.00  0.00     0.062 A 
ATOM      7  C   UNL     1     -39.388  -3.979 -11.218  1.00  0.00     0.020 A 
ATOM      8  C   UNL     1     -38.623  -2.903 -10.772  1.00  0.00     0.094 A 
ATOM      9  C   UNL     1     -37.379  -2.669 -11.365  1.00  0.00     0.336 A 
ATOM     10  O   UNL     1     -36.669  -1.704 -10.978  1.00  0.00    -0.246 OA
ATOM     11  O   UNL     1     -36.940  -3.461 -12.339  1.00  0.00    -0.419 OA
ENDROOT
BRANCH   1  12
ATOM     12  O   UNL     1     -39.873  -7.783 -14.228  1.00  0.00    -0.493 OA
ATOM     13  C   UNL     1     -39.748  -9.125 -13.768  1.00  0.00     0.278 C 
ENDBRANCH   1  12
BRANCH   2  14
ATOM     14  O   UNL     1     -37.292  -7.172 -15.352  1.00  0.00    -0.490 OA
ATOM     15  C   UNL     1     -36.386  -8.262 -15.223  1.00  0.00     0.278 C 
ENDBRANCH   2  14
BRANCH   3  16
ATOM     16  O   UNL     1     -35.842  -4.915 -14.313  1.00  0.00    -0.490 OA
ATOM     17  C   UNL     1     -35.564  -4.129 -15.466  1.00  0.00     0.278 C 
ENDBRANCH   3  16
TORSDOF 3
ENDMDL
