MODEL 1
REMARK VINA RESULT:    -2.718      0.000      0.000
REMARK INTER + INTRA:          -3.092
REMARK INTER:                  -3.036
REMARK INTRA:                  -0.056
REMARK UNBOUND:                -0.056
REMARK SMILES CCCC(=O)[O-]
REMARK SMILES IDX 3 1 4 2 5 3 6 4 2 5 1 6
REMARK H PARENT
REMARK Flexibility Score: inf
ROOT
ATOM      1  C   UNL     1      35.269  -3.162  19.231  1.00  0.00     0.052 C 
ENDROOT
BRANCH   1   2
ATOM      2  C   UNL     1      36.421  -2.877  20.146  1.00  0.00     0.041 C 
ATOM      3  O   UNL     1      36.829  -1.696  20.300  1.00  0.00    -0.550 OA
ATOM      4  O   UNL     1      37.064  -3.919  20.801  1.00  0.00    -0.550 OA
ENDBRANCH   1   2
BRANCH   1   5
ATOM      5  C   UNL     1      34.037  -3.652  20.002  1.00  0.00     0.003 C 
ATOM      6  C   UNL     1      33.568  -2.645  21.051  1.00  0.00     0.004 C 
ENDBRANCH   1   5
TORSDOF 2
ENDMDL
MODEL 2
REMARK VINA RESULT:    -2.667     17.968     18.709
REMARK INTER + INTRA:          -3.035
REMARK INTER:                  -2.979
REMARK INTRA:                  -0.056
REMARK UNBOUND:                -0.056
REMARK SMILES CCCC(=O)[O-]
REMARK SMILES IDX 3 1 4 2 5 3 6 4 2 5 1 6
REMARK H PARENT
REMARK Flexibility Score: inf
ROOT
ATOM      1  C   UNL     1      40.260  -4.011   3.058  1.00  0.00     0.052 C 
ENDROOT
BRANCH   1   2
ATOM      2  C   UNL     1      39.156  -3.335   2.304  1.00  0.00     0.041 C 
ATOM      3  O   UNL     1      38.672  -3.873   1.274  1.00  0.00    -0.550 OA
ATOM      4  O   UNL     1      38.686  -2.095   2.719  1.00  0.00    -0.550 OA
ENDBRANCH   1   2
BRANCH   1   5
ATOM      5  C   UNL     1      41.517  -3.136   3.133  1.00  0.00     0.003 C 
ATOM      6  C   UNL     1      41.982  -2.665   1.755  1.00  0.00     0.004 C 
ENDBRANCH   1   5
TORSDOF 2
ENDMDL
MODEL 3
REMARK VINA RESULT:    -2.614      8.344      9.185
REMARK INTER + INTRA:          -2.975
REMARK INTER:                  -2.955
REMARK INTRA:                  -0.020
REMARK UNBOUND:                -0.056
REMARK SMILES CCCC(=O)[O-]
REMARK SMILES IDX 3 1 4 2 5 3 6 4 2 5 1 6
REMARK H PARENT
REMARK Flexibility Score: inf
ROOT
ATOM      1  C   UNL     1      37.375  -7.069  12.703  1.00  0.00     0.052 C 
ENDROOT
BRANCH   1   2
ATOM      2  C   UNL     1      36.134  -6.671  13.443  1.00  0.00     0.041 C 
ATOM      3  O   UNL     1      35.034  -6.595  12.838  1.00  0.00    -0.550 OA
ATOM      4  O   UNL     1      36.202  -6.352  14.794  1.00  0.00    -0.550 OA
ENDBRANCH   1   2
BRANCH   1   5
ATOM      5  C   UNL     1      37.049  -7.695  11.341  1.00  0.00     0.003 C 
ATOM      6  C   UNL     1      38.068  -7.314  10.268  1.00  0.00     0.004 C 
ENDBRANCH   1   5
TORSDOF 2
ENDMDL
MODEL 4
REMARK VINA RESULT:    -2.607     10.883     11.489
REMARK INTER + INTRA:          -2.968
REMARK INTER:                  -2.946
REMARK INTRA:                  -0.022
REMARK UNBOUND:                -0.056
REMARK SMILES CCCC(=O)[O-]
REMARK SMILES IDX 3 1 4 2 5 3 6 4 2 5 1 6
REMARK H PARENT
REMARK Flexibility Score: inf
ROOT
ATOM      1  C   UNL     1      38.242  -7.101  10.007  1.00  0.00     0.052 C 
ENDROOT
BRANCH   1   2
ATOM      2  C   UNL     1      39.475  -6.631   9.298  1.00  0.00     0.041 C 
ATOM      3  O   UNL     1      40.555  -6.495   9.930  1.00  0.00    -0.550 OA
ATOM      4  O   UNL     1      39.422  -6.311   7.948  1.00  0.00    -0.550 OA
ENDBRANCH   1   2
BRANCH   1   5
ATOM      5  C   UNL     1      38.559  -7.626  11.414  1.00  0.00     0.003 C 
ATOM      6  C   UNL     1      37.511  -7.203  12.443  1.00  0.00     0.004 C 
ENDBRANCH   1   5
TORSDOF 2
ENDMDL
MODEL 5
REMARK VINA RESULT:    -2.601     10.217     10.805
REMARK INTER + INTRA:          -2.961
REMARK INTER:                  -2.955
REMARK INTRA:                  -0.006
REMARK UNBOUND:                -0.056
REMARK SMILES CCCC(=O)[O-]
REMARK SMILES IDX 3 1 4 2 5 3 6 4 2 5 1 6
REMARK H PARENT
REMARK Flexibility Score: inf
ROOT
ATOM      1  C   UNL     1      39.035  -7.724  11.690  1.00  0.00     0.052 C 
ENDROOT
BRANCH   1   2
ATOM      2  C   UNL     1      39.495  -7.459  10.289  1.00  0.00     0.041 C 
ATOM      3  O   UNL     1      40.535  -6.782  10.083  1.00  0.00    -0.550 OA
ATOM      4  O   UNL     1      38.754  -7.931   9.213  1.00  0.00    -0.550 OA
ENDBRANCH   1   2
BRANCH   1   5
ATOM      5  C   UNL     1      37.553  -7.376  11.879  1.00  0.00     0.003 C 
ATOM      6  C   UNL     1      37.258  -6.822  13.273  1.00  0.00     0.004 C 
ENDBRANCH   1   5
TORSDOF 2
ENDMDL
MODEL 6
REMARK VINA RESULT:    -2.569     17.929     18.376
REMARK INTER + INTRA:          -2.926
REMARK INTER:                  -2.887
REMARK INTRA:                  -0.039
REMARK UNBOUND:                -0.056
REMARK SMILES CCCC(=O)[O-]
REMARK SMILES IDX 3 1 4 2 5 3 6 4 2 5 1 6
REMARK H PARENT
REMARK Flexibility Score: inf
ROOT
ATOM      1  C   UNL     1      38.943  -3.640   2.180  1.00  0.00     0.052 C 
ENDROOT
BRANCH   1   2
ATOM      2  C   UNL     1      40.172  -4.228   2.804  1.00  0.00     0.041 C 
ATOM      3  O   UNL     1      40.409  -5.459   2.696  1.00  0.00    -0.550 OA
ATOM      4  O   UNL     1      41.036  -3.422   3.534  1.00  0.00    -0.550 OA
ENDBRANCH   1   2
BRANCH   1   5
ATOM      5  C   UNL     1      38.799  -2.148   2.503  1.00  0.00     0.003 C 
ATOM      6  C   UNL     1      39.172  -1.257   1.319  1.00  0.00     0.004 C 
ENDBRANCH   1   5
TORSDOF 2
ENDMDL
MODEL 7
REMARK VINA RESULT:    -2.536      7.787      8.566
REMARK INTER + INTRA:          -2.889
REMARK INTER:                  -2.819
REMARK INTRA:                  -0.070
REMARK UNBOUND:                -0.056
REMARK SMILES CCCC(=O)[O-]
REMARK SMILES IDX 3 1 4 2 5 3 6 4 2 5 1 6
REMARK H PARENT
REMARK Flexibility Score: inf
ROOT
ATOM      1  C   UNL     1      37.374  -6.770  13.259  1.00  0.00     0.052 C 
ENDROOT
BRANCH   1   2
ATOM      2  C   UNL     1      35.983  -6.635  13.801  1.00  0.00     0.041 C 
ATOM      3  O   UNL     1      35.011  -6.481  13.017  1.00  0.00    -0.550 OA
ATOM      4  O   UNL     1      35.767  -6.647  15.173  1.00  0.00    -0.550 OA
ENDBRANCH   1   2
BRANCH   1   5
ATOM      5  C   UNL     1      37.498  -7.959  12.298  1.00  0.00     0.003 C 
ATOM      6  C   UNL     1      37.225  -9.295  12.987  1.00  0.00     0.004 C 
ENDBRANCH   1   5
TORSDOF 2
ENDMDL
MODEL 8
REMARK VINA RESULT:    -2.527     10.557     11.419
REMARK INTER + INTRA:          -2.879
REMARK INTER:                  -2.869
REMARK INTRA:                  -0.009
REMARK UNBOUND:                -0.056
REMARK SMILES CCCC(=O)[O-]
REMARK SMILES IDX 3 1 4 2 5 3 6 4 2 5 1 6
REMARK H PARENT
REMARK Flexibility Score: inf
ROOT
ATOM      1  C   UNL     1      38.917  -7.139  10.397  1.00  0.00     0.052 C 
ENDROOT
BRANCH   1   2
ATOM      2  C   UNL     1      37.797  -7.394  11.359  1.00  0.00     0.041 C 
ATOM      3  O   UNL     1      38.006  -7.351  12.599  1.00  0.00    -0.550 OA
ATOM      4  O   UNL     1      36.531  -7.712  10.884  1.00  0.00    -0.550 OA
ENDBRANCH   1   2
BRANCH   1   5
ATOM      5  C   UNL     1      38.403  -6.618   9.049  1.00  0.00     0.003 C 
ATOM      6  C   UNL     1      39.480  -6.647   7.965  1.00  0.00     0.004 C 
ENDBRANCH   1   5
TORSDOF 2
ENDMDL
MODEL 9
REMARK VINA RESULT:    -2.508      8.610      9.048
REMARK INTER + INTRA:          -2.858
REMARK INTER:                  -2.818
REMARK INTRA:                  -0.039
REMARK UNBOUND:                -0.056
REMARK SMILES CCCC(=O)[O-]
REMARK SMILES IDX 3 1 4 2 5 3 6 4 2 5 1 6
REMARK H PARENT
REMARK Flexibility Score: inf
ROOT
ATOM      1  C   UNL     1      36.864  -6.662  13.247  1.00  0.00     0.052 C 
ENDROOT
BRANCH   1   2
ATOM      2  C   UNL     1      37.516  -7.296  12.056  1.00  0.00     0.041 C 
ATOM      3  O   UNL     1      38.757  -7.501  12.050  1.00  0.00    -0.550 OA
ATOM      4  O   UNL     1      36.756  -7.627  10.942  1.00  0.00    -0.550 OA
ENDBRANCH   1   2
BRANCH   1   5
ATOM      5  C   UNL     1      35.335  -6.646  13.119  1.00  0.00     0.003 C 
ATOM      6  C   UNL     1      34.678  -7.816  13.851  1.00  0.00     0.004 C 
ENDBRANCH   1   5
TORSDOF 2
ENDMDL
