MODEL 1
REMARK VINA RESULT:    -3.895      0.000      0.000
REMARK INTER + INTRA:          -4.693
REMARK INTER:                  -4.579
REMARK INTRA:                  -0.114
REMARK UNBOUND:                -0.114
REMARK SMILES O=C([O-])CCC(=O)[O-]
REMARK SMILES IDX 4 1 2 2 1 3 3 4 5 5 6 6 7 7 8 8
REMARK H PARENT
REMARK Flexibility Score: inf
ROOT
ATOM      1  C   UNL     1     -23.147   1.982  23.743  1.00  0.00     0.059 C 
ENDROOT
BRANCH   1   2
ATOM      2  C   UNL     1     -22.733   2.186  22.317  1.00  0.00     0.042 C 
ATOM      3  O   UNL     1     -23.513   2.749  21.505  1.00  0.00    -0.550 OA
ATOM      4  O   UNL     1     -21.470   1.790  21.896  1.00  0.00    -0.550 OA
ENDBRANCH   1   2
BRANCH   1   5
ATOM      5  C   UNL     1     -23.739   0.586  23.963  1.00  0.00     0.059 C 
BRANCH   5   6
ATOM      6  C   UNL     1     -22.851  -0.260  24.825  1.00  0.00     0.042 C 
ATOM      7  O   UNL     1     -21.646   0.059  24.999  1.00  0.00    -0.550 OA
ATOM      8  O   UNL     1     -23.346  -1.423  25.403  1.00  0.00    -0.550 OA
ENDBRANCH   5   6
ENDBRANCH   1   5
TORSDOF 3
ENDMDL
MODEL 2
REMARK VINA RESULT:    -3.864      0.229      1.630
REMARK INTER + INTRA:          -4.656
REMARK INTER:                  -4.541
REMARK INTRA:                  -0.115
REMARK UNBOUND:                -0.114
REMARK SMILES O=C([O-])CCC(=O)[O-]
REMARK SMILES IDX 4 1 2 2 1 3 3 4 5 5 6 6 7 7 8 8
REMARK H PARENT
REMARK Flexibility Score: inf
ROOT
ATOM      1  C   UNL     1     -23.100   2.087  23.660  1.00  0.00     0.059 C 
ENDROOT
BRANCH   1   2
ATOM      2  C   UNL     1     -22.745   2.203  22.208  1.00  0.00     0.042 C 
ATOM      3  O   UNL     1     -21.584   1.916  21.815  1.00  0.00    -0.550 OA
ATOM      4  O   UNL     1     -23.708   2.591  21.286  1.00  0.00    -0.550 OA
ENDBRANCH   1   2
BRANCH   1   5
ATOM      5  C   UNL     1     -23.716   0.721  23.981  1.00  0.00     0.059 C 
BRANCH   5   6
ATOM      6  C   UNL     1     -22.769  -0.142  24.759  1.00  0.00     0.042 C 
ATOM      7  O   UNL     1     -23.147  -1.257  25.203  1.00  0.00    -0.550 OA
ATOM      8  O   UNL     1     -21.481   0.306  25.027  1.00  0.00    -0.550 OA
ENDBRANCH   5   6
ENDBRANCH   1   5
TORSDOF 3
ENDMDL
MODEL 3
REMARK VINA RESULT:    -3.853      0.139      3.926
REMARK INTER + INTRA:          -4.644
REMARK INTER:                  -4.539
REMARK INTRA:                  -0.105
REMARK UNBOUND:                -0.114
REMARK SMILES O=C([O-])CCC(=O)[O-]
REMARK SMILES IDX 4 1 2 2 1 3 3 4 5 5 6 6 7 7 8 8
REMARK H PARENT
REMARK Flexibility Score: inf
ROOT
ATOM      1  C   UNL     1     -23.791   0.624  23.898  1.00  0.00     0.059 C 
ENDROOT
BRANCH   1   2
ATOM      2  C   UNL     1     -22.962  -0.198  24.838  1.00  0.00     0.042 C 
ATOM      3  O   UNL     1     -23.461  -1.204  25.408  1.00  0.00    -0.550 OA
ATOM      4  O   UNL     1     -21.628   0.124  25.053  1.00  0.00    -0.550 OA
ENDBRANCH   1   2
BRANCH   1   5
ATOM      5  C   UNL     1     -23.176   2.008  23.668  1.00  0.00     0.059 C 
BRANCH   5   6
ATOM      6  C   UNL     1     -22.747   2.192  22.244  1.00  0.00     0.042 C 
ATOM      7  O   UNL     1     -23.568   2.600  21.382  1.00  0.00    -0.550 OA
ATOM      8  O   UNL     1     -21.449   1.872  21.862  1.00  0.00    -0.550 OA
ENDBRANCH   5   6
ENDBRANCH   1   5
TORSDOF 3
ENDMDL
MODEL 4
REMARK VINA RESULT:    -3.640     13.551     14.763
REMARK INTER + INTRA:          -4.393
REMARK INTER:                  -4.276
REMARK INTRA:                  -0.117
REMARK UNBOUND:                -0.114
REMARK SMILES O=C([O-])CCC(=O)[O-]
REMARK SMILES IDX 4 1 2 2 1 3 3 4 5 5 6 6 7 7 8 8
REMARK H PARENT
REMARK Flexibility Score: inf
ROOT
ATOM      1  C   UNL     1     -17.838   1.886  36.632  1.00  0.00     0.059 C 
ENDROOT
BRANCH   1   2
ATOM      2  C   UNL     1     -18.028   2.217  38.081  1.00  0.00     0.042 C 
ATOM      3  O   UNL     1     -19.165   2.111  38.612  1.00  0.00    -0.550 OA
ATOM      4  O   UNL     1     -16.941   2.602  38.855  1.00  0.00    -0.550 OA
ENDBRANCH   1   2
BRANCH   1   5
ATOM      5  C   UNL     1     -18.574   0.599  36.246  1.00  0.00     0.059 C 
BRANCH   5   6
ATOM      6  C   UNL     1     -17.730  -0.614  36.496  1.00  0.00     0.042 C 
ATOM      7  O   UNL     1     -17.008  -1.084  35.578  1.00  0.00    -0.550 OA
ATOM      8  O   UNL     1     -17.774  -1.249  37.731  1.00  0.00    -0.550 OA
ENDBRANCH   5   6
ENDBRANCH   1   5
TORSDOF 3
ENDMDL
MODEL 5
REMARK VINA RESULT:    -3.609     13.596     14.439
REMARK INTER + INTRA:          -4.357
REMARK INTER:                  -4.240
REMARK INTRA:                  -0.117
REMARK UNBOUND:                -0.114
REMARK SMILES O=C([O-])CCC(=O)[O-]
REMARK SMILES IDX 4 1 2 2 1 3 3 4 5 5 6 6 7 7 8 8
REMARK H PARENT
REMARK Flexibility Score: inf
ROOT
ATOM      1  C   UNL     1     -18.779   0.362  37.384  1.00  0.00     0.059 C 
ENDROOT
BRANCH   1   2
ATOM      2  C   UNL     1     -18.240   1.760  37.341  1.00  0.00     0.042 C 
ATOM      3  O   UNL     1     -17.895   2.273  36.244  1.00  0.00    -0.550 OA
ATOM      4  O   UNL     1     -18.156   2.509  38.507  1.00  0.00    -0.550 OA
ENDBRANCH   1   2
BRANCH   1   5
ATOM      5  C   UNL     1     -17.666  -0.665  37.615  1.00  0.00     0.059 C 
BRANCH   5   6
ATOM      6  C   UNL     1     -17.203  -1.277  36.328  1.00  0.00     0.042 C 
ATOM      7  O   UNL     1     -16.226  -2.069  36.319  1.00  0.00    -0.550 OA
ATOM      8  O   UNL     1     -17.828  -0.939  35.134  1.00  0.00    -0.550 OA
ENDBRANCH   5   6
ENDBRANCH   1   5
TORSDOF 3
ENDMDL
MODEL 6
REMARK VINA RESULT:    -3.604     13.157     14.709
REMARK INTER + INTRA:          -4.351
REMARK INTER:                  -4.259
REMARK INTRA:                  -0.092
REMARK UNBOUND:                -0.114
REMARK SMILES O=C([O-])CCC(=O)[O-]
REMARK SMILES IDX 4 1 2 2 1 3 3 4 5 5 6 6 7 7 8 8
REMARK H PARENT
REMARK Flexibility Score: inf
ROOT
ATOM      1  C   UNL     1     -18.672   0.772  36.199  1.00  0.00     0.059 C 
ENDROOT
BRANCH   1   2
ATOM      2  C   UNL     1     -17.767  -0.419  36.101  1.00  0.00     0.042 C 
ATOM      3  O   UNL     1     -17.357  -0.812  34.978  1.00  0.00    -0.550 OA
ATOM      4  O   UNL     1     -17.345  -1.069  37.254  1.00  0.00    -0.550 OA
ENDBRANCH   1   2
BRANCH   1   5
ATOM      5  C   UNL     1     -17.907   2.026  36.635  1.00  0.00     0.059 C 
BRANCH   5   6
ATOM      6  C   UNL     1     -18.011   2.250  38.113  1.00  0.00     0.042 C 
ATOM      7  O   UNL     1     -19.132   2.212  38.683  1.00  0.00    -0.550 OA
ATOM      8  O   UNL     1     -16.871   2.541  38.853  1.00  0.00    -0.550 OA
ENDBRANCH   5   6
ENDBRANCH   1   5
TORSDOF 3
ENDMDL
MODEL 7
REMARK VINA RESULT:    -3.591     13.734     14.671
REMARK INTER + INTRA:          -4.335
REMARK INTER:                  -4.216
REMARK INTRA:                  -0.119
REMARK UNBOUND:                -0.114
REMARK SMILES O=C([O-])CCC(=O)[O-]
REMARK SMILES IDX 4 1 2 2 1 3 3 4 5 5 6 6 7 7 8 8
REMARK H PARENT
REMARK Flexibility Score: inf
ROOT
ATOM      1  C   UNL     1     -17.628  -0.650  37.690  1.00  0.00     0.059 C 
ENDROOT
BRANCH   1   2
ATOM      2  C   UNL     1     -17.137  -1.336  36.451  1.00  0.00     0.042 C 
ATOM      3  O   UNL     1     -16.218  -2.194  36.524  1.00  0.00    -0.550 OA
ATOM      4  O   UNL     1     -17.722  -1.057  35.223  1.00  0.00    -0.550 OA
ENDBRANCH   1   2
BRANCH   1   5
ATOM      5  C   UNL     1     -18.754   0.340  37.376  1.00  0.00     0.059 C 
BRANCH   5   6
ATOM      6  C   UNL     1     -18.248   1.749  37.308  1.00  0.00     0.042 C 
ATOM      7  O   UNL     1     -17.887   2.240  36.206  1.00  0.00    -0.550 OA
ATOM      8  O   UNL     1     -18.136   2.505  38.468  1.00  0.00    -0.550 OA
ENDBRANCH   5   6
ENDBRANCH   1   5
TORSDOF 3
ENDMDL
MODEL 8
REMARK VINA RESULT:    -3.559     10.817     11.811
REMARK INTER + INTRA:          -4.297
REMARK INTER:                  -4.178
REMARK INTRA:                  -0.119
REMARK UNBOUND:                -0.114
REMARK SMILES O=C([O-])CCC(=O)[O-]
REMARK SMILES IDX 4 1 2 2 1 3 3 4 5 5 6 6 7 7 8 8
REMARK H PARENT
REMARK Flexibility Score: inf
ROOT
ATOM      1  C   UNL     1     -17.841   7.858  30.417  1.00  0.00     0.059 C 
ENDROOT
BRANCH   1   2
ATOM      2  C   UNL     1     -16.941   8.428  31.472  1.00  0.00     0.042 C 
ATOM      3  O   UNL     1     -16.424   9.565  31.318  1.00  0.00    -0.550 OA
ATOM      4  O   UNL     1     -16.707   7.719  32.643  1.00  0.00    -0.550 OA
ENDBRANCH   1   2
BRANCH   1   5
ATOM      5  C   UNL     1     -17.921   8.773  29.191  1.00  0.00     0.059 C 
BRANCH   5   6
ATOM      6  C   UNL     1     -17.082   8.258  28.062  1.00  0.00     0.042 C 
ATOM      7  O   UNL     1     -17.572   7.463  27.219  1.00  0.00    -0.550 OA
ATOM      8  O   UNL     1     -15.745   8.626  27.965  1.00  0.00    -0.550 OA
ENDBRANCH   5   6
ENDBRANCH   1   5
TORSDOF 3
ENDMDL
MODEL 9
REMARK VINA RESULT:    -3.535     10.970     11.824
REMARK INTER + INTRA:          -4.269
REMARK INTER:                  -4.152
REMARK INTRA:                  -0.116
REMARK UNBOUND:                -0.114
REMARK SMILES O=C([O-])CCC(=O)[O-]
REMARK SMILES IDX 4 1 2 2 1 3 3 4 5 5 6 6 7 7 8 8
REMARK H PARENT
REMARK Flexibility Score: inf
ROOT
ATOM      1  C   UNL     1     -17.688   7.844  29.277  1.00  0.00     0.059 C 
ENDROOT
BRANCH   1   2
ATOM      2  C   UNL     1     -18.524   8.599  30.267  1.00  0.00     0.042 C 
ATOM      3  O   UNL     1     -19.692   8.959  29.965  1.00  0.00    -0.550 OA
ATOM      4  O   UNL     1     -18.026   8.869  31.535  1.00  0.00    -0.550 OA
ENDBRANCH   1   2
BRANCH   1   5
ATOM      5  C   UNL     1     -17.049   8.782  28.249  1.00  0.00     0.059 C 
BRANCH   5   6
ATOM      6  C   UNL     1     -15.609   9.051  28.567  1.00  0.00     0.042 C 
ATOM      7  O   UNL     1     -14.698   8.506  27.890  1.00  0.00    -0.550 OA
ATOM      8  O   UNL     1     -15.276   9.872  29.637  1.00  0.00    -0.550 OA
ENDBRANCH   5   6
ENDBRANCH   1   5
TORSDOF 3
ENDMDL
