MODEL 1
REMARK VINA RESULT:    -6.998      0.000      0.000
REMARK INTER + INTRA:          -8.736
REMARK INTER:                  -8.429
REMARK INTRA:                  -0.307
REMARK UNBOUND:                -0.307
REMARK SMILES Oc1cc(O)c2cc(O)c(-c3ccc(O)c(O)c3)[o+]c2c1.[Cl-]
REMARK SMILES IDX 10 1 19 2 20 3 21 4 2 5 3 6 4 7 6 8 7 9 8 10 11 11 12 12
REMARK SMILES IDX 13 13 14 14 18 15 16 16 15 17 17 19 9 21 1 23 5 25
REMARK H PARENT 15 18 17 20 9 22 1 24 5 26
REMARK Flexibility Score: inf
ROOT
ATOM      1  C   UNL     1      22.579  16.792   3.860  1.00  0.00     0.402 A 
ATOM      2  O   UNL     1      23.470  15.805   3.898  1.00  0.00    -0.202 OA
ATOM      3  C   UNL     1      23.201  14.564   3.506  1.00  0.00     0.368 A 
ATOM      4  C   UNL     1      24.205  13.594   3.583  1.00  0.00     0.162 A 
ATOM      5  C   UNL     1      23.952  12.284   3.176  1.00  0.00     0.128 A 
ATOM      6  C   UNL     1      22.687  11.938   2.687  1.00  0.00     0.093 A 
ATOM      7  C   UNL     1      21.665  12.891   2.600  1.00  0.00     0.136 A 
ATOM      8  C   UNL     1      21.917  14.224   3.015  1.00  0.00     0.125 A 
ATOM      9  C   UNL     1      20.950  15.242   2.977  1.00  0.00     0.078 A 
ATOM     10  C   UNL     1      21.271  16.531   3.408  1.00  0.00     0.223 A 
ENDROOT
BRANCH   1  11
ATOM     11  C   UNL     1      23.003  18.136   4.314  1.00  0.00     0.087 A 
ATOM     12  C   UNL     1      23.798  18.967   3.506  1.00  0.00     0.022 A 
ATOM     13  C   UNL     1      24.205  20.222   3.966  1.00  0.00     0.051 A 
ATOM     14  C   UNL     1      23.835  20.659   5.244  1.00  0.00     0.157 A 
ATOM     15  C   UNL     1      22.652  18.572   5.603  1.00  0.00     0.068 A 
ATOM     16  C   UNL     1      23.059  19.832   6.065  1.00  0.00     0.158 A 
BRANCH  14  17
ATOM     17  O   UNL     1      24.236  21.911   5.706  1.00  0.00    -0.504 OA
ATOM     18  H   UNL     1      23.574  22.668   5.833  1.00  0.00     0.293 HD
ENDBRANCH  14  17
BRANCH  16  19
ATOM     19  O   UNL     1      22.697  20.267   7.339  1.00  0.00    -0.504 OA
ATOM     20  H   UNL     1      23.387  20.607   7.998  1.00  0.00     0.293 HD
ENDBRANCH  16  19
ENDBRANCH   1  11
BRANCH  10  21
ATOM     21  O   UNL     1      20.297  17.530   3.417  1.00  0.00    -0.500 OA
ATOM     22  H   UNL     1      19.877  17.856   4.279  1.00  0.00     0.294 HD
ENDBRANCH  10  21
BRANCH   5  23
ATOM     23  O   UNL     1      24.966  11.331   3.261  1.00  0.00    -0.507 OA
ATOM     24  H   UNL     1      25.712  11.290   2.577  1.00  0.00     0.293 HD
ENDBRANCH   5  23
BRANCH   7  25
ATOM     25  O   UNL     1      20.431  12.467   2.099  1.00  0.00    -0.507 OA
ATOM     26  H   UNL     1      19.556  12.941   2.263  1.00  0.00     0.293 HD
ENDBRANCH   7  25
TORSDOF 6
ENDMDL
MODEL 2
REMARK VINA RESULT:    -6.886      1.231      2.693
REMARK INTER + INTRA:          -8.601
REMARK INTER:                  -8.394
REMARK INTRA:                  -0.207
REMARK UNBOUND:                -0.307
REMARK SMILES Oc1cc(O)c2cc(O)c(-c3ccc(O)c(O)c3)[o+]c2c1.[Cl-]
REMARK SMILES IDX 10 1 19 2 20 3 21 4 2 5 3 6 4 7 6 8 7 9 8 10 11 11 12 12
REMARK SMILES IDX 13 13 14 14 18 15 16 16 15 17 17 19 9 21 1 23 5 25
REMARK H PARENT 15 18 17 20 9 22 1 24 5 26
REMARK Flexibility Score: inf
ROOT
ATOM      1  C   UNL     1      22.989  16.339   4.006  1.00  0.00     0.402 A 
ATOM      2  O   UNL     1      21.722  15.941   3.939  1.00  0.00    -0.202 OA
ATOM      3  C   UNL     1      21.361  14.709   3.596  1.00  0.00     0.368 A 
ATOM      4  C   UNL     1      20.002  14.384   3.556  1.00  0.00     0.162 A 
ATOM      5  C   UNL     1      19.595  13.098   3.203  1.00  0.00     0.128 A 
ATOM      6  C   UNL     1      20.551  12.126   2.887  1.00  0.00     0.093 A 
ATOM      7  C   UNL     1      21.918  12.426   2.920  1.00  0.00     0.136 A 
ATOM      8  C   UNL     1      22.336  13.733   3.277  1.00  0.00     0.125 A 
ATOM      9  C   UNL     1      23.684  14.128   3.323  1.00  0.00     0.078 A 
ATOM     10  C   UNL     1      24.019  15.437   3.679  1.00  0.00     0.223 A 
ENDROOT
BRANCH   1  11
ATOM     11  C   UNL     1      23.263  17.737   4.411  1.00  0.00     0.087 A 
ATOM     12  C   UNL     1      23.835  18.660   3.518  1.00  0.00     0.022 A 
ATOM     13  C   UNL     1      24.107  19.967   3.930  1.00  0.00     0.051 A 
ATOM     14  C   UNL     1      23.823  20.367   5.243  1.00  0.00     0.157 A 
ATOM     15  C   UNL     1      23.001  18.138   5.731  1.00  0.00     0.068 A 
ATOM     16  C   UNL     1      23.272  19.450   6.145  1.00  0.00     0.158 A 
BRANCH  14  17
ATOM     17  O   UNL     1      24.090  21.670   5.656  1.00  0.00    -0.504 OA
ATOM     18  H   UNL     1      23.957  22.462   5.037  1.00  0.00     0.293 HD
ENDBRANCH  14  17
BRANCH  16  19
ATOM     19  O   UNL     1      22.997  19.848   7.453  1.00  0.00    -0.504 OA
ATOM     20  H   UNL     1      22.480  20.697   7.650  1.00  0.00     0.293 HD
ENDBRANCH  16  19
ENDBRANCH   1  11
BRANCH  10  21
ATOM     21  O   UNL     1      25.354  15.843   3.677  1.00  0.00    -0.500 OA
ATOM     22  H   UNL     1      26.004  15.538   4.391  1.00  0.00     0.294 HD
ENDBRANCH  10  21
BRANCH   5  23
ATOM     23  O   UNL     1      18.235  12.794   3.168  1.00  0.00    -0.507 OA
ATOM     24  H   UNL     1      17.545  13.481   2.889  1.00  0.00     0.293 HD
ENDBRANCH   5  23
BRANCH   7  25
ATOM     25  O   UNL     1      22.810  11.400   2.595  1.00  0.00    -0.507 OA
ATOM     26  H   UNL     1      23.518  11.465   1.879  1.00  0.00     0.293 HD
ENDBRANCH   7  25
TORSDOF 6
ENDMDL
MODEL 3
REMARK VINA RESULT:    -5.832      3.123      5.797
REMARK INTER + INTRA:          -7.332
REMARK INTER:                  -7.347
REMARK INTRA:                   0.015
REMARK UNBOUND:                -0.307
REMARK SMILES Oc1cc(O)c2cc(O)c(-c3ccc(O)c(O)c3)[o+]c2c1.[Cl-]
REMARK SMILES IDX 10 1 19 2 20 3 21 4 2 5 3 6 4 7 6 8 7 9 8 10 11 11 12 12
REMARK SMILES IDX 13 13 14 14 18 15 16 16 15 17 17 19 9 21 1 23 5 25
REMARK H PARENT 15 18 17 20 9 22 1 24 5 26
REMARK Flexibility Score: inf
ROOT
ATOM      1  C   UNL     1      23.192  19.369   7.396  1.00  0.00     0.402 A 
ATOM      2  O   UNL     1      22.360  18.618   6.681  1.00  0.00    -0.202 OA
ATOM      3  C   UNL     1      22.563  18.317   5.403  1.00  0.00     0.368 A 
ATOM      4  C   UNL     1      21.630  17.518   4.736  1.00  0.00     0.162 A 
ATOM      5  C   UNL     1      21.819  17.184   3.395  1.00  0.00     0.128 A 
ATOM      6  C   UNL     1      22.949  17.651   2.713  1.00  0.00     0.093 A 
ATOM      7  C   UNL     1      23.898  18.452   3.359  1.00  0.00     0.136 A 
ATOM      8  C   UNL     1      23.708  18.796   4.722  1.00  0.00     0.125 A 
ATOM      9  C   UNL     1      24.599  19.606   5.446  1.00  0.00     0.078 A 
ATOM     10  C   UNL     1      24.342  19.906   6.787  1.00  0.00     0.223 A 
ENDROOT
BRANCH   1  11
ATOM     11  C   UNL     1      22.861  19.625   8.816  1.00  0.00     0.087 A 
ATOM     12  C   UNL     1      23.842  19.562   9.822  1.00  0.00     0.022 A 
ATOM     13  C   UNL     1      23.500  19.784  11.158  1.00  0.00     0.051 A 
ATOM     14  C   UNL     1      22.173  20.060  11.511  1.00  0.00     0.157 A 
ATOM     15  C   UNL     1      21.528  19.882   9.179  1.00  0.00     0.068 A 
ATOM     16  C   UNL     1      21.185  20.106  10.520  1.00  0.00     0.158 A 
BRANCH  14  17
ATOM     17  O   UNL     1      21.829  20.285  12.842  1.00  0.00    -0.504 OA
ATOM     18  H   UNL     1      22.172  21.093  13.350  1.00  0.00     0.293 HD
ENDBRANCH  14  17
BRANCH  16  19
ATOM     19  O   UNL     1      19.864  20.375  10.875  1.00  0.00    -0.504 OA
ATOM     20  H   UNL     1      19.518  21.324  10.950  1.00  0.00     0.293 HD
ENDBRANCH  16  19
ENDBRANCH   1  11
BRANCH  10  21
ATOM     21  O   UNL     1      25.201  20.750   7.491  1.00  0.00    -0.500 OA
ATOM     22  H   UNL     1      25.907  21.304   7.022  1.00  0.00     0.294 HD
ENDBRANCH  10  21
BRANCH   5  23
ATOM     23  O   UNL     1      20.878  16.386   2.746  1.00  0.00    -0.507 OA
ATOM     24  H   UNL     1      20.255  16.767   2.044  1.00  0.00     0.293 HD
ENDBRANCH   5  23
BRANCH   7  25
ATOM     25  O   UNL     1      25.000  18.875   2.610  1.00  0.00    -0.507 OA
ATOM     26  H   UNL     1      25.810  18.306   2.416  1.00  0.00     0.293 HD
ENDBRANCH   7  25
TORSDOF 6
ENDMDL
MODEL 4
REMARK VINA RESULT:    -5.465      3.607      8.139
REMARK INTER + INTRA:          -6.890
REMARK INTER:                  -6.877
REMARK INTRA:                  -0.013
REMARK UNBOUND:                -0.307
REMARK SMILES Oc1cc(O)c2cc(O)c(-c3ccc(O)c(O)c3)[o+]c2c1.[Cl-]
REMARK SMILES IDX 10 1 19 2 20 3 21 4 2 5 3 6 4 7 6 8 7 9 8 10 11 11 12 12
REMARK SMILES IDX 13 13 14 14 18 15 16 16 15 17 17 19 9 21 1 23 5 25
REMARK H PARENT 15 18 17 20 9 22 1 24 5 26
REMARK Flexibility Score: inf
ROOT
ATOM      1  C   UNL     1      23.598  19.391   7.592  1.00  0.00     0.402 A 
ATOM      2  O   UNL     1      22.548  19.257   8.398  1.00  0.00    -0.202 OA
ATOM      3  C   UNL     1      22.556  19.627   9.675  1.00  0.00     0.368 A 
ATOM      4  C   UNL     1      21.402  19.447  10.442  1.00  0.00     0.162 A 
ATOM      5  C   UNL     1      21.381  19.829  11.783  1.00  0.00     0.128 A 
ATOM      6  C   UNL     1      22.521  20.395  12.365  1.00  0.00     0.093 A 
ATOM      7  C   UNL     1      23.689  20.585  11.618  1.00  0.00     0.136 A 
ATOM      8  C   UNL     1      23.716  20.196  10.254  1.00  0.00     0.125 A 
ATOM      9  C   UNL     1      24.847  20.336   9.432  1.00  0.00     0.078 A 
ATOM     10  C   UNL     1      24.799  19.925   8.097  1.00  0.00     0.223 A 
ENDROOT
BRANCH   1  11
ATOM     11  C   UNL     1      23.462  18.950   6.185  1.00  0.00     0.087 A 
ATOM     12  C   UNL     1      23.921  19.745   5.120  1.00  0.00     0.022 A 
ATOM     13  C   UNL     1      23.759  19.319   3.799  1.00  0.00     0.051 A 
ATOM     14  C   UNL     1      23.127  18.100   3.523  1.00  0.00     0.157 A 
ATOM     15  C   UNL     1      22.810  17.739   5.900  1.00  0.00     0.068 A 
ATOM     16  C   UNL     1      22.649  17.310   4.575  1.00  0.00     0.158 A 
BRANCH  14  17
ATOM     17  O   UNL     1      22.967  17.671   2.207  1.00  0.00    -0.504 OA
ATOM     18  H   UNL     1      22.531  16.782   1.988  1.00  0.00     0.293 HD
ENDBRANCH  14  17
BRANCH  16  19
ATOM     19  O   UNL     1      22.014  16.101   4.297  1.00  0.00    -0.504 OA
ATOM     20  H   UNL     1      21.885  15.393   5.011  1.00  0.00     0.293 HD
ENDBRANCH  16  19
ENDBRANCH   1  11
BRANCH  10  21
ATOM     21  O   UNL     1      25.936  20.018   7.295  1.00  0.00    -0.500 OA
ATOM     22  H   UNL     1      26.292  19.221   6.781  1.00  0.00     0.294 HD
ENDBRANCH  10  21
BRANCH   5  23
ATOM     23  O   UNL     1      20.220  19.642  12.532  1.00  0.00    -0.507 OA
ATOM     24  H   UNL     1      20.210  19.054  13.356  1.00  0.00     0.293 HD
ENDBRANCH   5  23
BRANCH   7  25
ATOM     25  O   UNL     1      24.784  21.159  12.270  1.00  0.00    -0.507 OA
ATOM     26  H   UNL     1      24.946  22.152  12.346  1.00  0.00     0.293 HD
ENDBRANCH   7  25
TORSDOF 6
ENDMDL
MODEL 5
REMARK VINA RESULT:    -5.316      3.738      8.209
REMARK INTER + INTRA:          -6.710
REMARK INTER:                  -6.752
REMARK INTRA:                   0.042
REMARK UNBOUND:                -0.307
REMARK SMILES Oc1cc(O)c2cc(O)c(-c3ccc(O)c(O)c3)[o+]c2c1.[Cl-]
REMARK SMILES IDX 10 1 19 2 20 3 21 4 2 5 3 6 4 7 6 8 7 9 8 10 11 11 12 12
REMARK SMILES IDX 13 13 14 14 18 15 16 16 15 17 17 19 9 21 1 23 5 25
REMARK H PARENT 15 18 17 20 9 22 1 24 5 26
REMARK Flexibility Score: inf
ROOT
ATOM      1  C   UNL     1      23.478  19.376   7.713  1.00  0.00     0.402 A 
ATOM      2  O   UNL     1      22.425  19.241   8.515  1.00  0.00    -0.202 OA
ATOM      3  C   UNL     1      22.428  19.608   9.792  1.00  0.00     0.368 A 
ATOM      4  C   UNL     1      21.270  19.428  10.554  1.00  0.00     0.162 A 
ATOM      5  C   UNL     1      21.244  19.807  11.896  1.00  0.00     0.128 A 
ATOM      6  C   UNL     1      22.383  20.371  12.484  1.00  0.00     0.093 A 
ATOM      7  C   UNL     1      23.554  20.562  11.742  1.00  0.00     0.136 A 
ATOM      8  C   UNL     1      23.586  20.176  10.377  1.00  0.00     0.125 A 
ATOM      9  C   UNL     1      24.720  20.317   9.560  1.00  0.00     0.078 A 
ATOM     10  C   UNL     1      24.677  19.908   8.224  1.00  0.00     0.223 A 
ENDROOT
BRANCH   1  11
ATOM     11  C   UNL     1      23.347  18.939   6.305  1.00  0.00     0.087 A 
ATOM     12  C   UNL     1      22.797  17.687   5.973  1.00  0.00     0.022 A 
ATOM     13  C   UNL     1      22.706  17.287   4.638  1.00  0.00     0.051 A 
ATOM     14  C   UNL     1      23.172  18.125   3.616  1.00  0.00     0.157 A 
ATOM     15  C   UNL     1      23.831  19.765   5.277  1.00  0.00     0.068 A 
ATOM     16  C   UNL     1      23.738  19.364   3.937  1.00  0.00     0.158 A 
BRANCH  14  17
ATOM     17  O   UNL     1      23.079  17.730   2.283  1.00  0.00    -0.504 OA
ATOM     18  H   UNL     1      22.623  18.310   1.588  1.00  0.00     0.293 HD
ENDBRANCH  14  17
BRANCH  16  19
ATOM     19  O   UNL     1      24.207  20.192   2.918  1.00  0.00    -0.504 OA
ATOM     20  H   UNL     1      24.793  20.995   3.115  1.00  0.00     0.293 HD
ENDBRANCH  16  19
ENDBRANCH   1  11
BRANCH  10  21
ATOM     21  O   UNL     1      25.818  20.002   7.427  1.00  0.00    -0.500 OA
ATOM     22  H   UNL     1      25.779  20.366   6.482  1.00  0.00     0.294 HD
ENDBRANCH  10  21
BRANCH   5  23
ATOM     23  O   UNL     1      20.080  19.619  12.640  1.00  0.00    -0.507 OA
ATOM     24  H   UNL     1      19.349  18.991  12.329  1.00  0.00     0.293 HD
ENDBRANCH   5  23
BRANCH   7  25
ATOM     25  O   UNL     1      24.647  21.134  12.399  1.00  0.00    -0.507 OA
ATOM     26  H   UNL     1      24.690  22.095  12.703  1.00  0.00     0.293 HD
ENDBRANCH   7  25
TORSDOF 6
ENDMDL
MODEL 6
REMARK VINA RESULT:    -5.303      1.879      7.014
REMARK INTER + INTRA:          -6.694
REMARK INTER:                  -6.614
REMARK INTRA:                  -0.080
REMARK UNBOUND:                -0.307
REMARK SMILES Oc1cc(O)c2cc(O)c(-c3ccc(O)c(O)c3)[o+]c2c1.[Cl-]
REMARK SMILES IDX 10 1 19 2 20 3 21 4 2 5 3 6 4 7 6 8 7 9 8 10 11 11 12 12
REMARK SMILES IDX 13 13 14 14 18 15 16 16 15 17 17 19 9 21 1 23 5 25
REMARK H PARENT 15 18 17 20 9 22 1 24 5 26
REMARK Flexibility Score: inf
ROOT
ATOM      1  C   UNL     1      21.856  16.930   4.273  1.00  0.00     0.402 A 
ATOM      2  O   UNL     1      22.163  17.287   5.517  1.00  0.00    -0.202 OA
ATOM      3  C   UNL     1      22.878  18.368   5.811  1.00  0.00     0.368 A 
ATOM      4  C   UNL     1      23.148  18.660   7.151  1.00  0.00     0.162 A 
ATOM      5  C   UNL     1      23.893  19.790   7.489  1.00  0.00     0.128 A 
ATOM      6  C   UNL     1      24.372  20.636   6.482  1.00  0.00     0.093 A 
ATOM      7  C   UNL     1      24.115  20.365   5.133  1.00  0.00     0.136 A 
ATOM      8  C   UNL     1      23.360  19.215   4.785  1.00  0.00     0.125 A 
ATOM      9  C   UNL     1      23.065  18.857   3.459  1.00  0.00     0.078 A 
ATOM     10  C   UNL     1      22.319  17.705   3.193  1.00  0.00     0.223 A 
ENDROOT
BRANCH   1  11
ATOM     11  C   UNL     1      21.044  15.708   4.075  1.00  0.00     0.087 A 
ATOM     12  C   UNL     1      19.795  15.547   4.701  1.00  0.00     0.022 A 
ATOM     13  C   UNL     1      19.058  14.374   4.518  1.00  0.00     0.051 A 
ATOM     14  C   UNL     1      19.562  13.342   3.717  1.00  0.00     0.157 A 
ATOM     15  C   UNL     1      21.553  14.660   3.290  1.00  0.00     0.068 A 
ATOM     16  C   UNL     1      20.812  13.484   3.104  1.00  0.00     0.158 A 
BRANCH  14  17
ATOM     17  O   UNL     1      18.828  12.172   3.530  1.00  0.00    -0.504 OA
ATOM     18  H   UNL     1      17.978  12.162   2.977  1.00  0.00     0.293 HD
ENDBRANCH  14  17
BRANCH  16  19
ATOM     19  O   UNL     1      21.314  12.451   2.313  1.00  0.00    -0.504 OA
ATOM     20  H   UNL     1      21.110  11.480   2.517  1.00  0.00     0.293 HD
ENDBRANCH  16  19
ENDBRANCH   1  11
BRANCH  10  21
ATOM     21  O   UNL     1      22.068  17.322   1.875  1.00  0.00    -0.500 OA
ATOM     22  H   UNL     1      21.158  16.989   1.581  1.00  0.00     0.294 HD
ENDBRANCH  10  21
BRANCH   5  23
ATOM     23  O   UNL     1      24.152  20.065   8.830  1.00  0.00    -0.507 OA
ATOM     24  H   UNL     1      24.796  20.797   9.107  1.00  0.00     0.293 HD
ENDBRANCH   5  23
BRANCH   7  25
ATOM     25  O   UNL     1      24.625  21.259   4.188  1.00  0.00    -0.507 OA
ATOM     26  H   UNL     1      24.062  21.778   3.531  1.00  0.00     0.293 HD
ENDBRANCH   7  25
TORSDOF 6
ENDMDL
MODEL 7
REMARK VINA RESULT:    -4.834      5.366      8.707
REMARK INTER + INTRA:          -6.130
REMARK INTER:                  -6.504
REMARK INTRA:                   0.374
REMARK UNBOUND:                -0.307
REMARK SMILES Oc1cc(O)c2cc(O)c(-c3ccc(O)c(O)c3)[o+]c2c1.[Cl-]
REMARK SMILES IDX 10 1 19 2 20 3 21 4 2 5 3 6 4 7 6 8 7 9 8 10 11 11 12 12
REMARK SMILES IDX 13 13 14 14 18 15 16 16 15 17 17 19 9 21 1 23 5 25
REMARK H PARENT 15 18 17 20 9 22 1 24 5 26
REMARK Flexibility Score: inf
ROOT
ATOM      1  C   UNL     1      21.289  19.696  10.355  1.00  0.00     0.402 A 
ATOM      2  O   UNL     1      21.316  19.621   9.027  1.00  0.00    -0.202 OA
ATOM      3  C   UNL     1      22.431  19.727   8.312  1.00  0.00     0.368 A 
ATOM      4  C   UNL     1      22.357  19.633   6.920  1.00  0.00     0.162 A 
ATOM      5  C   UNL     1      23.511  19.737   6.144  1.00  0.00     0.128 A 
ATOM      6  C   UNL     1      24.751  19.936   6.763  1.00  0.00     0.093 A 
ATOM      7  C   UNL     1      24.851  20.033   8.156  1.00  0.00     0.136 A 
ATOM      8  C   UNL     1      23.679  19.930   8.948  1.00  0.00     0.125 A 
ATOM      9  C   UNL     1      23.682  20.029  10.349  1.00  0.00     0.078 A 
ATOM     10  C   UNL     1      22.485  19.922  11.062  1.00  0.00     0.223 A 
ENDROOT
BRANCH   1  11
ATOM     11  C   UNL     1      19.984  19.553  11.039  1.00  0.00     0.087 A 
ATOM     12  C   UNL     1      19.900  19.401  12.435  1.00  0.00     0.022 A 
ATOM     13  C   UNL     1      18.658  19.244  13.055  1.00  0.00     0.051 A 
ATOM     14  C   UNL     1      17.484  19.223  12.290  1.00  0.00     0.157 A 
ATOM     15  C   UNL     1      18.805  19.510  10.276  1.00  0.00     0.068 A 
ATOM     16  C   UNL     1      17.558  19.354  10.899  1.00  0.00     0.158 A 
BRANCH  14  17
ATOM     17  O   UNL     1      16.244  19.069  12.906  1.00  0.00    -0.504 OA
ATOM     18  H   UNL     1      15.757  19.855  13.324  1.00  0.00     0.293 HD
ENDBRANCH  14  17
BRANCH  16  19
ATOM     19  O   UNL     1      16.389  19.327  10.139  1.00  0.00    -0.504 OA
ATOM     20  H   UNL     1      16.413  19.368   9.127  1.00  0.00     0.293 HD
ENDBRANCH  16  19
ENDBRANCH   1  11
BRANCH  10  21
ATOM     21  O   UNL     1      22.481  20.070  12.450  1.00  0.00    -0.500 OA
ATOM     22  H   UNL     1      22.964  19.418  13.056  1.00  0.00     0.294 HD
ENDBRANCH  10  21
BRANCH   5  23
ATOM     23  O   UNL     1      23.417  19.641   4.757  1.00  0.00    -0.507 OA
ATOM     24  H   UNL     1      22.567  19.329   4.303  1.00  0.00     0.293 HD
ENDBRANCH   5  23
BRANCH   7  25
ATOM     25  O   UNL     1      26.125  20.228   8.697  1.00  0.00    -0.507 OA
ATOM     26  H   UNL     1      26.304  20.483   9.657  1.00  0.00     0.293 HD
ENDBRANCH   7  25
TORSDOF 6
ENDMDL
MODEL 8
REMARK VINA RESULT:    -4.729      4.427      8.475
REMARK INTER + INTRA:          -6.003
REMARK INTER:                  -5.870
REMARK INTRA:                  -0.133
REMARK UNBOUND:                -0.307
REMARK SMILES Oc1cc(O)c2cc(O)c(-c3ccc(O)c(O)c3)[o+]c2c1.[Cl-]
REMARK SMILES IDX 10 1 19 2 20 3 21 4 2 5 3 6 4 7 6 8 7 9 8 10 11 11 12 12
REMARK SMILES IDX 13 13 14 14 18 15 16 16 15 17 17 19 9 21 1 23 5 25
REMARK H PARENT 15 18 17 20 9 22 1 24 5 26
REMARK Flexibility Score: inf
ROOT
ATOM      1  C   UNL     1      22.741  19.691   8.767  1.00  0.00     0.402 A 
ATOM      2  O   UNL     1      21.475  19.474   9.115  1.00  0.00    -0.202 OA
ATOM      3  C   UNL     1      21.041  19.540  10.369  1.00  0.00     0.368 A 
ATOM      4  C   UNL     1      19.691  19.297  10.634  1.00  0.00     0.162 A 
ATOM      5  C   UNL     1      19.207  19.362  11.941  1.00  0.00     0.128 A 
ATOM      6  C   UNL     1      20.077  19.673  12.992  1.00  0.00     0.093 A 
ATOM      7  C   UNL     1      21.434  19.921  12.752  1.00  0.00     0.136 A 
ATOM      8  C   UNL     1      21.931  19.853  11.425  1.00  0.00     0.125 A 
ATOM      9  C   UNL     1      23.278  20.073  11.092  1.00  0.00     0.078 A 
ATOM     10  C   UNL     1      23.694  19.984   9.761  1.00  0.00     0.223 A 
ENDROOT
BRANCH   1  11
ATOM     11  C   UNL     1      23.100  19.599   7.334  1.00  0.00     0.087 A 
ATOM     12  C   UNL     1      22.927  18.406   6.610  1.00  0.00     0.022 A 
ATOM     13  C   UNL     1      23.295  18.336   5.264  1.00  0.00     0.051 A 
ATOM     14  C   UNL     1      23.851  19.452   4.625  1.00  0.00     0.157 A 
ATOM     15  C   UNL     1      23.677  20.708   6.693  1.00  0.00     0.068 A 
ATOM     16  C   UNL     1      24.045  20.638   5.342  1.00  0.00     0.158 A 
BRANCH  14  17
ATOM     17  O   UNL     1      24.216  19.387   3.282  1.00  0.00    -0.504 OA
ATOM     18  H   UNL     1      24.415  18.502   2.828  1.00  0.00     0.293 HD
ENDBRANCH  14  17
BRANCH  16  19
ATOM     19  O   UNL     1      24.605  21.745   4.705  1.00  0.00    -0.504 OA
ATOM     20  H   UNL     1      24.088  22.609   4.591  1.00  0.00     0.293 HD
ENDBRANCH  16  19
ENDBRANCH   1  11
BRANCH  10  21
ATOM     21  O   UNL     1      25.040  20.153   9.436  1.00  0.00    -0.500 OA
ATOM     22  H   UNL     1      25.761  19.556   9.825  1.00  0.00     0.294 HD
ENDBRANCH  10  21
BRANCH   5  23
ATOM     23  O   UNL     1      17.857  19.116  12.186  1.00  0.00    -0.507 OA
ATOM     24  H   UNL     1      17.552  18.593  12.998  1.00  0.00     0.293 HD
ENDBRANCH   5  23
BRANCH   7  25
ATOM     25  O   UNL     1      22.237  20.228  13.854  1.00  0.00    -0.507 OA
ATOM     26  H   UNL     1      22.219  19.728  14.730  1.00  0.00     0.293 HD
ENDBRANCH   7  25
TORSDOF 6
ENDMDL
MODEL 9
REMARK VINA RESULT:    -4.684      1.959      7.181
REMARK INTER + INTRA:          -5.949
REMARK INTER:                  -5.926
REMARK INTRA:                  -0.023
REMARK UNBOUND:                -0.307
REMARK SMILES Oc1cc(O)c2cc(O)c(-c3ccc(O)c(O)c3)[o+]c2c1.[Cl-]
REMARK SMILES IDX 10 1 19 2 20 3 21 4 2 5 3 6 4 7 6 8 7 9 8 10 11 11 12 12
REMARK SMILES IDX 13 13 14 14 18 15 16 16 15 17 17 19 9 21 1 23 5 25
REMARK H PARENT 15 18 17 20 9 22 1 24 5 26
REMARK Flexibility Score: inf
ROOT
ATOM      1  C   UNL     1      22.067  16.339   4.255  1.00  0.00     0.402 A 
ATOM      2  O   UNL     1      21.418  17.433   4.645  1.00  0.00    -0.202 OA
ATOM      3  C   UNL     1      22.019  18.478   5.205  1.00  0.00     0.368 A 
ATOM      4  C   UNL     1      21.250  19.583   5.580  1.00  0.00     0.162 A 
ATOM      5  C   UNL     1      21.855  20.695   6.167  1.00  0.00     0.128 A 
ATOM      6  C   UNL     1      23.238  20.704   6.381  1.00  0.00     0.093 A 
ATOM      7  C   UNL     1      24.029  19.610   6.014  1.00  0.00     0.136 A 
ATOM      8  C   UNL     1      23.418  18.476   5.419  1.00  0.00     0.125 A 
ATOM      9  C   UNL     1      24.130  17.329   5.032  1.00  0.00     0.078 A 
ATOM     10  C   UNL     1      23.458  16.248   4.455  1.00  0.00     0.223 A 
ENDROOT
BRANCH   1  11
ATOM     11  C   UNL     1      21.287  15.245   3.634  1.00  0.00     0.087 A 
ATOM     12  C   UNL     1      21.720  14.612   2.456  1.00  0.00     0.022 A 
ATOM     13  C   UNL     1      20.954  13.598   1.875  1.00  0.00     0.051 A 
ATOM     14  C   UNL     1      19.739  13.210   2.455  1.00  0.00     0.157 A 
ATOM     15  C   UNL     1      20.057  14.867   4.199  1.00  0.00     0.068 A 
ATOM     16  C   UNL     1      19.289  13.848   3.617  1.00  0.00     0.158 A 
BRANCH  14  17
ATOM     17  O   UNL     1      18.974  12.198   1.881  1.00  0.00    -0.504 OA
ATOM     18  H   UNL     1      18.668  11.394   2.418  1.00  0.00     0.293 HD
ENDBRANCH  14  17
BRANCH  16  19
ATOM     19  O   UNL     1      18.076  13.465   4.189  1.00  0.00    -0.504 OA
ATOM     20  H   UNL     1      17.657  13.993   4.945  1.00  0.00     0.293 HD
ENDBRANCH  16  19
ENDBRANCH   1  11
BRANCH  10  21
ATOM     21  O   UNL     1      24.157  15.089   4.116  1.00  0.00    -0.500 OA
ATOM     22  H   UNL     1      24.196  14.750   3.163  1.00  0.00     0.294 HD
ENDBRANCH  10  21
BRANCH   5  23
ATOM     23  O   UNL     1      21.071  21.788   6.535  1.00  0.00    -0.507 OA
ATOM     24  H   UNL     1      20.974  22.596   5.932  1.00  0.00     0.293 HD
ENDBRANCH   5  23
BRANCH   7  25
ATOM     25  O   UNL     1      25.403  19.698   6.258  1.00  0.00    -0.507 OA
ATOM     26  H   UNL     1      26.105  19.788   5.539  1.00  0.00     0.293 HD
ENDBRANCH   7  25
TORSDOF 6
ENDMDL
