MODEL 1
REMARK VINA RESULT:    -7.152      0.000      0.000
REMARK INTER + INTRA:         -13.104
REMARK INTER:                 -11.751
REMARK INTRA:                  -1.353
REMARK UNBOUND:                -1.353
REMARK SMILES COc1ccc([C@@H]2CC(=O)c3c(O)cc(O[C@H]4O[C@H](CO[C@@H]5O[C@H](C)[C@@H](O)[C@@H](O)[C@H]5O)[C@@H](O)[C@H](O)[C@H]4O)cc3O2)cc1O
REMARK SMILES IDX 19 1 32 2 34 3 36 4 17 5 18 6 20 7 21 8 22 9 25 10 24 11
REMARK SMILES IDX 26 12 23 13 28 14 30 15 27 16 29 18 31 20 33 22 35 24 16 26
REMARK SMILES IDX 15 27 14 28 38 29 12 30 39 31 11 32 40 33 9 34 7 35 10 36
REMARK SMILES IDX 8 37 13 38 6 40 41 41 5 42 42 43 4 44 3 45 43 46 2 48 1 49
REMARK SMILES IDX 37 50
REMARK H PARENT 27 17 29 19 31 21 33 23 35 25 13 39 43 47 37 51
REMARK Flexibility Score: inf
ROOT
ATOM      1  C   UNL     1      -2.871 -36.724 -31.732  1.00  0.00     0.180 C 
ATOM      2  C   UNL     1      -2.406 -38.001 -32.491  1.00  0.00     0.177 C 
ATOM      3  C   UNL     1      -1.174 -38.756 -31.761  1.00  0.00     0.180 C 
ATOM      4  C   UNL     1      -0.117 -37.651 -31.364  1.00  0.00     0.214 C 
ATOM      5  C   UNL     1      -0.480 -36.137 -31.817  1.00  0.00     0.339 C 
ATOM      6  O   UNL     1      -1.814 -35.659 -31.577  1.00  0.00    -0.332 OA
ENDROOT
BRANCH   1   7
ATOM      7  C   UNL     1      -4.222 -36.674 -30.890  1.00  0.00     0.198 C 
BRANCH   7   8
ATOM      8  O   UNL     1      -5.165 -37.265 -31.801  1.00  0.00    -0.347 OA
BRANCH   8   9
ATOM      9  C   UNL     1      -6.368 -36.540 -31.972  1.00  0.00     0.281 C 
ATOM     10  C   UNL     1      -7.027 -33.128 -33.447  1.00  0.00     0.041 C 
ATOM     11  C   UNL     1      -7.324 -34.522 -32.760  1.00  0.00     0.150 C 
ATOM     12  C   UNL     1      -8.385 -34.394 -31.594  1.00  0.00     0.174 C 
ATOM     13  O   UNL     1      -6.090 -35.191 -32.382  1.00  0.00    -0.344 OA
ATOM     14  C   UNL     1      -8.081 -35.286 -30.367  1.00  0.00     0.179 C 
ATOM     15  C   UNL     1      -7.540 -36.749 -30.906  1.00  0.00     0.202 C 
BRANCH  12  16
ATOM     16  O   UNL     1      -9.722 -34.617 -32.097  1.00  0.00    -0.388 OA
ATOM     17  H   UNL     1      -9.754 -34.962 -33.004  1.00  0.00     0.211 HD
ENDBRANCH  12  16
BRANCH  14  18
ATOM     18  O   UNL     1      -9.213 -35.382 -29.470  1.00  0.00    -0.387 OA
ATOM     19  H   UNL     1      -9.156 -34.608 -28.847  1.00  0.00     0.211 HD
ENDBRANCH  14  18
BRANCH  15  20
ATOM     20  O   UNL     1      -8.540 -37.533 -31.583  1.00  0.00    -0.385 OA
ATOM     21  H   UNL     1      -8.551 -37.410 -32.548  1.00  0.00     0.211 HD
ENDBRANCH  15  20
ENDBRANCH   8   9
ENDBRANCH   7   8
ENDBRANCH   1   7
BRANCH   2  22
ATOM     22  O   UNL     1      -2.012 -37.501 -33.769  1.00  0.00    -0.387 OA
ATOM     23  H   UNL     1      -1.130 -37.031 -33.607  1.00  0.00     0.211 HD
ENDBRANCH   2  22
BRANCH   3  24
ATOM     24  O   UNL     1      -1.722 -39.335 -30.514  1.00  0.00    -0.387 OA
ATOM     25  H   UNL     1      -0.986 -39.233 -29.866  1.00  0.00     0.211 HD
ENDBRANCH   3  24
BRANCH   5  26
ATOM     26  O   UNL     1       0.345 -35.535 -32.919  1.00  0.00    -0.462 OA
BRANCH  26  27
ATOM     27  C   UNL     1       0.035 -34.697 -34.071  1.00  0.00     0.130 A 
ATOM     28  C   UNL     1       0.164 -33.237 -34.079  1.00  0.00     0.093 A 
ATOM     29  C   UNL     1      -0.095 -35.176 -35.365  1.00  0.00     0.094 A 
ATOM     30  C   UNL     1       1.442 -32.922 -34.699  1.00  0.00     0.133 A 
ATOM     31  C   UNL     1       0.945 -34.686 -36.177  1.00  0.00     0.138 A 
ATOM     32  C   UNL     1       1.970 -33.943 -35.606  1.00  0.00     0.102 A 
ATOM     33  O   UNL     1       0.832 -34.618 -37.611  1.00  0.00    -0.484 OA
ATOM     34  C   UNL     1       3.031 -33.757 -36.577  1.00  0.00     0.174 C 
ATOM     35  C   UNL     1       1.446 -33.600 -38.453  1.00  0.00     0.211 C 
ATOM     36  O   UNL     1       3.872 -34.678 -36.766  1.00  0.00    -0.294 OA
ATOM     37  C   UNL     1       2.697 -32.929 -37.755  1.00  0.00     0.131 C 
BRANCH  30  38
ATOM     38  O   UNL     1       1.943 -31.629 -34.604  1.00  0.00    -0.507 OA
ATOM     39  H   UNL     1       2.791 -31.417 -35.058  1.00  0.00     0.293 HD
ENDBRANCH  30  38
BRANCH  35  40
ATOM     40  C   UNL     1       1.736 -34.170 -39.902  1.00  0.00    -0.003 A 
ATOM     41  C   UNL     1       2.384 -35.395 -40.064  1.00  0.00     0.057 A 
ATOM     42  C   UNL     1       1.434 -33.419 -41.039  1.00  0.00     0.011 A 
ATOM     43  C   UNL     1       2.403 -36.003 -41.307  1.00  0.00     0.158 A 
ATOM     44  C   UNL     1       1.783 -33.878 -42.315  1.00  0.00     0.051 A 
ATOM     45  C   UNL     1       2.359 -35.175 -42.439  1.00  0.00     0.160 A 
BRANCH  43  46
ATOM     46  O   UNL     1       3.022 -37.319 -41.366  1.00  0.00    -0.504 OA
ATOM     47  H   UNL     1       2.738 -38.031 -42.039  1.00  0.00     0.293 HD
ENDBRANCH  43  46
BRANCH  45  48
ATOM     48  O   UNL     1       2.753 -35.707 -43.617  1.00  0.00    -0.493 OA
ATOM     49  C   UNL     1       3.983 -35.338 -44.338  1.00  0.00     0.278 C 
ENDBRANCH  45  48
ENDBRANCH  35  40
ENDBRANCH  26  27
ENDBRANCH   5  26
BRANCH   4  50
ATOM     50  O   UNL     1       1.116 -37.900 -32.069  1.00  0.00    -0.384 OA
ATOM     51  H   UNL     1       1.970 -37.882 -31.450  1.00  0.00     0.211 HD
ENDBRANCH   4  50
TORSDOF 15
ENDMDL
MODEL 2
REMARK VINA RESULT:    -7.007      2.721      6.718
REMARK INTER + INTRA:         -12.866
REMARK INTER:                 -10.260
REMARK INTRA:                  -2.606
REMARK UNBOUND:                -1.353
REMARK SMILES COc1ccc([C@@H]2CC(=O)c3c(O)cc(O[C@H]4O[C@H](CO[C@@H]5O[C@H](C)[C@@H](O)[C@@H](O)[C@H]5O)[C@@H](O)[C@H](O)[C@H]4O)cc3O2)cc1O
REMARK SMILES IDX 19 1 32 2 34 3 36 4 17 5 18 6 20 7 21 8 22 9 25 10 24 11
REMARK SMILES IDX 26 12 23 13 28 14 30 15 27 16 29 18 31 20 33 22 35 24 16 26
REMARK SMILES IDX 15 27 14 28 38 29 12 30 39 31 11 32 40 33 9 34 7 35 10 36
REMARK SMILES IDX 8 37 13 38 6 40 41 41 5 42 42 43 4 44 3 45 43 46 2 48 1 49
REMARK SMILES IDX 37 50
REMARK H PARENT 27 17 29 19 31 21 33 23 35 25 13 39 43 47 37 51
REMARK Flexibility Score: inf
ROOT
ATOM      1  C   UNL     1      -6.765 -35.998 -29.336  1.00  0.00     0.180 C 
ATOM      2  C   UNL     1      -8.228 -35.721 -28.883  1.00  0.00     0.177 C 
ATOM      3  C   UNL     1      -9.324 -36.143 -29.998  1.00  0.00     0.180 C 
ATOM      4  C   UNL     1      -8.815 -35.590 -31.388  1.00  0.00     0.214 C 
ATOM      5  C   UNL     1      -7.437 -34.736 -31.341  1.00  0.00     0.339 C 
ATOM      6  O   UNL     1      -6.337 -35.265 -30.582  1.00  0.00    -0.332 OA
ENDROOT
BRANCH   1   7
ATOM      7  C   UNL     1      -5.902 -37.204 -28.751  1.00  0.00     0.198 C 
BRANCH   7   8
ATOM      8  O   UNL     1      -6.153 -38.244 -29.712  1.00  0.00    -0.347 OA
BRANCH   8   9
ATOM      9  C   UNL     1      -5.234 -38.302 -30.786  1.00  0.00     0.281 C 
ATOM     10  C   UNL     1      -4.945 -40.706 -33.682  1.00  0.00     0.041 C 
ATOM     11  C   UNL     1      -4.601 -39.485 -32.737  1.00  0.00     0.150 C 
ATOM     12  C   UNL     1      -3.043 -39.337 -32.503  1.00  0.00     0.174 C 
ATOM     13  O   UNL     1      -5.393 -39.527 -31.520  1.00  0.00    -0.344 OA
ATOM     14  C   UNL     1      -2.662 -38.926 -31.061  1.00  0.00     0.179 C 
ATOM     15  C   UNL     1      -3.740 -37.791 -30.538  1.00  0.00     0.202 C 
BRANCH  12  16
ATOM     16  O   UNL     1      -2.464 -38.445 -33.483  1.00  0.00    -0.388 OA
ATOM     17  H   UNL     1      -2.124 -37.615 -33.113  1.00  0.00     0.211 HD
ENDBRANCH  12  16
BRANCH  14  18
ATOM     18  O   UNL     1      -1.281 -38.500 -30.965  1.00  0.00    -0.387 OA
ATOM     19  H   UNL     1      -1.023 -38.150 -31.860  1.00  0.00     0.211 HD
ENDBRANCH  14  18
BRANCH  15  20
ATOM     20  O   UNL     1      -3.646 -36.530 -31.226  1.00  0.00    -0.385 OA
ATOM     21  H   UNL     1      -3.577 -35.762 -30.633  1.00  0.00     0.211 HD
ENDBRANCH  15  20
ENDBRANCH   8   9
ENDBRANCH   7   8
ENDBRANCH   1   7
BRANCH   2  22
ATOM     22  O   UNL     1      -8.244 -34.311 -28.660  1.00  0.00    -0.387 OA
ATOM     23  H   UNL     1      -9.183 -34.105 -28.344  1.00  0.00     0.211 HD
ENDBRANCH   2  22
BRANCH   3  24
ATOM     24  O   UNL     1      -9.307 -37.622 -30.058  1.00  0.00    -0.387 OA
ATOM     25  H   UNL     1      -9.725 -37.895 -29.209  1.00  0.00     0.211 HD
ENDBRANCH   3  24
BRANCH   5  26
ATOM     26  O   UNL     1      -7.540 -33.256 -31.582  1.00  0.00    -0.462 OA
BRANCH  26  27
ATOM     27  C   UNL     1      -6.698 -32.284 -32.267  1.00  0.00     0.130 A 
ATOM     28  C   UNL     1      -5.986 -31.196 -31.589  1.00  0.00     0.093 A 
ATOM     29  C   UNL     1      -6.206 -32.453 -33.551  1.00  0.00     0.094 A 
ATOM     30  C   UNL     1      -4.616 -31.642 -31.383  1.00  0.00     0.133 A 
ATOM     31  C   UNL     1      -4.806 -32.597 -33.527  1.00  0.00     0.138 A 
ATOM     32  C   UNL     1      -4.145 -32.674 -32.308  1.00  0.00     0.102 A 
ATOM     33  O   UNL     1      -3.986 -32.326 -34.679  1.00  0.00    -0.484 OA
ATOM     34  C   UNL     1      -2.764 -33.056 -32.531  1.00  0.00     0.174 C 
ATOM     35  C   UNL     1      -2.632 -31.792 -34.638  1.00  0.00     0.211 C 
ATOM     36  O   UNL     1      -2.473 -34.271 -32.709  1.00  0.00    -0.294 OA
ATOM     37  C   UNL     1      -1.925 -32.075 -33.251  1.00  0.00     0.131 C 
BRANCH  30  38
ATOM     38  O   UNL     1      -3.787 -30.920 -30.533  1.00  0.00    -0.507 OA
ATOM     39  H   UNL     1      -3.650 -31.249 -29.616  1.00  0.00     0.293 HD
ENDBRANCH  30  38
BRANCH  35  40
ATOM     40  C   UNL     1      -1.801 -32.268 -35.900  1.00  0.00    -0.003 A 
ATOM     41  C   UNL     1      -2.428 -32.438 -37.135  1.00  0.00     0.057 A 
ATOM     42  C   UNL     1      -0.454 -32.612 -35.781  1.00  0.00     0.011 A 
ATOM     43  C   UNL     1      -1.662 -32.599 -38.277  1.00  0.00     0.158 A 
ATOM     44  C   UNL     1       0.253 -33.129 -36.874  1.00  0.00     0.051 A 
ATOM     45  C   UNL     1      -0.401 -33.198 -38.138  1.00  0.00     0.160 A 
BRANCH  43  46
ATOM     46  O   UNL     1      -2.395 -32.679 -39.532  1.00  0.00    -0.504 OA
ATOM     47  H   UNL     1      -2.522 -31.876 -40.148  1.00  0.00     0.293 HD
ENDBRANCH  43  46
BRANCH  45  48
ATOM     48  O   UNL     1       0.178 -33.698 -39.252  1.00  0.00    -0.493 OA
ATOM     49  C   UNL     1       0.570 -35.106 -39.437  1.00  0.00     0.278 C 
ENDBRANCH  45  48
ENDBRANCH  35  40
ENDBRANCH  26  27
ENDBRANCH   5  26
BRANCH   4  50
ATOM     50  O   UNL     1      -9.762 -34.627 -31.890  1.00  0.00    -0.384 OA
ATOM     51  H   UNL     1     -10.755 -34.807 -31.582  1.00  0.00     0.211 HD
ENDBRANCH   4  50
TORSDOF 15
ENDMDL
MODEL 3
REMARK VINA RESULT:    -6.865      2.622      7.038
REMARK INTER + INTRA:         -12.633
REMARK INTER:                 -10.574
REMARK INTRA:                  -2.059
REMARK UNBOUND:                -1.353
REMARK SMILES COc1ccc([C@@H]2CC(=O)c3c(O)cc(O[C@H]4O[C@H](CO[C@@H]5O[C@H](C)[C@@H](O)[C@@H](O)[C@H]5O)[C@@H](O)[C@H](O)[C@H]4O)cc3O2)cc1O
REMARK SMILES IDX 19 1 32 2 34 3 36 4 17 5 18 6 20 7 21 8 22 9 25 10 24 11
REMARK SMILES IDX 26 12 23 13 28 14 30 15 27 16 29 18 31 20 33 22 35 24 16 26
REMARK SMILES IDX 15 27 14 28 38 29 12 30 39 31 11 32 40 33 9 34 7 35 10 36
REMARK SMILES IDX 8 37 13 38 6 40 41 41 5 42 42 43 4 44 3 45 43 46 2 48 1 49
REMARK SMILES IDX 37 50
REMARK H PARENT 27 17 29 19 31 21 33 23 35 25 13 39 43 47 37 51
REMARK Flexibility Score: inf
ROOT
ATOM      1  C   UNL     1      -6.691 -36.618 -31.172  1.00  0.00     0.180 C 
ATOM      2  C   UNL     1      -7.302 -36.384 -29.760  1.00  0.00     0.177 C 
ATOM      3  C   UNL     1      -8.917 -36.276 -29.782  1.00  0.00     0.180 C 
ATOM      4  C   UNL     1      -9.307 -35.316 -30.974  1.00  0.00     0.214 C 
ATOM      5  C   UNL     1      -8.063 -34.668 -31.788  1.00  0.00     0.339 C 
ATOM      6  O   UNL     1      -6.984 -35.533 -32.178  1.00  0.00    -0.332 OA
ENDROOT
BRANCH   1   7
ATOM      7  C   UNL     1      -6.105 -38.028 -31.628  1.00  0.00     0.198 C 
BRANCH   7   8
ATOM      8  O   UNL     1      -5.169 -38.317 -30.575  1.00  0.00    -0.347 OA
BRANCH   8   9
ATOM      9  C   UNL     1      -3.852 -38.601 -31.006  1.00  0.00     0.281 C 
ATOM     10  C   UNL     1      -0.668 -39.167 -29.059  1.00  0.00     0.041 C 
ATOM     11  C   UNL     1      -1.627 -39.015 -30.307  1.00  0.00     0.150 C 
ATOM     12  C   UNL     1      -0.948 -38.201 -31.482  1.00  0.00     0.174 C 
ATOM     13  O   UNL     1      -2.932 -38.517 -29.905  1.00  0.00    -0.344 OA
ATOM     14  C   UNL     1      -1.911 -37.244 -32.222  1.00  0.00     0.179 C 
ATOM     15  C   UNL     1      -3.364 -38.005 -32.407  1.00  0.00     0.202 C 
BRANCH  12  16
ATOM     16  O   UNL     1      -0.276 -39.096 -32.397  1.00  0.00    -0.388 OA
ATOM     17  H   UNL     1       0.213 -38.648 -33.106  1.00  0.00     0.211 HD
ENDBRANCH  12  16
BRANCH  14  18
ATOM     18  O   UNL     1      -1.349 -36.762 -33.466  1.00  0.00    -0.387 OA
ATOM     19  H   UNL     1      -1.208 -37.557 -34.048  1.00  0.00     0.211 HD
ENDBRANCH  14  18
BRANCH  15  20
ATOM     20  O   UNL     1      -3.330 -39.127 -33.310  1.00  0.00    -0.385 OA
ATOM     21  H   UNL     1      -3.996 -39.809 -33.117  1.00  0.00     0.211 HD
ENDBRANCH  15  20
ENDBRANCH   8   9
ENDBRANCH   7   8
ENDBRANCH   1   7
BRANCH   2  22
ATOM     22  O   UNL     1      -6.714 -35.150 -29.346  1.00  0.00    -0.387 OA
ATOM     23  H   UNL     1      -5.780 -35.393 -29.041  1.00  0.00     0.211 HD
ENDBRANCH   2  22
BRANCH   3  24
ATOM     24  O   UNL     1      -9.420 -37.631 -30.101  1.00  0.00    -0.387 OA
ATOM     25  H   UNL     1     -10.053 -37.824 -29.370  1.00  0.00     0.211 HD
ENDBRANCH   3  24
BRANCH   5  26
ATOM     26  O   UNL     1      -7.818 -33.196 -31.606  1.00  0.00    -0.462 OA
BRANCH  26  27
ATOM     27  C   UNL     1      -6.963 -32.225 -32.277  1.00  0.00     0.130 A 
ATOM     28  C   UNL     1      -6.257 -31.141 -31.587  1.00  0.00     0.093 A 
ATOM     29  C   UNL     1      -6.455 -32.391 -33.555  1.00  0.00     0.094 A 
ATOM     30  C   UNL     1      -4.892 -31.592 -31.364  1.00  0.00     0.133 A 
ATOM     31  C   UNL     1      -5.057 -32.541 -33.513  1.00  0.00     0.138 A 
ATOM     32  C   UNL     1      -4.412 -32.623 -32.286  1.00  0.00     0.102 A 
ATOM     33  O   UNL     1      -4.221 -32.269 -34.654  1.00  0.00    -0.484 OA
ATOM     34  C   UNL     1      -3.029 -33.009 -32.492  1.00  0.00     0.174 C 
ATOM     35  C   UNL     1      -2.865 -31.740 -34.593  1.00  0.00     0.211 C 
ATOM     36  O   UNL     1      -2.740 -34.225 -32.669  1.00  0.00    -0.294 OA
ATOM     37  C   UNL     1      -2.178 -32.029 -33.198  1.00  0.00     0.131 C 
BRANCH  30  38
ATOM     38  O   UNL     1      -4.071 -30.875 -30.502  1.00  0.00    -0.507 OA
ATOM     39  H   UNL     1      -3.864 -29.937 -30.718  1.00  0.00     0.293 HD
ENDBRANCH  30  38
BRANCH  35  40
ATOM     40  C   UNL     1      -2.020 -32.215 -35.846  1.00  0.00    -0.003 A 
ATOM     41  C   UNL     1      -2.596 -32.249 -37.116  1.00  0.00     0.057 A 
ATOM     42  C   UNL     1      -0.718 -32.693 -35.690  1.00  0.00     0.011 A 
ATOM     43  C   UNL     1      -1.793 -32.412 -38.231  1.00  0.00     0.158 A 
ATOM     44  C   UNL     1      -0.008 -33.207 -36.782  1.00  0.00     0.051 A 
ATOM     45  C   UNL     1      -0.601 -33.136 -38.075  1.00  0.00     0.160 A 
BRANCH  43  46
ATOM     46  O   UNL     1      -2.465 -32.345 -39.519  1.00  0.00    -0.504 OA
ATOM     47  H   UNL     1      -1.974 -32.473 -40.404  1.00  0.00     0.293 HD
ENDBRANCH  43  46
BRANCH  45  48
ATOM     48  O   UNL     1      -0.015 -33.620 -39.193  1.00  0.00    -0.493 OA
ATOM     49  C   UNL     1       0.556 -34.972 -39.326  1.00  0.00     0.278 C 
ENDBRANCH  45  48
ENDBRANCH  35  40
ENDBRANCH  26  27
ENDBRANCH   5  26
BRANCH   4  50
ATOM     50  O   UNL     1      -9.974 -34.152 -30.446  1.00  0.00    -0.384 OA
ATOM     51  H   UNL     1     -10.887 -33.931 -30.927  1.00  0.00     0.211 HD
ENDBRANCH   4  50
TORSDOF 15
ENDMDL
MODEL 4
REMARK VINA RESULT:    -6.545      2.616      6.312
REMARK INTER + INTRA:         -12.106
REMARK INTER:                  -9.695
REMARK INTRA:                  -2.411
REMARK UNBOUND:                -1.353
REMARK SMILES COc1ccc([C@@H]2CC(=O)c3c(O)cc(O[C@H]4O[C@H](CO[C@@H]5O[C@H](C)[C@@H](O)[C@@H](O)[C@H]5O)[C@@H](O)[C@H](O)[C@H]4O)cc3O2)cc1O
REMARK SMILES IDX 19 1 32 2 34 3 36 4 17 5 18 6 20 7 21 8 22 9 25 10 24 11
REMARK SMILES IDX 26 12 23 13 28 14 30 15 27 16 29 18 31 20 33 22 35 24 16 26
REMARK SMILES IDX 15 27 14 28 38 29 12 30 39 31 11 32 40 33 9 34 7 35 10 36
REMARK SMILES IDX 8 37 13 38 6 40 41 41 5 42 42 43 4 44 3 45 43 46 2 48 1 49
REMARK SMILES IDX 37 50
REMARK H PARENT 27 17 29 19 31 21 33 23 35 25 13 39 43 47 37 51
REMARK Flexibility Score: inf
ROOT
ATOM      1  C   UNL     1      -6.364 -36.269 -29.794  1.00  0.00     0.180 C 
ATOM      2  C   UNL     1      -7.890 -35.989 -29.663  1.00  0.00     0.177 C 
ATOM      3  C   UNL     1      -8.686 -36.167 -31.062  1.00  0.00     0.180 C 
ATOM      4  C   UNL     1      -7.846 -35.428 -32.176  1.00  0.00     0.214 C 
ATOM      5  C   UNL     1      -6.509 -34.668 -31.660  1.00  0.00     0.339 C 
ATOM      6  O   UNL     1      -5.635 -35.370 -30.760  1.00  0.00    -0.332 OA
ENDROOT
BRANCH   1   7
ATOM      7  C   UNL     1      -5.687 -37.597 -29.232  1.00  0.00     0.198 C 
BRANCH   7   8
ATOM      8  O   UNL     1      -5.580 -38.403 -30.418  1.00  0.00    -0.347 OA
BRANCH   8   9
ATOM      9  C   UNL     1      -4.258 -38.666 -30.847  1.00  0.00     0.281 C 
ATOM     10  C   UNL     1      -1.024 -38.929 -28.917  1.00  0.00     0.041 C 
ATOM     11  C   UNL     1      -2.007 -38.924 -30.156  1.00  0.00     0.150 C 
ATOM     12  C   UNL     1      -1.381 -38.185 -31.407  1.00  0.00     0.174 C 
ATOM     13  O   UNL     1      -3.327 -38.450 -29.774  1.00  0.00    -0.344 OA
ATOM     14  C   UNL     1      -2.397 -37.336 -32.208  1.00  0.00     0.179 C 
ATOM     15  C   UNL     1      -3.818 -38.172 -32.302  1.00  0.00     0.202 C 
BRANCH  12  16
ATOM     16  O   UNL     1      -0.685 -39.125 -32.256  1.00  0.00    -0.388 OA
ATOM     17  H   UNL     1      -0.718 -38.908 -33.202  1.00  0.00     0.211 HD
ENDBRANCH  12  16
BRANCH  14  18
ATOM     18  O   UNL     1      -1.875 -36.937 -33.498  1.00  0.00    -0.387 OA
ATOM     19  H   UNL     1      -0.883 -36.987 -33.436  1.00  0.00     0.211 HD
ENDBRANCH  14  18
BRANCH  15  20
ATOM     20  O   UNL     1      -3.747 -39.363 -33.107  1.00  0.00    -0.385 OA
ATOM     21  H   UNL     1      -3.358 -39.222 -33.987  1.00  0.00     0.211 HD
ENDBRANCH  15  20
ENDBRANCH   8   9
ENDBRANCH   7   8
ENDBRANCH   1   7
BRANCH   2  22
ATOM     22  O   UNL     1      -7.940 -34.634 -29.217  1.00  0.00    -0.387 OA
ATOM     23  H   UNL     1      -7.098 -34.506 -28.670  1.00  0.00     0.211 HD
ENDBRANCH   2  22
BRANCH   3  24
ATOM     24  O   UNL     1      -8.675 -37.617 -31.364  1.00  0.00    -0.387 OA
ATOM     25  H   UNL     1      -7.988 -37.977 -30.756  1.00  0.00     0.211 HD
ENDBRANCH   3  24
BRANCH   5  26
ATOM     26  O   UNL     1      -6.531 -33.166 -31.666  1.00  0.00    -0.462 OA
BRANCH  26  27
ATOM     27  C   UNL     1      -5.783 -32.149 -32.396  1.00  0.00     0.130 A 
ATOM     28  C   UNL     1      -4.986 -31.100 -31.753  1.00  0.00     0.093 A 
ATOM     29  C   UNL     1      -5.465 -32.237 -33.741  1.00  0.00     0.094 A 
ATOM     30  C   UNL     1      -3.602 -31.549 -31.757  1.00  0.00     0.133 A 
ATOM     31  C   UNL     1      -4.075 -32.375 -33.910  1.00  0.00     0.138 A 
ATOM     32  C   UNL     1      -3.259 -32.521 -32.796  1.00  0.00     0.102 A 
ATOM     33  O   UNL     1      -3.413 -32.029 -35.142  1.00  0.00    -0.484 OA
ATOM     34  C   UNL     1      -1.920 -32.881 -33.221  1.00  0.00     0.174 C 
ATOM     35  C   UNL     1      -2.064 -31.492 -35.247  1.00  0.00     0.211 C 
ATOM     36  O   UNL     1      -1.658 -34.082 -33.509  1.00  0.00    -0.294 OA
ATOM     37  C   UNL     1      -1.181 -31.854 -33.985  1.00  0.00     0.131 C 
BRANCH  30  38
ATOM     38  O   UNL     1      -2.667 -30.875 -30.981  1.00  0.00    -0.507 OA
ATOM     39  H   UNL     1      -2.913 -30.003 -30.597  1.00  0.00     0.293 HD
ENDBRANCH  30  38
BRANCH  35  40
ATOM     40  C   UNL     1      -1.408 -31.886 -36.634  1.00  0.00    -0.003 A 
ATOM     41  C   UNL     1      -1.940 -32.924 -37.399  1.00  0.00     0.057 A 
ATOM     42  C   UNL     1      -0.237 -31.266 -37.072  1.00  0.00     0.011 A 
ATOM     43  C   UNL     1      -1.531 -33.091 -38.710  1.00  0.00     0.158 A 
ATOM     44  C   UNL     1       0.399 -31.684 -38.248  1.00  0.00     0.051 A 
ATOM     45  C   UNL     1      -0.231 -32.684 -39.044  1.00  0.00     0.160 A 
BRANCH  43  46
ATOM     46  O   UNL     1      -2.203 -34.141 -39.461  1.00  0.00    -0.504 OA
ATOM     47  H   UNL     1      -2.158 -35.124 -39.193  1.00  0.00     0.293 HD
ENDBRANCH  43  46
BRANCH  45  48
ATOM     48  O   UNL     1       0.304 -33.176 -40.184  1.00  0.00    -0.493 OA
ATOM     49  C   UNL     1       1.193 -34.347 -40.260  1.00  0.00     0.278 C 
ENDBRANCH  45  48
ENDBRANCH  35  40
ENDBRANCH  26  27
ENDBRANCH   5  26
BRANCH   4  50
ATOM     50  O   UNL     1      -8.629 -34.347 -32.721  1.00  0.00    -0.384 OA
ATOM     51  H   UNL     1      -9.266 -34.639 -33.509  1.00  0.00     0.211 HD
ENDBRANCH   4  50
TORSDOF 15
ENDMDL
MODEL 5
REMARK VINA RESULT:    -6.453      5.407      9.533
REMARK INTER + INTRA:         -11.955
REMARK INTER:                  -8.648
REMARK INTRA:                  -3.307
REMARK UNBOUND:                -1.353
REMARK SMILES COc1ccc([C@@H]2CC(=O)c3c(O)cc(O[C@H]4O[C@H](CO[C@@H]5O[C@H](C)[C@@H](O)[C@@H](O)[C@H]5O)[C@@H](O)[C@H](O)[C@H]4O)cc3O2)cc1O
REMARK SMILES IDX 19 1 32 2 34 3 36 4 17 5 18 6 20 7 21 8 22 9 25 10 24 11
REMARK SMILES IDX 26 12 23 13 28 14 30 15 27 16 29 18 31 20 33 22 35 24 16 26
REMARK SMILES IDX 15 27 14 28 38 29 12 30 39 31 11 32 40 33 9 34 7 35 10 36
REMARK SMILES IDX 8 37 13 38 6 40 41 41 5 42 42 43 4 44 3 45 43 46 2 48 1 49
REMARK SMILES IDX 37 50
REMARK H PARENT 27 17 29 19 31 21 33 23 35 25 13 39 43 47 37 51
REMARK Flexibility Score: inf
ROOT
ATOM      1  C   UNL     1      -6.159 -34.599 -30.824  1.00  0.00     0.180 C 
ATOM      2  C   UNL     1      -6.535 -35.549 -31.998  1.00  0.00     0.177 C 
ATOM      3  C   UNL     1      -8.134 -35.712 -32.191  1.00  0.00     0.180 C 
ATOM      4  C   UNL     1      -8.758 -35.950 -30.759  1.00  0.00     0.214 C 
ATOM      5  C   UNL     1      -7.696 -36.031 -29.536  1.00  0.00     0.339 C 
ATOM      6  O   UNL     1      -6.661 -35.035 -29.470  1.00  0.00    -0.332 OA
ENDROOT
BRANCH   1   7
ATOM      7  C   UNL     1      -5.599 -33.126 -31.060  1.00  0.00     0.198 C 
BRANCH   7   8
ATOM      8  O   UNL     1      -4.571 -33.351 -32.040  1.00  0.00    -0.347 OA
BRANCH   8   9
ATOM      9  C   UNL     1      -3.330 -33.785 -31.517  1.00  0.00     0.281 C 
ATOM     10  C   UNL     1      -0.343 -31.844 -30.267  1.00  0.00     0.041 C 
ATOM     11  C   UNL     1      -1.239 -33.091 -30.649  1.00  0.00     0.150 C 
ATOM     12  C   UNL     1      -0.399 -34.232 -31.353  1.00  0.00     0.174 C 
ATOM     13  O   UNL     1      -2.425 -32.678 -31.380  1.00  0.00    -0.344 OA
ATOM     14  C   UNL     1      -1.147 -34.942 -32.505  1.00  0.00     0.179 C 
ATOM     15  C   UNL     1      -2.719 -35.162 -32.052  1.00  0.00     0.202 C 
BRANCH  12  16
ATOM     16  O   UNL     1       0.094 -35.176 -30.374  1.00  0.00    -0.388 OA
ATOM     17  H   UNL     1      -0.540 -35.387 -29.670  1.00  0.00     0.211 HD
ENDBRANCH  12  16
BRANCH  14  18
ATOM     18  O   UNL     1      -0.485 -36.165 -32.910  1.00  0.00    -0.387 OA
ATOM     19  H   UNL     1       0.491 -35.973 -32.931  1.00  0.00     0.211 HD
ENDBRANCH  14  18
BRANCH  15  20
ATOM     20  O   UNL     1      -2.895 -36.104 -30.978  1.00  0.00    -0.385 OA
ATOM     21  H   UNL     1      -3.790 -36.106 -30.598  1.00  0.00     0.211 HD
ENDBRANCH  15  20
ENDBRANCH   8   9
ENDBRANCH   7   8
ENDBRANCH   1   7
BRANCH   2  22
ATOM     22  O   UNL     1      -5.939 -36.791 -31.622  1.00  0.00    -0.387 OA
ATOM     23  H   UNL     1      -6.011 -36.823 -30.613  1.00  0.00     0.211 HD
ENDBRANCH   2  22
BRANCH   3  24
ATOM     24  O   UNL     1      -8.626 -34.409 -32.695  1.00  0.00    -0.387 OA
ATOM     25  H   UNL     1      -8.149 -33.749 -32.140  1.00  0.00     0.211 HD
ENDBRANCH   3  24
BRANCH   5  26
ATOM     26  O   UNL     1      -7.485 -37.376 -28.900  1.00  0.00    -0.462 OA
BRANCH  26  27
ATOM     27  C   UNL     1      -6.358 -38.009 -28.227  1.00  0.00     0.130 A 
ATOM     28  C   UNL     1      -6.308 -39.431 -27.876  1.00  0.00     0.093 A 
ATOM     29  C   UNL     1      -5.095 -37.447 -28.134  1.00  0.00     0.094 A 
ATOM     30  C   UNL     1      -5.548 -40.104 -28.919  1.00  0.00     0.133 A 
ATOM     31  C   UNL     1      -4.167 -38.198 -28.878  1.00  0.00     0.138 A 
ATOM     32  C   UNL     1      -4.609 -39.258 -29.657  1.00  0.00     0.102 A 
ATOM     33  O   UNL     1      -2.752 -38.151 -28.611  1.00  0.00    -0.484 OA
ATOM     34  C   UNL     1      -3.525 -39.721 -30.503  1.00  0.00     0.174 C 
ATOM     35  C   UNL     1      -1.829 -39.265 -28.780  1.00  0.00     0.211 C 
ATOM     36  O   UNL     1      -3.264 -39.108 -31.574  1.00  0.00    -0.294 OA
ATOM     37  C   UNL     1      -2.374 -40.336 -29.809  1.00  0.00     0.131 C 
BRANCH  30  38
ATOM     38  O   UNL     1      -5.563 -41.492 -28.982  1.00  0.00    -0.507 OA
ATOM     39  H   UNL     1      -4.802 -41.990 -28.605  1.00  0.00     0.293 HD
ENDBRANCH  30  38
BRANCH  35  40
ATOM     40  C   UNL     1      -0.368 -38.742 -29.098  1.00  0.00    -0.003 A 
ATOM     41  C   UNL     1       0.152 -38.836 -30.389  1.00  0.00     0.057 A 
ATOM     42  C   UNL     1       0.457 -38.264 -28.079  1.00  0.00     0.011 A 
ATOM     43  C   UNL     1       1.310 -38.152 -30.715  1.00  0.00     0.158 A 
ATOM     44  C   UNL     1       1.782 -37.898 -28.342  1.00  0.00     0.051 A 
ATOM     45  C   UNL     1       2.241 -37.922 -29.691  1.00  0.00     0.160 A 
BRANCH  43  46
ATOM     46  O   UNL     1       1.731 -38.234 -32.105  1.00  0.00    -0.504 OA
ATOM     47  H   UNL     1       2.690 -38.450 -32.378  1.00  0.00     0.293 HD
ENDBRANCH  43  46
BRANCH  45  48
ATOM     48  O   UNL     1       3.505 -37.610 -30.055  1.00  0.00    -0.493 OA
ATOM     49  C   UNL     1       3.988 -36.246 -30.332  1.00  0.00     0.278 C 
ENDBRANCH  45  48
ENDBRANCH  35  40
ENDBRANCH  26  27
ENDBRANCH   5  26
BRANCH   4  50
ATOM     50  O   UNL     1      -9.375 -37.252 -30.722  1.00  0.00    -0.384 OA
ATOM     51  H   UNL     1     -10.424 -37.221 -30.613  1.00  0.00     0.211 HD
ENDBRANCH   4  50
TORSDOF 15
ENDMDL
MODEL 6
REMARK VINA RESULT:    -6.388      3.866      7.822
REMARK INTER + INTRA:         -11.848
REMARK INTER:                  -9.821
REMARK INTRA:                  -2.027
REMARK UNBOUND:                -1.353
REMARK SMILES COc1ccc([C@@H]2CC(=O)c3c(O)cc(O[C@H]4O[C@H](CO[C@@H]5O[C@H](C)[C@@H](O)[C@@H](O)[C@H]5O)[C@@H](O)[C@H](O)[C@H]4O)cc3O2)cc1O
REMARK SMILES IDX 19 1 32 2 34 3 36 4 17 5 18 6 20 7 21 8 22 9 25 10 24 11
REMARK SMILES IDX 26 12 23 13 28 14 30 15 27 16 29 18 31 20 33 22 35 24 16 26
REMARK SMILES IDX 15 27 14 28 38 29 12 30 39 31 11 32 40 33 9 34 7 35 10 36
REMARK SMILES IDX 8 37 13 38 6 40 41 41 5 42 42 43 4 44 3 45 43 46 2 48 1 49
REMARK SMILES IDX 37 50
REMARK H PARENT 27 17 29 19 31 21 33 23 35 25 13 39 43 47 37 51
REMARK Flexibility Score: inf
ROOT
ATOM      1  C   UNL     1      -5.816 -38.014 -31.063  1.00  0.00     0.180 C 
ATOM      2  C   UNL     1      -5.322 -37.829 -29.599  1.00  0.00     0.177 C 
ATOM      3  C   UNL     1      -6.370 -38.394 -28.502  1.00  0.00     0.180 C 
ATOM      4  C   UNL     1      -7.805 -37.879 -28.917  1.00  0.00     0.214 C 
ATOM      5  C   UNL     1      -7.855 -36.918 -30.222  1.00  0.00     0.339 C 
ATOM      6  O   UNL     1      -7.114 -37.317 -31.387  1.00  0.00    -0.332 OA
ENDROOT
BRANCH   1   7
ATOM      7  C   UNL     1      -5.206 -39.115 -32.040  1.00  0.00     0.198 C 
BRANCH   7   8
ATOM      8  O   UNL     1      -4.077 -39.590 -31.287  1.00  0.00    -0.347 OA
BRANCH   8   9
ATOM      9  C   UNL     1      -2.850 -38.948 -31.577  1.00  0.00     0.281 C 
ATOM     10  C   UNL     1       0.242 -38.427 -29.474  1.00  0.00     0.041 C 
ATOM     11  C   UNL     1      -0.723 -38.349 -30.726  1.00  0.00     0.150 C 
ATOM     12  C   UNL     1      -0.677 -36.929 -31.422  1.00  0.00     0.174 C 
ATOM     13  O   UNL     1      -2.058 -38.811 -30.386  1.00  0.00    -0.344 OA
ATOM     14  C   UNL     1      -2.052 -36.433 -31.926  1.00  0.00     0.179 C 
ATOM     15  C   UNL     1      -2.859 -37.711 -32.589  1.00  0.00     0.202 C 
BRANCH  12  16
ATOM     16  O   UNL     1       0.315 -36.912 -32.475  1.00  0.00    -0.388 OA
ATOM     17  H   UNL     1       1.199 -37.199 -32.194  1.00  0.00     0.211 HD
ENDBRANCH  12  16
BRANCH  14  18
ATOM     18  O   UNL     1      -1.928 -35.300 -32.820  1.00  0.00    -0.387 OA
ATOM     19  H   UNL     1      -1.734 -34.505 -32.255  1.00  0.00     0.211 HD
ENDBRANCH  14  18
BRANCH  15  20
ATOM     20  O   UNL     1      -2.275 -38.207 -33.808  1.00  0.00    -0.385 OA
ATOM     21  H   UNL     1      -2.662 -39.043 -34.118  1.00  0.00     0.211 HD
ENDBRANCH  15  20
ENDBRANCH   8   9
ENDBRANCH   7   8
ENDBRANCH   1   7
BRANCH   2  22
ATOM     22  O   UNL     1      -5.170 -36.414 -29.477  1.00  0.00    -0.387 OA
ATOM     23  H   UNL     1      -4.383 -36.182 -30.070  1.00  0.00     0.211 HD
ENDBRANCH   2  22
BRANCH   3  24
ATOM     24  O   UNL     1      -6.356 -39.869 -28.636  1.00  0.00    -0.387 OA
ATOM     25  H   UNL     1      -5.955 -40.176 -27.789  1.00  0.00     0.211 HD
ENDBRANCH   3  24
BRANCH   5  26
ATOM     26  O   UNL     1      -8.167 -35.466 -29.992  1.00  0.00    -0.462 OA
BRANCH  26  27
ATOM     27  C   UNL     1      -8.184 -34.288 -30.850  1.00  0.00     0.130 A 
ATOM     28  C   UNL     1      -8.300 -32.914 -30.353  1.00  0.00     0.093 A 
ATOM     29  C   UNL     1      -7.769 -34.287 -32.172  1.00  0.00     0.094 A 
ATOM     30  C   UNL     1      -6.955 -32.362 -30.298  1.00  0.00     0.133 A 
ATOM     31  C   UNL     1      -6.605 -33.512 -32.322  1.00  0.00     0.138 A 
ATOM     32  C   UNL     1      -5.983 -32.983 -31.199  1.00  0.00     0.102 A 
ATOM     33  O   UNL     1      -6.214 -32.950 -33.590  1.00  0.00    -0.484 OA
ATOM     34  C   UNL     1      -4.693 -32.436 -31.573  1.00  0.00     0.174 C 
ATOM     35  C   UNL     1      -5.518 -31.683 -33.766  1.00  0.00     0.211 C 
ATOM     36  O   UNL     1      -3.701 -33.205 -31.699  1.00  0.00    -0.294 OA
ATOM     37  C   UNL     1      -4.720 -31.259 -32.467  1.00  0.00     0.131 C 
BRANCH  30  38
ATOM     38  O   UNL     1      -6.738 -31.169 -29.620  1.00  0.00    -0.507 OA
ATOM     39  H   UNL     1      -6.516 -31.204 -28.661  1.00  0.00     0.293 HD
ENDBRANCH  30  38
BRANCH  35  40
ATOM     40  C   UNL     1      -4.647 -31.700 -35.089  1.00  0.00    -0.003 A 
ATOM     41  C   UNL     1      -3.294 -32.036 -35.041  1.00  0.00     0.057 A 
ATOM     42  C   UNL     1      -5.191 -31.291 -36.307  1.00  0.00     0.011 A 
ATOM     43  C   UNL     1      -2.609 -32.299 -36.214  1.00  0.00     0.158 A 
ATOM     44  C   UNL     1      -4.394 -31.209 -37.456  1.00  0.00     0.051 A 
ATOM     45  C   UNL     1      -3.041 -31.651 -37.381  1.00  0.00     0.160 A 
BRANCH  43  46
ATOM     46  O   UNL     1      -1.227 -32.730 -36.066  1.00  0.00    -0.504 OA
ATOM     47  H   UNL     1      -0.957 -33.522 -35.482  1.00  0.00     0.293 HD
ENDBRANCH  43  46
BRANCH  45  48
ATOM     48  O   UNL     1      -2.179 -31.596 -38.420  1.00  0.00    -0.493 OA
ATOM     49  C   UNL     1      -2.188 -32.515 -39.571  1.00  0.00     0.278 C 
ENDBRANCH  45  48
ENDBRANCH  35  40
ENDBRANCH  26  27
ENDBRANCH   5  26
BRANCH   4  50
ATOM     50  O   UNL     1      -8.318 -37.021 -27.878  1.00  0.00    -0.384 OA
ATOM     51  H   UNL     1      -7.911 -37.218 -26.925  1.00  0.00     0.211 HD
ENDBRANCH   4  50
TORSDOF 15
ENDMDL
MODEL 7
REMARK VINA RESULT:    -6.275      4.974      8.318
REMARK INTER + INTRA:         -11.664
REMARK INTER:                  -8.913
REMARK INTRA:                  -2.751
REMARK UNBOUND:                -1.353
REMARK SMILES COc1ccc([C@@H]2CC(=O)c3c(O)cc(O[C@H]4O[C@H](CO[C@@H]5O[C@H](C)[C@@H](O)[C@@H](O)[C@H]5O)[C@@H](O)[C@H](O)[C@H]4O)cc3O2)cc1O
REMARK SMILES IDX 19 1 32 2 34 3 36 4 17 5 18 6 20 7 21 8 22 9 25 10 24 11
REMARK SMILES IDX 26 12 23 13 28 14 30 15 27 16 29 18 31 20 33 22 35 24 16 26
REMARK SMILES IDX 15 27 14 28 38 29 12 30 39 31 11 32 40 33 9 34 7 35 10 36
REMARK SMILES IDX 8 37 13 38 6 40 41 41 5 42 42 43 4 44 3 45 43 46 2 48 1 49
REMARK SMILES IDX 37 50
REMARK H PARENT 27 17 29 19 31 21 33 23 35 25 13 39 43 47 37 51
REMARK Flexibility Score: inf
ROOT
ATOM      1  C   UNL     1      -7.009 -35.658 -30.458  1.00  0.00     0.180 C 
ATOM      2  C   UNL     1      -8.235 -36.427 -31.029  1.00  0.00     0.177 C 
ATOM      3  C   UNL     1      -9.374 -36.715 -29.915  1.00  0.00     0.180 C 
ATOM      4  C   UNL     1      -8.640 -37.257 -28.625  1.00  0.00     0.214 C 
ATOM      5  C   UNL     1      -7.034 -37.437 -28.755  1.00  0.00     0.339 C 
ATOM      6  O   UNL     1      -6.277 -36.367 -29.346  1.00  0.00    -0.332 OA
ENDROOT
BRANCH   1   7
ATOM      7  C   UNL     1      -6.745 -34.117 -30.767  1.00  0.00     0.198 C 
BRANCH   7   8
ATOM      8  O   UNL     1      -5.937 -34.184 -31.954  1.00  0.00    -0.347 OA
BRANCH   8   9
ATOM      9  C   UNL     1      -4.881 -33.245 -32.014  1.00  0.00     0.281 C 
ATOM     10  C   UNL     1      -2.963 -31.844 -34.949  1.00  0.00     0.041 C 
ATOM     11  C   UNL     1      -3.396 -32.081 -33.446  1.00  0.00     0.150 C 
ATOM     12  C   UNL     1      -2.149 -32.177 -32.477  1.00  0.00     0.174 C 
ATOM     13  O   UNL     1      -4.328 -33.191 -33.340  1.00  0.00    -0.344 OA
ATOM     14  C   UNL     1      -2.301 -33.236 -31.360  1.00  0.00     0.179 C 
ATOM     15  C   UNL     1      -3.850 -33.180 -30.794  1.00  0.00     0.202 C 
BRANCH  12  16
ATOM     16  O   UNL     1      -1.824 -30.875 -31.938  1.00  0.00    -0.388 OA
ATOM     17  H   UNL     1      -2.008 -30.780 -30.989  1.00  0.00     0.211 HD
ENDBRANCH  12  16
BRANCH  14  18
ATOM     18  O   UNL     1      -1.301 -33.082 -30.325  1.00  0.00    -0.387 OA
ATOM     19  H   UNL     1      -1.573 -33.670 -29.570  1.00  0.00     0.211 HD
ENDBRANCH  14  18
BRANCH  15  20
ATOM     20  O   UNL     1      -4.173 -31.971 -30.083  1.00  0.00    -0.385 OA
ATOM     21  H   UNL     1      -3.873 -31.965 -29.158  1.00  0.00     0.211 HD
ENDBRANCH  15  20
ENDBRANCH   8   9
ENDBRANCH   7   8
ENDBRANCH   1   7
BRANCH   2  22
ATOM     22  O   UNL     1      -7.668 -37.647 -31.506  1.00  0.00    -0.387 OA
ATOM     23  H   UNL     1      -8.311 -38.370 -31.209  1.00  0.00     0.211 HD
ENDBRANCH   2  22
BRANCH   3  24
ATOM     24  O   UNL     1      -9.974 -35.403 -29.585  1.00  0.00    -0.387 OA
ATOM     25  H   UNL     1      -9.898 -35.352 -28.604  1.00  0.00     0.211 HD
ENDBRANCH   3  24
BRANCH   5  26
ATOM     26  O   UNL     1      -6.503 -38.842 -28.793  1.00  0.00    -0.462 OA
BRANCH  26  27
ATOM     27  C   UNL     1      -5.281 -39.446 -29.309  1.00  0.00     0.130 A 
ATOM     28  C   UNL     1      -5.244 -40.388 -30.432  1.00  0.00     0.093 A 
ATOM     29  C   UNL     1      -4.008 -38.972 -29.038  1.00  0.00     0.094 A 
ATOM     30  C   UNL     1      -4.894 -39.625 -31.621  1.00  0.00     0.133 A 
ATOM     31  C   UNL     1      -3.413 -38.462 -30.207  1.00  0.00     0.138 A 
ATOM     32  C   UNL     1      -4.157 -38.384 -31.377  1.00  0.00     0.102 A 
ATOM     33  O   UNL     1      -1.985 -38.338 -30.351  1.00  0.00    -0.484 OA
ATOM     34  C   UNL     1      -3.423 -37.618 -32.366  1.00  0.00     0.174 C 
ATOM     35  C   UNL     1      -1.253 -38.489 -31.601  1.00  0.00     0.211 C 
ATOM     36  O   UNL     1      -3.449 -36.357 -32.324  1.00  0.00    -0.294 OA
ATOM     37  C   UNL     1      -2.170 -38.226 -32.862  1.00  0.00     0.131 C 
BRANCH  30  38
ATOM     38  O   UNL     1      -5.042 -40.211 -32.872  1.00  0.00    -0.507 OA
ATOM     39  H   UNL     1      -5.554 -41.049 -32.944  1.00  0.00     0.293 HD
ENDBRANCH  30  38
BRANCH  35  40
ATOM     40  C   UNL     1       0.081 -37.634 -31.576  1.00  0.00    -0.003 A 
ATOM     41  C   UNL     1       0.055 -36.273 -31.877  1.00  0.00     0.057 A 
ATOM     42  C   UNL     1       1.315 -38.244 -31.345  1.00  0.00     0.011 A 
ATOM     43  C   UNL     1       1.161 -35.487 -31.606  1.00  0.00     0.158 A 
ATOM     44  C   UNL     1       2.504 -37.507 -31.424  1.00  0.00     0.051 A 
ATOM     45  C   UNL     1       2.422 -36.102 -31.642  1.00  0.00     0.160 A 
BRANCH  43  46
ATOM     46  O   UNL     1       1.015 -34.063 -31.867  1.00  0.00    -0.504 OA
ATOM     47  H   UNL     1       0.926 -33.373 -31.121  1.00  0.00     0.293 HD
ENDBRANCH  43  46
BRANCH  45  48
ATOM     48  O   UNL     1       3.504 -35.300 -31.758  1.00  0.00    -0.493 OA
ATOM     49  C   UNL     1       4.018 -34.757 -33.027  1.00  0.00     0.278 C 
ENDBRANCH  45  48
ENDBRANCH  35  40
ENDBRANCH  26  27
ENDBRANCH   5  26
BRANCH   4  50
ATOM     50  O   UNL     1      -9.084 -38.602 -28.358  1.00  0.00    -0.384 OA
ATOM     51  H   UNL     1      -8.474 -39.345 -28.793  1.00  0.00     0.211 HD
ENDBRANCH   4  50
TORSDOF 15
ENDMDL
MODEL 8
REMARK VINA RESULT:    -6.268      2.166      4.138
REMARK INTER + INTRA:         -11.652
REMARK INTER:                  -9.918
REMARK INTRA:                  -1.734
REMARK UNBOUND:                -1.353
REMARK SMILES COc1ccc([C@@H]2CC(=O)c3c(O)cc(O[C@H]4O[C@H](CO[C@@H]5O[C@H](C)[C@@H](O)[C@@H](O)[C@H]5O)[C@@H](O)[C@H](O)[C@H]4O)cc3O2)cc1O
REMARK SMILES IDX 19 1 32 2 34 3 36 4 17 5 18 6 20 7 21 8 22 9 25 10 24 11
REMARK SMILES IDX 26 12 23 13 28 14 30 15 27 16 29 18 31 20 33 22 35 24 16 26
REMARK SMILES IDX 15 27 14 28 38 29 12 30 39 31 11 32 40 33 9 34 7 35 10 36
REMARK SMILES IDX 8 37 13 38 6 40 41 41 5 42 42 43 4 44 3 45 43 46 2 48 1 49
REMARK SMILES IDX 37 50
REMARK H PARENT 27 17 29 19 31 21 33 23 35 25 13 39 43 47 37 51
REMARK Flexibility Score: inf
ROOT
ATOM      1  C   UNL     1      -5.360 -38.679 -28.862  1.00  0.00     0.180 C 
ATOM      2  C   UNL     1      -5.212 -39.754 -29.978  1.00  0.00     0.177 C 
ATOM      3  C   UNL     1      -4.213 -40.959 -29.564  1.00  0.00     0.180 C 
ATOM      4  C   UNL     1      -2.922 -40.302 -28.934  1.00  0.00     0.214 C 
ATOM      5  C   UNL     1      -2.897 -38.681 -28.918  1.00  0.00     0.339 C 
ATOM      6  O   UNL     1      -4.076 -37.989 -28.474  1.00  0.00    -0.332 OA
ENDROOT
BRANCH   1   7
ATOM      7  C   UNL     1      -6.668 -38.553 -27.963  1.00  0.00     0.198 C 
BRANCH   7   8
ATOM      8  O   UNL     1      -7.002 -37.162 -28.114  1.00  0.00    -0.347 OA
BRANCH   8   9
ATOM      9  C   UNL     1      -7.323 -36.763 -29.432  1.00  0.00     0.281 C 
ATOM     10  C   UNL     1      -5.241 -35.088 -32.099  1.00  0.00     0.041 C 
ATOM     11  C   UNL     1      -6.503 -35.743 -31.406  1.00  0.00     0.150 C 
ATOM     12  C   UNL     1      -7.834 -34.952 -31.730  1.00  0.00     0.174 C 
ATOM     13  O   UNL     1      -6.264 -35.967 -29.990  1.00  0.00    -0.344 OA
ATOM     14  C   UNL     1      -8.811 -34.852 -30.535  1.00  0.00     0.179 C 
ATOM     15  C   UNL     1      -8.821 -36.301 -29.744  1.00  0.00     0.202 C 
BRANCH  12  16
ATOM     16  O   UNL     1      -8.479 -35.502 -32.902  1.00  0.00    -0.388 OA
ATOM     17  H   UNL     1      -8.478 -36.472 -32.939  1.00  0.00     0.211 HD
ENDBRANCH  12  16
BRANCH  14  18
ATOM     18  O   UNL     1     -10.128 -34.408 -30.945  1.00  0.00    -0.387 OA
ATOM     19  H   UNL     1     -10.672 -35.226 -31.104  1.00  0.00     0.211 HD
ENDBRANCH  14  18
BRANCH  15  20
ATOM     20  O   UNL     1      -9.406 -37.379 -30.498  1.00  0.00    -0.385 OA
ATOM     21  H   UNL     1      -8.955 -37.562 -31.340  1.00  0.00     0.211 HD
ENDBRANCH  15  20
ENDBRANCH   8   9
ENDBRANCH   7   8
ENDBRANCH   1   7
BRANCH   2  22
ATOM     22  O   UNL     1      -4.691 -39.016 -31.082  1.00  0.00    -0.387 OA
ATOM     23  H   UNL     1      -3.729 -39.318 -31.171  1.00  0.00     0.211 HD
ENDBRANCH   2  22
BRANCH   3  24
ATOM     24  O   UNL     1      -4.903 -41.726 -28.503  1.00  0.00    -0.387 OA
ATOM     25  H   UNL     1      -4.622 -42.657 -28.666  1.00  0.00     0.211 HD
ENDBRANCH   3  24
BRANCH   5  26
ATOM     26  O   UNL     1      -1.934 -38.002 -29.851  1.00  0.00    -0.462 OA
BRANCH  26  27
ATOM     27  C   UNL     1      -2.017 -36.824 -30.705  1.00  0.00     0.130 A 
ATOM     28  C   UNL     1      -1.922 -35.446 -30.212  1.00  0.00     0.093 A 
ATOM     29  C   UNL     1      -1.865 -36.852 -32.082  1.00  0.00     0.094 A 
ATOM     30  C   UNL     1      -0.550 -35.009 -30.421  1.00  0.00     0.133 A 
ATOM     31  C   UNL     1      -0.690 -36.177 -32.461  1.00  0.00     0.138 A 
ATOM     32  C   UNL     1       0.177 -35.706 -31.484  1.00  0.00     0.102 A 
ATOM     33  O   UNL     1      -0.505 -35.644 -33.786  1.00  0.00    -0.484 OA
ATOM     34  C   UNL     1       1.412 -35.267 -32.105  1.00  0.00     0.174 C 
ATOM     35  C   UNL     1       0.248 -34.440 -34.108  1.00  0.00     0.211 C 
ATOM     36  O   UNL     1       2.294 -36.117 -32.408  1.00  0.00    -0.294 OA
ATOM     37  C   UNL     1       1.312 -34.089 -32.991  1.00  0.00     0.131 C 
BRANCH  30  38
ATOM     38  O   UNL     1      -0.108 -33.841 -29.812  1.00  0.00    -0.507 OA
ATOM     39  H   UNL     1       0.689 -33.882 -29.236  1.00  0.00     0.293 HD
ENDBRANCH  30  38
BRANCH  35  40
ATOM     40  C   UNL     1       0.845 -34.524 -35.573  1.00  0.00    -0.003 A 
ATOM     41  C   UNL     1       0.044 -34.929 -36.641  1.00  0.00     0.057 A 
ATOM     42  C   UNL     1       2.200 -34.286 -35.807  1.00  0.00     0.011 A 
ATOM     43  C   UNL     1       0.490 -34.755 -37.939  1.00  0.00     0.158 A 
ATOM     44  C   UNL     1       2.748 -34.460 -37.084  1.00  0.00     0.051 A 
ATOM     45  C   UNL     1       1.875 -34.784 -38.162  1.00  0.00     0.160 A 
BRANCH  43  46
ATOM     46  O   UNL     1      -0.445 -35.121 -38.992  1.00  0.00    -0.504 OA
ATOM     47  H   UNL     1      -0.235 -34.997 -39.983  1.00  0.00     0.293 HD
ENDBRANCH  43  46
BRANCH  45  48
ATOM     48  O   UNL     1       2.299 -34.995 -39.428  1.00  0.00    -0.493 OA
ATOM     49  C   UNL     1       2.668 -36.309 -39.984  1.00  0.00     0.278 C 
ENDBRANCH  45  48
ENDBRANCH  35  40
ENDBRANCH  26  27
ENDBRANCH   5  26
BRANCH   4  50
ATOM     50  O   UNL     1      -1.780 -40.624 -29.752  1.00  0.00    -0.384 OA
ATOM     51  H   UNL     1      -1.291 -41.514 -29.467  1.00  0.00     0.211 HD
ENDBRANCH   4  50
TORSDOF 15
ENDMDL
MODEL 9
REMARK VINA RESULT:    -6.212      4.690      9.042
REMARK INTER + INTRA:         -11.559
REMARK INTER:                  -9.199
REMARK INTRA:                  -2.360
REMARK UNBOUND:                -1.353
REMARK SMILES COc1ccc([C@@H]2CC(=O)c3c(O)cc(O[C@H]4O[C@H](CO[C@@H]5O[C@H](C)[C@@H](O)[C@@H](O)[C@H]5O)[C@@H](O)[C@H](O)[C@H]4O)cc3O2)cc1O
REMARK SMILES IDX 19 1 32 2 34 3 36 4 17 5 18 6 20 7 21 8 22 9 25 10 24 11
REMARK SMILES IDX 26 12 23 13 28 14 30 15 27 16 29 18 31 20 33 22 35 24 16 26
REMARK SMILES IDX 15 27 14 28 38 29 12 30 39 31 11 32 40 33 9 34 7 35 10 36
REMARK SMILES IDX 8 37 13 38 6 40 41 41 5 42 42 43 4 44 3 45 43 46 2 48 1 49
REMARK SMILES IDX 37 50
REMARK H PARENT 27 17 29 19 31 21 33 23 35 25 13 39 43 47 37 51
REMARK Flexibility Score: inf
ROOT
ATOM      1  C   UNL     1      -6.412 -34.253 -30.925  1.00  0.00     0.180 C 
ATOM      2  C   UNL     1      -6.642 -35.174 -32.158  1.00  0.00     0.177 C 
ATOM      3  C   UNL     1      -8.203 -35.530 -32.396  1.00  0.00     0.180 C 
ATOM      4  C   UNL     1      -8.812 -35.930 -30.995  1.00  0.00     0.214 C 
ATOM      5  C   UNL     1      -7.768 -35.943 -29.754  1.00  0.00     0.339 C 
ATOM      6  O   UNL     1      -6.873 -34.828 -29.609  1.00  0.00    -0.332 OA
ENDROOT
BRANCH   1   7
ATOM      7  C   UNL     1      -6.045 -32.708 -31.066  1.00  0.00     0.198 C 
BRANCH   7   8
ATOM      8  O   UNL     1      -5.754 -32.598 -32.469  1.00  0.00    -0.347 OA
BRANCH   8   9
ATOM      9  C   UNL     1      -4.404 -32.311 -32.780  1.00  0.00     0.281 C 
ATOM     10  C   UNL     1      -2.638 -31.954 -36.097  1.00  0.00     0.041 C 
ATOM     11  C   UNL     1      -2.838 -31.996 -34.529  1.00  0.00     0.150 C 
ATOM     12  C   UNL     1      -1.646 -32.736 -33.798  1.00  0.00     0.174 C 
ATOM     13  O   UNL     1      -4.159 -32.494 -34.184  1.00  0.00    -0.344 OA
ATOM     14  C   UNL     1      -2.091 -33.617 -32.606  1.00  0.00     0.179 C 
ATOM     15  C   UNL     1      -3.268 -32.814 -31.774  1.00  0.00     0.202 C 
BRANCH  12  16
ATOM     16  O   UNL     1      -0.623 -31.791 -33.411  1.00  0.00    -0.388 OA
ATOM     17  H   UNL     1      -0.962 -30.917 -33.160  1.00  0.00     0.211 HD
ENDBRANCH  12  16
BRANCH  14  18
ATOM     18  O   UNL     1      -0.971 -34.020 -31.781  1.00  0.00    -0.387 OA
ATOM     19  H   UNL     1      -0.344 -34.521 -32.369  1.00  0.00     0.211 HD
ENDBRANCH  14  18
BRANCH  15  20
ATOM     20  O   UNL     1      -2.806 -31.631 -31.095  1.00  0.00    -0.385 OA
ATOM     21  H   UNL     1      -3.335 -30.837 -31.282  1.00  0.00     0.211 HD
ENDBRANCH  15  20
ENDBRANCH   8   9
ENDBRANCH   7   8
ENDBRANCH   1   7
BRANCH   2  22
ATOM     22  O   UNL     1      -5.894 -36.347 -31.838  1.00  0.00    -0.387 OA
ATOM     23  H   UNL     1      -6.047 -36.495 -30.848  1.00  0.00     0.211 HD
ENDBRANCH   2  22
BRANCH   3  24
ATOM     24  O   UNL     1      -8.853 -34.275 -32.838  1.00  0.00    -0.387 OA
ATOM     25  H   UNL     1      -9.816 -34.481 -32.790  1.00  0.00     0.211 HD
ENDBRANCH   3  24
BRANCH   5  26
ATOM     26  O   UNL     1      -7.393 -37.284 -29.189  1.00  0.00    -0.462 OA
BRANCH  26  27
ATOM     27  C   UNL     1      -6.175 -37.829 -28.604  1.00  0.00     0.130 A 
ATOM     28  C   UNL     1      -6.025 -39.222 -28.173  1.00  0.00     0.093 A 
ATOM     29  C   UNL     1      -4.935 -37.215 -28.684  1.00  0.00     0.094 A 
ATOM     30  C   UNL     1      -5.350 -39.934 -29.248  1.00  0.00     0.133 A 
ATOM     31  C   UNL     1      -4.058 -37.979 -29.475  1.00  0.00     0.138 A 
ATOM     32  C   UNL     1      -4.533 -39.104 -30.135  1.00  0.00     0.102 A 
ATOM     33  O   UNL     1      -2.626 -37.861 -29.367  1.00  0.00    -0.484 OA
ATOM     34  C   UNL     1      -3.525 -39.582 -31.063  1.00  0.00     0.174 C 
ATOM     35  C   UNL     1      -1.679 -38.949 -29.566  1.00  0.00     0.211 C 
ATOM     36  O   UNL     1      -3.406 -39.031 -32.192  1.00  0.00    -0.294 OA
ATOM     37  C   UNL     1      -2.281 -40.105 -30.461  1.00  0.00     0.131 C 
BRANCH  30  38
ATOM     38  O   UNL     1      -5.311 -41.323 -29.224  1.00  0.00    -0.507 OA
ATOM     39  H   UNL     1      -5.225 -41.807 -30.076  1.00  0.00     0.293 HD
ENDBRANCH  30  38
BRANCH  35  40
ATOM     40  C   UNL     1      -0.284 -38.394 -30.072  1.00  0.00    -0.003 A 
ATOM     41  C   UNL     1      -0.201 -37.664 -31.257  1.00  0.00     0.057 A 
ATOM     42  C   UNL     1       0.896 -38.701 -29.392  1.00  0.00     0.011 A 
ATOM     43  C   UNL     1       0.958 -36.970 -31.557  1.00  0.00     0.158 A 
ATOM     44  C   UNL     1       2.139 -38.296 -29.895  1.00  0.00     0.051 A 
ATOM     45  C   UNL     1       2.168 -37.474 -31.059  1.00  0.00     0.160 A 
BRANCH  43  46
ATOM     46  O   UNL     1       0.925 -36.163 -32.768  1.00  0.00    -0.504 OA
ATOM     47  H   UNL     1       0.120 -36.144 -33.395  1.00  0.00     0.293 HD
ENDBRANCH  43  46
BRANCH  45  48
ATOM     48  O   UNL     1       3.310 -37.045 -31.641  1.00  0.00    -0.493 OA
ATOM     49  C   UNL     1       4.095 -35.880 -31.197  1.00  0.00     0.278 C 
ENDBRANCH  45  48
ENDBRANCH  35  40
ENDBRANCH  26  27
ENDBRANCH   5  26
BRANCH   4  50
ATOM     50  O   UNL     1      -9.255 -37.301 -31.045  1.00  0.00    -0.384 OA
ATOM     51  H   UNL     1      -8.889 -37.894 -30.253  1.00  0.00     0.211 HD
ENDBRANCH   4  50
TORSDOF 15
ENDMDL
