MODEL 1
REMARK VINA RESULT:    -2.897      0.000      0.000
REMARK INTER + INTRA:          -6.775
REMARK INTER:                  -5.438
REMARK INTRA:                  -1.337
REMARK UNBOUND:                -1.337
REMARK SMILES O=C([O-])CCCCCCCCCCCCCCC(=O)[O-]
REMARK SMILES IDX 10 1 9 2 8 3 7 4 6 5 5 6 4 7 2 8 1 9 3 10 11 11 12 12 13 13
REMARK SMILES IDX 14 14 15 15 16 16 17 17 18 18 19 19 20 20
REMARK H PARENT
REMARK Flexibility Score: inf
ROOT
ATOM      1  C   UNL     1     -20.359   0.000   6.803  1.00  0.00     0.000 C 
ENDROOT
BRANCH   1   2
ATOM      2  C   UNL     1     -20.445  -1.341   7.552  1.00  0.00     0.000 C 
BRANCH   2   3
ATOM      3  C   UNL     1     -20.058  -1.220   9.033  1.00  0.00     0.000 C 
BRANCH   3   4
ATOM      4  C   UNL     1     -19.729  -2.595   9.628  1.00  0.00     0.000 C 
BRANCH   4   5
ATOM      5  C   UNL     1     -19.223  -3.558   8.545  1.00  0.00     0.000 C 
BRANCH   5   6
ATOM      6  C   UNL     1     -19.286  -5.014   9.032  1.00  0.00     0.006 C 
BRANCH   6   7
ATOM      7  C   UNL     1     -20.337  -5.835   8.273  1.00  0.00     0.053 C 
BRANCH   7   8
ATOM      8  C   UNL     1     -21.456  -6.269   9.171  1.00  0.00     0.041 C 
ATOM      9  O   UNL     1     -21.549  -5.807  10.338  1.00  0.00    -0.550 OA
ATOM     10  O   UNL     1     -22.381  -7.204   8.724  1.00  0.00    -0.550 OA
ENDBRANCH   7   8
ENDBRANCH   6   7
ENDBRANCH   5   6
ENDBRANCH   4   5
ENDBRANCH   3   4
ENDBRANCH   2   3
ENDBRANCH   1   2
BRANCH   1  11
ATOM     11  C   UNL     1     -20.026   1.214   7.691  1.00  0.00     0.000 C 
BRANCH  11  12
ATOM     12  C   UNL     1     -21.049   2.366   7.628  1.00  0.00     0.000 C 
BRANCH  12  13
ATOM     13  C   UNL     1     -21.456   2.910   9.014  1.00  0.00     0.000 C 
BRANCH  13  14
ATOM     14  C   UNL     1     -21.919   1.795   9.965  1.00  0.00     0.000 C 
BRANCH  14  15
ATOM     15  C   UNL     1     -21.036   1.741  11.222  1.00  0.00     0.000 C 
BRANCH  15  16
ATOM     16  C   UNL     1     -21.790   1.205  12.449  1.00  0.00     0.006 C 
BRANCH  16  17
ATOM     17  C   UNL     1     -20.845   0.730  13.562  1.00  0.00     0.053 C 
BRANCH  17  18
ATOM     18  C   UNL     1     -21.173  -0.674  13.961  1.00  0.00     0.041 C 
ATOM     19  O   UNL     1     -21.801  -0.898  15.030  1.00  0.00    -0.550 OA
ATOM     20  O   UNL     1     -20.748  -1.739  13.176  1.00  0.00    -0.550 OA
ENDBRANCH  17  18
ENDBRANCH  16  17
ENDBRANCH  15  16
ENDBRANCH  14  15
ENDBRANCH  13  14
ENDBRANCH  12  13
ENDBRANCH  11  12
ENDBRANCH   1  11
TORSDOF 15
ENDMDL
MODEL 2
REMARK VINA RESULT:    -2.738      0.486      6.167
REMARK INTER + INTRA:          -6.477
REMARK INTER:                  -5.558
REMARK INTRA:                  -0.919
REMARK UNBOUND:                -1.337
REMARK SMILES O=C([O-])CCCCCCCCCCCCCCC(=O)[O-]
REMARK SMILES IDX 10 1 9 2 8 3 7 4 6 5 5 6 4 7 2 8 1 9 3 10 11 11 12 12 13 13
REMARK SMILES IDX 14 14 15 15 16 16 17 17 18 18 19 19 20 20
REMARK H PARENT
REMARK Flexibility Score: inf
ROOT
ATOM      1  C   UNL     1     -20.710   0.765   6.679  1.00  0.00     0.000 C 
ENDROOT
BRANCH   1   2
ATOM      2  C   UNL     1     -20.367   1.905   7.653  1.00  0.00     0.000 C 
BRANCH   2   3
ATOM      3  C   UNL     1     -21.427   2.091   8.747  1.00  0.00     0.000 C 
BRANCH   3   4
ATOM      4  C   UNL     1     -21.106   1.229   9.974  1.00  0.00     0.000 C 
BRANCH   4   5
ATOM      5  C   UNL     1     -21.221   2.045  11.269  1.00  0.00     0.000 C 
BRANCH   5   6
ATOM      6  C   UNL     1     -21.856   1.209  12.390  1.00  0.00     0.006 C 
BRANCH   6   7
ATOM      7  C   UNL     1     -20.818   0.708  13.402  1.00  0.00     0.053 C 
BRANCH   7   8
ATOM      8  C   UNL     1     -21.109  -0.692  13.849  1.00  0.00     0.041 C 
ATOM      9  O   UNL     1     -21.603  -0.906  14.987  1.00  0.00    -0.550 OA
ATOM     10  O   UNL     1     -20.809  -1.763  13.016  1.00  0.00    -0.550 OA
ENDBRANCH   7   8
ENDBRANCH   6   7
ENDBRANCH   5   6
ENDBRANCH   4   5
ENDBRANCH   3   4
ENDBRANCH   2   3
ENDBRANCH   1   2
BRANCH   1  11
ATOM     11  C   UNL     1     -19.823  -0.487   6.813  1.00  0.00     0.000 C 
BRANCH  11  12
ATOM     12  C   UNL     1     -20.427  -1.624   7.662  1.00  0.00     0.000 C 
BRANCH  12  13
ATOM     13  C   UNL     1     -20.005  -1.582   9.146  1.00  0.00     0.000 C 
BRANCH  13  14
ATOM     14  C   UNL     1     -19.271  -2.861   9.579  1.00  0.00     0.000 C 
BRANCH  14  15
ATOM     15  C   UNL     1     -19.176  -3.862   8.418  1.00  0.00     0.000 C 
BRANCH  15  16
ATOM     16  C   UNL     1     -19.266  -5.322   8.889  1.00  0.00     0.006 C 
BRANCH  16  17
ATOM     17  C   UNL     1     -20.416  -6.089   8.223  1.00  0.00     0.053 C 
BRANCH  17  18
ATOM     18  C   UNL     1     -21.539  -6.290   9.190  1.00  0.00     0.041 C 
ATOM     19  O   UNL     1     -21.513  -5.728  10.317  1.00  0.00    -0.550 OA
ATOM     20  O   UNL     1     -22.596  -7.132   8.865  1.00  0.00    -0.550 OA
ENDBRANCH  17  18
ENDBRANCH  16  17
ENDBRANCH  15  16
ENDBRANCH  14  15
ENDBRANCH  13  14
ENDBRANCH  12  13
ENDBRANCH  11  12
ENDBRANCH   1  11
TORSDOF 15
ENDMDL
MODEL 3
REMARK VINA RESULT:    -2.665      1.042      1.758
REMARK INTER + INTRA:          -6.338
REMARK INTER:                  -5.312
REMARK INTRA:                  -1.026
REMARK UNBOUND:                -1.337
REMARK SMILES O=C([O-])CCCCCCCCCCCCCCC(=O)[O-]
REMARK SMILES IDX 10 1 9 2 8 3 7 4 6 5 5 6 4 7 2 8 1 9 3 10 11 11 12 12 13 13
REMARK SMILES IDX 14 14 15 15 16 16 17 17 18 18 19 19 20 20
REMARK H PARENT
REMARK Flexibility Score: inf
ROOT
ATOM      1  C   UNL     1     -20.006   1.310   7.631  1.00  0.00     0.000 C 
ENDROOT
BRANCH   1   2
ATOM      2  C   UNL     1     -20.331   0.007   6.879  1.00  0.00     0.000 C 
BRANCH   2   3
ATOM      3  C   UNL     1     -20.386  -1.216   7.805  1.00  0.00     0.000 C 
BRANCH   3   4
ATOM      4  C   UNL     1     -20.201  -0.802   9.271  1.00  0.00     0.000 C 
BRANCH   4   5
ATOM      5  C   UNL     1     -19.646  -1.963  10.107  1.00  0.00     0.000 C 
BRANCH   5   6
ATOM      6  C   UNL     1     -20.165  -3.311   9.587  1.00  0.00     0.006 C 
BRANCH   6   7
ATOM      7  C   UNL     1     -19.090  -4.089   8.817  1.00  0.00     0.053 C 
BRANCH   7   8
ATOM      8  C   UNL     1     -19.477  -5.524   8.621  1.00  0.00     0.041 C 
ATOM      9  O   UNL     1     -18.753  -6.288   7.930  1.00  0.00    -0.550 OA
ATOM     10  O   UNL     1     -20.652  -6.009   9.182  1.00  0.00    -0.550 OA
ENDBRANCH   7   8
ENDBRANCH   6   7
ENDBRANCH   5   6
ENDBRANCH   4   5
ENDBRANCH   3   4
ENDBRANCH   2   3
ENDBRANCH   1   2
BRANCH   1  11
ATOM     11  C   UNL     1     -21.067   2.417   7.490  1.00  0.00     0.000 C 
BRANCH  11  12
ATOM     12  C   UNL     1     -21.500   3.074   8.816  1.00  0.00     0.000 C 
BRANCH  12  13
ATOM     13  C   UNL     1     -21.914   2.062   9.905  1.00  0.00     0.000 C 
BRANCH  13  14
ATOM     14  C   UNL     1     -21.080   2.210  11.186  1.00  0.00     0.000 C 
BRANCH  14  15
ATOM     15  C   UNL     1     -21.486   1.162  12.233  1.00  0.00     0.000 C 
BRANCH  15  16
ATOM     16  C   UNL     1     -20.980   1.508  13.642  1.00  0.00     0.006 C 
BRANCH  16  17
ATOM     17  C   UNL     1     -20.451   0.282  14.398  1.00  0.00     0.053 C 
BRANCH  17  18
ATOM     18  C   UNL     1     -21.428  -0.848  14.311  1.00  0.00     0.041 C 
ATOM     19  O   UNL     1     -22.455  -0.854  15.041  1.00  0.00    -0.550 OA
ATOM     20  O   UNL     1     -21.184  -1.915  13.455  1.00  0.00    -0.550 OA
ENDBRANCH  17  18
ENDBRANCH  16  17
ENDBRANCH  15  16
ENDBRANCH  14  15
ENDBRANCH  13  14
ENDBRANCH  12  13
ENDBRANCH  11  12
ENDBRANCH   1  11
TORSDOF 15
ENDMDL
MODEL 4
REMARK VINA RESULT:    -2.539      3.137      6.988
REMARK INTER + INTRA:          -6.102
REMARK INTER:                  -4.911
REMARK INTRA:                  -1.191
REMARK UNBOUND:                -1.337
REMARK SMILES O=C([O-])CCCCCCCCCCCCCCC(=O)[O-]
REMARK SMILES IDX 10 1 9 2 8 3 7 4 6 5 5 6 4 7 2 8 1 9 3 10 11 11 12 12 13 13
REMARK SMILES IDX 14 14 15 15 16 16 17 17 18 18 19 19 20 20
REMARK H PARENT
REMARK Flexibility Score: inf
ROOT
ATOM      1  C   UNL     1     -20.034   0.420   7.007  1.00  0.00     0.000 C 
ENDROOT
BRANCH   1   2
ATOM      2  C   UNL     1     -20.460   1.705   7.740  1.00  0.00     0.000 C 
BRANCH   2   3
ATOM      3  C   UNL     1     -21.016   1.431   9.145  1.00  0.00     0.000 C 
BRANCH   3   4
ATOM      4  C   UNL     1     -21.800   2.640   9.669  1.00  0.00     0.000 C 
BRANCH   4   5
ATOM      5  C   UNL     1     -21.888   3.745   8.608  1.00  0.00     0.000 C 
BRANCH   5   6
ATOM      6  C   UNL     1     -21.814   5.135   9.255  1.00  0.00     0.006 C 
BRANCH   6   7
ATOM      7  C   UNL     1     -20.515   5.872   8.903  1.00  0.00     0.053 C 
BRANCH   7   8
ATOM      8  C   UNL     1     -19.707   6.187  10.125  1.00  0.00     0.041 C 
ATOM      9  O   UNL     1     -18.826   7.085  10.090  1.00  0.00    -0.550 OA
ATOM     10  O   UNL     1     -19.912   5.469  11.297  1.00  0.00    -0.550 OA
ENDBRANCH   7   8
ENDBRANCH   6   7
ENDBRANCH   5   6
ENDBRANCH   4   5
ENDBRANCH   3   4
ENDBRANCH   2   3
ENDBRANCH   1   2
BRANCH   1  11
ATOM     11  C   UNL     1     -20.852  -0.832   7.374  1.00  0.00     0.000 C 
BRANCH  11  12
ATOM     12  C   UNL     1     -20.040  -2.141   7.443  1.00  0.00     0.000 C 
BRANCH  12  13
ATOM     13  C   UNL     1     -19.458  -2.438   8.841  1.00  0.00     0.000 C 
BRANCH  13  14
ATOM     14  C   UNL     1     -20.298  -1.814   9.967  1.00  0.00     0.000 C 
BRANCH  14  15
ATOM     15  C   UNL     1     -19.572  -1.916  11.317  1.00  0.00     0.000 C 
BRANCH  15  16
ATOM     16  C   UNL     1     -20.542  -1.924  12.509  1.00  0.00     0.006 C 
BRANCH  16  17
ATOM     17  C   UNL     1     -20.971  -0.512  12.931  1.00  0.00     0.053 C 
BRANCH  17  18
ATOM     18  C   UNL     1     -21.109  -0.431  14.419  1.00  0.00     0.041 C 
ATOM     19  O   UNL     1     -20.138  -0.050  15.125  1.00  0.00    -0.550 OA
ATOM     20  O   UNL     1     -22.295  -0.818  15.030  1.00  0.00    -0.550 OA
ENDBRANCH  17  18
ENDBRANCH  16  17
ENDBRANCH  15  16
ENDBRANCH  14  15
ENDBRANCH  13  14
ENDBRANCH  12  13
ENDBRANCH  11  12
ENDBRANCH   1  11
TORSDOF 15
ENDMDL
MODEL 5
REMARK VINA RESULT:    -2.472      1.106      5.719
REMARK INTER + INTRA:          -5.976
REMARK INTER:                  -4.938
REMARK INTRA:                  -1.038
REMARK UNBOUND:                -1.337
REMARK SMILES O=C([O-])CCCCCCCCCCCCCCC(=O)[O-]
REMARK SMILES IDX 10 1 9 2 8 3 7 4 6 5 5 6 4 7 2 8 1 9 3 10 11 11 12 12 13 13
REMARK SMILES IDX 14 14 15 15 16 16 17 17 18 18 19 19 20 20
REMARK H PARENT
REMARK Flexibility Score: inf
ROOT
ATOM      1  C   UNL     1     -21.546   2.806   8.778  1.00  0.00     0.000 C 
ENDROOT
BRANCH   1   2
ATOM      2  C   UNL     1     -21.868   1.761   9.861  1.00  0.00     0.000 C 
BRANCH   2   3
ATOM      3  C   UNL     1     -21.050   1.963  11.145  1.00  0.00     0.000 C 
BRANCH   3   4
ATOM      4  C   UNL     1     -21.776   1.368  12.357  1.00  0.00     0.000 C 
BRANCH   4   5
ATOM      5  C   UNL     1     -21.000   1.639  13.654  1.00  0.00     0.000 C 
BRANCH   5   6
ATOM      6  C   UNL     1     -20.542   0.325  14.304  1.00  0.00     0.006 C 
BRANCH   6   7
ATOM      7  C   UNL     1     -21.578  -0.796  14.143  1.00  0.00     0.053 C 
BRANCH   7   8
ATOM      8  C   UNL     1     -21.029  -1.950  13.360  1.00  0.00     0.041 C 
ATOM      9  O   UNL     1     -20.244  -1.747  12.397  1.00  0.00    -0.550 OA
ATOM     10  O   UNL     1     -21.408  -3.248  13.679  1.00  0.00    -0.550 OA
ENDBRANCH   7   8
ENDBRANCH   6   7
ENDBRANCH   5   6
ENDBRANCH   4   5
ENDBRANCH   3   4
ENDBRANCH   2   3
ENDBRANCH   1   2
BRANCH   1  11
ATOM     11  C   UNL     1     -20.755   2.262   7.573  1.00  0.00     0.000 C 
BRANCH  11  12
ATOM     12  C   UNL     1     -20.059   0.907   7.810  1.00  0.00     0.000 C 
BRANCH  12  13
ATOM     13  C   UNL     1     -20.569  -0.222   6.889  1.00  0.00     0.000 C 
BRANCH  13  14
ATOM     14  C   UNL     1     -20.206  -1.617   7.421  1.00  0.00     0.000 C 
BRANCH  14  15
ATOM     15  C   UNL     1     -20.091  -1.610   8.953  1.00  0.00     0.000 C 
BRANCH  15  16
ATOM     16  C   UNL     1     -19.777  -3.000   9.528  1.00  0.00     0.006 C 
BRANCH  16  17
ATOM     17  C   UNL     1     -19.052  -3.905   8.522  1.00  0.00     0.053 C 
BRANCH  17  18
ATOM     18  C   UNL     1     -19.522  -5.319   8.659  1.00  0.00     0.041 C 
ATOM     19  O   UNL     1     -18.907  -6.249   8.073  1.00  0.00    -0.550 OA
ATOM     20  O   UNL     1     -20.663  -5.606   9.398  1.00  0.00    -0.550 OA
ENDBRANCH  17  18
ENDBRANCH  16  17
ENDBRANCH  15  16
ENDBRANCH  14  15
ENDBRANCH  13  14
ENDBRANCH  12  13
ENDBRANCH  11  12
ENDBRANCH   1  11
TORSDOF 15
ENDMDL
MODEL 6
REMARK VINA RESULT:    -2.417      2.434      4.734
REMARK INTER + INTRA:          -5.874
REMARK INTER:                  -4.599
REMARK INTRA:                  -1.275
REMARK UNBOUND:                -1.337
REMARK SMILES O=C([O-])CCCCCCCCCCCCCCC(=O)[O-]
REMARK SMILES IDX 10 1 9 2 8 3 7 4 6 5 5 6 4 7 2 8 1 9 3 10 11 11 12 12 13 13
REMARK SMILES IDX 14 14 15 15 16 16 17 17 18 18 19 19 20 20
REMARK H PARENT
REMARK Flexibility Score: inf
ROOT
ATOM      1  C   UNL     1     -21.589  -0.514  13.992  1.00  0.00     0.000 C 
ENDROOT
BRANCH   1   2
ATOM      2  C   UNL     1     -20.787  -1.810  13.772  1.00  0.00     0.000 C 
BRANCH   2   3
ATOM      3  C   UNL     1     -20.868  -2.321  12.327  1.00  0.00     0.000 C 
BRANCH   3   4
ATOM      4  C   UNL     1     -19.717  -1.759  11.483  1.00  0.00     0.000 C 
BRANCH   4   5
ATOM      5  C   UNL     1     -19.948  -2.022   9.989  1.00  0.00     0.000 C 
BRANCH   5   6
ATOM      6  C   UNL     1     -19.024  -3.138   9.478  1.00  0.00     0.006 C 
BRANCH   6   7
ATOM      7  C   UNL     1     -19.676  -3.969   8.365  1.00  0.00     0.053 C 
BRANCH   7   8
ATOM      8  C   UNL     1     -19.745  -5.422   8.726  1.00  0.00     0.041 C 
ATOM      9  O   UNL     1     -18.705  -6.132   8.700  1.00  0.00    -0.550 OA
ATOM     10  O   UNL     1     -20.963  -5.997   9.065  1.00  0.00    -0.550 OA
ENDBRANCH   7   8
ENDBRANCH   6   7
ENDBRANCH   5   6
ENDBRANCH   4   5
ENDBRANCH   3   4
ENDBRANCH   2   3
ENDBRANCH   1   2
BRANCH   1  11
ATOM     11  C   UNL     1     -20.752   0.778  13.939  1.00  0.00     0.000 C 
BRANCH  11  12
ATOM     12  C   UNL     1     -21.182   1.788  12.857  1.00  0.00     0.000 C 
BRANCH  12  13
ATOM     13  C   UNL     1     -21.542   1.134  11.506  1.00  0.00     0.000 C 
BRANCH  13  14
ATOM     14  C   UNL     1     -22.356   2.074  10.602  1.00  0.00     0.000 C 
BRANCH  14  15
ATOM     15  C   UNL     1     -21.612   2.354   9.287  1.00  0.00     0.000 C 
BRANCH  15  16
ATOM     16  C   UNL     1     -20.740   1.170   8.839  1.00  0.00     0.006 C 
BRANCH  16  17
ATOM     17  C   UNL     1     -20.371   1.238   7.351  1.00  0.00     0.053 C 
BRANCH  17  18
ATOM     18  C   UNL     1     -20.241  -0.140   6.782  1.00  0.00     0.041 C 
ATOM     19  O   UNL     1     -21.093  -1.023   7.062  1.00  0.00    -0.550 OA
ATOM     20  O   UNL     1     -19.155  -0.460   5.976  1.00  0.00    -0.550 OA
ENDBRANCH  17  18
ENDBRANCH  16  17
ENDBRANCH  15  16
ENDBRANCH  14  15
ENDBRANCH  13  14
ENDBRANCH  12  13
ENDBRANCH  11  12
ENDBRANCH   1  11
TORSDOF 15
ENDMDL
MODEL 7
REMARK VINA RESULT:    -2.330      2.528      6.449
REMARK INTER + INTRA:          -5.710
REMARK INTER:                  -4.270
REMARK INTRA:                  -1.440
REMARK UNBOUND:                -1.337
REMARK SMILES O=C([O-])CCCCCCCCCCCCCCC(=O)[O-]
REMARK SMILES IDX 10 1 9 2 8 3 7 4 6 5 5 6 4 7 2 8 1 9 3 10 11 11 12 12 13 13
REMARK SMILES IDX 14 14 15 15 16 16 17 17 18 18 19 19 20 20
REMARK H PARENT
REMARK Flexibility Score: inf
ROOT
ATOM      1  C   UNL     1     -21.065   1.263  13.786  1.00  0.00     0.000 C 
ENDROOT
BRANCH   1   2
ATOM      2  C   UNL     1     -21.889   1.295  12.487  1.00  0.00     0.000 C 
BRANCH   2   3
ATOM      3  C   UNL     1     -21.113   1.896  11.306  1.00  0.00     0.000 C 
BRANCH   3   4
ATOM      4  C   UNL     1     -21.894   1.732   9.996  1.00  0.00     0.000 C 
BRANCH   4   5
ATOM      5  C   UNL     1     -21.564   2.861   9.011  1.00  0.00     0.000 C 
BRANCH   5   6
ATOM      6  C   UNL     1     -20.816   2.319   7.784  1.00  0.00     0.006 C 
BRANCH   6   7
ATOM      7  C   UNL     1     -20.231   0.922   8.031  1.00  0.00     0.053 C 
BRANCH   7   8
ATOM      8  C   UNL     1     -20.477   0.005   6.872  1.00  0.00     0.041 C 
ATOM      9  O   UNL     1     -20.021  -1.169   6.883  1.00  0.00    -0.550 OA
ATOM     10  O   UNL     1     -21.189   0.456   5.768  1.00  0.00    -0.550 OA
ENDBRANCH   7   8
ENDBRANCH   6   7
ENDBRANCH   5   6
ENDBRANCH   4   5
ENDBRANCH   3   4
ENDBRANCH   2   3
ENDBRANCH   1   2
BRANCH   1  11
ATOM     11  C   UNL     1     -20.549  -0.131  14.188  1.00  0.00     0.000 C 
BRANCH  11  12
ATOM     12  C   UNL     1     -21.478  -1.302  13.810  1.00  0.00     0.000 C 
BRANCH  12  13
ATOM     13  C   UNL     1     -20.882  -2.250  12.748  1.00  0.00     0.000 C 
BRANCH  13  14
ATOM     14  C   UNL     1     -19.755  -1.586  11.940  1.00  0.00     0.000 C 
BRANCH  14  15
ATOM     15  C   UNL     1     -20.014  -1.707  10.431  1.00  0.00     0.000 C 
BRANCH  15  16
ATOM     16  C   UNL     1     -20.252  -3.160   9.988  1.00  0.00     0.006 C 
BRANCH  16  17
ATOM     17  C   UNL     1     -19.252  -3.623   8.920  1.00  0.00     0.053 C 
BRANCH  17  18
ATOM     18  C   UNL     1     -19.394  -5.092   8.673  1.00  0.00     0.041 C 
ATOM     19  O   UNL     1     -18.518  -5.710   8.012  1.00  0.00    -0.550 OA
ATOM     20  O   UNL     1     -20.515  -5.770   9.135  1.00  0.00    -0.550 OA
ENDBRANCH  17  18
ENDBRANCH  16  17
ENDBRANCH  15  16
ENDBRANCH  14  15
ENDBRANCH  13  14
ENDBRANCH  12  13
ENDBRANCH  11  12
ENDBRANCH   1  11
TORSDOF 15
ENDMDL
MODEL 8
REMARK VINA RESULT:    -2.319      3.188      5.381
REMARK INTER + INTRA:          -5.689
REMARK INTER:                  -4.774
REMARK INTRA:                  -0.915
REMARK UNBOUND:                -1.337
REMARK SMILES O=C([O-])CCCCCCCCCCCCCCC(=O)[O-]
REMARK SMILES IDX 10 1 9 2 8 3 7 4 6 5 5 6 4 7 2 8 1 9 3 10 11 11 12 12 13 13
REMARK SMILES IDX 14 14 15 15 16 16 17 17 18 18 19 19 20 20
REMARK H PARENT
REMARK Flexibility Score: inf
ROOT
ATOM      1  C   UNL     1     -20.279  -0.184   6.497  1.00  0.00     0.000 C 
ENDROOT
BRANCH   1   2
ATOM      2  C   UNL     1     -20.267  -1.497   7.300  1.00  0.00     0.000 C 
BRANCH   2   3
ATOM      3  C   UNL     1     -20.309  -1.266   8.817  1.00  0.00     0.000 C 
BRANCH   3   4
ATOM      4  C   UNL     1     -19.647  -2.430   9.567  1.00  0.00     0.000 C 
BRANCH   4   5
ATOM      5  C   UNL     1     -20.348  -2.693  10.907  1.00  0.00     0.000 C 
BRANCH   5   6
ATOM      6  C   UNL     1     -19.985  -1.615  11.938  1.00  0.00     0.006 C 
BRANCH   6   7
ATOM      7  C   UNL     1     -20.998  -1.546  13.089  1.00  0.00     0.053 C 
BRANCH   7   8
ATOM      8  C   UNL     1     -20.974  -0.211  13.770  1.00  0.00     0.041 C 
ATOM      9  O   UNL     1     -20.627  -0.121  14.977  1.00  0.00    -0.550 OA
ATOM     10  O   UNL     1     -21.361   0.929  13.077  1.00  0.00    -0.550 OA
ENDBRANCH   7   8
ENDBRANCH   6   7
ENDBRANCH   5   6
ENDBRANCH   4   5
ENDBRANCH   3   4
ENDBRANCH   2   3
ENDBRANCH   1   2
BRANCH   1  11
ATOM     11  C   UNL     1     -19.722   1.038   7.251  1.00  0.00     0.000 C 
BRANCH  11  12
ATOM     12  C   UNL     1     -20.786   2.039   7.742  1.00  0.00     0.000 C 
BRANCH  12  13
ATOM     13  C   UNL     1     -21.121   1.905   9.242  1.00  0.00     0.000 C 
BRANCH  13  14
ATOM     14  C   UNL     1     -22.077   3.006   9.728  1.00  0.00     0.000 C 
BRANCH  14  15
ATOM     15  C   UNL     1     -22.204   4.125   8.683  1.00  0.00     0.000 C 
BRANCH  15  16
ATOM     16  C   UNL     1     -21.861   5.509   9.257  1.00  0.00     0.006 C 
BRANCH  16  17
ATOM     17  C   UNL     1     -20.428   5.948   8.925  1.00  0.00     0.053 C 
BRANCH  17  18
ATOM     18  C   UNL     1     -19.652   6.192  10.181  1.00  0.00     0.041 C 
ATOM     19  O   UNL     1     -18.736   7.056  10.201  1.00  0.00    -0.550 OA
ATOM     20  O   UNL     1     -19.911   5.436  11.317  1.00  0.00    -0.550 OA
ENDBRANCH  17  18
ENDBRANCH  16  17
ENDBRANCH  15  16
ENDBRANCH  14  15
ENDBRANCH  13  14
ENDBRANCH  12  13
ENDBRANCH  11  12
ENDBRANCH   1  11
TORSDOF 15
ENDMDL
MODEL 9
REMARK VINA RESULT:    -2.264      3.173      6.421
REMARK INTER + INTRA:          -5.586
REMARK INTER:                  -4.648
REMARK INTRA:                  -0.938
REMARK UNBOUND:                -1.337
REMARK SMILES O=C([O-])CCCCCCCCCCCCCCC(=O)[O-]
REMARK SMILES IDX 10 1 9 2 8 3 7 4 6 5 5 6 4 7 2 8 1 9 3 10 11 11 12 12 13 13
REMARK SMILES IDX 14 14 15 15 16 16 17 17 18 18 19 19 20 20
REMARK H PARENT
REMARK Flexibility Score: inf
ROOT
ATOM      1  C   UNL     1     -20.397  -1.703   7.254  1.00  0.00     0.000 C 
ENDROOT
BRANCH   1   2
ATOM      2  C   UNL     1     -19.767  -0.384   6.773  1.00  0.00     0.000 C 
BRANCH   2   3
ATOM      3  C   UNL     1     -20.802   0.733   6.577  1.00  0.00     0.000 C 
BRANCH   3   4
ATOM      4  C   UNL     1     -20.564   1.879   7.569  1.00  0.00     0.000 C 
BRANCH   4   5
ATOM      5  C   UNL     1     -21.121   1.534   8.957  1.00  0.00     0.000 C 
BRANCH   5   6
ATOM      6  C   UNL     1     -21.526   2.804   9.718  1.00  0.00     0.006 C 
BRANCH   6   7
ATOM      7  C   UNL     1     -22.140   3.864   8.795  1.00  0.00     0.053 C 
BRANCH   7   8
ATOM      8  C   UNL     1     -21.580   5.228   9.066  1.00  0.00     0.041 C 
ATOM      9  O   UNL     1     -20.680   5.384   9.933  1.00  0.00    -0.550 OA
ATOM     10  O   UNL     1     -22.070   6.329   8.377  1.00  0.00    -0.550 OA
ENDBRANCH   7   8
ENDBRANCH   6   7
ENDBRANCH   5   6
ENDBRANCH   4   5
ENDBRANCH   3   4
ENDBRANCH   2   3
ENDBRANCH   1   2
BRANCH   1  11
ATOM     11  C   UNL     1     -19.844  -2.232   8.591  1.00  0.00     0.000 C 
BRANCH  11  12
ATOM     12  C   UNL     1     -20.038  -1.288   9.794  1.00  0.00     0.000 C 
BRANCH  12  13
ATOM     13  C   UNL     1     -19.671  -1.928  11.150  1.00  0.00     0.000 C 
BRANCH  13  14
ATOM     14  C   UNL     1     -20.910  -2.407  11.923  1.00  0.00     0.000 C 
BRANCH  14  15
ATOM     15  C   UNL     1     -20.697  -2.280  13.439  1.00  0.00     0.000 C 
BRANCH  15  16
ATOM     16  C   UNL     1     -21.589  -1.200  14.072  1.00  0.00     0.006 C 
BRANCH  16  17
ATOM     17  C   UNL     1     -20.807   0.066  14.446  1.00  0.00     0.053 C 
BRANCH  17  18
ATOM     18  C   UNL     1     -21.085   1.161  13.465  1.00  0.00     0.041 C 
ATOM     19  O   UNL     1     -21.601   0.893  12.347  1.00  0.00    -0.550 OA
ATOM     20  O   UNL     1     -20.737   2.472  13.766  1.00  0.00    -0.550 OA
ENDBRANCH  17  18
ENDBRANCH  16  17
ENDBRANCH  15  16
ENDBRANCH  14  15
ENDBRANCH  13  14
ENDBRANCH  12  13
ENDBRANCH  11  12
ENDBRANCH   1  11
TORSDOF 15
ENDMDL
