MODEL 1
REMARK VINA RESULT:    -6.156      0.000      0.000
REMARK INTER + INTRA:          -6.839
REMARK INTER:                  -6.516
REMARK INTRA:                  -0.323
REMARK UNBOUND:                -0.323
REMARK SMILES c1ccc(-c2ccccc2)cc1
REMARK SMILES IDX 1 1 2 2 3 3 4 4 11 5 12 6 5 7 6 8 10 9 7 10 9 11 8 12
REMARK H PARENT
REMARK Flexibility Score: inf
ROOT
ATOM      1  C   UNL     1      -7.374   0.641 -41.455  1.00  0.00     0.000 A 
ATOM      2  C   UNL     1      -7.059   2.001 -41.417  1.00  0.00     0.001 A 
ATOM      3  C   UNL     1      -6.769   2.620 -40.197  1.00  0.00     0.009 A 
ATOM      4  C   UNL     1      -6.792   1.881 -38.999  1.00  0.00    -0.018 A 
ATOM      5  C   UNL     1      -7.111   0.511 -39.051  1.00  0.00     0.009 A 
ATOM      6  C   UNL     1      -7.400  -0.103 -40.274  1.00  0.00     0.001 A 
ENDROOT
BRANCH   4   7
ATOM      7  C   UNL     1      -6.484   2.536 -37.701  1.00  0.00    -0.018 A 
ATOM      8  C   UNL     1      -6.130   3.898 -37.654  1.00  0.00     0.009 A 
ATOM      9  C   UNL     1      -6.542   1.806 -36.499  1.00  0.00     0.009 A 
ATOM     10  C   UNL     1      -5.841   4.512 -36.431  1.00  0.00     0.001 A 
ATOM     11  C   UNL     1      -6.251   2.425 -35.280  1.00  0.00     0.001 A 
ATOM     12  C   UNL     1      -5.902   3.777 -35.246  1.00  0.00     0.000 A 
ENDBRANCH   4   7
TORSDOF 1
ENDMDL
MODEL 2
REMARK VINA RESULT:    -6.155      0.142      4.744
REMARK INTER + INTRA:          -6.838
REMARK INTER:                  -6.515
REMARK INTRA:                  -0.323
REMARK UNBOUND:                -0.323
REMARK SMILES c1ccc(-c2ccccc2)cc1
REMARK SMILES IDX 1 1 2 2 3 3 4 4 11 5 12 6 5 7 6 8 10 9 7 10 9 11 8 12
REMARK H PARENT
REMARK Flexibility Score: inf
ROOT
ATOM      1  C   UNL     1      -5.868   3.878 -35.387  1.00  0.00     0.000 A 
ATOM      2  C   UNL     1      -5.830   4.561 -36.604  1.00  0.00     0.001 A 
ATOM      3  C   UNL     1      -6.142   3.894 -37.793  1.00  0.00     0.009 A 
ATOM      4  C   UNL     1      -6.497   2.531 -37.774  1.00  0.00    -0.018 A 
ATOM      5  C   UNL     1      -6.532   1.855 -36.540  1.00  0.00     0.009 A 
ATOM      6  C   UNL     1      -6.219   2.527 -35.354  1.00  0.00     0.001 A 
ENDROOT
BRANCH   4   7
ATOM      7  C   UNL     1      -6.830   1.820 -39.035  1.00  0.00    -0.018 A 
ATOM      8  C   UNL     1      -6.804   2.499 -40.268  1.00  0.00     0.009 A 
ATOM      9  C   UNL     1      -7.176   0.455 -39.018  1.00  0.00     0.009 A 
ATOM     10  C   UNL     1      -7.117   1.828 -41.453  1.00  0.00     0.001 A 
ATOM     11  C   UNL     1      -7.489  -0.211 -40.206  1.00  0.00     0.001 A 
ATOM     12  C   UNL     1      -7.459   0.474 -41.423  1.00  0.00     0.000 A 
ENDBRANCH   4   7
TORSDOF 1
ENDMDL
MODEL 3
REMARK VINA RESULT:    -6.149      0.131      5.140
REMARK INTER + INTRA:          -6.831
REMARK INTER:                  -6.508
REMARK INTRA:                  -0.324
REMARK UNBOUND:                -0.323
REMARK SMILES c1ccc(-c2ccccc2)cc1
REMARK SMILES IDX 1 1 2 2 3 3 4 4 11 5 12 6 5 7 6 8 10 9 7 10 9 11 8 12
REMARK H PARENT
REMARK Flexibility Score: inf
ROOT
ATOM      1  C   UNL     1      -5.854   3.862 -35.375  1.00  0.00     0.000 A 
ATOM      2  C   UNL     1      -6.219   2.514 -35.348  1.00  0.00     0.001 A 
ATOM      3  C   UNL     1      -6.525   1.847 -36.539  1.00  0.00     0.009 A 
ATOM      4  C   UNL     1      -6.468   2.525 -37.771  1.00  0.00    -0.018 A 
ATOM      5  C   UNL     1      -6.099   3.883 -37.784  1.00  0.00     0.009 A 
ATOM      6  C   UNL     1      -5.794   4.546 -36.591  1.00  0.00     0.001 A 
ENDROOT
BRANCH   4   7
ATOM      7  C   UNL     1      -6.793   1.818 -39.038  1.00  0.00    -0.018 A 
ATOM      8  C   UNL     1      -7.159   0.459 -39.024  1.00  0.00     0.009 A 
ATOM      9  C   UNL     1      -6.738   2.496 -40.270  1.00  0.00     0.009 A 
ATOM     10  C   UNL     1      -7.464  -0.203 -40.217  1.00  0.00     0.001 A 
ATOM     11  C   UNL     1      -7.043   1.829 -41.460  1.00  0.00     0.001 A 
ATOM     12  C   UNL     1      -7.406   0.481 -41.434  1.00  0.00     0.000 A 
ENDBRANCH   4   7
TORSDOF 1
ENDMDL
MODEL 4
REMARK VINA RESULT:    -6.138      0.367      2.008
REMARK INTER + INTRA:          -6.820
REMARK INTER:                  -6.498
REMARK INTRA:                  -0.323
REMARK UNBOUND:                -0.323
REMARK SMILES c1ccc(-c2ccccc2)cc1
REMARK SMILES IDX 1 1 2 2 3 3 4 4 11 5 12 6 5 7 6 8 10 9 7 10 9 11 8 12
REMARK H PARENT
REMARK Flexibility Score: inf
ROOT
ATOM      1  C   UNL     1      -7.319   0.792 -41.135  1.00  0.00     0.000 A 
ATOM      2  C   UNL     1      -7.469   0.094 -39.935  1.00  0.00     0.001 A 
ATOM      3  C   UNL     1      -7.177   0.719 -38.719  1.00  0.00     0.009 A 
ATOM      4  C   UNL     1      -6.729   2.054 -38.693  1.00  0.00    -0.018 A 
ATOM      5  C   UNL     1      -6.582   2.746 -39.910  1.00  0.00     0.009 A 
ATOM      6  C   UNL     1      -6.876   2.116 -41.123  1.00  0.00     0.001 A 
ENDROOT
BRANCH   4   7
ATOM      7  C   UNL     1      -6.418   2.721 -37.402  1.00  0.00    -0.018 A 
ATOM      8  C   UNL     1      -6.463   1.998 -36.194  1.00  0.00     0.009 A 
ATOM      9  C   UNL     1      -6.073   4.085 -37.365  1.00  0.00     0.009 A 
ATOM     10  C   UNL     1      -6.169   2.628 -34.981  1.00  0.00     0.001 A 
ATOM     11  C   UNL     1      -5.781   4.710 -36.150  1.00  0.00     0.001 A 
ATOM     12  C   UNL     1      -5.829   3.982 -34.958  1.00  0.00     0.000 A 
ENDBRANCH   4   7
TORSDOF 1
ENDMDL
MODEL 5
REMARK VINA RESULT:    -5.523     16.613     17.343
REMARK INTER + INTRA:          -6.169
REMARK INTER:                  -5.878
REMARK INTRA:                  -0.290
REMARK UNBOUND:                -0.323
REMARK SMILES c1ccc(-c2ccccc2)cc1
REMARK SMILES IDX 1 1 2 2 3 3 4 4 11 5 12 6 5 7 6 8 10 9 7 10 9 11 8 12
REMARK H PARENT
REMARK Flexibility Score: inf
ROOT
ATOM      1  C   UNL     1       9.265  -4.107 -36.936  1.00  0.00     0.000 A 
ATOM      2  C   UNL     1       8.873  -4.941 -37.985  1.00  0.00     0.001 A 
ATOM      3  C   UNL     1       8.115  -6.087 -37.725  1.00  0.00     0.009 A 
ATOM      4  C   UNL     1       7.740  -6.410 -36.408  1.00  0.00    -0.018 A 
ATOM      5  C   UNL     1       8.141  -5.562 -35.359  1.00  0.00     0.009 A 
ATOM      6  C   UNL     1       8.899  -4.416 -35.624  1.00  0.00     0.001 A 
ENDROOT
BRANCH   4   7
ATOM      7  C   UNL     1       6.934  -7.628 -36.129  1.00  0.00    -0.018 A 
ATOM      8  C   UNL     1       5.575  -7.683 -36.489  1.00  0.00     0.009 A 
ATOM      9  C   UNL     1       7.517  -8.744 -35.500  1.00  0.00     0.009 A 
ATOM     10  C   UNL     1       4.819  -8.829 -36.225  1.00  0.00     0.001 A 
ATOM     11  C   UNL     1       6.757  -9.888 -35.239  1.00  0.00     0.001 A 
ATOM     12  C   UNL     1       5.409  -9.930 -35.601  1.00  0.00     0.000 A 
ENDBRANCH   4   7
TORSDOF 1
ENDMDL
MODEL 6
REMARK VINA RESULT:    -5.513     16.614     17.377
REMARK INTER + INTRA:          -6.158
REMARK INTER:                  -5.869
REMARK INTRA:                  -0.290
REMARK UNBOUND:                -0.323
REMARK SMILES c1ccc(-c2ccccc2)cc1
REMARK SMILES IDX 1 1 2 2 3 3 4 4 11 5 12 6 5 7 6 8 10 9 7 10 9 11 8 12
REMARK H PARENT
REMARK Flexibility Score: inf
ROOT
ATOM      1  C   UNL     1       9.253  -4.162 -36.962  1.00  0.00     0.000 A 
ATOM      2  C   UNL     1       8.895  -4.439 -35.641  1.00  0.00     0.001 A 
ATOM      3  C   UNL     1       8.132  -5.572 -35.344  1.00  0.00     0.009 A 
ATOM      4  C   UNL     1       7.719  -6.443 -36.370  1.00  0.00    -0.018 A 
ATOM      5  C   UNL     1       8.086  -6.153 -37.697  1.00  0.00     0.009 A 
ATOM      6  C   UNL     1       8.850  -5.018 -37.989  1.00  0.00     0.001 A 
ENDROOT
BRANCH   4   7
ATOM      7  C   UNL     1       6.908  -7.649 -36.057  1.00  0.00    -0.018 A 
ATOM      8  C   UNL     1       7.497  -8.763 -35.429  1.00  0.00     0.009 A 
ATOM      9  C   UNL     1       5.539  -7.696 -36.382  1.00  0.00     0.009 A 
ATOM     10  C   UNL     1       6.732  -9.896 -35.136  1.00  0.00     0.001 A 
ATOM     11  C   UNL     1       4.780  -8.831 -36.087  1.00  0.00     0.001 A 
ATOM     12  C   UNL     1       5.375  -9.930 -35.464  1.00  0.00     0.000 A 
ENDBRANCH   4   7
TORSDOF 1
ENDMDL
MODEL 7
REMARK VINA RESULT:    -5.509     16.923     17.551
REMARK INTER + INTRA:          -6.155
REMARK INTER:                  -5.833
REMARK INTRA:                  -0.322
REMARK UNBOUND:                -0.323
REMARK SMILES c1ccc(-c2ccccc2)cc1
REMARK SMILES IDX 1 1 2 2 3 3 4 4 11 5 12 6 5 7 6 8 10 9 7 10 9 11 8 12
REMARK H PARENT
REMARK Flexibility Score: inf
ROOT
ATOM      1  C   UNL     1       9.082  -3.739 -37.346  1.00  0.00     0.000 A 
ATOM      2  C   UNL     1       8.944  -3.765 -35.957  1.00  0.00     0.001 A 
ATOM      3  C   UNL     1       8.448  -4.908 -35.323  1.00  0.00     0.009 A 
ATOM      4  C   UNL     1       8.084  -6.041 -36.076  1.00  0.00    -0.018 A 
ATOM      5  C   UNL     1       8.229  -6.001 -37.476  1.00  0.00     0.009 A 
ATOM      6  C   UNL     1       8.726  -4.855 -38.105  1.00  0.00     0.001 A 
ENDROOT
BRANCH   4   7
ATOM      7  C   UNL     1       7.557  -7.257 -35.405  1.00  0.00    -0.018 A 
ATOM      8  C   UNL     1       7.397  -8.458 -36.123  1.00  0.00     0.009 A 
ATOM      9  C   UNL     1       7.210  -7.229 -34.041  1.00  0.00     0.009 A 
ATOM     10  C   UNL     1       6.901  -9.601 -35.489  1.00  0.00     0.001 A 
ATOM     11  C   UNL     1       6.714  -8.374 -33.413  1.00  0.00     0.001 A 
ATOM     12  C   UNL     1       6.560  -9.559 -34.135  1.00  0.00     0.000 A 
ENDBRANCH   4   7
TORSDOF 1
ENDMDL
MODEL 8
REMARK VINA RESULT:    -5.504     16.535     17.080
REMARK INTER + INTRA:          -6.149
REMARK INTER:                  -5.859
REMARK INTRA:                  -0.290
REMARK UNBOUND:                -0.323
REMARK SMILES c1ccc(-c2ccccc2)cc1
REMARK SMILES IDX 1 1 2 2 3 3 4 4 11 5 12 6 5 7 6 8 10 9 7 10 9 11 8 12
REMARK H PARENT
REMARK Flexibility Score: inf
ROOT
ATOM      1  C   UNL     1       5.261  -9.905 -35.606  1.00  0.00     0.000 A 
ATOM      2  C   UNL     1       4.687  -8.790 -36.221  1.00  0.00     0.001 A 
ATOM      3  C   UNL     1       5.463  -7.657 -36.484  1.00  0.00     0.009 A 
ATOM      4  C   UNL     1       6.826  -7.629 -36.133  1.00  0.00    -0.018 A 
ATOM      5  C   UNL     1       7.392  -8.759 -35.514  1.00  0.00     0.009 A 
ATOM      6  C   UNL     1       6.612  -9.890 -35.253  1.00  0.00     0.001 A 
ENDROOT
BRANCH   4   7
ATOM      7  C   UNL     1       7.653  -6.426 -36.411  1.00  0.00    -0.018 A 
ATOM      8  C   UNL     1       8.059  -5.579 -35.363  1.00  0.00     0.009 A 
ATOM      9  C   UNL     1       8.043  -6.114 -37.728  1.00  0.00     0.009 A 
ATOM     10  C   UNL     1       8.837  -4.447 -35.628  1.00  0.00     0.001 A 
ATOM     11  C   UNL     1       8.820  -4.982 -37.987  1.00  0.00     0.001 A 
ATOM     12  C   UNL     1       9.217  -4.149 -36.938  1.00  0.00     0.000 A 
ENDBRANCH   4   7
TORSDOF 1
ENDMDL
MODEL 9
REMARK VINA RESULT:    -5.463     16.874     17.508
REMARK INTER + INTRA:          -6.106
REMARK INTER:                  -5.783
REMARK INTRA:                  -0.323
REMARK UNBOUND:                -0.323
REMARK SMILES c1ccc(-c2ccccc2)cc1
REMARK SMILES IDX 1 1 2 2 3 3 4 4 11 5 12 6 5 7 6 8 10 9 7 10 9 11 8 12
REMARK H PARENT
REMARK Flexibility Score: inf
ROOT
ATOM      1  C   UNL     1       9.053  -3.682 -37.358  1.00  0.00     0.000 A 
ATOM      2  C   UNL     1       8.712  -4.803 -38.118  1.00  0.00     0.001 A 
ATOM      3  C   UNL     1       8.220  -5.952 -37.492  1.00  0.00     0.009 A 
ATOM      4  C   UNL     1       8.065  -5.991 -36.093  1.00  0.00    -0.018 A 
ATOM      5  C   UNL     1       8.412  -4.855 -35.338  1.00  0.00     0.009 A 
ATOM      6  C   UNL     1       8.903  -3.708 -35.969  1.00  0.00     0.001 A 
ENDROOT
BRANCH   4   7
ATOM      7  C   UNL     1       7.542  -7.211 -35.424  1.00  0.00    -0.018 A 
ATOM      8  C   UNL     1       7.337  -8.396 -36.157  1.00  0.00     0.009 A 
ATOM      9  C   UNL     1       7.242  -7.202 -34.049  1.00  0.00     0.009 A 
ATOM     10  C   UNL     1       6.845  -9.542 -35.526  1.00  0.00     0.001 A 
ATOM     11  C   UNL     1       6.750  -8.351 -33.423  1.00  0.00     0.001 A 
ATOM     12  C   UNL     1       6.552  -9.520 -34.161  1.00  0.00     0.000 A 
ENDBRANCH   4   7
TORSDOF 1
ENDMDL
