MODEL 1
REMARK VINA RESULT:    -3.624      0.000      0.000
REMARK INTER + INTRA:          -5.534
REMARK INTER:                  -5.530
REMARK INTRA:                  -0.004
REMARK UNBOUND:                -0.004
REMARK SMILES CC1=CCC[C@H](C)C(=O)C[C@H](C(C)C)C(=O)C1
REMARK SMILES IDX 8 1 9 2 6 3 7 4 5 5 4 6 3 7 2 8 1 9 10 11 11 12 15 13 16 14
REMARK SMILES IDX 17 15 12 17 13 18 14 19
REMARK H PARENT
REMARK Flexibility Score: 70.00
ROOT
ATOM      1  C   UNL     1     119.049 126.065 109.337  1.00  0.00     0.136 C 
ATOM      2  O   UNL     1     119.997 125.650 109.990  1.00  0.00    -0.299 OA
ENDROOT
BRANCH   1   3
ATOM      3  C   UNL     1     119.268 126.554 107.917  1.00  0.00     0.053 C 
ATOM      4  C   UNL     1     120.725 126.994 107.737  1.00  0.00     0.016 C 
BRANCH   3   5
ATOM      5  C   UNL     1     118.888 125.498 106.849  1.00  0.00     0.015 C 
BRANCH   5   6
ATOM      6  C   UNL     1     118.601 124.080 107.387  1.00  0.00     0.028 C 
BRANCH   6   7
ATOM      7  C   UNL     1     117.318 123.494 106.843  1.00  0.00    -0.028 C 
ATOM      8  C   UNL     1     116.089 123.648 107.395  1.00  0.00    -0.070 CG0
ATOM      9  C   UNL     1     114.916 123.019 106.686  1.00  0.00     0.039 C 
ATOM     10  G   UNL     1     115.847 124.386 108.701  1.00  0.00     0.000 G0
ENDBRANCH   6   7
ENDBRANCH   5   6
ENDBRANCH   3   5
ENDBRANCH   1   3
BRANCH   1  11
ATOM     11  C   UNL     1     117.677 126.152 109.973  1.00  0.00     0.087 C 
BRANCH  11  12
ATOM     12  C   UNL     1     116.594 126.869 109.114  1.00  0.00     0.066 C 
BRANCH  12  13
ATOM     13  C   UNL     1     115.626 125.856 108.521  1.00  0.00     0.140 C 
ATOM     14  O   UNL     1     114.657 126.246 107.883  1.00  0.00    -0.299 OA
BRANCH  13  15
ATOM     15  C   UNL     1     115.825 124.370 108.696  1.00  0.00     0.106 CG0
ATOM     16  G   UNL     1     116.082 123.651 107.382  1.00  0.00     0.000 G0
ENDBRANCH  13  15
ENDBRANCH  12  13
BRANCH  12  17
ATOM     17  C   UNL     1     115.840 128.022 109.863  1.00  0.00    -0.006 C 
ATOM     18  C   UNL     1     116.836 129.040 110.452  1.00  0.00     0.008 C 
ATOM     19  C   UNL     1     114.941 127.505 111.004  1.00  0.00     0.008 C 
ENDBRANCH  12  17
ENDBRANCH  11  12
ENDBRANCH   1  11
TORSDOF 1
ENDMDL
MODEL 2
REMARK VINA RESULT:    -3.429      2.390      3.280
REMARK INTER + INTRA:          -5.237
REMARK INTER:                  -5.248
REMARK INTRA:                   0.011
REMARK UNBOUND:                -0.004
REMARK SMILES CC1=CCC[C@H](C)C(=O)C[C@H](C(C)C)C(=O)C1
REMARK SMILES IDX 8 1 9 2 6 3 7 4 5 5 4 6 3 7 2 8 1 9 10 11 11 12 15 13 16 14
REMARK SMILES IDX 17 15 12 17 13 18 14 19
REMARK H PARENT
REMARK Flexibility Score: 70.00
ROOT
ATOM      1  C   UNL     1     118.929 125.938 106.971  1.00  0.00     0.136 C 
ATOM      2  O   UNL     1     118.443 125.049 106.285  1.00  0.00    -0.299 OA
ENDROOT
BRANCH   1   3
ATOM      3  C   UNL     1     120.343 126.417 106.694  1.00  0.00     0.053 C 
ATOM      4  C   UNL     1     120.628 127.689 107.502  1.00  0.00     0.016 C 
BRANCH   3   5
ATOM      5  C   UNL     1     121.415 125.340 106.990  1.00  0.00     0.015 C 
BRANCH   5   6
ATOM      6  C   UNL     1     121.601 124.975 108.478  1.00  0.00     0.028 C 
BRANCH   6   7
ATOM      7  C   UNL     1     120.954 123.659 108.846  1.00  0.00    -0.028 C 
ATOM      8  C   UNL     1     119.815 123.519 109.566  1.00  0.00    -0.070 CG0
ATOM      9  C   UNL     1     119.298 122.122 109.802  1.00  0.00     0.039 C 
ATOM     10  G   UNL     1     119.062 124.692 110.172  1.00  0.00     0.000 G0
ENDBRANCH   6   7
ENDBRANCH   5   6
ENDBRANCH   3   5
ENDBRANCH   1   3
BRANCH   1  11
ATOM     11  C   UNL     1     118.144 126.505 108.136  1.00  0.00     0.087 C 
BRANCH  11  12
ATOM     12  C   UNL     1     117.028 125.575 108.697  1.00  0.00     0.066 C 
BRANCH  12  13
ATOM     13  C   UNL     1     117.572 124.706 109.822  1.00  0.00     0.140 C 
ATOM     14  O   UNL     1     116.810 123.986 110.454  1.00  0.00    -0.299 OA
BRANCH  13  15
ATOM     15  C   UNL     1     119.037 124.704 110.186  1.00  0.00     0.106 CG0
ATOM     16  G   UNL     1     119.794 123.535 109.579  1.00  0.00     0.000 G0
ENDBRANCH  13  15
ENDBRANCH  12  13
BRANCH  12  17
ATOM     17  C   UNL     1     115.721 126.326 109.126  1.00  0.00    -0.006 C 
ATOM     18  C   UNL     1     114.773 126.509 107.925  1.00  0.00     0.008 C 
ATOM     19  C   UNL     1     116.003 127.713 109.739  1.00  0.00     0.008 C 
ENDBRANCH  12  17
ENDBRANCH  11  12
ENDBRANCH   1  11
TORSDOF 1
ENDMDL
MODEL 3
REMARK VINA RESULT:    -3.364      1.998      3.446
REMARK INTER + INTRA:          -5.138
REMARK INTER:                  -4.762
REMARK INTRA:                  -0.377
REMARK UNBOUND:                -0.004
REMARK SMILES CC1=CCC[C@H](C)C(=O)C[C@H](C(C)C)C(=O)C1
REMARK SMILES IDX 8 1 9 2 6 3 7 4 5 5 4 6 3 7 2 8 1 9 10 11 11 12 15 13 16 14
REMARK SMILES IDX 17 15 12 17 13 18 14 19
REMARK H PARENT
REMARK Flexibility Score: 70.00
ROOT
ATOM      1  C   UNL     1     119.678 124.604 110.340  1.00  0.00     0.136 C 
ATOM      2  O   UNL     1     120.234 124.815 111.409  1.00  0.00    -0.299 OA
ENDROOT
BRANCH   1   3
ATOM      3  C   UNL     1     119.625 123.194 109.781  1.00  0.00     0.053 C 
ATOM      4  C   UNL     1     121.048 122.661 109.578  1.00  0.00     0.016 C 
BRANCH   3   5
ATOM      5  C   UNL     1     118.808 122.222 110.669  1.00  0.00     0.015 C 
BRANCH   5   6
ATOM      6  C   UNL     1     117.305 122.542 110.798  1.00  0.00     0.028 C 
BRANCH   6   7
ATOM      7  C   UNL     1     116.535 122.278 109.524  1.00  0.00    -0.028 C 
ATOM      8  C   UNL     1     116.139 123.222 108.636  1.00  0.00    -0.070 CG0
ATOM      9  C   UNL     1     115.413 122.763 107.397  1.00  0.00     0.039 C 
ATOM     10  G   UNL     1     116.360 124.711 108.847  1.00  0.00     0.000 G0
ENDBRANCH   6   7
ENDBRANCH   5   6
ENDBRANCH   3   5
ENDBRANCH   1   3
BRANCH   1  11
ATOM     11  C   UNL     1     119.105 125.762 109.548  1.00  0.00     0.087 C 
BRANCH  11  12
ATOM     12  C   UNL     1     118.788 125.450 108.056  1.00  0.00     0.066 C 
BRANCH  12  13
ATOM     13  C   UNL     1     117.284 125.362 107.838  1.00  0.00     0.140 C 
ATOM     14  O   UNL     1     116.795 125.806 106.808  1.00  0.00    -0.299 OA
BRANCH  13  15
ATOM     15  C   UNL     1     116.368 124.736 108.861  1.00  0.00     0.106 CG0
ATOM     16  G   UNL     1     116.153 123.250 108.629  1.00  0.00     0.000 G0
ENDBRANCH  13  15
ENDBRANCH  12  13
BRANCH  12  17
ATOM     17  C   UNL     1     119.464 126.431 107.037  1.00  0.00    -0.006 C 
ATOM     18  C   UNL     1     120.315 125.656 106.011  1.00  0.00     0.008 C 
ATOM     19  C   UNL     1     120.364 127.478 107.723  1.00  0.00     0.008 C 
ENDBRANCH  12  17
ENDBRANCH  11  12
ENDBRANCH   1  11
TORSDOF 1
ENDMDL
MODEL 4
REMARK VINA RESULT:    -3.345     13.916     16.345
REMARK INTER + INTRA:          -5.108
REMARK INTER:                  -4.808
REMARK INTRA:                  -0.300
REMARK UNBOUND:                -0.004
REMARK SMILES CC1=CCC[C@H](C)C(=O)C[C@H](C(C)C)C(=O)C1
REMARK SMILES IDX 8 1 9 2 6 3 7 4 5 5 4 6 3 7 2 8 1 9 10 11 11 12 15 13 16 14
REMARK SMILES IDX 17 15 12 17 13 18 14 19
REMARK H PARENT
REMARK Flexibility Score: 70.00
ROOT
ATOM      1  C   UNL     1     127.655 121.940 100.164  1.00  0.00     0.136 C 
ATOM      2  O   UNL     1     126.455 122.163 100.088  1.00  0.00    -0.299 OA
ENDROOT
BRANCH   1   3
ATOM      3  C   UNL     1     128.258 121.498 101.485  1.00  0.00     0.053 C 
ATOM      4  C   UNL     1     127.862 122.481 102.593  1.00  0.00     0.016 C 
BRANCH   3   5
ATOM      5  C   UNL     1     127.858 120.055 101.879  1.00  0.00     0.015 C 
BRANCH   5   6
ATOM      6  C   UNL     1     128.115 118.976 100.807  1.00  0.00     0.028 C 
BRANCH   6   7
ATOM      7  C   UNL     1     129.547 118.490 100.793  1.00  0.00    -0.028 C 
ATOM      8  C   UNL     1     130.492 118.855  99.892  1.00  0.00    -0.070 CG0
ATOM      9  C   UNL     1     131.881 118.294 100.063  1.00  0.00     0.039 C 
ATOM     10  G   UNL     1     130.208 119.767  98.710  1.00  0.00     0.000 G0
ENDBRANCH   6   7
ENDBRANCH   5   6
ENDBRANCH   3   5
ENDBRANCH   1   3
BRANCH   1  11
ATOM     11  C   UNL     1     128.543 122.174  98.959  1.00  0.00     0.087 C 
BRANCH  11  12
ATOM     12  C   UNL     1     130.054 122.371  99.279  1.00  0.00     0.066 C 
BRANCH  12  13
ATOM     13  C   UNL     1     130.853 121.146  98.856  1.00  0.00     0.140 C 
ATOM     14  O   UNL     1     132.050 121.256  98.624  1.00  0.00    -0.299 OA
BRANCH  13  15
ATOM     15  C   UNL     1     130.210 119.789  98.714  1.00  0.00     0.106 CG0
ATOM     16  G   UNL     1     130.488 118.878  99.898  1.00  0.00     0.000 G0
ENDBRANCH  13  15
ENDBRANCH  12  13
BRANCH  12  17
ATOM     17  C   UNL     1     130.667 123.691  98.697  1.00  0.00    -0.006 C 
ATOM     18  C   UNL     1     131.022 124.677  99.828  1.00  0.00     0.008 C 
ATOM     19  C   UNL     1     129.722 124.404  97.710  1.00  0.00     0.008 C 
ENDBRANCH  12  17
ENDBRANCH  11  12
ENDBRANCH   1  11
TORSDOF 1
ENDMDL
MODEL 5
REMARK VINA RESULT:    -3.298      2.229      4.479
REMARK INTER + INTRA:          -5.037
REMARK INTER:                  -4.838
REMARK INTRA:                  -0.198
REMARK UNBOUND:                -0.004
REMARK SMILES CC1=CCC[C@H](C)C(=O)C[C@H](C(C)C)C(=O)C1
REMARK SMILES IDX 8 1 9 2 6 3 7 4 5 5 4 6 3 7 2 8 1 9 10 11 11 12 15 13 16 14
REMARK SMILES IDX 17 15 12 17 13 18 14 19
REMARK H PARENT
REMARK Flexibility Score: 70.00
ROOT
ATOM      1  C   UNL     1     116.826 124.103 106.925  1.00  0.00     0.136 C 
ATOM      2  O   UNL     1     115.768 123.972 106.326  1.00  0.00    -0.299 OA
ENDROOT
BRANCH   1   3
ATOM      3  C   UNL     1     117.795 122.938 107.011  1.00  0.00     0.053 C 
ATOM      4  C   UNL     1     117.018 121.623 107.139  1.00  0.00     0.016 C 
BRANCH   3   5
ATOM      5  C   UNL     1     118.769 122.872 105.808  1.00  0.00     0.015 C 
BRANCH   5   6
ATOM      6  C   UNL     1     119.228 124.234 105.247  1.00  0.00     0.028 C 
BRANCH   6   7
ATOM      7  C   UNL     1     120.606 124.633 105.723  1.00  0.00    -0.028 C 
ATOM      8  C   UNL     1     120.870 125.565 106.671  1.00  0.00    -0.070 CG0
ATOM      9  C   UNL     1     122.312 125.801 107.044  1.00  0.00     0.039 C 
ATOM     10  G   UNL     1     119.792 126.400 107.342  1.00  0.00     0.000 G0
ENDBRANCH   6   7
ENDBRANCH   5   6
ENDBRANCH   3   5
ENDBRANCH   1   3
BRANCH   1  11
ATOM     11  C   UNL     1     117.132 125.406 107.637  1.00  0.00     0.087 C 
BRANCH  11  12
ATOM     12  C   UNL     1     117.998 125.269 108.924  1.00  0.00     0.066 C 
BRANCH  12  13
ATOM     13  C   UNL     1     119.381 125.866 108.703  1.00  0.00     0.140 C 
ATOM     14  O   UNL     1     120.177 125.909 109.631  1.00  0.00    -0.299 OA
BRANCH  13  15
ATOM     15  C   UNL     1     119.805 126.411 107.361  1.00  0.00     0.106 CG0
ATOM     16  G   UNL     1     120.851 125.546 106.678  1.00  0.00     0.000 G0
ENDBRANCH  13  15
ENDBRANCH  12  13
BRANCH  12  17
ATOM     17  C   UNL     1     117.321 125.839 110.217  1.00  0.00    -0.006 C 
ATOM     18  C   UNL     1     116.089 125.000 110.609  1.00  0.00     0.008 C 
ATOM     19  C   UNL     1     116.880 127.308 110.062  1.00  0.00     0.008 C 
ENDBRANCH  12  17
ENDBRANCH  11  12
ENDBRANCH   1  11
TORSDOF 1
ENDMDL
MODEL 6
REMARK VINA RESULT:    -3.259      2.365      4.648
REMARK INTER + INTRA:          -4.978
REMARK INTER:                  -4.705
REMARK INTRA:                  -0.273
REMARK UNBOUND:                -0.004
REMARK SMILES CC1=CCC[C@H](C)C(=O)C[C@H](C(C)C)C(=O)C1
REMARK SMILES IDX 8 1 9 2 6 3 7 4 5 5 4 6 3 7 2 8 1 9 10 11 11 12 15 13 16 14
REMARK SMILES IDX 17 15 12 17 13 18 14 19
REMARK H PARENT
REMARK Flexibility Score: 70.00
ROOT
ATOM      1  C   UNL     1     117.182 125.649 107.624  1.00  0.00     0.136 C 
ATOM      2  O   UNL     1     116.069 126.058 107.327  1.00  0.00    -0.299 OA
ENDROOT
BRANCH   1   3
ATOM      3  C   UNL     1     117.383 124.880 108.918  1.00  0.00     0.053 C 
ATOM      4  C   UNL     1     117.193 125.818 110.115  1.00  0.00     0.016 C 
BRANCH   3   5
ATOM      5  C   UNL     1     116.448 123.652 109.043  1.00  0.00     0.015 C 
BRANCH   5   6
ATOM      6  C   UNL     1     116.653 122.548 107.985  1.00  0.00     0.028 C 
BRANCH   6   7
ATOM      7  C   UNL     1     118.013 121.893 108.074  1.00  0.00    -0.028 C 
ATOM      8  C   UNL     1     118.987 121.975 107.135  1.00  0.00    -0.070 CG0
ATOM      9  C   UNL     1     120.297 121.286 107.417  1.00  0.00     0.039 C 
ATOM     10  G   UNL     1     118.806 122.692 105.807  1.00  0.00     0.000 G0
ENDBRANCH   6   7
ENDBRANCH   5   6
ENDBRANCH   3   5
ENDBRANCH   1   3
BRANCH   1  11
ATOM     11  C   UNL     1     118.365 125.970 106.734  1.00  0.00     0.087 C 
BRANCH  11  12
ATOM     12  C   UNL     1     119.566 124.986 106.849  1.00  0.00     0.066 C 
BRANCH  12  13
ATOM     13  C   UNL     1     119.553 123.990 105.698  1.00  0.00     0.140 C 
ATOM     14  O   UNL     1     120.154 124.252 104.665  1.00  0.00    -0.299 OA
BRANCH  13  15
ATOM     15  C   UNL     1     118.814 122.678 105.792  1.00  0.00     0.106 CG0
ATOM     16  G   UNL     1     118.998 121.993 107.136  1.00  0.00     0.000 G0
ENDBRANCH  13  15
ENDBRANCH  12  13
BRANCH  12  17
ATOM     17  C   UNL     1     120.961 125.688 106.992  1.00  0.00    -0.006 C 
ATOM     18  C   UNL     1     121.706 125.180 108.242  1.00  0.00     0.008 C 
ATOM     19  C   UNL     1     120.851 127.223 107.080  1.00  0.00     0.008 C 
ENDBRANCH  12  17
ENDBRANCH  11  12
ENDBRANCH   1  11
TORSDOF 1
ENDMDL
MODEL 7
REMARK VINA RESULT:    -3.251      3.048      5.567
REMARK INTER + INTRA:          -4.965
REMARK INTER:                  -4.729
REMARK INTRA:                  -0.236
REMARK UNBOUND:                -0.004
REMARK SMILES CC1=CCC[C@H](C)C(=O)C[C@H](C(C)C)C(=O)C1
REMARK SMILES IDX 8 1 9 2 6 3 7 4 5 5 4 6 3 7 2 8 1 9 10 11 11 12 15 13 16 14
REMARK SMILES IDX 17 15 12 17 13 18 14 19
REMARK H PARENT
REMARK Flexibility Score: 70.00
ROOT
ATOM      1  C   UNL     1     121.690 124.805 105.262  1.00  0.00     0.136 C 
ATOM      2  O   UNL     1     122.461 124.625 104.329  1.00  0.00    -0.299 OA
ENDROOT
BRANCH   1   3
ATOM      3  C   UNL     1     122.206 125.388 106.565  1.00  0.00     0.053 C 
ATOM      4  C   UNL     1     123.725 125.202 106.653  1.00  0.00     0.016 C 
BRANCH   3   5
ATOM      5  C   UNL     1     121.834 126.881 106.747  1.00  0.00     0.015 C 
BRANCH   5   6
ATOM      6  C   UNL     1     120.370 127.160 107.144  1.00  0.00     0.028 C 
BRANCH   6   7
ATOM      7  C   UNL     1     119.946 126.416 108.390  1.00  0.00    -0.028 C 
ATOM      8  C   UNL     1     119.015 125.433 108.439  1.00  0.00    -0.070 CG0
ATOM      9  C   UNL     1     118.752 124.777 109.772  1.00  0.00     0.039 C 
ATOM     10  G   UNL     1     118.205 124.989 107.232  1.00  0.00     0.000 G0
ENDBRANCH   6   7
ENDBRANCH   5   6
ENDBRANCH   3   5
ENDBRANCH   1   3
BRANCH   1  11
ATOM     11  C   UNL     1     120.242 124.379 105.135  1.00  0.00     0.087 C 
BRANCH  11  12
ATOM     12  C   UNL     1     119.806 123.222 106.081  1.00  0.00     0.066 C 
BRANCH  12  13
ATOM     13  C   UNL     1     118.502 123.568 106.784  1.00  0.00     0.140 C 
ATOM     14  O   UNL     1     117.679 122.689 107.001  1.00  0.00    -0.299 OA
BRANCH  13  15
ATOM     15  C   UNL     1     118.188 124.977 107.225  1.00  0.00     0.106 CG0
ATOM     16  G   UNL     1     119.011 125.415 108.425  1.00  0.00     0.000 G0
ENDBRANCH  13  15
ENDBRANCH  12  13
BRANCH  12  17
ATOM     17  C   UNL     1     119.735 121.818 105.388  1.00  0.00    -0.006 C 
ATOM     18  C   UNL     1     120.755 120.844 106.012  1.00  0.00     0.008 C 
ATOM     19  C   UNL     1     119.996 121.887 103.870  1.00  0.00     0.008 C 
ENDBRANCH  12  17
ENDBRANCH  11  12
ENDBRANCH   1  11
TORSDOF 1
ENDMDL
MODEL 8
REMARK VINA RESULT:    -3.093      2.819      4.661
REMARK INTER + INTRA:          -4.724
REMARK INTER:                  -4.679
REMARK INTRA:                  -0.045
REMARK UNBOUND:                -0.004
REMARK SMILES CC1=CCC[C@H](C)C(=O)C[C@H](C(C)C)C(=O)C1
REMARK SMILES IDX 8 1 9 2 6 3 7 4 5 5 4 6 3 7 2 8 1 9 10 11 11 12 15 13 16 14
REMARK SMILES IDX 17 15 12 17 13 18 14 19
REMARK H PARENT
REMARK Flexibility Score: 70.00
ROOT
ATOM      1  C   UNL     1     119.275 124.469 105.723  1.00  0.00     0.136 C 
ATOM      2  O   UNL     1     118.623 123.867 104.882  1.00  0.00    -0.299 OA
ENDROOT
BRANCH   1   3
ATOM      3  C   UNL     1     120.760 124.188 105.871  1.00  0.00     0.053 C 
ATOM      4  C   UNL     1     121.214 123.206 104.785  1.00  0.00     0.016 C 
BRANCH   3   5
ATOM      5  C   UNL     1     121.625 125.472 105.830  1.00  0.00     0.015 C 
BRANCH   5   6
ATOM      6  C   UNL     1     122.526 125.708 107.061  1.00  0.00     0.028 C 
BRANCH   6   7
ATOM      7  C   UNL     1     122.252 124.735 108.185  1.00  0.00    -0.028 C 
ATOM      8  C   UNL     1     121.236 124.832 109.077  1.00  0.00    -0.070 CG0
ATOM      9  C   UNL     1     121.098 123.741 110.109  1.00  0.00     0.039 C 
ATOM     10  G   UNL     1     120.260 125.996 109.106  1.00  0.00     0.000 G0
ENDBRANCH   6   7
ENDBRANCH   5   6
ENDBRANCH   3   5
ENDBRANCH   1   3
BRANCH   1  11
ATOM     11  C   UNL     1     118.585 125.442 106.657  1.00  0.00     0.087 C 
BRANCH  11  12
ATOM     12  C   UNL     1     118.130 124.840 108.020  1.00  0.00     0.066 C 
BRANCH  12  13
ATOM     13  C   UNL     1     118.804 125.566 109.176  1.00  0.00     0.140 C 
ATOM     14  O   UNL     1     118.166 125.808 110.192  1.00  0.00    -0.299 OA
BRANCH  13  15
ATOM     15  C   UNL     1     120.247 126.001 109.107  1.00  0.00     0.106 CG0
ATOM     16  G   UNL     1     121.214 124.830 109.062  1.00  0.00     0.000 G0
ENDBRANCH  13  15
ENDBRANCH  12  13
BRANCH  12  17
ATOM     17  C   UNL     1     116.575 124.773 108.205  1.00  0.00    -0.006 C 
ATOM     18  C   UNL     1     116.065 123.327 108.052  1.00  0.00     0.008 C 
ATOM     19  C   UNL     1     115.815 125.666 107.204  1.00  0.00     0.008 C 
ENDBRANCH  12  17
ENDBRANCH  11  12
ENDBRANCH   1  11
TORSDOF 1
ENDMDL
MODEL 9
REMARK VINA RESULT:    -3.037      1.958      4.138
REMARK INTER + INTRA:          -4.639
REMARK INTER:                  -4.201
REMARK INTRA:                  -0.438
REMARK UNBOUND:                -0.004
REMARK SMILES CC1=CCC[C@H](C)C(=O)C[C@H](C(C)C)C(=O)C1
REMARK SMILES IDX 8 1 9 2 6 3 7 4 5 5 4 6 3 7 2 8 1 9 10 11 11 12 15 13 16 14
REMARK SMILES IDX 17 15 12 17 13 18 14 19
REMARK H PARENT
REMARK Flexibility Score: 70.00
ROOT
ATOM      1  C   UNL     1     118.784 124.961 107.289  1.00  0.00     0.136 C 
ATOM      2  O   UNL     1     119.266 125.721 106.460  1.00  0.00    -0.299 OA
ENDROOT
BRANCH   1   3
ATOM      3  C   UNL     1     118.947 125.257 108.769  1.00  0.00     0.053 C 
ATOM      4  C   UNL     1     120.437 125.316 109.127  1.00  0.00     0.016 C 
BRANCH   3   5
ATOM      5  C   UNL     1     118.237 126.562 109.206  1.00  0.00     0.015 C 
BRANCH   5   6
ATOM      6  C   UNL     1     116.805 126.391 109.752  1.00  0.00     0.028 C 
BRANCH   6   7
ATOM      7  C   UNL     1     115.745 126.561 108.688  1.00  0.00    -0.028 C 
ATOM      8  C   UNL     1     114.927 125.581 108.230  1.00  0.00    -0.070 CG0
ATOM      9  C   UNL     1     113.901 125.950 107.189  1.00  0.00     0.039 C 
ATOM     10  G   UNL     1     115.022 124.135 108.687  1.00  0.00     0.000 G0
ENDBRANCH   6   7
ENDBRANCH   5   6
ENDBRANCH   3   5
ENDBRANCH   1   3
BRANCH   1  11
ATOM     11  C   UNL     1     118.089 123.694 106.835  1.00  0.00     0.087 C 
BRANCH  11  12
ATOM     12  C   UNL     1     117.262 122.963 107.934  1.00  0.00     0.066 C 
BRANCH  12  13
ATOM     13  C   UNL     1     115.776 123.241 107.757  1.00  0.00     0.140 C 
ATOM     14  O   UNL     1     115.174 122.735 106.820  1.00  0.00    -0.299 OA
BRANCH  13  15
ATOM     15  C   UNL     1     115.016 124.130 108.710  1.00  0.00     0.106 CG0
ATOM     16  G   UNL     1     114.925 125.568 108.229  1.00  0.00     0.000 G0
ENDBRANCH  13  15
ENDBRANCH  12  13
BRANCH  12  17
ATOM     17  C   UNL     1     117.555 121.427 108.043  1.00  0.00    -0.006 C 
ATOM     18  C   UNL     1     117.211 120.900 109.450  1.00  0.00     0.008 C 
ATOM     19  C   UNL     1     119.025 121.076 107.739  1.00  0.00     0.008 C 
ENDBRANCH  12  17
ENDBRANCH  11  12
ENDBRANCH   1  11
TORSDOF 1
ENDMDL
