MODEL 1
REMARK VINA RESULT:    -4.855      0.000      0.000
REMARK INTER + INTRA:         -17.018
REMARK INTER:                 -12.235
REMARK INTRA:                  -4.782
REMARK UNBOUND:                -4.782
REMARK SMILES CCCCCCCCCCCCCCCCCCCCCCCCCCCC(=O)[O-]
REMARK SMILES IDX 15 1 16 2 17 3 18 4 19 5 20 6 21 7 22 8 23 9 24 10 25 11
REMARK SMILES IDX 26 12 27 13 28 14 29 15 30 16 14 17 13 18 12 19 11 20 10 21
REMARK SMILES IDX 9 22 8 23 7 24 6 25 5 26 4 27 3 28 2 29 1 30
REMARK H PARENT
REMARK Flexibility Score: inf
ROOT
ATOM      1  C   UNL     1       7.451 -13.112  -1.100  1.00  0.00     0.000 C 
ENDROOT
BRANCH   1   2
ATOM      2  C   UNL     1       7.612 -13.567  -2.559  1.00  0.00     0.000 C 
BRANCH   2   3
ATOM      3  C   UNL     1       7.070 -12.540  -3.564  1.00  0.00     0.000 C 
BRANCH   3   4
ATOM      4  C   UNL     1       6.393 -13.239  -4.749  1.00  0.00     0.000 C 
BRANCH   4   5
ATOM      5  C   UNL     1       4.865 -13.107  -4.667  1.00  0.00     0.000 C 
BRANCH   5   6
ATOM      6  C   UNL     1       4.252 -12.412  -5.903  1.00  0.00     0.000 C 
BRANCH   6   7
ATOM      7  C   UNL     1       4.948 -11.093  -6.292  1.00  0.00     0.000 C 
BRANCH   7   8
ATOM      8  C   UNL     1       4.025 -10.039  -6.925  1.00  0.00     0.000 C 
BRANCH   8   9
ATOM      9  C   UNL     1       2.550 -10.494  -7.028  1.00  0.00     0.000 C 
BRANCH   9  10
ATOM     10  C   UNL     1       1.579  -9.483  -6.398  1.00  0.00     0.000 C 
BRANCH  10  11
ATOM     11  C   UNL     1       1.903  -8.027  -6.799  1.00  0.00     0.000 C 
BRANCH  11  12
ATOM     12  C   UNL     1       2.157  -7.097  -5.598  1.00  0.00     0.006 C 
BRANCH  12  13
ATOM     13  C   UNL     1       2.896  -5.798  -5.952  1.00  0.00     0.053 C 
BRANCH  13  14
ATOM     14  C   UNL     1       4.384  -5.940  -5.833  1.00  0.00     0.041 C 
ATOM     15  O   UNL     1       4.880  -6.830  -5.092  1.00  0.00    -0.550 OA
ATOM     16  O   UNL     1       5.224  -5.077  -6.527  1.00  0.00    -0.550 OA
ENDBRANCH  13  14
ENDBRANCH  12  13
ENDBRANCH  11  12
ENDBRANCH  10  11
ENDBRANCH   9  10
ENDBRANCH   8   9
ENDBRANCH   7   8
ENDBRANCH   6   7
ENDBRANCH   5   6
ENDBRANCH   4   5
ENDBRANCH   3   4
ENDBRANCH   2   3
ENDBRANCH   1   2
BRANCH   1  17
ATOM     17  C   UNL     1       8.773 -12.622  -0.481  1.00  0.00     0.000 C 
BRANCH  17  18
ATOM     18  C   UNL     1       8.707 -11.157  -0.019  1.00  0.00     0.000 C 
BRANCH  18  19
ATOM     19  C   UNL     1       7.306 -10.544  -0.193  1.00  0.00     0.000 C 
BRANCH  19  20
ATOM     20  C   UNL     1       7.226  -9.601  -1.406  1.00  0.00     0.000 C 
BRANCH  20  21
ATOM     21  C   UNL     1       6.328  -8.378  -1.143  1.00  0.00     0.000 C 
BRANCH  21  22
ATOM     22  C   UNL     1       4.908  -8.555  -1.702  1.00  0.00    -0.000 C 
BRANCH  22  23
ATOM     23  C   UNL     1       4.837  -9.604  -2.826  1.00  0.00    -0.000 C 
BRANCH  23  24
ATOM     24  C   UNL     1       3.397 -10.051  -3.123  1.00  0.00    -0.000 C 
BRANCH  24  25
ATOM     25  C   UNL     1       2.887 -11.109  -2.129  1.00  0.00    -0.000 C 
BRANCH  25  26
ATOM     26  C   UNL     1       4.029 -11.874  -1.435  1.00  0.00    -0.000 C 
BRANCH  26  27
ATOM     27  C   UNL     1       3.588 -13.127  -0.655  1.00  0.00    -0.000 C 
BRANCH  27  28
ATOM     28  C   UNL     1       3.952 -14.436  -1.371  1.00  0.00    -0.000 C 
BRANCH  28  29
ATOM     29  C   UNL     1       2.822 -14.883  -2.305  1.00  0.00    -0.003 C 
ATOM     30  C   UNL     1       1.556 -15.209  -1.519  1.00  0.00     0.004 C 
ENDBRANCH  28  29
ENDBRANCH  27  28
ENDBRANCH  26  27
ENDBRANCH  25  26
ENDBRANCH  24  25
ENDBRANCH  23  24
ENDBRANCH  22  23
ENDBRANCH  21  22
ENDBRANCH  20  21
ENDBRANCH  19  20
ENDBRANCH  18  19
ENDBRANCH  17  18
ENDBRANCH   1  17
TORSDOF 26
ENDMDL
MODEL 2
REMARK VINA RESULT:    -4.851      1.553      3.852
REMARK INTER + INTRA:         -17.006
REMARK INTER:                 -12.088
REMARK INTRA:                  -4.918
REMARK UNBOUND:                -4.782
REMARK SMILES CCCCCCCCCCCCCCCCCCCCCCCCCCCC(=O)[O-]
REMARK SMILES IDX 15 1 16 2 17 3 18 4 19 5 20 6 21 7 22 8 23 9 24 10 25 11
REMARK SMILES IDX 26 12 27 13 28 14 29 15 30 16 14 17 13 18 12 19 11 20 10 21
REMARK SMILES IDX 9 22 8 23 7 24 6 25 5 26 4 27 3 28 2 29 1 30
REMARK H PARENT
REMARK Flexibility Score: inf
ROOT
ATOM      1  C   UNL     1       6.771  -9.913  -0.127  1.00  0.00     0.000 C 
ENDROOT
BRANCH   1   2
ATOM      2  C   UNL     1       8.230 -10.360   0.054  1.00  0.00     0.000 C 
BRANCH   2   3
ATOM      3  C   UNL     1       8.449 -11.833  -0.319  1.00  0.00     0.000 C 
BRANCH   3   4
ATOM      4  C   UNL     1       7.304 -12.352  -1.197  1.00  0.00     0.000 C 
BRANCH   4   5
ATOM      5  C   UNL     1       7.710 -13.639  -1.930  1.00  0.00     0.000 C 
BRANCH   5   6
ATOM      6  C   UNL     1       7.231 -13.676  -3.397  1.00  0.00     0.000 C 
BRANCH   6   7
ATOM      7  C   UNL     1       6.344 -12.480  -3.798  1.00  0.00     0.000 C 
BRANCH   7   8
ATOM      8  C   UNL     1       5.333 -12.774  -4.919  1.00  0.00     0.000 C 
BRANCH   8   9
ATOM      9  C   UNL     1       5.086 -11.570  -5.857  1.00  0.00     0.000 C 
BRANCH   9  10
ATOM     10  C   UNL     1       3.590 -11.301  -6.084  1.00  0.00     0.000 C 
BRANCH  10  11
ATOM     11  C   UNL     1       3.299  -9.817  -6.395  1.00  0.00     0.000 C 
BRANCH  11  12
ATOM     12  C   UNL     1       4.565  -8.948  -6.505  1.00  0.00     0.006 C 
BRANCH  12  13
ATOM     13  C   UNL     1       4.401  -7.522  -5.958  1.00  0.00     0.053 C 
BRANCH  13  14
ATOM     14  C   UNL     1       4.870  -6.483  -6.930  1.00  0.00     0.041 C 
ATOM     15  O   UNL     1       4.944  -6.749  -8.159  1.00  0.00    -0.550 OA
ATOM     16  O   UNL     1       5.243  -5.223  -6.477  1.00  0.00    -0.550 OA
ENDBRANCH  13  14
ENDBRANCH  12  13
ENDBRANCH  11  12
ENDBRANCH  10  11
ENDBRANCH   9  10
ENDBRANCH   8   9
ENDBRANCH   7   8
ENDBRANCH   6   7
ENDBRANCH   5   6
ENDBRANCH   4   5
ENDBRANCH   3   4
ENDBRANCH   2   3
ENDBRANCH   1   2
BRANCH   1  17
ATOM     17  C   UNL     1       6.615  -8.805  -1.184  1.00  0.00     0.000 C 
BRANCH  17  18
ATOM     18  C   UNL     1       5.579  -9.155  -2.265  1.00  0.00     0.000 C 
BRANCH  18  19
ATOM     19  C   UNL     1       4.203  -9.510  -1.673  1.00  0.00     0.000 C 
BRANCH  19  20
ATOM     20  C   UNL     1       3.306 -10.252  -2.679  1.00  0.00     0.000 C 
BRANCH  20  21
ATOM     21  C   UNL     1       3.011 -11.700  -2.248  1.00  0.00     0.000 C 
BRANCH  21  22
ATOM     22  C   UNL     1       3.703 -12.079  -0.929  1.00  0.00    -0.000 C 
BRANCH  22  23
ATOM     23  C   UNL     1       3.648 -13.589  -0.641  1.00  0.00    -0.000 C 
BRANCH  23  24
ATOM     24  C   UNL     1       3.785 -14.437  -1.916  1.00  0.00    -0.000 C 
BRANCH  24  25
ATOM     25  C   UNL     1       2.794 -15.614  -1.955  1.00  0.00    -0.000 C 
BRANCH  25  26
ATOM     26  C   UNL     1       2.135 -15.793  -3.335  1.00  0.00    -0.000 C 
BRANCH  26  27
ATOM     27  C   UNL     1       2.431 -14.668  -4.344  1.00  0.00    -0.000 C 
BRANCH  27  28
ATOM     28  C   UNL     1       2.013 -15.025  -5.777  1.00  0.00    -0.000 C 
BRANCH  28  29
ATOM     29  C   UNL     1       0.581 -14.558  -6.064  1.00  0.00    -0.003 C 
ATOM     30  C   UNL     1       0.575 -13.189  -6.739  1.00  0.00     0.004 C 
ENDBRANCH  28  29
ENDBRANCH  27  28
ENDBRANCH  26  27
ENDBRANCH  25  26
ENDBRANCH  24  25
ENDBRANCH  23  24
ENDBRANCH  22  23
ENDBRANCH  21  22
ENDBRANCH  20  21
ENDBRANCH  19  20
ENDBRANCH  18  19
ENDBRANCH  17  18
ENDBRANCH   1  17
TORSDOF 26
ENDMDL
MODEL 3
REMARK VINA RESULT:    -4.824      1.932      2.871
REMARK INTER + INTRA:         -16.940
REMARK INTER:                 -12.212
REMARK INTRA:                  -4.728
REMARK UNBOUND:                -4.782
REMARK SMILES CCCCCCCCCCCCCCCCCCCCCCCCCCCC(=O)[O-]
REMARK SMILES IDX 15 1 16 2 17 3 18 4 19 5 20 6 21 7 22 8 23 9 24 10 25 11
REMARK SMILES IDX 26 12 27 13 28 14 29 15 30 16 14 17 13 18 12 19 11 20 10 21
REMARK SMILES IDX 9 22 8 23 7 24 6 25 5 26 4 27 3 28 2 29 1 30
REMARK H PARENT
REMARK Flexibility Score: inf
ROOT
ATOM      1  C   UNL     1       7.225 -12.961  -1.328  1.00  0.00     0.000 C 
ENDROOT
BRANCH   1   2
ATOM      2  C   UNL     1       7.754 -13.882  -2.438  1.00  0.00     0.000 C 
BRANCH   2   3
ATOM      3  C   UNL     1       7.446 -13.351  -3.846  1.00  0.00     0.000 C 
BRANCH   3   4
ATOM      4  C   UNL     1       6.145 -12.539  -3.852  1.00  0.00     0.000 C 
BRANCH   4   5
ATOM      5  C   UNL     1       5.235 -12.964  -5.014  1.00  0.00     0.000 C 
BRANCH   5   6
ATOM      6  C   UNL     1       4.903 -11.804  -5.978  1.00  0.00     0.000 C 
BRANCH   6   7
ATOM      7  C   UNL     1       4.157 -10.630  -5.313  1.00  0.00     0.000 C 
BRANCH   7   8
ATOM      8  C   UNL     1       2.771 -10.984  -4.748  1.00  0.00     0.000 C 
BRANCH   8   9
ATOM      9  C   UNL     1       1.934 -11.882  -5.688  1.00  0.00     0.000 C 
BRANCH   9  10
ATOM     10  C   UNL     1       0.422 -11.679  -5.500  1.00  0.00     0.000 C 
BRANCH  10  11
ATOM     11  C   UNL     1      -0.224 -10.931  -6.686  1.00  0.00     0.000 C 
BRANCH  11  12
ATOM     12  C   UNL     1      -0.212  -9.400  -6.532  1.00  0.00     0.006 C 
BRANCH  12  13
ATOM     13  C   UNL     1       0.411  -8.651  -7.720  1.00  0.00     0.053 C 
BRANCH  13  14
ATOM     14  C   UNL     1       1.904  -8.561  -7.615  1.00  0.00     0.041 C 
ATOM     15  O   UNL     1       2.437  -7.855  -6.719  1.00  0.00    -0.550 OA
ATOM     16  O   UNL     1       2.708  -9.244  -8.520  1.00  0.00    -0.550 OA
ENDBRANCH  13  14
ENDBRANCH  12  13
ENDBRANCH  11  12
ENDBRANCH  10  11
ENDBRANCH   9  10
ENDBRANCH   8   9
ENDBRANCH   7   8
ENDBRANCH   6   7
ENDBRANCH   5   6
ENDBRANCH   4   5
ENDBRANCH   3   4
ENDBRANCH   2   3
ENDBRANCH   1   2
BRANCH   1  17
ATOM     17  C   UNL     1       8.353 -12.344  -0.480  1.00  0.00     0.000 C 
BRANCH  17  18
ATOM     18  C   UNL     1       8.210 -10.822  -0.317  1.00  0.00     0.000 C 
BRANCH  18  19
ATOM     19  C   UNL     1       7.559 -10.153  -1.541  1.00  0.00     0.000 C 
BRANCH  19  20
ATOM     20  C   UNL     1       6.316  -9.328  -1.166  1.00  0.00     0.000 C 
BRANCH  20  21
ATOM     21  C   UNL     1       5.010  -9.972  -1.665  1.00  0.00     0.000 C 
BRANCH  21  22
ATOM     22  C   UNL     1       4.386 -10.923  -0.631  1.00  0.00    -0.000 C 
BRANCH  22  23
ATOM     23  C   UNL     1       3.546 -12.038  -1.279  1.00  0.00    -0.000 C 
BRANCH  23  24
ATOM     24  C   UNL     1       3.445 -13.289  -0.392  1.00  0.00    -0.000 C 
BRANCH  24  25
ATOM     25  C   UNL     1       3.529 -14.597  -1.199  1.00  0.00    -0.000 C 
BRANCH  25  26
ATOM     26  C   UNL     1       3.324 -14.379  -2.710  1.00  0.00    -0.000 C 
BRANCH  26  27
ATOM     27  C   UNL     1       1.915 -14.723  -3.227  1.00  0.00    -0.000 C 
BRANCH  27  28
ATOM     28  C   UNL     1       1.911 -15.905  -4.208  1.00  0.00    -0.000 C 
BRANCH  28  29
ATOM     29  C   UNL     1       2.061 -15.418  -5.654  1.00  0.00    -0.003 C 
ATOM     30  C   UNL     1       0.725 -15.461  -6.390  1.00  0.00     0.004 C 
ENDBRANCH  28  29
ENDBRANCH  27  28
ENDBRANCH  26  27
ENDBRANCH  25  26
ENDBRANCH  24  25
ENDBRANCH  23  24
ENDBRANCH  22  23
ENDBRANCH  21  22
ENDBRANCH  20  21
ENDBRANCH  19  20
ENDBRANCH  18  19
ENDBRANCH  17  18
ENDBRANCH   1  17
TORSDOF 26
ENDMDL
MODEL 4
REMARK VINA RESULT:    -4.821      1.261      2.874
REMARK INTER + INTRA:         -16.931
REMARK INTER:                 -12.352
REMARK INTRA:                  -4.579
REMARK UNBOUND:                -4.782
REMARK SMILES CCCCCCCCCCCCCCCCCCCCCCCCCCCC(=O)[O-]
REMARK SMILES IDX 15 1 16 2 17 3 18 4 19 5 20 6 21 7 22 8 23 9 24 10 25 11
REMARK SMILES IDX 26 12 27 13 28 14 29 15 30 16 14 17 13 18 12 19 11 20 10 21
REMARK SMILES IDX 9 22 8 23 7 24 6 25 5 26 4 27 3 28 2 29 1 30
REMARK H PARENT
REMARK Flexibility Score: inf
ROOT
ATOM      1  C   UNL     1       5.886 -13.032  -4.322  1.00  0.00     0.000 C 
ENDROOT
BRANCH   1   2
ATOM      2  C   UNL     1       5.552 -11.820  -5.204  1.00  0.00     0.000 C 
BRANCH   2   3
ATOM      3  C   UNL     1       4.193 -11.955  -5.909  1.00  0.00     0.000 C 
BRANCH   3   4
ATOM      4  C   UNL     1       3.343 -13.049  -5.252  1.00  0.00     0.000 C 
BRANCH   4   5
ATOM      5  C   UNL     1       1.856 -12.667  -5.254  1.00  0.00     0.000 C 
BRANCH   5   6
ATOM      6  C   UNL     1       1.615 -11.172  -4.952  1.00  0.00     0.000 C 
BRANCH   6   7
ATOM      7  C   UNL     1       0.841 -10.424  -6.056  1.00  0.00     0.000 C 
BRANCH   7   8
ATOM      8  C   UNL     1       1.066  -8.903  -6.084  1.00  0.00     0.000 C 
BRANCH   8   9
ATOM      9  C   UNL     1       1.783  -8.410  -7.362  1.00  0.00     0.000 C 
BRANCH   9  10
ATOM     10  C   UNL     1       2.516  -9.543  -8.098  1.00  0.00     0.000 C 
BRANCH  10  11
ATOM     11  C   UNL     1       3.797  -9.053  -8.807  1.00  0.00     0.000 C 
BRANCH  11  12
ATOM     12  C   UNL     1       4.345  -7.728  -8.247  1.00  0.00     0.006 C 
BRANCH  12  13
ATOM     13  C   UNL     1       5.126  -7.875  -6.932  1.00  0.00     0.053 C 
BRANCH  13  14
ATOM     14  C   UNL     1       5.088  -6.625  -6.106  1.00  0.00     0.041 C 
ATOM     15  O   UNL     1       5.061  -5.495  -6.662  1.00  0.00    -0.550 OA
ATOM     16  O   UNL     1       5.100  -6.706  -4.718  1.00  0.00    -0.550 OA
ENDBRANCH  13  14
ENDBRANCH  12  13
ENDBRANCH  11  12
ENDBRANCH  10  11
ENDBRANCH   9  10
ENDBRANCH   8   9
ENDBRANCH   7   8
ENDBRANCH   6   7
ENDBRANCH   5   6
ENDBRANCH   4   5
ENDBRANCH   3   4
ENDBRANCH   2   3
ENDBRANCH   1   2
BRANCH   1  17
ATOM     17  C   UNL     1       7.383 -13.118  -3.972  1.00  0.00     0.000 C 
BRANCH  17  18
ATOM     18  C   UNL     1       7.641 -13.834  -2.635  1.00  0.00     0.000 C 
BRANCH  18  19
ATOM     19  C   UNL     1       7.166 -13.013  -1.423  1.00  0.00     0.000 C 
BRANCH  19  20
ATOM     20  C   UNL     1       8.334 -12.551  -0.534  1.00  0.00     0.000 C 
BRANCH  20  21
ATOM     21  C   UNL     1       8.571 -11.032  -0.617  1.00  0.00     0.000 C 
BRANCH  21  22
ATOM     22  C   UNL     1       7.557 -10.322  -1.527  1.00  0.00    -0.000 C 
BRANCH  22  23
ATOM     23  C   UNL     1       6.684  -9.308  -0.767  1.00  0.00    -0.000 C 
BRANCH  23  24
ATOM     24  C   UNL     1       5.212  -9.743  -0.686  1.00  0.00    -0.000 C 
BRANCH  24  25
ATOM     25  C   UNL     1       4.643 -10.168  -2.051  1.00  0.00    -0.000 C 
BRANCH  25  26
ATOM     26  C   UNL     1       3.825 -11.471  -1.977  1.00  0.00    -0.000 C 
BRANCH  26  27
ATOM     27  C   UNL     1       3.644 -12.040  -0.557  1.00  0.00    -0.000 C 
BRANCH  27  28
ATOM     28  C   UNL     1       3.101 -13.476  -0.554  1.00  0.00    -0.000 C 
BRANCH  28  29
ATOM     29  C   UNL     1       3.682 -14.285  -1.720  1.00  0.00    -0.003 C 
ATOM     30  C   UNL     1       2.674 -15.308  -2.236  1.00  0.00     0.004 C 
ENDBRANCH  28  29
ENDBRANCH  27  28
ENDBRANCH  26  27
ENDBRANCH  25  26
ENDBRANCH  24  25
ENDBRANCH  23  24
ENDBRANCH  22  23
ENDBRANCH  21  22
ENDBRANCH  20  21
ENDBRANCH  19  20
ENDBRANCH  18  19
ENDBRANCH  17  18
ENDBRANCH   1  17
TORSDOF 26
ENDMDL
MODEL 5
REMARK VINA RESULT:    -4.816      2.508      4.681
REMARK INTER + INTRA:         -16.918
REMARK INTER:                 -12.587
REMARK INTRA:                  -4.330
REMARK UNBOUND:                -4.782
REMARK SMILES CCCCCCCCCCCCCCCCCCCCCCCCCCCC(=O)[O-]
REMARK SMILES IDX 15 1 16 2 17 3 18 4 19 5 20 6 21 7 22 8 23 9 24 10 25 11
REMARK SMILES IDX 26 12 27 13 28 14 29 15 30 16 14 17 13 18 12 19 11 20 10 21
REMARK SMILES IDX 9 22 8 23 7 24 6 25 5 26 4 27 3 28 2 29 1 30
REMARK H PARENT
REMARK Flexibility Score: inf
ROOT
ATOM      1  C   UNL     1       6.832  -9.360  -0.009  1.00  0.00     0.000 C 
ENDROOT
BRANCH   1   2
ATOM      2  C   UNL     1       8.081 -10.218   0.241  1.00  0.00     0.000 C 
BRANCH   2   3
ATOM      3  C   UNL     1       8.395 -11.162  -0.930  1.00  0.00     0.000 C 
BRANCH   3   4
ATOM      4  C   UNL     1       8.137 -12.622  -0.540  1.00  0.00     0.000 C 
BRANCH   4   5
ATOM      5  C   UNL     1       7.451 -13.385  -1.683  1.00  0.00     0.000 C 
BRANCH   5   6
ATOM      6  C   UNL     1       7.341 -12.557  -2.981  1.00  0.00     0.000 C 
BRANCH   6   7
ATOM      7  C   UNL     1       6.907 -13.376  -4.213  1.00  0.00     0.000 C 
BRANCH   7   8
ATOM      8  C   UNL     1       5.525 -13.005  -4.779  1.00  0.00     0.000 C 
BRANCH   8   9
ATOM      9  C   UNL     1       5.411 -11.523  -5.205  1.00  0.00     0.000 C 
BRANCH   9  10
ATOM     10  C   UNL     1       4.293 -11.292  -6.234  1.00  0.00     0.000 C 
BRANCH  10  11
ATOM     11  C   UNL     1       2.892 -11.261  -5.585  1.00  0.00     0.000 C 
BRANCH  11  12
ATOM     12  C   UNL     1       1.798 -10.689  -6.504  1.00  0.00     0.006 C 
BRANCH  12  13
ATOM     13  C   UNL     1       2.335  -9.907  -7.713  1.00  0.00     0.053 C 
BRANCH  13  14
ATOM     14  C   UNL     1       2.505  -8.448  -7.416  1.00  0.00     0.041 C 
ATOM     15  O   UNL     1       1.524  -7.760  -7.025  1.00  0.00    -0.550 OA
ATOM     16  O   UNL     1       3.743  -7.841  -7.586  1.00  0.00    -0.550 OA
ENDBRANCH  13  14
ENDBRANCH  12  13
ENDBRANCH  11  12
ENDBRANCH  10  11
ENDBRANCH   9  10
ENDBRANCH   8   9
ENDBRANCH   7   8
ENDBRANCH   6   7
ENDBRANCH   5   6
ENDBRANCH   4   5
ENDBRANCH   3   4
ENDBRANCH   2   3
ENDBRANCH   1   2
BRANCH   1  17
ATOM     17  C   UNL     1       6.513  -9.195  -1.507  1.00  0.00     0.000 C 
BRANCH  17  18
ATOM     18  C   UNL     1       5.099  -9.674  -1.870  1.00  0.00     0.000 C 
BRANCH  18  19
ATOM     19  C   UNL     1       4.615 -10.829  -0.975  1.00  0.00     0.000 C 
BRANCH  19  20
ATOM     20  C   UNL     1       3.903 -11.933  -1.775  1.00  0.00     0.000 C 
BRANCH  20  21
ATOM     21  C   UNL     1       3.735 -13.232  -0.966  1.00  0.00     0.000 C 
BRANCH  21  22
ATOM     22  C   UNL     1       3.773 -14.489  -1.850  1.00  0.00    -0.000 C 
BRANCH  22  23
ATOM     23  C   UNL     1       2.406 -15.187  -1.949  1.00  0.00    -0.000 C 
BRANCH  23  24
ATOM     24  C   UNL     1       1.624 -14.775  -3.208  1.00  0.00    -0.000 C 
BRANCH  24  25
ATOM     25  C   UNL     1       2.396 -15.068  -4.507  1.00  0.00    -0.000 C 
BRANCH  25  26
ATOM     26  C   UNL     1       1.663 -14.560  -5.763  1.00  0.00    -0.000 C 
BRANCH  26  27
ATOM     27  C   UNL     1       1.241 -15.661  -6.753  1.00  0.00    -0.000 C 
BRANCH  27  28
ATOM     28  C   UNL     1       2.040 -16.960  -6.580  1.00  0.00    -0.000 C 
BRANCH  28  29
ATOM     29  C   UNL     1       1.207 -18.177  -6.997  1.00  0.00    -0.003 C 
ATOM     30  C   UNL     1       0.248 -17.825  -8.130  1.00  0.00     0.004 C 
ENDBRANCH  28  29
ENDBRANCH  27  28
ENDBRANCH  26  27
ENDBRANCH  25  26
ENDBRANCH  24  25
ENDBRANCH  23  24
ENDBRANCH  22  23
ENDBRANCH  21  22
ENDBRANCH  20  21
ENDBRANCH  19  20
ENDBRANCH  18  19
ENDBRANCH  17  18
ENDBRANCH   1  17
TORSDOF 26
ENDMDL
MODEL 6
REMARK VINA RESULT:    -4.798      1.843      4.828
REMARK INTER + INTRA:         -16.874
REMARK INTER:                 -12.201
REMARK INTRA:                  -4.673
REMARK UNBOUND:                -4.782
REMARK SMILES CCCCCCCCCCCCCCCCCCCCCCCCCCCC(=O)[O-]
REMARK SMILES IDX 15 1 16 2 17 3 18 4 19 5 20 6 21 7 22 8 23 9 24 10 25 11
REMARK SMILES IDX 26 12 27 13 28 14 29 15 30 16 14 17 13 18 12 19 11 20 10 21
REMARK SMILES IDX 9 22 8 23 7 24 6 25 5 26 4 27 3 28 2 29 1 30
REMARK H PARENT
REMARK Flexibility Score: inf
ROOT
ATOM      1  C   UNL     1       7.652 -10.328   0.392  1.00  0.00     0.000 C 
ENDROOT
BRANCH   1   2
ATOM      2  C   UNL     1       6.386  -9.661  -0.166  1.00  0.00     0.000 C 
BRANCH   2   3
ATOM      3  C   UNL     1       6.533  -9.247  -1.638  1.00  0.00     0.000 C 
BRANCH   3   4
ATOM      4  C   UNL     1       5.465  -9.923  -2.506  1.00  0.00     0.000 C 
BRANCH   4   5
ATOM      5  C   UNL     1       4.185 -10.187  -1.700  1.00  0.00     0.000 C 
BRANCH   5   6
ATOM      6  C   UNL     1       2.910 -10.186  -2.571  1.00  0.00     0.000 C 
BRANCH   6   7
ATOM      7  C   UNL     1       2.217  -8.812  -2.668  1.00  0.00     0.000 C 
BRANCH   7   8
ATOM      8  C   UNL     1       2.339  -8.124  -4.038  1.00  0.00     0.000 C 
BRANCH   8   9
ATOM      9  C   UNL     1       3.276  -6.894  -4.028  1.00  0.00     0.000 C 
BRANCH   9  10
ATOM     10  C   UNL     1       2.670  -5.689  -4.767  1.00  0.00     0.000 C 
BRANCH  10  11
ATOM     11  C   UNL     1       3.205  -5.554  -6.209  1.00  0.00     0.000 C 
BRANCH  11  12
ATOM     12  C   UNL     1       4.738  -5.661  -6.313  1.00  0.00     0.006 C 
BRANCH  12  13
ATOM     13  C   UNL     1       5.483  -4.352  -6.008  1.00  0.00     0.053 C 
BRANCH  13  14
ATOM     14  C   UNL     1       6.251  -4.421  -4.723  1.00  0.00     0.041 C 
ATOM     15  O   UNL     1       7.448  -4.812  -4.717  1.00  0.00    -0.550 OA
ATOM     16  O   UNL     1       5.638  -4.070  -3.526  1.00  0.00    -0.550 OA
ENDBRANCH  13  14
ENDBRANCH  12  13
ENDBRANCH  11  12
ENDBRANCH  10  11
ENDBRANCH   9  10
ENDBRANCH   8   9
ENDBRANCH   7   8
ENDBRANCH   6   7
ENDBRANCH   5   6
ENDBRANCH   4   5
ENDBRANCH   3   4
ENDBRANCH   2   3
ENDBRANCH   1   2
BRANCH   1  17
ATOM     17  C   UNL     1       8.419 -11.132  -0.674  1.00  0.00     0.000 C 
BRANCH  17  18
ATOM     18  C   UNL     1       8.125 -12.640  -0.607  1.00  0.00     0.000 C 
BRANCH  18  19
ATOM     19  C   UNL     1       7.041 -13.078  -1.608  1.00  0.00     0.000 C 
BRANCH  19  20
ATOM     20  C   UNL     1       7.639 -13.624  -2.916  1.00  0.00     0.000 C 
BRANCH  20  21
ATOM     21  C   UNL     1       6.904 -13.099  -4.163  1.00  0.00     0.000 C 
BRANCH  21  22
ATOM     22  C   UNL     1       5.375 -13.156  -4.018  1.00  0.00    -0.000 C 
BRANCH  22  23
ATOM     23  C   UNL     1       4.647 -13.095  -5.372  1.00  0.00    -0.000 C 
BRANCH  23  24
ATOM     24  C   UNL     1       4.041 -11.711  -5.654  1.00  0.00    -0.000 C 
BRANCH  24  25
ATOM     25  C   UNL     1       4.948 -10.835  -6.535  1.00  0.00    -0.000 C 
BRANCH  25  26
ATOM     26  C   UNL     1       4.448  -9.383  -6.648  1.00  0.00    -0.000 C 
BRANCH  26  27
ATOM     27  C   UNL     1       4.184  -8.900  -8.086  1.00  0.00    -0.000 C 
BRANCH  27  28
ATOM     28  C   UNL     1       2.769  -9.237  -8.580  1.00  0.00    -0.000 C 
BRANCH  28  29
ATOM     29  C   UNL     1       1.708  -8.549  -7.713  1.00  0.00    -0.003 C 
ATOM     30  C   UNL     1       0.791  -9.573  -7.051  1.00  0.00     0.004 C 
ENDBRANCH  28  29
ENDBRANCH  27  28
ENDBRANCH  26  27
ENDBRANCH  25  26
ENDBRANCH  24  25
ENDBRANCH  23  24
ENDBRANCH  22  23
ENDBRANCH  21  22
ENDBRANCH  20  21
ENDBRANCH  19  20
ENDBRANCH  18  19
ENDBRANCH  17  18
ENDBRANCH   1  17
TORSDOF 26
ENDMDL
MODEL 7
REMARK VINA RESULT:    -4.776      3.207      6.491
REMARK INTER + INTRA:         -16.817
REMARK INTER:                 -11.817
REMARK INTRA:                  -5.000
REMARK UNBOUND:                -4.782
REMARK SMILES CCCCCCCCCCCCCCCCCCCCCCCCCCCC(=O)[O-]
REMARK SMILES IDX 15 1 16 2 17 3 18 4 19 5 20 6 21 7 22 8 23 9 24 10 25 11
REMARK SMILES IDX 26 12 27 13 28 14 29 15 30 16 14 17 13 18 12 19 11 20 10 21
REMARK SMILES IDX 9 22 8 23 7 24 6 25 5 26 4 27 3 28 2 29 1 30
REMARK H PARENT
REMARK Flexibility Score: inf
ROOT
ATOM      1  C   UNL     1       5.093 -10.584  -1.188  1.00  0.00     0.000 C 
ENDROOT
BRANCH   1   2
ATOM      2  C   UNL     1       6.327 -10.198  -0.360  1.00  0.00     0.000 C 
BRANCH   2   3
ATOM      3  C   UNL     1       7.595 -10.055  -1.217  1.00  0.00     0.000 C 
BRANCH   3   4
ATOM      4  C   UNL     1       8.750 -10.870  -0.625  1.00  0.00     0.000 C 
BRANCH   4   5
ATOM      5  C   UNL     1       8.263 -12.240  -0.133  1.00  0.00     0.000 C 
BRANCH   5   6
ATOM      6  C   UNL     1       8.390 -13.347  -1.203  1.00  0.00     0.000 C 
BRANCH   6   7
ATOM      7  C   UNL     1       7.112 -13.561  -2.039  1.00  0.00     0.000 C 
BRANCH   7   8
ATOM      8  C   UNL     1       7.295 -13.378  -3.555  1.00  0.00     0.000 C 
BRANCH   8   9
ATOM      9  C   UNL     1       6.349 -12.318  -4.166  1.00  0.00     0.000 C 
BRANCH   9  10
ATOM     10  C   UNL     1       5.253 -12.947  -5.041  1.00  0.00     0.000 C 
BRANCH  10  11
ATOM     11  C   UNL     1       3.855 -12.855  -4.391  1.00  0.00     0.000 C 
BRANCH  11  12
ATOM     12  C   UNL     1       3.446 -14.124  -3.622  1.00  0.00     0.006 C 
BRANCH  12  13
ATOM     13  C   UNL     1       3.628 -14.025  -2.099  1.00  0.00     0.053 C 
BRANCH  13  14
ATOM     14  C   UNL     1       2.979 -15.165  -1.374  1.00  0.00     0.041 C 
ATOM     15  O   UNL     1       2.963 -15.191  -0.115  1.00  0.00    -0.550 OA
ATOM     16  O   UNL     1       2.405 -16.209  -2.090  1.00  0.00    -0.550 OA
ENDBRANCH  13  14
ENDBRANCH  12  13
ENDBRANCH  11  12
ENDBRANCH  10  11
ENDBRANCH   9  10
ENDBRANCH   8   9
ENDBRANCH   7   8
ENDBRANCH   6   7
ENDBRANCH   5   6
ENDBRANCH   4   5
ENDBRANCH   3   4
ENDBRANCH   2   3
ENDBRANCH   1   2
BRANCH   1  17
ATOM     17  C   UNL     1       4.452  -9.378  -1.899  1.00  0.00     0.000 C 
BRANCH  17  18
ATOM     18  C   UNL     1       3.235  -9.769  -2.754  1.00  0.00     0.000 C 
BRANCH  18  19
ATOM     19  C   UNL     1       3.183  -9.010  -4.092  1.00  0.00     0.000 C 
BRANCH  19  20
ATOM     20  C   UNL     1       4.465  -9.193  -4.921  1.00  0.00     0.000 C 
BRANCH  20  21
ATOM     21  C   UNL     1       4.257  -8.865  -6.410  1.00  0.00     0.000 C 
BRANCH  21  22
ATOM     22  C   UNL     1       3.579 -10.010  -7.180  1.00  0.00    -0.000 C 
BRANCH  22  23
ATOM     23  C   UNL     1       2.549  -9.508  -8.207  1.00  0.00    -0.000 C 
BRANCH  23  24
ATOM     24  C   UNL     1       1.617  -8.432  -7.628  1.00  0.00    -0.000 C 
BRANCH  24  25
ATOM     25  C   UNL     1       0.230  -8.987  -7.257  1.00  0.00    -0.000 C 
BRANCH  25  26
ATOM     26  C   UNL     1       0.084  -9.267  -5.749  1.00  0.00    -0.000 C 
BRANCH  26  27
ATOM     27  C   UNL     1       0.008 -10.759  -5.374  1.00  0.00    -0.000 C 
BRANCH  27  28
ATOM     28  C   UNL     1      -0.128 -11.677  -6.598  1.00  0.00    -0.000 C 
BRANCH  28  29
ATOM     29  C   UNL     1       1.064 -12.635  -6.700  1.00  0.00    -0.003 C 
ATOM     30  C   UNL     1       0.616 -14.087  -6.561  1.00  0.00     0.004 C 
ENDBRANCH  28  29
ENDBRANCH  27  28
ENDBRANCH  26  27
ENDBRANCH  25  26
ENDBRANCH  24  25
ENDBRANCH  23  24
ENDBRANCH  22  23
ENDBRANCH  21  22
ENDBRANCH  20  21
ENDBRANCH  19  20
ENDBRANCH  18  19
ENDBRANCH  17  18
ENDBRANCH   1  17
TORSDOF 26
ENDMDL
MODEL 8
REMARK VINA RESULT:    -4.765      3.179      6.434
REMARK INTER + INTRA:         -16.790
REMARK INTER:                 -11.885
REMARK INTRA:                  -4.905
REMARK UNBOUND:                -4.782
REMARK SMILES CCCCCCCCCCCCCCCCCCCCCCCCCCCC(=O)[O-]
REMARK SMILES IDX 15 1 16 2 17 3 18 4 19 5 20 6 21 7 22 8 23 9 24 10 25 11
REMARK SMILES IDX 26 12 27 13 28 14 29 15 30 16 14 17 13 18 12 19 11 20 10 21
REMARK SMILES IDX 9 22 8 23 7 24 6 25 5 26 4 27 3 28 2 29 1 30
REMARK H PARENT
REMARK Flexibility Score: inf
ROOT
ATOM      1  C   UNL     1       7.569 -13.712  -3.087  1.00  0.00     0.000 C 
ENDROOT
BRANCH   1   2
ATOM      2  C   UNL     1       7.157 -13.165  -1.712  1.00  0.00     0.000 C 
BRANCH   2   3
ATOM      3  C   UNL     1       8.363 -12.817  -0.827  1.00  0.00     0.000 C 
BRANCH   3   4
ATOM      4  C   UNL     1       8.309 -11.351  -0.379  1.00  0.00     0.000 C 
BRANCH   4   5
ATOM      5  C   UNL     1       7.738 -10.457  -1.489  1.00  0.00     0.000 C 
BRANCH   5   6
ATOM      6  C   UNL     1       6.842  -9.321  -0.949  1.00  0.00     0.000 C 
BRANCH   6   7
ATOM      7  C   UNL     1       5.334  -9.554  -1.165  1.00  0.00     0.000 C 
BRANCH   7   8
ATOM      8  C   UNL     1       4.977 -10.314  -2.454  1.00  0.00     0.000 C 
BRANCH   8   9
ATOM      9  C   UNL     1       3.455 -10.427  -2.702  1.00  0.00     0.000 C 
BRANCH   9  10
ATOM     10  C   UNL     1       2.894 -11.798  -2.292  1.00  0.00     0.000 C 
BRANCH  10  11
ATOM     11  C   UNL     1       2.952 -12.026  -0.766  1.00  0.00     0.000 C 
BRANCH  11  12
ATOM     12  C   UNL     1       3.744 -13.281  -0.358  1.00  0.00     0.006 C 
BRANCH  12  13
ATOM     13  C   UNL     1       3.608 -14.458  -1.337  1.00  0.00     0.053 C 
BRANCH  13  14
ATOM     14  C   UNL     1       2.575 -15.450  -0.894  1.00  0.00     0.041 C 
ATOM     15  O   UNL     1       2.277 -16.428  -1.629  1.00  0.00    -0.550 OA
ATOM     16  O   UNL     1       1.929 -15.284   0.325  1.00  0.00    -0.550 OA
ENDBRANCH  13  14
ENDBRANCH  12  13
ENDBRANCH  11  12
ENDBRANCH  10  11
ENDBRANCH   9  10
ENDBRANCH   8   9
ENDBRANCH   7   8
ENDBRANCH   6   7
ENDBRANCH   5   6
ENDBRANCH   4   5
ENDBRANCH   3   4
ENDBRANCH   2   3
ENDBRANCH   1   2
BRANCH   1  17
ATOM     17  C   UNL     1       6.862 -12.990  -4.250  1.00  0.00     0.000 C 
BRANCH  17  18
ATOM     18  C   UNL     1       5.378 -13.372  -4.372  1.00  0.00     0.000 C 
BRANCH  18  19
ATOM     19  C   UNL     1       4.701 -12.733  -5.598  1.00  0.00     0.000 C 
BRANCH  19  20
ATOM     20  C   UNL     1       5.252 -11.331  -5.908  1.00  0.00     0.000 C 
BRANCH  20  21
ATOM     21  C   UNL     1       4.256 -10.469  -6.704  1.00  0.00     0.000 C 
BRANCH  21  22
ATOM     22  C   UNL     1       4.216  -9.010  -6.221  1.00  0.00    -0.000 C 
BRANCH  22  23
ATOM     23  C   UNL     1       3.486  -8.078  -7.203  1.00  0.00    -0.000 C 
BRANCH  23  24
ATOM     24  C   UNL     1       2.221  -7.454  -6.593  1.00  0.00    -0.000 C 
BRANCH  24  25
ATOM     25  C   UNL     1       2.083  -7.746  -5.088  1.00  0.00    -0.000 C 
BRANCH  25  26
ATOM     26  C   UNL     1       0.858  -8.620  -4.760  1.00  0.00    -0.000 C 
BRANCH  26  27
ATOM     27  C   UNL     1       0.436  -9.588  -5.880  1.00  0.00    -0.000 C 
BRANCH  27  28
ATOM     28  C   UNL     1       0.819 -11.046  -5.586  1.00  0.00    -0.000 C 
BRANCH  28  29
ATOM     29  C   UNL     1       0.906 -11.863  -6.880  1.00  0.00    -0.003 C 
ATOM     30  C   UNL     1       0.333 -13.264  -6.685  1.00  0.00     0.004 C 
ENDBRANCH  28  29
ENDBRANCH  27  28
ENDBRANCH  26  27
ENDBRANCH  25  26
ENDBRANCH  24  25
ENDBRANCH  23  24
ENDBRANCH  22  23
ENDBRANCH  21  22
ENDBRANCH  20  21
ENDBRANCH  19  20
ENDBRANCH  18  19
ENDBRANCH  17  18
ENDBRANCH   1  17
TORSDOF 26
ENDMDL
MODEL 9
REMARK VINA RESULT:    -4.723      2.934      4.840
REMARK INTER + INTRA:         -16.685
REMARK INTER:                 -11.331
REMARK INTRA:                  -5.354
REMARK UNBOUND:                -4.782
REMARK SMILES CCCCCCCCCCCCCCCCCCCCCCCCCCCC(=O)[O-]
REMARK SMILES IDX 15 1 16 2 17 3 18 4 19 5 20 6 21 7 22 8 23 9 24 10 25 11
REMARK SMILES IDX 26 12 27 13 28 14 29 15 30 16 14 17 13 18 12 19 11 20 10 21
REMARK SMILES IDX 9 22 8 23 7 24 6 25 5 26 4 27 3 28 2 29 1 30
REMARK H PARENT
REMARK Flexibility Score: inf
ROOT
ATOM      1  C   UNL     1       3.710 -13.680  -4.645  1.00  0.00     0.000 C 
ENDROOT
BRANCH   1   2
ATOM      2  C   UNL     1       2.521 -12.717  -4.506  1.00  0.00     0.000 C 
BRANCH   2   3
ATOM      3  C   UNL     1       2.883 -11.271  -4.877  1.00  0.00     0.000 C 
BRANCH   3   4
ATOM      4  C   UNL     1       3.362 -11.182  -6.330  1.00  0.00     0.000 C 
BRANCH   4   5
ATOM      5  C   UNL     1       4.465 -10.125  -6.483  1.00  0.00     0.000 C 
BRANCH   5   6
ATOM      6  C   UNL     1       4.195  -8.846  -5.660  1.00  0.00     0.000 C 
BRANCH   6   7
ATOM      7  C   UNL     1       3.588  -7.689  -6.478  1.00  0.00     0.000 C 
BRANCH   7   8
ATOM      8  C   UNL     1       2.052  -7.681  -6.540  1.00  0.00     0.000 C 
BRANCH   8   9
ATOM      9  C   UNL     1       1.485  -8.252  -7.861  1.00  0.00     0.000 C 
BRANCH   9  10
ATOM     10  C   UNL     1       0.166  -9.013  -7.652  1.00  0.00     0.000 C 
BRANCH  10  11
ATOM     11  C   UNL     1      -0.070  -9.387  -6.172  1.00  0.00     0.000 C 
BRANCH  11  12
ATOM     12  C   UNL     1      -0.972 -10.620  -5.983  1.00  0.00     0.006 C 
BRANCH  12  13
ATOM     13  C   UNL     1      -0.396 -11.919  -6.569  1.00  0.00     0.053 C 
BRANCH  13  14
ATOM     14  C   UNL     1      -1.175 -13.128  -6.147  1.00  0.00     0.041 C 
ATOM     15  O   UNL     1      -0.613 -14.253  -6.074  1.00  0.00    -0.550 OA
ATOM     16  O   UNL     1      -2.528 -13.016  -5.850  1.00  0.00    -0.550 OA
ENDBRANCH  13  14
ENDBRANCH  12  13
ENDBRANCH  11  12
ENDBRANCH  10  11
ENDBRANCH   9  10
ENDBRANCH   8   9
ENDBRANCH   7   8
ENDBRANCH   6   7
ENDBRANCH   5   6
ENDBRANCH   4   5
ENDBRANCH   3   4
ENDBRANCH   2   3
ENDBRANCH   1   2
BRANCH   1  17
ATOM     17  C   UNL     1       4.848 -13.367  -3.656  1.00  0.00     0.000 C 
BRANCH  17  18
ATOM     18  C   UNL     1       6.164 -13.000  -4.360  1.00  0.00     0.000 C 
BRANCH  18  19
ATOM     19  C   UNL     1       7.357 -12.933  -3.390  1.00  0.00     0.000 C 
BRANCH  19  20
ATOM     20  C   UNL     1       6.974 -13.351  -1.960  1.00  0.00     0.000 C 
BRANCH  20  21
ATOM     21  C   UNL     1       7.877 -12.704  -0.895  1.00  0.00     0.000 C 
BRANCH  21  22
ATOM     22  C   UNL     1       8.159 -11.220  -1.178  1.00  0.00    -0.000 C 
BRANCH  22  23
ATOM     23  C   UNL     1       7.106 -10.286  -0.556  1.00  0.00    -0.000 C 
BRANCH  23  24
ATOM     24  C   UNL     1       6.450  -9.364  -1.596  1.00  0.00    -0.000 C 
BRANCH  24  25
ATOM     25  C   UNL     1       5.204  -9.993  -2.245  1.00  0.00    -0.000 C 
BRANCH  25  26
ATOM     26  C   UNL     1       3.930  -9.798  -1.402  1.00  0.00    -0.000 C 
BRANCH  26  27
ATOM     27  C   UNL     1       3.076 -11.066  -1.218  1.00  0.00    -0.000 C 
BRANCH  27  28
ATOM     28  C   UNL     1       3.838 -12.203  -0.521  1.00  0.00    -0.000 C 
BRANCH  28  29
ATOM     29  C   UNL     1       2.879 -13.313  -0.075  1.00  0.00    -0.003 C 
ATOM     30  C   UNL     1       3.292 -14.663  -0.656  1.00  0.00     0.004 C 
ENDBRANCH  28  29
ENDBRANCH  27  28
ENDBRANCH  26  27
ENDBRANCH  25  26
ENDBRANCH  24  25
ENDBRANCH  23  24
ENDBRANCH  22  23
ENDBRANCH  21  22
ENDBRANCH  20  21
ENDBRANCH  19  20
ENDBRANCH  18  19
ENDBRANCH  17  18
ENDBRANCH   1  17
TORSDOF 26
ENDMDL
