MODEL 1
REMARK VINA RESULT:    -3.135      0.000      0.000
REMARK INTER + INTRA:          -7.355
REMARK INTER:                  -5.335
REMARK INTRA:                  -2.020
REMARK UNBOUND:                -2.020
REMARK SMILES CCCCCCCCCCCCCC(=O)[O-]
REMARK SMILES IDX 8 1 9 2 10 3 11 4 12 5 13 6 14 7 15 8 16 9 7 10 6 11 5 12
REMARK SMILES IDX 4 13 3 14 2 15 1 16
REMARK H PARENT
REMARK Flexibility Score: inf
ROOT
ATOM      1  C   UNL     1      58.381  29.277  52.679  1.00  0.00     0.000 C 
ENDROOT
BRANCH   1   2
ATOM      2  C   UNL     1      57.147  30.151  52.406  1.00  0.00     0.000 C 
BRANCH   2   3
ATOM      3  C   UNL     1      55.869  29.324  52.186  1.00  0.00     0.000 C 
BRANCH   3   4
ATOM      4  C   UNL     1      55.514  29.156  50.698  1.00  0.00     0.000 C 
BRANCH   4   5
ATOM      5  C   UNL     1      54.180  28.436  50.427  1.00  0.00     0.006 C 
BRANCH   5   6
ATOM      6  C   UNL     1      53.919  27.277  51.399  1.00  0.00     0.053 C 
BRANCH   6   7
ATOM      7  C   UNL     1      53.876  25.977  50.661  1.00  0.00     0.041 C 
ATOM      8  O   UNL     1      54.379  25.885  49.511  1.00  0.00    -0.550 OA
ATOM      9  O   UNL     1      53.236  24.879  51.222  1.00  0.00    -0.550 OA
ENDBRANCH   6   7
ENDBRANCH   5   6
ENDBRANCH   4   5
ENDBRANCH   3   4
ENDBRANCH   2   3
ENDBRANCH   1   2
BRANCH   1  10
ATOM     10  C   UNL     1      59.583  29.662  51.798  1.00  0.00     0.000 C 
BRANCH  10  11
ATOM     11  C   UNL     1      59.175  29.983  50.351  1.00  0.00    -0.000 C 
BRANCH  11  12
ATOM     12  C   UNL     1      59.104  28.729  49.462  1.00  0.00    -0.000 C 
BRANCH  12  13
ATOM     13  C   UNL     1      60.106  27.646  49.892  1.00  0.00    -0.000 C 
BRANCH  13  14
ATOM     14  C   UNL     1      59.437  26.277  50.109  1.00  0.00    -0.000 C 
BRANCH  14  15
ATOM     15  C   UNL     1      57.930  26.395  50.385  1.00  0.00    -0.003 C 
ATOM     16  C   UNL     1      57.536  25.840  51.754  1.00  0.00     0.004 C 
ENDBRANCH  14  15
ENDBRANCH  13  14
ENDBRANCH  12  13
ENDBRANCH  11  12
ENDBRANCH  10  11
ENDBRANCH   1  10
TORSDOF 12
ENDMDL
MODEL 2
REMARK VINA RESULT:    -3.029      3.768      6.371
REMARK INTER + INTRA:          -7.175
REMARK INTER:                  -5.534
REMARK INTRA:                  -1.641
REMARK UNBOUND:                -2.020
REMARK SMILES CCCCCCCCCCCCCC(=O)[O-]
REMARK SMILES IDX 8 1 9 2 10 3 11 4 12 5 13 6 14 7 15 8 16 9 7 10 6 11 5 12
REMARK SMILES IDX 4 13 3 14 2 15 1 16
REMARK H PARENT
REMARK Flexibility Score: inf
ROOT
ATOM      1  C   UNL     1      57.652  28.244  51.700  1.00  0.00     0.000 C 
ENDROOT
BRANCH   1   2
ATOM      2  C   UNL     1      57.406  29.160  50.491  1.00  0.00     0.000 C 
BRANCH   2   3
ATOM      3  C   UNL     1      58.687  29.442  49.688  1.00  0.00     0.000 C 
BRANCH   3   4
ATOM      4  C   UNL     1      59.560  28.188  49.497  1.00  0.00     0.000 C 
BRANCH   4   5
ATOM      5  C   UNL     1      61.043  28.370  49.868  1.00  0.00     0.006 C 
BRANCH   5   6
ATOM      6  C   UNL     1      61.243  29.203  51.141  1.00  0.00     0.053 C 
BRANCH   6   7
ATOM      7  C   UNL     1      62.110  30.389  50.857  1.00  0.00     0.041 C 
ATOM      8  O   UNL     1      61.644  31.379  50.236  1.00  0.00    -0.550 OA
ATOM      9  O   UNL     1      63.447  30.380  51.235  1.00  0.00    -0.550 OA
ENDBRANCH   6   7
ENDBRANCH   5   6
ENDBRANCH   4   5
ENDBRANCH   3   4
ENDBRANCH   2   3
ENDBRANCH   1   2
BRANCH   1  10
ATOM     10  C   UNL     1      56.674  27.057  51.750  1.00  0.00     0.000 C 
BRANCH  10  11
ATOM     11  C   UNL     1      56.188  26.634  50.354  1.00  0.00    -0.000 C 
BRANCH  11  12
ATOM     12  C   UNL     1      54.667  26.403  50.301  1.00  0.00    -0.000 C 
BRANCH  12  13
ATOM     13  C   UNL     1      53.884  27.457  51.098  1.00  0.00    -0.000 C 
BRANCH  13  14
ATOM     14  C   UNL     1      53.506  28.682  50.246  1.00  0.00    -0.000 C 
BRANCH  14  15
ATOM     15  C   UNL     1      53.911  30.008  50.908  1.00  0.00    -0.003 C 
ATOM     16  C   UNL     1      54.262  29.846  52.387  1.00  0.00     0.004 C 
ENDBRANCH  14  15
ENDBRANCH  13  14
ENDBRANCH  12  13
ENDBRANCH  11  12
ENDBRANCH  10  11
ENDBRANCH   1  10
TORSDOF 12
ENDMDL
MODEL 3
REMARK VINA RESULT:    -2.993      3.349      6.110
REMARK INTER + INTRA:          -7.114
REMARK INTER:                  -5.631
REMARK INTRA:                  -1.482
REMARK UNBOUND:                -2.020
REMARK SMILES CCCCCCCCCCCCCC(=O)[O-]
REMARK SMILES IDX 8 1 9 2 10 3 11 4 12 5 13 6 14 7 15 8 16 9 7 10 6 11 5 12
REMARK SMILES IDX 4 13 3 14 2 15 1 16
REMARK H PARENT
REMARK Flexibility Score: inf
ROOT
ATOM      1  C   UNL     1      56.340  27.270  51.824  1.00  0.00     0.000 C 
ENDROOT
BRANCH   1   2
ATOM      2  C   UNL     1      57.654  27.982  51.465  1.00  0.00     0.000 C 
BRANCH   2   3
ATOM      3  C   UNL     1      57.433  29.240  50.609  1.00  0.00     0.000 C 
BRANCH   3   4
ATOM      4  C   UNL     1      58.567  29.480  49.596  1.00  0.00     0.000 C 
BRANCH   4   5
ATOM      5  C   UNL     1      59.648  28.384  49.562  1.00  0.00     0.006 C 
BRANCH   5   6
ATOM      6  C   UNL     1      60.952  28.808  50.250  1.00  0.00     0.053 C 
BRANCH   6   7
ATOM      7  C   UNL     1      62.064  27.880  49.879  1.00  0.00     0.041 C 
ATOM      8  O   UNL     1      62.966  28.257  49.086  1.00  0.00    -0.550 OA
ATOM      9  O   UNL     1      62.079  26.580  50.369  1.00  0.00    -0.550 OA
ENDBRANCH   6   7
ENDBRANCH   5   6
ENDBRANCH   4   5
ENDBRANCH   3   4
ENDBRANCH   2   3
ENDBRANCH   1   2
BRANCH   1  10
ATOM     10  C   UNL     1      55.834  26.360  50.692  1.00  0.00     0.000 C 
BRANCH  10  11
ATOM     11  C   UNL     1      54.476  26.813  50.132  1.00  0.00    -0.000 C 
BRANCH  11  12
ATOM     12  C   UNL     1      53.777  27.847  51.034  1.00  0.00    -0.000 C 
BRANCH  12  13
ATOM     13  C   UNL     1      53.499  29.171  50.305  1.00  0.00    -0.000 C 
BRANCH  13  14
ATOM     14  C   UNL     1      53.781  30.400  51.187  1.00  0.00    -0.000 C 
BRANCH  14  15
ATOM     15  C   UNL     1      54.077  30.021  52.647  1.00  0.00    -0.003 C 
ATOM     16  C   UNL     1      55.305  30.739  53.205  1.00  0.00     0.004 C 
ENDBRANCH  14  15
ENDBRANCH  13  14
ENDBRANCH  12  13
ENDBRANCH  11  12
ENDBRANCH  10  11
ENDBRANCH   1  10
TORSDOF 12
ENDMDL
MODEL 4
REMARK VINA RESULT:    -2.965      2.827      5.066
REMARK INTER + INTRA:          -7.066
REMARK INTER:                  -5.291
REMARK INTRA:                  -1.775
REMARK UNBOUND:                -2.020
REMARK SMILES CCCCCCCCCCCCCC(=O)[O-]
REMARK SMILES IDX 8 1 9 2 10 3 11 4 12 5 13 6 14 7 15 8 16 9 7 10 6 11 5 12
REMARK SMILES IDX 4 13 3 14 2 15 1 16
REMARK H PARENT
REMARK Flexibility Score: inf
ROOT
ATOM      1  C   UNL     1      57.292  28.400  52.932  1.00  0.00     0.000 C 
ENDROOT
BRANCH   1   2
ATOM      2  C   UNL     1      57.447  29.882  52.559  1.00  0.00     0.000 C 
BRANCH   2   3
ATOM      3  C   UNL     1      58.511  30.113  51.472  1.00  0.00     0.000 C 
BRANCH   3   4
ATOM      4  C   UNL     1      58.174  29.405  50.147  1.00  0.00     0.000 C 
BRANCH   4   5
ATOM      5  C   UNL     1      59.326  28.579  49.543  1.00  0.00     0.006 C 
BRANCH   5   6
ATOM      6  C   UNL     1      59.219  27.082  49.863  1.00  0.00     0.053 C 
BRANCH   6   7
ATOM      7  C   UNL     1      60.365  26.649  50.721  1.00  0.00     0.041 C 
ATOM      8  O   UNL     1      60.743  27.368  51.682  1.00  0.00    -0.550 OA
ATOM      9  O   UNL     1      61.047  25.474  50.431  1.00  0.00    -0.550 OA
ENDBRANCH   6   7
ENDBRANCH   5   6
ENDBRANCH   4   5
ENDBRANCH   3   4
ENDBRANCH   2   3
ENDBRANCH   1   2
BRANCH   1  10
ATOM     10  C   UNL     1      55.840  28.029  53.281  1.00  0.00     0.000 C 
BRANCH  10  11
ATOM     11  C   UNL     1      55.470  26.606  52.832  1.00  0.00    -0.000 C 
BRANCH  11  12
ATOM     12  C   UNL     1      55.959  26.287  51.408  1.00  0.00    -0.000 C 
BRANCH  12  13
ATOM     13  C   UNL     1      55.254  27.137  50.340  1.00  0.00    -0.000 C 
BRANCH  13  14
ATOM     14  C   UNL     1      53.721  27.035  50.423  1.00  0.00    -0.000 C 
BRANCH  14  15
ATOM     15  C   UNL     1      53.032  28.402  50.288  1.00  0.00    -0.003 C 
ATOM     16  C   UNL     1      53.978  29.570  50.567  1.00  0.00     0.004 C 
ENDBRANCH  14  15
ENDBRANCH  13  14
ENDBRANCH  12  13
ENDBRANCH  11  12
ENDBRANCH  10  11
ENDBRANCH   1  10
TORSDOF 12
ENDMDL
MODEL 5
REMARK VINA RESULT:    -2.935      2.734      5.178
REMARK INTER + INTRA:          -7.014
REMARK INTER:                  -5.113
REMARK INTRA:                  -1.901
REMARK UNBOUND:                -2.020
REMARK SMILES CCCCCCCCCCCCCC(=O)[O-]
REMARK SMILES IDX 8 1 9 2 10 3 11 4 12 5 13 6 14 7 15 8 16 9 7 10 6 11 5 12
REMARK SMILES IDX 4 13 3 14 2 15 1 16
REMARK H PARENT
REMARK Flexibility Score: inf
ROOT
ATOM      1  C   UNL     1      54.878  29.613  51.120  1.00  0.00     0.000 C 
ENDROOT
BRANCH   1   2
ATOM      2  C   UNL     1      55.904  29.552  52.262  1.00  0.00     0.000 C 
BRANCH   2   3
ATOM      3  C   UNL     1      57.356  29.639  51.761  1.00  0.00     0.000 C 
BRANCH   3   4
ATOM      4  C   UNL     1      57.524  29.115  50.323  1.00  0.00     0.000 C 
BRANCH   4   5
ATOM      5  C   UNL     1      58.796  29.599  49.602  1.00  0.00     0.006 C 
BRANCH   5   6
ATOM      6  C   UNL     1      60.076  29.336  50.406  1.00  0.00     0.053 C 
BRANCH   6   7
ATOM      7  C   UNL     1      60.793  28.138  49.869  1.00  0.00     0.041 C 
ATOM      8  O   UNL     1      60.213  27.022  49.819  1.00  0.00    -0.550 OA
ATOM      9  O   UNL     1      62.119  28.243  49.468  1.00  0.00    -0.550 OA
ENDBRANCH   6   7
ENDBRANCH   5   6
ENDBRANCH   4   5
ENDBRANCH   3   4
ENDBRANCH   2   3
ENDBRANCH   1   2
BRANCH   1  10
ATOM     10  C   UNL     1      53.857  28.463  51.183  1.00  0.00     0.000 C 
BRANCH  10  11
ATOM     11  C   UNL     1      54.062  27.429  50.064  1.00  0.00    -0.000 C 
BRANCH  11  12
ATOM     12  C   UNL     1      54.799  26.168  50.549  1.00  0.00    -0.000 C 
BRANCH  12  13
ATOM     13  C   UNL     1      54.569  25.890  52.042  1.00  0.00    -0.000 C 
BRANCH  13  14
ATOM     14  C   UNL     1      55.886  25.797  52.834  1.00  0.00    -0.000 C 
BRANCH  14  15
ATOM     15  C   UNL     1      57.124  25.859  51.926  1.00  0.00    -0.003 C 
ATOM     16  C   UNL     1      58.399  26.211  52.692  1.00  0.00     0.004 C 
ENDBRANCH  14  15
ENDBRANCH  13  14
ENDBRANCH  12  13
ENDBRANCH  11  12
ENDBRANCH  10  11
ENDBRANCH   1  10
TORSDOF 12
ENDMDL
MODEL 6
REMARK VINA RESULT:    -2.861      2.424      4.504
REMARK INTER + INTRA:          -6.889
REMARK INTER:                  -5.056
REMARK INTRA:                  -1.833
REMARK UNBOUND:                -2.020
REMARK SMILES CCCCCCCCCCCCCC(=O)[O-]
REMARK SMILES IDX 8 1 9 2 10 3 11 4 12 5 13 6 14 7 15 8 16 9 7 10 6 11 5 12
REMARK SMILES IDX 4 13 3 14 2 15 1 16
REMARK H PARENT
REMARK Flexibility Score: inf
ROOT
ATOM      1  C   UNL     1      57.557  28.989  52.357  1.00  0.00     0.000 C 
ENDROOT
BRANCH   1   2
ATOM      2  C   UNL     1      58.959  29.582  52.145  1.00  0.00     0.000 C 
BRANCH   2   3
ATOM      3  C   UNL     1      59.153  30.157  50.731  1.00  0.00     0.000 C 
BRANCH   3   4
ATOM      4  C   UNL     1      58.842  29.136  49.623  1.00  0.00     0.000 C 
BRANCH   4   5
ATOM      5  C   UNL     1      59.753  27.895  49.611  1.00  0.00     0.006 C 
BRANCH   5   6
ATOM      6  C   UNL     1      58.994  26.594  49.905  1.00  0.00     0.053 C 
BRANCH   6   7
ATOM      7  C   UNL     1      59.760  25.751  50.875  1.00  0.00     0.041 C 
ATOM      8  O   UNL     1      60.272  26.271  51.900  1.00  0.00    -0.550 OA
ATOM      9  O   UNL     1      59.952  24.398  50.621  1.00  0.00    -0.550 OA
ENDBRANCH   6   7
ENDBRANCH   5   6
ENDBRANCH   4   5
ENDBRANCH   3   4
ENDBRANCH   2   3
ENDBRANCH   1   2
BRANCH   1  10
ATOM     10  C   UNL     1      56.536  30.042  52.821  1.00  0.00     0.000 C 
BRANCH  10  11
ATOM     11  C   UNL     1      55.171  29.885  52.130  1.00  0.00    -0.000 C 
BRANCH  11  12
ATOM     12  C   UNL     1      55.288  29.304  50.710  1.00  0.00    -0.000 C 
BRANCH  12  13
ATOM     13  C   UNL     1      54.459  28.023  50.529  1.00  0.00    -0.000 C 
BRANCH  13  14
ATOM     14  C   UNL     1      55.336  26.783  50.284  1.00  0.00    -0.000 C 
BRANCH  14  15
ATOM     15  C   UNL     1      55.567  25.963  51.564  1.00  0.00    -0.003 C 
ATOM     16  C   UNL     1      54.540  26.269  52.653  1.00  0.00     0.004 C 
ENDBRANCH  14  15
ENDBRANCH  13  14
ENDBRANCH  12  13
ENDBRANCH  11  12
ENDBRANCH  10  11
ENDBRANCH   1  10
TORSDOF 12
ENDMDL
MODEL 7
REMARK VINA RESULT:    -2.834      4.165      6.919
REMARK INTER + INTRA:          -6.842
REMARK INTER:                  -5.898
REMARK INTRA:                  -0.944
REMARK UNBOUND:                -2.020
REMARK SMILES CCCCCCCCCCCCCC(=O)[O-]
REMARK SMILES IDX 8 1 9 2 10 3 11 4 12 5 13 6 14 7 15 8 16 9 7 10 6 11 5 12
REMARK SMILES IDX 4 13 3 14 2 15 1 16
REMARK H PARENT
REMARK Flexibility Score: inf
ROOT
ATOM      1  C   UNL     1      58.277  29.619  50.136  1.00  0.00     0.000 C 
ENDROOT
BRANCH   1   2
ATOM      2  C   UNL     1      59.230  28.732  49.320  1.00  0.00     0.000 C 
BRANCH   2   3
ATOM      3  C   UNL     1      59.565  27.409  50.030  1.00  0.00     0.000 C 
BRANCH   3   4
ATOM      4  C   UNL     1      61.080  27.158  50.141  1.00  0.00     0.000 C 
BRANCH   4   5
ATOM      5  C   UNL     1      61.947  28.430  50.174  1.00  0.00     0.006 C 
BRANCH   5   6
ATOM      6  C   UNL     1      63.101  28.394  49.163  1.00  0.00     0.053 C 
BRANCH   6   7
ATOM      7  C   UNL     1      64.376  28.005  49.841  1.00  0.00     0.041 C 
ATOM      8  O   UNL     1      64.647  26.791  50.032  1.00  0.00    -0.550 OA
ATOM      9  O   UNL     1      65.244  28.986  50.308  1.00  0.00    -0.550 OA
ENDBRANCH   6   7
ENDBRANCH   5   6
ENDBRANCH   4   5
ENDBRANCH   3   4
ENDBRANCH   2   3
ENDBRANCH   1   2
BRANCH   1  10
ATOM     10  C   UNL     1      57.098  28.828  50.730  1.00  0.00     0.000 C 
BRANCH  10  11
ATOM     11  C   UNL     1      56.499  29.506  51.973  1.00  0.00    -0.000 C 
BRANCH  11  12
ATOM     12  C   UNL     1      54.964  29.412  52.018  1.00  0.00    -0.000 C 
BRANCH  12  13
ATOM     13  C   UNL     1      54.322  29.600  50.634  1.00  0.00    -0.000 C 
BRANCH  13  14
ATOM     14  C   UNL     1      53.363  28.454  50.269  1.00  0.00    -0.000 C 
BRANCH  14  15
ATOM     15  C   UNL     1      53.798  27.108  50.869  1.00  0.00    -0.003 C 
ATOM     16  C   UNL     1      54.570  26.241  49.875  1.00  0.00     0.004 C 
ENDBRANCH  14  15
ENDBRANCH  13  14
ENDBRANCH  12  13
ENDBRANCH  11  12
ENDBRANCH  10  11
ENDBRANCH   1  10
TORSDOF 12
ENDMDL
MODEL 8
REMARK VINA RESULT:    -2.793      2.495      4.818
REMARK INTER + INTRA:          -6.772
REMARK INTER:                  -5.153
REMARK INTRA:                  -1.619
REMARK UNBOUND:                -2.020
REMARK SMILES CCCCCCCCCCCCCC(=O)[O-]
REMARK SMILES IDX 8 1 9 2 10 3 11 4 12 5 13 6 14 7 15 8 16 9 7 10 6 11 5 12
REMARK SMILES IDX 4 13 3 14 2 15 1 16
REMARK H PARENT
REMARK Flexibility Score: inf
ROOT
ATOM      1  C   UNL     1      53.679  28.316  50.848  1.00  0.00     0.000 C 
ENDROOT
BRANCH   1   2
ATOM      2  C   UNL     1      54.719  29.439  50.705  1.00  0.00     0.000 C 
BRANCH   2   3
ATOM      3  C   UNL     1      55.533  29.662  51.991  1.00  0.00     0.000 C 
BRANCH   3   4
ATOM      4  C   UNL     1      57.051  29.543  51.766  1.00  0.00     0.000 C 
BRANCH   4   5
ATOM      5  C   UNL     1      57.463  29.113  50.347  1.00  0.00     0.006 C 
BRANCH   5   6
ATOM      6  C   UNL     1      58.923  29.454  50.019  1.00  0.00     0.053 C 
BRANCH   6   7
ATOM      7  C   UNL     1      59.698  28.207  49.733  1.00  0.00     0.041 C 
ATOM      8  O   UNL     1      60.942  28.262  49.548  1.00  0.00    -0.550 OA
ATOM      9  O   UNL     1      59.039  26.988  49.620  1.00  0.00    -0.550 OA
ENDBRANCH   6   7
ENDBRANCH   5   6
ENDBRANCH   4   5
ENDBRANCH   3   4
ENDBRANCH   2   3
ENDBRANCH   1   2
BRANCH   1  10
ATOM     10  C   UNL     1      54.027  27.080  50.001  1.00  0.00     0.000 C 
BRANCH  10  11
ATOM     11  C   UNL     1      55.144  26.230  50.628  1.00  0.00    -0.000 C 
BRANCH  11  12
ATOM     12  C   UNL     1      54.853  25.855  52.092  1.00  0.00    -0.000 C 
BRANCH  12  13
ATOM     13  C   UNL     1      56.042  26.145  53.021  1.00  0.00    -0.000 C 
BRANCH  13  14
ATOM     14  C   UNL     1      57.392  25.770  52.385  1.00  0.00    -0.000 C 
BRANCH  14  15
ATOM     15  C   UNL     1      57.952  24.446  52.928  1.00  0.00    -0.003 C 
ATOM     16  C   UNL     1      59.446  24.279  52.652  1.00  0.00     0.004 C 
ENDBRANCH  14  15
ENDBRANCH  13  14
ENDBRANCH  12  13
ENDBRANCH  11  12
ENDBRANCH  10  11
ENDBRANCH   1  10
TORSDOF 12
ENDMDL
