MODEL 1
REMARK VINA RESULT:     1.064      0.000      0.000
REMARK INTER + INTRA:           1.676
REMARK INTER:                   1.251
REMARK INTRA:                   0.426
REMARK UNBOUND:                 0.426
REMARK SMILES C=C(C)[C@@H]1CC[C@]2(C(=O)[O-])CC[C@@]3(C)[C@@H](CC[C@@H]4[C@]5(C)C[C@H](O)[C@H](O)C(C)(C)[C@@H]5CC[C@]43C)[C@H]12
REMARK SMILES IDX 7 1 6 2 34 3 11 4 5 5 15 6 4 7 12 8 16 9 13 10 17 11 32 12
REMARK SMILES IDX 14 13 18 14 31 15 33 16 19 17 30 18 29 19 21 20 20 21 26 22
REMARK SMILES IDX 22 23 24 24 27 25 28 26 8 27 9 28 10 29 2 30 3 31 1 32 23 33
REMARK SMILES IDX 25 35
REMARK H PARENT 23 34 25 36
REMARK Flexibility Score: inf
ROOT
ATOM      1  C   UNL     1     -10.807  -5.448  -3.899  1.00  0.00     0.014 C 
ATOM      2  C   UNL     1      -9.635  -6.061  -4.676  1.00  0.00     0.014 C 
ATOM      3  C   UNL     1     -11.508  -6.694  -3.247  1.00  0.00     0.012 C 
ATOM      4  C   UNL     1     -10.304  -4.359  -2.910  1.00  0.00     0.014 C 
ATOM      5  C   UNL     1     -10.172  -7.347  -5.275  1.00  0.00     0.009 C 
ATOM      6  C   UNL     1     -11.071  -7.040  -1.770  1.00  0.00     0.000 C 
ATOM      7  C   UNL     1     -11.262  -7.842  -4.300  1.00  0.00     0.018 C 
ATOM      8  C   UNL     1      -9.757  -4.906  -1.596  1.00  0.00     0.008 C 
ATOM      9  C   UNL     1     -12.125  -7.975  -1.078  1.00  0.00     0.005 C 
ATOM     10  C   UNL     1     -10.759  -5.821  -0.839  1.00  0.00    -0.024 C 
ATOM     11  C   UNL     1     -11.939  -8.133   0.452  1.00  0.00     0.005 C 
ATOM     12  C   UNL     1     -10.125  -6.341   0.590  1.00  0.00    -0.024 C 
ATOM     13  C   UNL     1     -12.096  -5.006  -0.649  1.00  0.00     0.012 C 
ATOM     14  C   UNL     1     -10.470  -7.870   0.842  1.00  0.00     0.002 C 
ATOM     15  C   UNL     1      -8.565  -6.299   0.616  1.00  0.00     0.008 C 
ATOM     16  C   UNL     1     -10.625  -5.400   1.733  1.00  0.00     0.012 C 
ATOM     17  C   UNL     1      -9.916  -8.572   2.160  1.00  0.00    -0.023 C 
ATOM     18  C   UNL     1      -7.946  -6.821   1.922  1.00  0.00     0.005 C 
ATOM     19  C   UNL     1      -8.354  -8.273   2.316  1.00  0.00     0.004 C 
ATOM     20  C   UNL     1     -10.761  -8.196   3.429  1.00  0.00     0.042 C 
ATOM     21  C   UNL     1     -10.062 -10.120   1.947  1.00  0.00     0.012 C 
ATOM     22  C   UNL     1      -7.691  -8.771   3.698  1.00  0.00    -0.003 C 
ATOM     23  C   UNL     1      -9.953  -7.994   4.728  1.00  0.00     0.144 C 
ATOM     24  C   UNL     1      -8.769  -8.976   4.826  1.00  0.00     0.149 C 
ATOM     25  C   UNL     1      -6.567  -7.815   4.214  1.00  0.00     0.014 C 
ATOM     26  C   UNL     1      -6.962 -10.125   3.462  1.00  0.00     0.014 C 
ENDROOT
BRANCH   1  27
ATOM     27  C   UNL     1     -11.736  -4.772  -4.917  1.00  0.00     0.048 C 
ATOM     28  O   UNL     1     -12.125  -3.583  -4.739  1.00  0.00    -0.550 OA
ATOM     29  O   UNL     1     -12.099  -5.416  -6.097  1.00  0.00    -0.550 OA
ENDBRANCH   1  27
BRANCH   7  30
ATOM     30  C   UNL     1     -10.969  -9.263  -3.803  1.00  0.00    -0.077 C 
ATOM     31  C   UNL     1     -12.099 -10.119  -3.281  1.00  0.00     0.039 C 
ATOM     32  C   UNL     1      -9.761  -9.841  -3.953  1.00  0.00     0.008 C 
ENDBRANCH   7  30
BRANCH  23  33
ATOM     33  O   UNL     1      -9.503  -6.665   4.835  1.00  0.00    -0.390 OA
ATOM     34  H   UNL     1     -10.311  -6.087   4.824  1.00  0.00     0.211 HD
ENDBRANCH  23  33
BRANCH  24  35
ATOM     35  O   UNL     1      -8.199  -8.971   6.116  1.00  0.00    -0.390 OA
ATOM     36  H   UNL     1      -8.719  -8.350   6.689  1.00  0.00     0.211 HD
ENDBRANCH  24  35
TORSDOF 4
ENDMDL
