MODEL 1
REMARK VINA RESULT:    -4.061      0.000      0.000
REMARK INTER + INTRA:         -10.911
REMARK INTER:                  -7.860
REMARK INTRA:                  -3.051
REMARK UNBOUND:                -3.051
REMARK SMILES CCCCCCCCCCCCCCCCCC(=O)[O-]
REMARK SMILES IDX 10 1 11 2 12 3 13 4 14 5 15 6 16 7 17 8 18 9 19 10 20 11
REMARK SMILES IDX 9 12 8 13 7 14 6 15 5 16 4 17 3 18 2 19 1 20
REMARK H PARENT
REMARK Flexibility Score: inf
ROOT
ATOM      1  C   UNL     1       6.428  78.011  39.867  1.00  0.00     0.000 C 
ENDROOT
BRANCH   1   2
ATOM      2  C   UNL     1       5.408  78.958  39.213  1.00  0.00     0.000 C 
BRANCH   2   3
ATOM      3  C   UNL     1       6.023  79.813  38.091  1.00  0.00     0.000 C 
BRANCH   3   4
ATOM      4  C   UNL     1       6.200  79.050  36.762  1.00  0.00     0.000 C 
BRANCH   4   5
ATOM      5  C   UNL     1       7.659  79.071  36.269  1.00  0.00     0.000 C 
BRANCH   5   6
ATOM      6  C   UNL     1       8.422  77.787  36.623  1.00  0.00     0.000 C 
BRANCH   6   7
ATOM      7  C   UNL     1       9.507  78.016  37.689  1.00  0.00     0.006 C 
BRANCH   7   8
ATOM      8  C   UNL     1       9.820  79.505  37.887  1.00  0.00     0.053 C 
BRANCH   8   9
ATOM      9  C   UNL     1       9.618  79.931  39.309  1.00  0.00     0.041 C 
ATOM     10  O   UNL     1       9.236  81.103  39.570  1.00  0.00    -0.550 OA
ATOM     11  O   UNL     1       9.889  79.048  40.346  1.00  0.00    -0.550 OA
ENDBRANCH   8   9
ENDBRANCH   7   8
ENDBRANCH   6   7
ENDBRANCH   5   6
ENDBRANCH   4   5
ENDBRANCH   3   4
ENDBRANCH   2   3
ENDBRANCH   1   2
BRANCH   1  12
ATOM     12  C   UNL     1       6.169  76.537  39.519  1.00  0.00     0.000 C 
BRANCH  12  13
ATOM     13  C   UNL     1       4.683  76.247  39.246  1.00  0.00    -0.000 C 
BRANCH  13  14
ATOM     14  C   UNL     1       4.478  75.272  38.076  1.00  0.00    -0.000 C 
BRANCH  14  15
ATOM     15  C   UNL     1       5.575  75.400  37.004  1.00  0.00    -0.000 C 
BRANCH  15  16
ATOM     16  C   UNL     1       6.247  74.055  36.677  1.00  0.00    -0.000 C 
BRANCH  16  17
ATOM     17  C   UNL     1       7.566  73.790  37.430  1.00  0.00    -0.000 C 
BRANCH  17  18
ATOM     18  C   UNL     1       7.527  72.614  38.426  1.00  0.00    -0.000 C 
BRANCH  18  19
ATOM     19  C   UNL     1       6.755  72.894  39.726  1.00  0.00    -0.003 C 
ATOM     20  C   UNL     1       5.437  72.125  39.813  1.00  0.00     0.004 C 
ENDBRANCH  18  19
ENDBRANCH  17  18
ENDBRANCH  16  17
ENDBRANCH  15  16
ENDBRANCH  14  15
ENDBRANCH  13  14
ENDBRANCH  12  13
ENDBRANCH   1  12
TORSDOF 16
ENDMDL
MODEL 2
REMARK VINA RESULT:    -3.983      2.460      5.805
REMARK INTER + INTRA:         -10.758
REMARK INTER:                  -7.854
REMARK INTRA:                  -2.904
REMARK UNBOUND:                -3.051
REMARK SMILES CCCCCCCCCCCCCCCCCC(=O)[O-]
REMARK SMILES IDX 10 1 11 2 12 3 13 4 14 5 15 6 16 7 17 8 18 9 19 10 20 11
REMARK SMILES IDX 9 12 8 13 7 14 6 15 5 16 4 17 3 18 2 19 1 20
REMARK H PARENT
REMARK Flexibility Score: inf
ROOT
ATOM      1  C   UNL     1       6.386  78.363  39.928  1.00  0.00     0.000 C 
ENDROOT
BRANCH   1   2
ATOM      2  C   UNL     1       6.356  76.852  39.642  1.00  0.00     0.000 C 
BRANCH   2   3
ATOM      3  C   UNL     1       4.967  76.355  39.206  1.00  0.00     0.000 C 
BRANCH   3   4
ATOM      4  C   UNL     1       4.992  75.516  37.911  1.00  0.00     0.000 C 
BRANCH   4   5
ATOM      5  C   UNL     1       6.394  75.473  37.274  1.00  0.00     0.000 C 
BRANCH   5   6
ATOM      6  C   UNL     1       6.734  74.095  36.687  1.00  0.00     0.000 C 
BRANCH   6   7
ATOM      7  C   UNL     1       7.638  73.263  37.614  1.00  0.00     0.006 C 
BRANCH   7   8
ATOM      8  C   UNL     1       6.883  72.097  38.266  1.00  0.00     0.053 C 
BRANCH   8   9
ATOM      9  C   UNL     1       6.344  72.469  39.614  1.00  0.00     0.041 C 
ATOM     10  O   UNL     1       6.965  73.291  40.339  1.00  0.00    -0.550 OA
ATOM     11  O   UNL     1       5.178  71.879  40.085  1.00  0.00    -0.550 OA
ENDBRANCH   8   9
ENDBRANCH   7   8
ENDBRANCH   6   7
ENDBRANCH   5   6
ENDBRANCH   4   5
ENDBRANCH   3   4
ENDBRANCH   2   3
ENDBRANCH   1   2
BRANCH   1  12
ATOM     12  C   UNL     1       5.226  79.112  39.254  1.00  0.00     0.000 C 
BRANCH  12  13
ATOM     13  C   UNL     1       5.692  79.986  38.076  1.00  0.00    -0.000 C 
BRANCH  13  14
ATOM     14  C   UNL     1       6.099  79.153  36.850  1.00  0.00    -0.000 C 
BRANCH  14  15
ATOM     15  C   UNL     1       7.537  79.447  36.389  1.00  0.00    -0.000 C 
BRANCH  15  16
ATOM     16  C   UNL     1       8.423  78.189  36.369  1.00  0.00    -0.000 C 
BRANCH  16  17
ATOM     17  C   UNL     1       9.462  78.109  37.505  1.00  0.00    -0.000 C 
BRANCH  17  18
ATOM     18  C   UNL     1      10.000  79.467  37.998  1.00  0.00    -0.000 C 
BRANCH  18  19
ATOM     19  C   UNL     1       9.781  79.745  39.495  1.00  0.00    -0.003 C 
ATOM     20  C   UNL     1       9.042  81.057  39.754  1.00  0.00     0.004 C 
ENDBRANCH  18  19
ENDBRANCH  17  18
ENDBRANCH  16  17
ENDBRANCH  15  16
ENDBRANCH  14  15
ENDBRANCH  13  14
ENDBRANCH  12  13
ENDBRANCH   1  12
TORSDOF 16
ENDMDL
MODEL 3
REMARK VINA RESULT:    -3.935      2.877      5.773
REMARK INTER + INTRA:         -10.666
REMARK INTER:                  -8.255
REMARK INTRA:                  -2.410
REMARK UNBOUND:                -3.051
REMARK SMILES CCCCCCCCCCCCCCCCCC(=O)[O-]
REMARK SMILES IDX 10 1 11 2 12 3 13 4 14 5 15 6 16 7 17 8 18 9 19 10 20 11
REMARK SMILES IDX 9 12 8 13 7 14 6 15 5 16 4 17 3 18 2 19 1 20
REMARK H PARENT
REMARK Flexibility Score: inf
ROOT
ATOM      1  C   UNL     1       5.859  77.516  39.418  1.00  0.00     0.000 C 
ENDROOT
BRANCH   1   2
ATOM      2  C   UNL     1       4.786  76.430  39.236  1.00  0.00     0.000 C 
BRANCH   2   3
ATOM      3  C   UNL     1       5.264  75.262  38.355  1.00  0.00     0.000 C 
BRANCH   3   4
ATOM      4  C   UNL     1       6.782  75.277  38.083  1.00  0.00     0.000 C 
BRANCH   4   5
ATOM      5  C   UNL     1       7.153  74.483  36.816  1.00  0.00     0.000 C 
BRANCH   5   6
ATOM      6  C   UNL     1       8.661  74.212  36.708  1.00  0.00     0.000 C 
BRANCH   6   7
ATOM      7  C   UNL     1       8.979  72.742  36.387  1.00  0.00     0.006 C 
BRANCH   7   8
ATOM      8  C   UNL     1       9.705  72.040  37.542  1.00  0.00     0.053 C 
BRANCH   8   9
ATOM      9  C   UNL     1      11.190  72.038  37.345  1.00  0.00     0.041 C 
ATOM     10  O   UNL     1      11.864  73.072  37.596  1.00  0.00    -0.550 OA
ATOM     11  O   UNL     1      11.825  70.907  36.847  1.00  0.00    -0.550 OA
ENDBRANCH   8   9
ENDBRANCH   7   8
ENDBRANCH   6   7
ENDBRANCH   5   6
ENDBRANCH   4   5
ENDBRANCH   3   4
ENDBRANCH   2   3
ENDBRANCH   1   2
BRANCH   1  12
ATOM     12  C   UNL     1       5.295  78.935  39.248  1.00  0.00     0.000 C 
BRANCH  12  13
ATOM     13  C   UNL     1       5.952  79.696  38.083  1.00  0.00    -0.000 C 
BRANCH  13  14
ATOM     14  C   UNL     1       6.366  78.767  36.932  1.00  0.00    -0.000 C 
BRANCH  14  15
ATOM     15  C   UNL     1       7.721  79.158  36.317  1.00  0.00    -0.000 C 
BRANCH  15  16
ATOM     16  C   UNL     1       8.729  77.996  36.310  1.00  0.00    -0.000 C 
BRANCH  16  17
ATOM     17  C   UNL     1       9.757  78.021  37.459  1.00  0.00    -0.000 C 
BRANCH  17  18
ATOM     18  C   UNL     1       9.726  79.288  38.337  1.00  0.00    -0.000 C 
BRANCH  18  19
ATOM     19  C   UNL     1       9.261  79.060  39.786  1.00  0.00    -0.003 C 
ATOM     20  C   UNL     1       8.771  80.339  40.462  1.00  0.00     0.004 C 
ENDBRANCH  18  19
ENDBRANCH  17  18
ENDBRANCH  16  17
ENDBRANCH  15  16
ENDBRANCH  14  15
ENDBRANCH  13  14
ENDBRANCH  12  13
ENDBRANCH   1  12
TORSDOF 16
ENDMDL
MODEL 4
REMARK VINA RESULT:    -3.864      2.813      6.093
REMARK INTER + INTRA:         -10.530
REMARK INTER:                  -7.822
REMARK INTRA:                  -2.707
REMARK UNBOUND:                -3.051
REMARK SMILES CCCCCCCCCCCCCCCCCC(=O)[O-]
REMARK SMILES IDX 10 1 11 2 12 3 13 4 14 5 15 6 16 7 17 8 18 9 19 10 20 11
REMARK SMILES IDX 9 12 8 13 7 14 6 15 5 16 4 17 3 18 2 19 1 20
REMARK H PARENT
REMARK Flexibility Score: inf
ROOT
ATOM      1  C   UNL     1       5.256  79.400  39.134  1.00  0.00     0.000 C 
ENDROOT
BRANCH   1   2
ATOM      2  C   UNL     1       6.193  78.637  40.085  1.00  0.00     0.000 C 
BRANCH   2   3
ATOM      3  C   UNL     1       6.155  77.115  39.865  1.00  0.00     0.000 C 
BRANCH   3   4
ATOM      4  C   UNL     1       4.882  76.629  39.142  1.00  0.00     0.000 C 
BRANCH   4   5
ATOM      5  C   UNL     1       5.208  75.815  37.876  1.00  0.00     0.000 C 
BRANCH   5   6
ATOM      6  C   UNL     1       6.291  74.753  38.118  1.00  0.00     0.000 C 
BRANCH   6   7
ATOM      7  C   UNL     1       5.760  73.525  38.876  1.00  0.00     0.006 C 
BRANCH   7   8
ATOM      8  C   UNL     1       6.805  72.938  39.834  1.00  0.00     0.053 C 
BRANCH   8   9
ATOM      9  C   UNL     1       7.606  71.851  39.184  1.00  0.00     0.041 C 
ATOM     10  O   UNL     1       8.822  71.699  39.477  1.00  0.00    -0.550 OA
ATOM     11  O   UNL     1       7.020  71.032  38.227  1.00  0.00    -0.550 OA
ENDBRANCH   8   9
ENDBRANCH   7   8
ENDBRANCH   6   7
ENDBRANCH   5   6
ENDBRANCH   4   5
ENDBRANCH   3   4
ENDBRANCH   2   3
ENDBRANCH   1   2
BRANCH   1  12
ATOM     12  C   UNL     1       6.017  80.121  38.011  1.00  0.00     0.000 C 
BRANCH  12  13
ATOM     13  C   UNL     1       6.133  79.268  36.735  1.00  0.00    -0.000 C 
BRANCH  13  14
ATOM     14  C   UNL     1       7.592  79.037  36.312  1.00  0.00    -0.000 C 
BRANCH  14  15
ATOM     15  C   UNL     1       8.206  77.789  36.971  1.00  0.00    -0.000 C 
BRANCH  15  16
ATOM     16  C   UNL     1       9.296  78.136  38.000  1.00  0.00    -0.000 C 
BRANCH  16  17
ATOM     17  C   UNL     1      10.013  79.479  37.758  1.00  0.00    -0.000 C 
BRANCH  17  18
ATOM     18  C   UNL     1      10.146  80.384  38.999  1.00  0.00    -0.000 C 
BRANCH  18  19
ATOM     19  C   UNL     1       9.580  79.787  40.299  1.00  0.00    -0.003 C 
ATOM     20  C   UNL     1       8.928  80.834  41.200  1.00  0.00     0.004 C 
ENDBRANCH  18  19
ENDBRANCH  17  18
ENDBRANCH  16  17
ENDBRANCH  15  16
ENDBRANCH  14  15
ENDBRANCH  13  14
ENDBRANCH  12  13
ENDBRANCH   1  12
TORSDOF 16
ENDMDL
MODEL 5
REMARK VINA RESULT:    -3.846      3.023      5.643
REMARK INTER + INTRA:         -10.494
REMARK INTER:                  -8.574
REMARK INTRA:                  -1.920
REMARK UNBOUND:                -3.051
REMARK SMILES CCCCCCCCCCCCCCCCCC(=O)[O-]
REMARK SMILES IDX 10 1 11 2 12 3 13 4 14 5 15 6 16 7 17 8 18 9 19 10 20 11
REMARK SMILES IDX 9 12 8 13 7 14 6 15 5 16 4 17 3 18 2 19 1 20
REMARK H PARENT
REMARK Flexibility Score: inf
ROOT
ATOM      1  C   UNL     1       9.553  79.507  38.421  1.00  0.00     0.000 C 
ENDROOT
BRANCH   1   2
ATOM      2  C   UNL     1      10.720  80.500  38.562  1.00  0.00     0.000 C 
BRANCH   2   3
ATOM      3  C   UNL     1      11.102  80.766  40.028  1.00  0.00     0.000 C 
BRANCH   3   4
ATOM      4  C   UNL     1      10.695  79.629  40.988  1.00  0.00     0.000 C 
BRANCH   4   5
ATOM      5  C   UNL     1      11.622  79.543  42.214  1.00  0.00     0.000 C 
BRANCH   5   6
ATOM      6  C   UNL     1      12.128  80.920  42.670  1.00  0.00     0.000 C 
BRANCH   6   7
ATOM      7  C   UNL     1      11.488  81.379  43.992  1.00  0.00     0.006 C 
BRANCH   7   8
ATOM      8  C   UNL     1      10.098  81.992  43.781  1.00  0.00     0.053 C 
BRANCH   8   9
ATOM      9  C   UNL     1       9.035  81.217  44.498  1.00  0.00     0.041 C 
ATOM     10  O   UNL     1       7.835  81.597  44.453  1.00  0.00    -0.550 OA
ATOM     11  O   UNL     1       9.374  80.098  45.248  1.00  0.00    -0.550 OA
ENDBRANCH   8   9
ENDBRANCH   7   8
ENDBRANCH   6   7
ENDBRANCH   5   6
ENDBRANCH   4   5
ENDBRANCH   3   4
ENDBRANCH   2   3
ENDBRANCH   1   2
BRANCH   1  12
ATOM     12  C   UNL     1       9.822  78.432  37.358  1.00  0.00     0.000 C 
BRANCH  12  13
ATOM     13  C   UNL     1       8.547  78.021  36.599  1.00  0.00    -0.000 C 
BRANCH  13  14
ATOM     14  C   UNL     1       7.510  79.153  36.534  1.00  0.00    -0.000 C 
BRANCH  14  15
ATOM     15  C   UNL     1       6.067  78.639  36.686  1.00  0.00    -0.000 C 
BRANCH  15  16
ATOM     16  C   UNL     1       5.999  77.235  37.309  1.00  0.00    -0.000 C 
BRANCH  16  17
ATOM     17  C   UNL     1       5.536  77.200  38.780  1.00  0.00    -0.000 C 
BRANCH  17  18
ATOM     18  C   UNL     1       6.565  77.721  39.803  1.00  0.00    -0.000 C 
BRANCH  18  19
ATOM     19  C   UNL     1       6.263  79.118  40.370  1.00  0.00    -0.003 C 
ATOM     20  C   UNL     1       4.775  79.465  40.334  1.00  0.00     0.004 C 
ENDBRANCH  18  19
ENDBRANCH  17  18
ENDBRANCH  16  17
ENDBRANCH  15  16
ENDBRANCH  14  15
ENDBRANCH  13  14
ENDBRANCH  12  13
ENDBRANCH   1  12
TORSDOF 16
ENDMDL
MODEL 6
REMARK VINA RESULT:    -3.837      2.884      6.356
REMARK INTER + INTRA:         -10.477
REMARK INTER:                  -8.398
REMARK INTRA:                  -2.078
REMARK UNBOUND:                -3.051
REMARK SMILES CCCCCCCCCCCCCCCCCC(=O)[O-]
REMARK SMILES IDX 10 1 11 2 12 3 13 4 14 5 15 6 16 7 17 8 18 9 19 10 20 11
REMARK SMILES IDX 9 12 8 13 7 14 6 15 5 16 4 17 3 18 2 19 1 20
REMARK H PARENT
REMARK Flexibility Score: inf
ROOT
ATOM      1  C   UNL     1       6.214  77.336  39.946  1.00  0.00     0.000 C 
ENDROOT
BRANCH   1   2
ATOM      2  C   UNL     1       5.757  76.092  39.167  1.00  0.00     0.000 C 
BRANCH   2   3
ATOM      3  C   UNL     1       4.233  76.045  38.958  1.00  0.00     0.000 C 
BRANCH   3   4
ATOM      4  C   UNL     1       3.711  74.655  38.541  1.00  0.00     0.000 C 
BRANCH   4   5
ATOM      5  C   UNL     1       4.758  73.856  37.744  1.00  0.00     0.000 C 
BRANCH   5   6
ATOM      6  C   UNL     1       4.863  72.394  38.204  1.00  0.00     0.000 C 
BRANCH   6   7
ATOM      7  C   UNL     1       5.469  72.258  39.612  1.00  0.00     0.006 C 
BRANCH   7   8
ATOM      8  C   UNL     1       6.968  72.581  39.632  1.00  0.00     0.053 C 
BRANCH   8   9
ATOM      9  C   UNL     1       7.772  71.534  38.922  1.00  0.00     0.041 C 
ATOM     10  O   UNL     1       7.350  70.349  38.855  1.00  0.00    -0.550 OA
ATOM     11  O   UNL     1       9.004  71.858  38.367  1.00  0.00    -0.550 OA
ENDBRANCH   8   9
ENDBRANCH   7   8
ENDBRANCH   6   7
ENDBRANCH   5   6
ENDBRANCH   4   5
ENDBRANCH   3   4
ENDBRANCH   2   3
ENDBRANCH   1   2
BRANCH   1  12
ATOM     12  C   UNL     1       5.276  78.536  39.741  1.00  0.00     0.000 C 
BRANCH  12  13
ATOM     13  C   UNL     1       6.008  79.767  39.178  1.00  0.00    -0.000 C 
BRANCH  13  14
ATOM     14  C   UNL     1       5.589  80.093  37.736  1.00  0.00    -0.000 C 
BRANCH  14  15
ATOM     15  C   UNL     1       6.765  80.006  36.747  1.00  0.00    -0.000 C 
BRANCH  15  16
ATOM     16  C   UNL     1       7.301  78.573  36.584  1.00  0.00    -0.000 C 
BRANCH  16  17
ATOM     17  C   UNL     1       8.833  78.438  36.687  1.00  0.00    -0.000 C 
BRANCH  17  18
ATOM     18  C   UNL     1       9.414  78.614  38.104  1.00  0.00    -0.000 C 
BRANCH  18  19
ATOM     19  C   UNL     1      10.200  79.918  38.323  1.00  0.00    -0.003 C 
ATOM     20  C   UNL     1       9.509  80.874  39.294  1.00  0.00     0.004 C 
ENDBRANCH  18  19
ENDBRANCH  17  18
ENDBRANCH  16  17
ENDBRANCH  15  16
ENDBRANCH  14  15
ENDBRANCH  13  14
ENDBRANCH  12  13
ENDBRANCH   1  12
TORSDOF 16
ENDMDL
MODEL 7
REMARK VINA RESULT:    -3.789      3.705      6.449
REMARK INTER + INTRA:         -10.385
REMARK INTER:                  -8.427
REMARK INTRA:                  -1.958
REMARK UNBOUND:                -3.051
REMARK SMILES CCCCCCCCCCCCCCCCCC(=O)[O-]
REMARK SMILES IDX 10 1 11 2 12 3 13 4 14 5 15 6 16 7 17 8 18 9 19 10 20 11
REMARK SMILES IDX 9 12 8 13 7 14 6 15 5 16 4 17 3 18 2 19 1 20
REMARK H PARENT
REMARK Flexibility Score: inf
ROOT
ATOM      1  C   UNL     1       9.162  80.480  40.448  1.00  0.00     0.000 C 
ENDROOT
BRANCH   1   2
ATOM      2  C   UNL     1      10.292  81.480  40.745  1.00  0.00     0.000 C 
BRANCH   2   3
ATOM      3  C   UNL     1      11.667  80.803  40.881  1.00  0.00     0.000 C 
BRANCH   3   4
ATOM      4  C   UNL     1      12.005  80.378  42.325  1.00  0.00     0.000 C 
BRANCH   4   5
ATOM      5  C   UNL     1      12.345  81.584  43.220  1.00  0.00     0.000 C 
BRANCH   5   6
ATOM      6  C   UNL     1      11.473  81.648  44.483  1.00  0.00     0.000 C 
BRANCH   6   7
ATOM      7  C   UNL     1      10.395  80.551  44.516  1.00  0.00     0.006 C 
BRANCH   7   8
ATOM      8  C   UNL     1       8.985  81.128  44.697  1.00  0.00     0.053 C 
BRANCH   8   9
ATOM      9  C   UNL     1       8.187  80.343  45.694  1.00  0.00     0.041 C 
ATOM     10  O   UNL     1       8.632  79.254  46.144  1.00  0.00    -0.550 OA
ATOM     11  O   UNL     1       6.936  80.795  46.095  1.00  0.00    -0.550 OA
ENDBRANCH   8   9
ENDBRANCH   7   8
ENDBRANCH   6   7
ENDBRANCH   5   6
ENDBRANCH   4   5
ENDBRANCH   3   4
ENDBRANCH   2   3
ENDBRANCH   1   2
BRANCH   1  12
ATOM     12  C   UNL     1       9.643  79.277  39.623  1.00  0.00     0.000 C 
BRANCH  12  13
ATOM     13  C   UNL     1       9.757  79.599  38.122  1.00  0.00    -0.000 C 
BRANCH  13  14
ATOM     14  C   UNL     1       9.781  78.334  37.249  1.00  0.00    -0.000 C 
BRANCH  14  15
ATOM     15  C   UNL     1       8.415  78.035  36.607  1.00  0.00    -0.000 C 
BRANCH  15  16
ATOM     16  C   UNL     1       7.487  79.262  36.584  1.00  0.00    -0.000 C 
BRANCH  16  17
ATOM     17  C   UNL     1       6.109  79.045  37.239  1.00  0.00    -0.000 C 
BRANCH  17  18
ATOM     18  C   UNL     1       5.998  77.794  38.134  1.00  0.00    -0.000 C 
BRANCH  18  19
ATOM     19  C   UNL     1       6.093  78.070  39.644  1.00  0.00    -0.003 C 
ATOM     20  C   UNL     1       5.264  79.276  40.082  1.00  0.00     0.004 C 
ENDBRANCH  18  19
ENDBRANCH  17  18
ENDBRANCH  16  17
ENDBRANCH  15  16
ENDBRANCH  14  15
ENDBRANCH  13  14
ENDBRANCH  12  13
ENDBRANCH   1  12
TORSDOF 16
ENDMDL
MODEL 8
REMARK VINA RESULT:    -3.788      3.170      6.725
REMARK INTER + INTRA:         -10.382
REMARK INTER:                  -8.028
REMARK INTRA:                  -2.354
REMARK UNBOUND:                -3.051
REMARK SMILES CCCCCCCCCCCCCCCCCC(=O)[O-]
REMARK SMILES IDX 10 1 11 2 12 3 13 4 14 5 15 6 16 7 17 8 18 9 19 10 20 11
REMARK SMILES IDX 9 12 8 13 7 14 6 15 5 16 4 17 3 18 2 19 1 20
REMARK H PARENT
REMARK Flexibility Score: inf
ROOT
ATOM      1  C   UNL     1       6.429  75.695  37.384  1.00  0.00     0.000 C 
ENDROOT
BRANCH   1   2
ATOM      2  C   UNL     1       7.568  74.732  37.010  1.00  0.00     0.000 C 
BRANCH   2   3
ATOM      3  C   UNL     1       7.076  73.500  36.231  1.00  0.00     0.000 C 
BRANCH   3   4
ATOM      4  C   UNL     1       7.896  72.224  36.514  1.00  0.00     0.000 C 
BRANCH   4   5
ATOM      5  C   UNL     1       8.409  72.174  37.965  1.00  0.00     0.000 C 
BRANCH   5   6
ATOM      6  C   UNL     1       7.469  71.396  38.898  1.00  0.00     0.000 C 
BRANCH   6   7
ATOM      7  C   UNL     1       6.499  72.312  39.662  1.00  0.00     0.006 C 
BRANCH   7   8
ATOM      8  C   UNL     1       5.056  71.794  39.618  1.00  0.00     0.053 C 
BRANCH   8   9
ATOM      9  C   UNL     1       4.417  72.043  38.286  1.00  0.00     0.041 C 
ATOM     10  O   UNL     1       4.318  71.109  37.446  1.00  0.00    -0.550 OA
ATOM     11  O   UNL     1       3.966  73.315  37.956  1.00  0.00    -0.550 OA
ENDBRANCH   8   9
ENDBRANCH   7   8
ENDBRANCH   6   7
ENDBRANCH   5   6
ENDBRANCH   4   5
ENDBRANCH   3   4
ENDBRANCH   2   3
ENDBRANCH   1   2
BRANCH   1  12
ATOM     12  C   UNL     1       6.367  75.975  38.893  1.00  0.00     0.000 C 
BRANCH  12  13
ATOM     13  C   UNL     1       5.224  76.936  39.268  1.00  0.00    -0.000 C 
BRANCH  13  14
ATOM     14  C   UNL     1       5.734  78.330  39.666  1.00  0.00    -0.000 C 
BRANCH  14  15
ATOM     15  C   UNL     1       5.611  79.351  38.522  1.00  0.00    -0.000 C 
BRANCH  15  16
ATOM     16  C   UNL     1       6.860  79.393  37.625  1.00  0.00    -0.000 C 
BRANCH  16  17
ATOM     17  C   UNL     1       8.188  79.621  38.373  1.00  0.00    -0.000 C 
BRANCH  17  18
ATOM     18  C   UNL     1       9.449  79.127  37.637  1.00  0.00    -0.000 C 
BRANCH  18  19
ATOM     19  C   UNL     1       9.178  78.182  36.454  1.00  0.00    -0.003 C 
ATOM     20  C   UNL     1      10.279  77.140  36.259  1.00  0.00     0.004 C 
ENDBRANCH  18  19
ENDBRANCH  17  18
ENDBRANCH  16  17
ENDBRANCH  15  16
ENDBRANCH  14  15
ENDBRANCH  13  14
ENDBRANCH  12  13
ENDBRANCH   1  12
TORSDOF 16
ENDMDL
MODEL 9
REMARK VINA RESULT:    -3.772      2.003      4.083
REMARK INTER + INTRA:         -10.351
REMARK INTER:                  -8.057
REMARK INTRA:                  -2.294
REMARK UNBOUND:                -3.051
REMARK SMILES CCCCCCCCCCCCCCCCCC(=O)[O-]
REMARK SMILES IDX 10 1 11 2 12 3 13 4 14 5 15 6 16 7 17 8 18 9 19 10 20 11
REMARK SMILES IDX 9 12 8 13 7 14 6 15 5 16 4 17 3 18 2 19 1 20
REMARK H PARENT
REMARK Flexibility Score: inf
ROOT
ATOM      1  C   UNL     1       7.559  79.354  36.389  1.00  0.00     0.000 C 
ENDROOT
BRANCH   1   2
ATOM      2  C   UNL     1       8.174  77.972  36.668  1.00  0.00     0.000 C 
BRANCH   2   3
ATOM      3  C   UNL     1       9.413  78.043  37.577  1.00  0.00     0.000 C 
BRANCH   3   4
ATOM      4  C   UNL     1       9.705  79.460  38.111  1.00  0.00     0.000 C 
BRANCH   4   5
ATOM      5  C   UNL     1       9.837  79.487  39.645  1.00  0.00     0.000 C 
BRANCH   5   6
ATOM      6  C   UNL     1       9.128  80.693  40.279  1.00  0.00     0.000 C 
BRANCH   6   7
ATOM      7  C   UNL     1      10.062  81.529  41.171  1.00  0.00     0.006 C 
BRANCH   7   8
ATOM      8  C   UNL     1       9.772  81.327  42.664  1.00  0.00     0.053 C 
BRANCH   8   9
ATOM      9  C   UNL     1      10.881  80.589  43.350  1.00  0.00     0.041 C 
ATOM     10  O   UNL     1      10.902  80.504  44.607  1.00  0.00    -0.550 OA
ATOM     11  O   UNL     1      11.910  80.027  42.604  1.00  0.00    -0.550 OA
ENDBRANCH   8   9
ENDBRANCH   7   8
ENDBRANCH   6   7
ENDBRANCH   5   6
ENDBRANCH   4   5
ENDBRANCH   3   4
ENDBRANCH   2   3
ENDBRANCH   1   2
BRANCH   1  12
ATOM     12  C   UNL     1       6.073  79.424  36.769  1.00  0.00     0.000 C 
BRANCH  12  13
ATOM     13  C   UNL     1       5.844  80.084  38.140  1.00  0.00    -0.000 C 
BRANCH  13  14
ATOM     14  C   UNL     1       5.242  79.114  39.168  1.00  0.00    -0.000 C 
BRANCH  14  15
ATOM     15  C   UNL     1       6.318  78.329  39.938  1.00  0.00    -0.000 C 
BRANCH  15  16
ATOM     16  C   UNL     1       6.219  76.809  39.715  1.00  0.00    -0.000 C 
BRANCH  16  17
ATOM     17  C   UNL     1       5.247  76.380  38.598  1.00  0.00    -0.000 C 
BRANCH  17  18
ATOM     18  C   UNL     1       4.077  75.486  39.056  1.00  0.00    -0.000 C 
BRANCH  18  19
ATOM     19  C   UNL     1       4.495  74.166  39.726  1.00  0.00    -0.003 C 
ATOM     20  C   UNL     1       5.406  73.314  38.843  1.00  0.00     0.004 C 
ENDBRANCH  18  19
ENDBRANCH  17  18
ENDBRANCH  16  17
ENDBRANCH  15  16
ENDBRANCH  14  15
ENDBRANCH  13  14
ENDBRANCH  12  13
ENDBRANCH   1  12
TORSDOF 16
ENDMDL
