MODEL 1
REMARK VINA RESULT:    -2.864      0.000      0.000
REMARK INTER + INTRA:         -12.055
REMARK INTER:                  -7.216
REMARK INTRA:                  -4.839
REMARK UNBOUND:                -4.839
REMARK SMILES CCCCCCCCCCCCCCCCCCCCCCCCCCCC(=O)[O-]
REMARK SMILES IDX 15 1 16 2 17 3 18 4 19 5 20 6 21 7 22 8 23 9 24 10 25 11
REMARK SMILES IDX 26 12 27 13 28 14 29 15 30 16 14 17 13 18 12 19 11 20 10 21
REMARK SMILES IDX 9 22 8 23 7 24 6 25 5 26 4 27 3 28 2 29 1 30
REMARK H PARENT
REMARK Flexibility Score: inf
ROOT
ATOM      1  C   UNL     1       3.976  18.772   5.943  1.00  0.00     0.000 C 
ENDROOT
BRANCH   1   2
ATOM      2  C   UNL     1       3.732  20.063   5.140  1.00  0.00     0.000 C 
BRANCH   2   3
ATOM      3  C   UNL     1       2.309  20.613   5.306  1.00  0.00     0.000 C 
BRANCH   3   4
ATOM      4  C   UNL     1       1.591  19.932   6.480  1.00  0.00     0.000 C 
BRANCH   4   5
ATOM      5  C   UNL     1       1.127  20.927   7.559  1.00  0.00     0.000 C 
BRANCH   5   6
ATOM      6  C   UNL     1       2.026  20.950   8.813  1.00  0.00     0.000 C 
BRANCH   6   7
ATOM      7  C   UNL     1       1.269  20.550  10.088  1.00  0.00     0.000 C 
BRANCH   7   8
ATOM      8  C   UNL     1       1.972  19.388  10.807  1.00  0.00     0.000 C 
BRANCH   8   9
ATOM      9  C   UNL     1       3.142  18.806  10.000  1.00  0.00     0.000 C 
BRANCH   9  10
ATOM     10  C   UNL     1       4.166  18.067  10.880  1.00  0.00     0.000 C 
BRANCH  10  11
ATOM     11  C   UNL     1       3.584  17.667  12.253  1.00  0.00     0.000 C 
BRANCH  11  12
ATOM     12  C   UNL     1       3.889  16.210  12.659  1.00  0.00     0.006 C 
BRANCH  12  13
ATOM     13  C   UNL     1       4.849  15.475  11.711  1.00  0.00     0.053 C 
BRANCH  13  14
ATOM     14  C   UNL     1       4.670  13.987  11.778  1.00  0.00     0.041 C 
ATOM     15  O   UNL     1       5.251  13.238  10.949  1.00  0.00    -0.550 OA
ATOM     16  O   UNL     1       3.852  13.430  12.751  1.00  0.00    -0.550 OA
ENDBRANCH  13  14
ENDBRANCH  12  13
ENDBRANCH  11  12
ENDBRANCH  10  11
ENDBRANCH   9  10
ENDBRANCH   8   9
ENDBRANCH   7   8
ENDBRANCH   6   7
ENDBRANCH   5   6
ENDBRANCH   4   5
ENDBRANCH   3   4
ENDBRANCH   2   3
ENDBRANCH   1   2
BRANCH   1  17
ATOM     17  C   UNL     1       5.416  18.579   6.456  1.00  0.00     0.000 C 
BRANCH  17  18
ATOM     18  C   UNL     1       5.538  17.444   7.486  1.00  0.00     0.000 C 
BRANCH  18  19
ATOM     19  C   UNL     1       4.337  16.481   7.460  1.00  0.00     0.000 C 
BRANCH  19  20
ATOM     20  C   UNL     1       4.607  15.086   8.054  1.00  0.00     0.000 C 
BRANCH  20  21
ATOM     21  C   UNL     1       4.093  13.944   7.163  1.00  0.00     0.000 C 
BRANCH  21  22
ATOM     22  C   UNL     1       5.151  12.837   7.024  1.00  0.00    -0.000 C 
BRANCH  22  23
ATOM     23  C   UNL     1       6.536  13.267   7.533  1.00  0.00    -0.000 C 
BRANCH  23  24
ATOM     24  C   UNL     1       7.593  13.488   6.434  1.00  0.00    -0.000 C 
BRANCH  24  25
ATOM     25  C   UNL     1       8.151  14.926   6.382  1.00  0.00    -0.000 C 
BRANCH  25  26
ATOM     26  C   UNL     1       7.621  15.715   5.171  1.00  0.00    -0.000 C 
BRANCH  26  27
ATOM     27  C   UNL     1       6.590  14.926   4.349  1.00  0.00    -0.000 C 
BRANCH  27  28
ATOM     28  C   UNL     1       5.377  15.781   3.941  1.00  0.00    -0.000 C 
BRANCH  28  29
ATOM     29  C   UNL     1       5.604  16.524   2.615  1.00  0.00    -0.003 C 
ATOM     30  C   UNL     1       5.909  18.009   2.815  1.00  0.00     0.004 C 
ENDBRANCH  28  29
ENDBRANCH  27  28
ENDBRANCH  26  27
ENDBRANCH  25  26
ENDBRANCH  24  25
ENDBRANCH  23  24
ENDBRANCH  22  23
ENDBRANCH  21  22
ENDBRANCH  20  21
ENDBRANCH  19  20
ENDBRANCH  18  19
ENDBRANCH  17  18
ENDBRANCH   1  17
TORSDOF 26
ENDMDL
MODEL 2
REMARK VINA RESULT:    -2.852      2.245      5.508
REMARK INTER + INTRA:         -12.027
REMARK INTER:                  -7.417
REMARK INTRA:                  -4.610
REMARK UNBOUND:                -4.839
REMARK SMILES CCCCCCCCCCCCCCCCCCCCCCCCCCCC(=O)[O-]
REMARK SMILES IDX 15 1 16 2 17 3 18 4 19 5 20 6 21 7 22 8 23 9 24 10 25 11
REMARK SMILES IDX 26 12 27 13 28 14 29 15 30 16 14 17 13 18 12 19 11 20 10 21
REMARK SMILES IDX 9 22 8 23 7 24 6 25 5 26 4 27 3 28 2 29 1 30
REMARK H PARENT
REMARK Flexibility Score: inf
ROOT
ATOM      1  C   UNL     1      -0.040  21.508   9.373  1.00  0.00     0.000 C 
ENDROOT
BRANCH   1   2
ATOM      2  C   UNL     1       1.356  20.981   9.755  1.00  0.00     0.000 C 
BRANCH   2   3
ATOM      3  C   UNL     1       1.342  20.110  11.019  1.00  0.00     0.000 C 
BRANCH   3   4
ATOM      4  C   UNL     1       2.432  19.031  10.953  1.00  0.00     0.000 C 
BRANCH   4   5
ATOM      5  C   UNL     1       2.580  18.245  12.268  1.00  0.00     0.000 C 
BRANCH   5   6
ATOM      6  C   UNL     1       3.844  17.363  12.328  1.00  0.00     0.000 C 
BRANCH   6   7
ATOM      7  C   UNL     1       4.869  17.727  11.244  1.00  0.00     0.000 C 
BRANCH   7   8
ATOM      8  C   UNL     1       5.418  16.467  10.557  1.00  0.00     0.000 C 
BRANCH   8   9
ATOM      9  C   UNL     1       4.353  15.718   9.742  1.00  0.00     0.000 C 
BRANCH   9  10
ATOM     10  C   UNL     1       4.958  14.848   8.626  1.00  0.00     0.000 C 
BRANCH  10  11
ATOM     11  C   UNL     1       4.027  14.729   7.399  1.00  0.00     0.000 C 
BRANCH  11  12
ATOM     12  C   UNL     1       4.689  15.148   6.071  1.00  0.00     0.006 C 
BRANCH  12  13
ATOM     13  C   UNL     1       4.837  14.011   5.049  1.00  0.00     0.053 C 
BRANCH  13  14
ATOM     14  C   UNL     1       4.578  12.668   5.666  1.00  0.00     0.041 C 
ATOM     15  O   UNL     1       5.504  12.046   6.250  1.00  0.00    -0.550 OA
ATOM     16  O   UNL     1       3.313  12.100   5.585  1.00  0.00    -0.550 OA
ENDBRANCH  13  14
ENDBRANCH  12  13
ENDBRANCH  11  12
ENDBRANCH  10  11
ENDBRANCH   9  10
ENDBRANCH   8   9
ENDBRANCH   7   8
ENDBRANCH   6   7
ENDBRANCH   5   6
ENDBRANCH   4   5
ENDBRANCH   3   4
ENDBRANCH   2   3
ENDBRANCH   1   2
BRANCH   1  17
ATOM     17  C   UNL     1      -0.143  22.143   7.973  1.00  0.00     0.000 C 
BRANCH  17  18
ATOM     18  C   UNL     1      -0.819  21.222   6.945  1.00  0.00     0.000 C 
BRANCH  18  19
ATOM     19  C   UNL     1       0.173  20.272   6.250  1.00  0.00     0.000 C 
BRANCH  19  20
ATOM     20  C   UNL     1       1.421  20.951   5.657  1.00  0.00     0.000 C 
BRANCH  20  21
ATOM     21  C   UNL     1       2.695  20.105   5.811  1.00  0.00     0.000 C 
BRANCH  21  22
ATOM     22  C   UNL     1       2.502  19.006   6.867  1.00  0.00    -0.000 C 
BRANCH  22  23
ATOM     23  C   UNL     1       3.824  18.559   7.513  1.00  0.00    -0.000 C 
BRANCH  23  24
ATOM     24  C   UNL     1       4.765  19.707   7.926  1.00  0.00    -0.000 C 
BRANCH  24  25
ATOM     25  C   UNL     1       6.247  19.290   8.037  1.00  0.00    -0.000 C 
BRANCH  25  26
ATOM     26  C   UNL     1       6.535  17.960   7.317  1.00  0.00    -0.000 C 
BRANCH  26  27
ATOM     27  C   UNL     1       7.609  18.092   6.225  1.00  0.00    -0.000 C 
BRANCH  27  28
ATOM     28  C   UNL     1       7.088  17.701   4.832  1.00  0.00    -0.000 C 
BRANCH  28  29
ATOM     29  C   UNL     1       5.804  18.457   4.453  1.00  0.00    -0.003 C 
ATOM     30  C   UNL     1       5.710  18.749   2.955  1.00  0.00     0.004 C 
ENDBRANCH  28  29
ENDBRANCH  27  28
ENDBRANCH  26  27
ENDBRANCH  25  26
ENDBRANCH  24  25
ENDBRANCH  23  24
ENDBRANCH  22  23
ENDBRANCH  21  22
ENDBRANCH  20  21
ENDBRANCH  19  20
ENDBRANCH  18  19
ENDBRANCH  17  18
ENDBRANCH   1  17
TORSDOF 26
ENDMDL
MODEL 3
REMARK VINA RESULT:    -2.718      1.308      2.803
REMARK INTER + INTRA:         -11.687
REMARK INTER:                  -7.224
REMARK INTRA:                  -4.463
REMARK UNBOUND:                -4.839
REMARK SMILES CCCCCCCCCCCCCCCCCCCCCCCCCCCC(=O)[O-]
REMARK SMILES IDX 15 1 16 2 17 3 18 4 19 5 20 6 21 7 22 8 23 9 24 10 25 11
REMARK SMILES IDX 26 12 27 13 28 14 29 15 30 16 14 17 13 18 12 19 11 20 10 21
REMARK SMILES IDX 9 22 8 23 7 24 6 25 5 26 4 27 3 28 2 29 1 30
REMARK H PARENT
REMARK Flexibility Score: inf
ROOT
ATOM      1  C   UNL     1       2.139  20.852   5.130  1.00  0.00     0.000 C 
ENDROOT
BRANCH   1   2
ATOM      2  C   UNL     1       1.561  20.047   6.310  1.00  0.00     0.000 C 
BRANCH   2   3
ATOM      3  C   UNL     1       0.554  20.849   7.146  1.00  0.00     0.000 C 
BRANCH   3   4
ATOM      4  C   UNL     1       1.003  20.937   8.611  1.00  0.00     0.000 C 
BRANCH   4   5
ATOM      5  C   UNL     1       2.532  20.894   8.774  1.00  0.00     0.000 C 
BRANCH   5   6
ATOM      6  C   UNL     1       3.039  19.685   9.588  1.00  0.00     0.000 C 
BRANCH   6   7
ATOM      7  C   UNL     1       2.139  19.364  10.790  1.00  0.00     0.000 C 
BRANCH   7   8
ATOM      8  C   UNL     1       2.746  18.248  11.653  1.00  0.00     0.000 C 
BRANCH   8   9
ATOM      9  C   UNL     1       3.933  17.547  10.976  1.00  0.00     0.000 C 
BRANCH   9  10
ATOM     10  C   UNL     1       4.470  16.358  11.792  1.00  0.00     0.000 C 
BRANCH  10  11
ATOM     11  C   UNL     1       4.723  15.108  10.921  1.00  0.00     0.000 C 
BRANCH  11  12
ATOM     12  C   UNL     1       5.601  14.040  11.603  1.00  0.00     0.006 C 
BRANCH  12  13
ATOM     13  C   UNL     1       5.241  12.592  11.233  1.00  0.00     0.053 C 
BRANCH  13  14
ATOM     14  C   UNL     1       4.236  12.007  12.180  1.00  0.00     0.041 C 
ATOM     15  O   UNL     1       3.971  12.588  13.266  1.00  0.00    -0.550 OA
ATOM     16  O   UNL     1       3.599  10.814  11.867  1.00  0.00    -0.550 OA
ENDBRANCH  13  14
ENDBRANCH  12  13
ENDBRANCH  11  12
ENDBRANCH  10  11
ENDBRANCH   9  10
ENDBRANCH   8   9
ENDBRANCH   7   8
ENDBRANCH   6   7
ENDBRANCH   5   6
ENDBRANCH   4   5
ENDBRANCH   3   4
ENDBRANCH   2   3
ENDBRANCH   1   2
BRANCH   1  17
ATOM     17  C   UNL     1       3.598  20.522   4.761  1.00  0.00     0.000 C 
BRANCH  17  18
ATOM     18  C   UNL     1       4.331  19.736   5.861  1.00  0.00     0.000 C 
BRANCH  18  19
ATOM     19  C   UNL     1       4.733  18.318   5.415  1.00  0.00     0.000 C 
BRANCH  19  20
ATOM     20  C   UNL     1       4.875  17.292   6.554  1.00  0.00     0.000 C 
BRANCH  20  21
ATOM     21  C   UNL     1       5.556  17.872   7.804  1.00  0.00     0.000 C 
BRANCH  21  22
ATOM     22  C   UNL     1       6.617  16.904   8.352  1.00  0.00    -0.000 C 
BRANCH  22  23
ATOM     23  C   UNL     1       6.958  15.773   7.367  1.00  0.00    -0.000 C 
BRANCH  23  24
ATOM     24  C   UNL     1       7.272  14.415   8.022  1.00  0.00    -0.000 C 
BRANCH  24  25
ATOM     25  C   UNL     1       6.283  13.293   7.640  1.00  0.00    -0.000 C 
BRANCH  25  26
ATOM     26  C   UNL     1       4.829  13.795   7.574  1.00  0.00    -0.000 C 
BRANCH  26  27
ATOM     27  C   UNL     1       4.158  13.509   6.222  1.00  0.00    -0.000 C 
BRANCH  27  28
ATOM     28  C   UNL     1       5.173  13.364   5.075  1.00  0.00    -0.000 C 
BRANCH  28  29
ATOM     29  C   UNL     1       5.263  14.630   4.208  1.00  0.00    -0.003 C 
ATOM     30  C   UNL     1       6.688  14.928   3.742  1.00  0.00     0.004 C 
ENDBRANCH  28  29
ENDBRANCH  27  28
ENDBRANCH  26  27
ENDBRANCH  25  26
ENDBRANCH  24  25
ENDBRANCH  23  24
ENDBRANCH  22  23
ENDBRANCH  21  22
ENDBRANCH  20  21
ENDBRANCH  19  20
ENDBRANCH  18  19
ENDBRANCH  17  18
ENDBRANCH   1  17
TORSDOF 26
ENDMDL
MODEL 4
REMARK VINA RESULT:    -2.711      2.438      7.065
REMARK INTER + INTRA:         -11.670
REMARK INTER:                  -6.904
REMARK INTRA:                  -4.766
REMARK UNBOUND:                -4.839
REMARK SMILES CCCCCCCCCCCCCCCCCCCCCCCCCCCC(=O)[O-]
REMARK SMILES IDX 15 1 16 2 17 3 18 4 19 5 20 6 21 7 22 8 23 9 24 10 25 11
REMARK SMILES IDX 26 12 27 13 28 14 29 15 30 16 14 17 13 18 12 19 11 20 10 21
REMARK SMILES IDX 9 22 8 23 7 24 6 25 5 26 4 27 3 28 2 29 1 30
REMARK H PARENT
REMARK Flexibility Score: inf
ROOT
ATOM      1  C   UNL     1       2.697  20.187   5.485  1.00  0.00     0.000 C 
ENDROOT
BRANCH   1   2
ATOM      2  C   UNL     1       2.833  19.152   6.618  1.00  0.00     0.000 C 
BRANCH   2   3
ATOM      3  C   UNL     1       4.181  18.419   6.602  1.00  0.00     0.000 C 
BRANCH   3   4
ATOM      4  C   UNL     1       5.228  19.177   7.430  1.00  0.00     0.000 C 
BRANCH   4   5
ATOM      5  C   UNL     1       6.673  18.863   7.006  1.00  0.00     0.000 C 
BRANCH   5   6
ATOM      6  C   UNL     1       7.330  17.729   7.822  1.00  0.00     0.000 C 
BRANCH   6   7
ATOM      7  C   UNL     1       6.635  17.495   9.171  1.00  0.00     0.000 C 
BRANCH   7   8
ATOM      8  C   UNL     1       7.021  16.131   9.763  1.00  0.00     0.000 C 
BRANCH   8   9
ATOM      9  C   UNL     1       6.342  14.954   9.046  1.00  0.00     0.000 C 
BRANCH   9  10
ATOM     10  C   UNL     1       4.807  15.000   9.146  1.00  0.00     0.000 C 
BRANCH  10  11
ATOM     11  C   UNL     1       4.127  15.108   7.764  1.00  0.00     0.000 C 
BRANCH  11  12
ATOM     12  C   UNL     1       5.110  15.022   6.578  1.00  0.00     0.006 C 
BRANCH  12  13
ATOM     13  C   UNL     1       4.630  14.133   5.420  1.00  0.00     0.053 C 
BRANCH  13  14
ATOM     14  C   UNL     1       4.558  12.688   5.817  1.00  0.00     0.041 C 
ATOM     15  O   UNL     1       5.581  11.957   5.747  1.00  0.00    -0.550 OA
ATOM     16  O   UNL     1       3.356  12.148   6.256  1.00  0.00    -0.550 OA
ENDBRANCH  13  14
ENDBRANCH  12  13
ENDBRANCH  11  12
ENDBRANCH  10  11
ENDBRANCH   9  10
ENDBRANCH   8   9
ENDBRANCH   7   8
ENDBRANCH   6   7
ENDBRANCH   5   6
ENDBRANCH   4   5
ENDBRANCH   3   4
ENDBRANCH   2   3
ENDBRANCH   1   2
BRANCH   1  17
ATOM     17  C   UNL     1       1.380  20.987   5.480  1.00  0.00     0.000 C 
BRANCH  17  18
ATOM     18  C   UNL     1       0.370  20.485   6.524  1.00  0.00     0.000 C 
BRANCH  18  19
ATOM     19  C   UNL     1       0.037  21.544   7.591  1.00  0.00     0.000 C 
BRANCH  19  20
ATOM     20  C   UNL     1       0.667  21.297   8.974  1.00  0.00     0.000 C 
BRANCH  20  21
ATOM     21  C   UNL     1       2.105  21.829   9.082  1.00  0.00     0.000 C 
BRANCH  21  22
ATOM     22  C   UNL     1       2.962  20.920   9.979  1.00  0.00    -0.000 C 
BRANCH  22  23
ATOM     23  C   UNL     1       2.269  19.589  10.314  1.00  0.00    -0.000 C 
BRANCH  23  24
ATOM     24  C   UNL     1       3.203  18.364  10.354  1.00  0.00    -0.000 C 
BRANCH  24  25
ATOM     25  C   UNL     1       4.166  18.351  11.560  1.00  0.00    -0.000 C 
BRANCH  25  26
ATOM     26  C   UNL     1       4.188  16.988  12.276  1.00  0.00    -0.000 C 
BRANCH  26  27
ATOM     27  C   UNL     1       4.280  17.116  13.804  1.00  0.00    -0.000 C 
BRANCH  27  28
ATOM     28  C   UNL     1       3.161  17.991  14.395  1.00  0.00    -0.000 C 
BRANCH  28  29
ATOM     29  C   UNL     1       1.760  17.450  14.065  1.00  0.00    -0.003 C 
ATOM     30  C   UNL     1       0.816  18.533  13.541  1.00  0.00     0.004 C 
ENDBRANCH  28  29
ENDBRANCH  27  28
ENDBRANCH  26  27
ENDBRANCH  25  26
ENDBRANCH  24  25
ENDBRANCH  23  24
ENDBRANCH  22  23
ENDBRANCH  21  22
ENDBRANCH  20  21
ENDBRANCH  19  20
ENDBRANCH  18  19
ENDBRANCH  17  18
ENDBRANCH   1  17
TORSDOF 26
ENDMDL
MODEL 5
REMARK VINA RESULT:    -2.685      2.109      5.875
REMARK INTER + INTRA:         -11.604
REMARK INTER:                  -5.828
REMARK INTRA:                  -5.776
REMARK UNBOUND:                -4.839
REMARK SMILES CCCCCCCCCCCCCCCCCCCCCCCCCCCC(=O)[O-]
REMARK SMILES IDX 15 1 16 2 17 3 18 4 19 5 20 6 21 7 22 8 23 9 24 10 25 11
REMARK SMILES IDX 26 12 27 13 28 14 29 15 30 16 14 17 13 18 12 19 11 20 10 21
REMARK SMILES IDX 9 22 8 23 7 24 6 25 5 26 4 27 3 28 2 29 1 30
REMARK H PARENT
REMARK Flexibility Score: inf
ROOT
ATOM      1  C   UNL     1       0.035  21.236   9.713  1.00  0.00     0.000 C 
ENDROOT
BRANCH   1   2
ATOM      2  C   UNL     1       0.328  22.527   8.925  1.00  0.00     0.000 C 
BRANCH   2   3
ATOM      3  C   UNL     1       0.675  22.266   7.453  1.00  0.00     0.000 C 
BRANCH   3   4
ATOM      4  C   UNL     1       0.173  20.885   7.008  1.00  0.00     0.000 C 
BRANCH   4   5
ATOM      5  C   UNL     1       1.262  20.043   6.321  1.00  0.00     0.000 C 
BRANCH   5   6
ATOM      6  C   UNL     1       2.181  20.856   5.385  1.00  0.00     0.000 C 
BRANCH   6   7
ATOM      7  C   UNL     1       3.549  20.189   5.178  1.00  0.00     0.000 C 
BRANCH   7   8
ATOM      8  C   UNL     1       3.700  18.946   6.068  1.00  0.00     0.000 C 
BRANCH   8   9
ATOM      9  C   UNL     1       4.879  18.053   5.654  1.00  0.00     0.000 C 
BRANCH   9  10
ATOM     10  C   UNL     1       4.832  16.660   6.307  1.00  0.00     0.000 C 
BRANCH  10  11
ATOM     11  C   UNL     1       4.069  16.663   7.650  1.00  0.00     0.000 C 
BRANCH  11  12
ATOM     12  C   UNL     1       4.529  15.565   8.631  1.00  0.00     0.006 C 
BRANCH  12  13
ATOM     13  C   UNL     1       4.344  15.922  10.114  1.00  0.00     0.053 C 
BRANCH  13  14
ATOM     14  C   UNL     1       4.991  14.912  11.016  1.00  0.00     0.041 C 
ATOM     15  O   UNL     1       4.323  14.351  11.925  1.00  0.00    -0.550 OA
ATOM     16  O   UNL     1       6.334  14.600  10.858  1.00  0.00    -0.550 OA
ENDBRANCH  13  14
ENDBRANCH  12  13
ENDBRANCH  11  12
ENDBRANCH  10  11
ENDBRANCH   9  10
ENDBRANCH   8   9
ENDBRANCH   7   8
ENDBRANCH   6   7
ENDBRANCH   5   6
ENDBRANCH   4   5
ENDBRANCH   3   4
ENDBRANCH   2   3
ENDBRANCH   1   2
BRANCH   1  17
ATOM     17  C   UNL     1       0.999  20.943  10.878  1.00  0.00     0.000 C 
BRANCH  17  18
ATOM     18  C   UNL     1       1.877  19.705  10.632  1.00  0.00     0.000 C 
BRANCH  18  19
ATOM     19  C   UNL     1       2.944  19.935   9.546  1.00  0.00     0.000 C 
BRANCH  19  20
ATOM     20  C   UNL     1       3.765  21.228   9.702  1.00  0.00     0.000 C 
BRANCH  20  21
ATOM     21  C   UNL     1       4.263  21.788   8.360  1.00  0.00     0.000 C 
BRANCH  21  22
ATOM     22  C   UNL     1       5.792  21.947   8.364  1.00  0.00    -0.000 C 
BRANCH  22  23
ATOM     23  C   UNL     1       6.496  20.965   7.413  1.00  0.00    -0.000 C 
BRANCH  23  24
ATOM     24  C   UNL     1       7.303  19.852   8.110  1.00  0.00    -0.000 C 
BRANCH  24  25
ATOM     25  C   UNL     1       6.432  18.846   8.892  1.00  0.00    -0.000 C 
BRANCH  25  26
ATOM     26  C   UNL     1       7.277  17.892   9.756  1.00  0.00    -0.000 C 
BRANCH  26  27
ATOM     27  C   UNL     1       7.645  18.489  11.122  1.00  0.00    -0.000 C 
BRANCH  27  28
ATOM     28  C   UNL     1       6.769  17.944  12.264  1.00  0.00    -0.000 C 
BRANCH  28  29
ATOM     29  C   UNL     1       5.463  18.738  12.431  1.00  0.00    -0.003 C 
ATOM     30  C   UNL     1       4.400  17.970  13.216  1.00  0.00     0.004 C 
ENDBRANCH  28  29
ENDBRANCH  27  28
ENDBRANCH  26  27
ENDBRANCH  25  26
ENDBRANCH  24  25
ENDBRANCH  23  24
ENDBRANCH  22  23
ENDBRANCH  21  22
ENDBRANCH  20  21
ENDBRANCH  19  20
ENDBRANCH  18  19
ENDBRANCH  17  18
ENDBRANCH   1  17
TORSDOF 26
ENDMDL
MODEL 6
REMARK VINA RESULT:    -2.674      2.841      6.735
REMARK INTER + INTRA:         -11.576
REMARK INTER:                  -7.095
REMARK INTRA:                  -4.482
REMARK UNBOUND:                -4.839
REMARK SMILES CCCCCCCCCCCCCCCCCCCCCCCCCCCC(=O)[O-]
REMARK SMILES IDX 15 1 16 2 17 3 18 4 19 5 20 6 21 7 22 8 23 9 24 10 25 11
REMARK SMILES IDX 26 12 27 13 28 14 29 15 30 16 14 17 13 18 12 19 11 20 10 21
REMARK SMILES IDX 9 22 8 23 7 24 6 25 5 26 4 27 3 28 2 29 1 30
REMARK H PARENT
REMARK Flexibility Score: inf
ROOT
ATOM      1  C   UNL     1       5.344  21.489   8.464  1.00  0.00     0.000 C 
ENDROOT
BRANCH   1   2
ATOM      2  C   UNL     1       3.869  21.930   8.499  1.00  0.00     0.000 C 
BRANCH   2   3
ATOM      3  C   UNL     1       3.210  21.709   9.868  1.00  0.00     0.000 C 
BRANCH   3   4
ATOM      4  C   UNL     1       2.300  20.473   9.846  1.00  0.00     0.000 C 
BRANCH   4   5
ATOM      5  C   UNL     1       2.289  19.712  11.183  1.00  0.00     0.000 C 
BRANCH   5   6
ATOM      6  C   UNL     1       3.010  18.349  11.131  1.00  0.00     0.000 C 
BRANCH   6   7
ATOM      7  C   UNL     1       4.538  18.493  11.065  1.00  0.00     0.000 C 
BRANCH   7   8
ATOM      8  C   UNL     1       5.166  17.360  10.239  1.00  0.00     0.000 C 
BRANCH   8   9
ATOM      9  C   UNL     1       4.189  16.206   9.968  1.00  0.00     0.000 C 
BRANCH   9  10
ATOM     10  C   UNL     1       4.441  15.515   8.616  1.00  0.00     0.000 C 
BRANCH  10  11
ATOM     11  C   UNL     1       5.915  15.615   8.167  1.00  0.00     0.000 C 
BRANCH  11  12
ATOM     12  C   UNL     1       6.089  15.914   6.664  1.00  0.00     0.006 C 
BRANCH  12  13
ATOM     13  C   UNL     1       4.928  15.430   5.781  1.00  0.00     0.053 C 
BRANCH  13  14
ATOM     14  C   UNL     1       4.975  13.948   5.559  1.00  0.00     0.041 C 
ATOM     15  O   UNL     1       6.032  13.399   5.150  1.00  0.00    -0.550 OA
ATOM     16  O   UNL     1       3.846  13.175   5.795  1.00  0.00    -0.550 OA
ENDBRANCH  13  14
ENDBRANCH  12  13
ENDBRANCH  11  12
ENDBRANCH  10  11
ENDBRANCH   9  10
ENDBRANCH   8   9
ENDBRANCH   7   8
ENDBRANCH   6   7
ENDBRANCH   5   6
ENDBRANCH   4   5
ENDBRANCH   3   4
ENDBRANCH   2   3
ENDBRANCH   1   2
BRANCH   1  17
ATOM     17  C   UNL     1       5.588  20.045   7.987  1.00  0.00     0.000 C 
BRANCH  17  18
ATOM     18  C   UNL     1       5.744  19.935   6.462  1.00  0.00     0.000 C 
BRANCH  18  19
ATOM     19  C   UNL     1       4.579  19.183   5.794  1.00  0.00     0.000 C 
BRANCH  19  20
ATOM     20  C   UNL     1       3.501  18.657   6.760  1.00  0.00     0.000 C 
BRANCH  20  21
ATOM     21  C   UNL     1       2.139  19.343   6.571  1.00  0.00     0.000 C 
BRANCH  21  22
ATOM     22  C   UNL     1       2.212  20.418   5.474  1.00  0.00    -0.000 C 
BRANCH  22  23
ATOM     23  C   UNL     1       0.972  21.327   5.446  1.00  0.00    -0.000 C 
BRANCH  23  24
ATOM     24  C   UNL     1       0.427  21.724   6.832  1.00  0.00    -0.000 C 
BRANCH  24  25
ATOM     25  C   UNL     1      -1.063  21.379   7.040  1.00  0.00    -0.000 C 
BRANCH  25  26
ATOM     26  C   UNL     1      -1.490  20.132   6.245  1.00  0.00    -0.000 C 
BRANCH  26  27
ATOM     27  C   UNL     1      -2.668  20.401   5.296  1.00  0.00    -0.000 C 
BRANCH  27  28
ATOM     28  C   UNL     1      -3.776  19.340   5.409  1.00  0.00    -0.000 C 
BRANCH  28  29
ATOM     29  C   UNL     1      -3.356  18.146   6.282  1.00  0.00    -0.003 C 
ATOM     30  C   UNL     1      -3.186  16.857   5.478  1.00  0.00     0.004 C 
ENDBRANCH  28  29
ENDBRANCH  27  28
ENDBRANCH  26  27
ENDBRANCH  25  26
ENDBRANCH  24  25
ENDBRANCH  23  24
ENDBRANCH  22  23
ENDBRANCH  21  22
ENDBRANCH  20  21
ENDBRANCH  19  20
ENDBRANCH  18  19
ENDBRANCH  17  18
ENDBRANCH   1  17
TORSDOF 26
ENDMDL
MODEL 7
REMARK VINA RESULT:    -2.665      2.023      5.206
REMARK INTER + INTRA:         -11.554
REMARK INTER:                  -7.104
REMARK INTRA:                  -4.451
REMARK UNBOUND:                -4.839
REMARK SMILES CCCCCCCCCCCCCCCCCCCCCCCCCCCC(=O)[O-]
REMARK SMILES IDX 15 1 16 2 17 3 18 4 19 5 20 6 21 7 22 8 23 9 24 10 25 11
REMARK SMILES IDX 26 12 27 13 28 14 29 15 30 16 14 17 13 18 12 19 11 20 10 21
REMARK SMILES IDX 9 22 8 23 7 24 6 25 5 26 4 27 3 28 2 29 1 30
REMARK H PARENT
REMARK Flexibility Score: inf
ROOT
ATOM      1  C   UNL     1       1.341  20.650   9.756  1.00  0.00     0.000 C 
ENDROOT
BRANCH   1   2
ATOM      2  C   UNL     1       2.410  19.625  10.179  1.00  0.00     0.000 C 
BRANCH   2   3
ATOM      3  C   UNL     1       2.094  18.946  11.519  1.00  0.00     0.000 C 
BRANCH   3   4
ATOM      4  C   UNL     1       3.219  17.984  11.925  1.00  0.00     0.000 C 
BRANCH   4   5
ATOM      5  C   UNL     1       4.541  18.259  11.188  1.00  0.00     0.000 C 
BRANCH   5   6
ATOM      6  C   UNL     1       5.398  16.998  10.952  1.00  0.00     0.000 C 
BRANCH   6   7
ATOM      7  C   UNL     1       4.597  15.852  10.317  1.00  0.00     0.000 C 
BRANCH   7   8
ATOM      8  C   UNL     1       4.655  14.587  11.187  1.00  0.00     0.000 C 
BRANCH   8   9
ATOM      9  C   UNL     1       5.539  13.486  10.583  1.00  0.00     0.000 C 
BRANCH   9  10
ATOM     10  C   UNL     1       6.371  13.977   9.385  1.00  0.00     0.000 C 
BRANCH  10  11
ATOM     11  C   UNL     1       6.076  13.182   8.095  1.00  0.00     0.000 C 
BRANCH  11  12
ATOM     12  C   UNL     1       5.206  11.928   8.320  1.00  0.00     0.006 C 
BRANCH  12  13
ATOM     13  C   UNL     1       4.926  11.113   7.048  1.00  0.00     0.053 C 
BRANCH  13  14
ATOM     14  C   UNL     1       4.548  11.992   5.893  1.00  0.00     0.041 C 
ATOM     15  O   UNL     1       3.418  12.549   5.860  1.00  0.00    -0.550 OA
ATOM     16  O   UNL     1       5.441  12.187   4.848  1.00  0.00    -0.550 OA
ENDBRANCH  13  14
ENDBRANCH  12  13
ENDBRANCH  11  12
ENDBRANCH  10  11
ENDBRANCH   9  10
ENDBRANCH   8   9
ENDBRANCH   7   8
ENDBRANCH   6   7
ENDBRANCH   5   6
ENDBRANCH   4   5
ENDBRANCH   3   4
ENDBRANCH   2   3
ENDBRANCH   1   2
BRANCH   1  17
ATOM     17  C   UNL     1       1.608  21.366   8.419  1.00  0.00     0.000 C 
BRANCH  17  18
ATOM     18  C   UNL     1       0.611  20.969   7.318  1.00  0.00     0.000 C 
BRANCH  18  19
ATOM     19  C   UNL     1       1.235  20.053   6.249  1.00  0.00     0.000 C 
BRANCH  19  20
ATOM     20  C   UNL     1       2.770  19.943   6.298  1.00  0.00     0.000 C 
BRANCH  20  21
ATOM     21  C   UNL     1       3.258  18.570   6.787  1.00  0.00     0.000 C 
BRANCH  21  22
ATOM     22  C   UNL     1       4.661  18.673   7.406  1.00  0.00    -0.000 C 
BRANCH  22  23
ATOM     23  C   UNL     1       5.517  17.420   7.156  1.00  0.00    -0.000 C 
BRANCH  23  24
ATOM     24  C   UNL     1       4.732  16.181   6.685  1.00  0.00    -0.000 C 
BRANCH  24  25
ATOM     25  C   UNL     1       5.118  15.697   5.271  1.00  0.00    -0.000 C 
BRANCH  25  26
ATOM     26  C   UNL     1       6.638  15.748   5.032  1.00  0.00    -0.000 C 
BRANCH  26  27
ATOM     27  C   UNL     1       7.026  16.636   3.840  1.00  0.00    -0.000 C 
BRANCH  27  28
ATOM     28  C   UNL     1       5.892  17.583   3.411  1.00  0.00    -0.000 C 
BRANCH  28  29
ATOM     29  C   UNL     1       6.135  19.031   3.865  1.00  0.00    -0.003 C 
ATOM     30  C   UNL     1       5.034  19.987   3.406  1.00  0.00     0.004 C 
ENDBRANCH  28  29
ENDBRANCH  27  28
ENDBRANCH  26  27
ENDBRANCH  25  26
ENDBRANCH  24  25
ENDBRANCH  23  24
ENDBRANCH  22  23
ENDBRANCH  21  22
ENDBRANCH  20  21
ENDBRANCH  19  20
ENDBRANCH  18  19
ENDBRANCH  17  18
ENDBRANCH   1  17
TORSDOF 26
ENDMDL
MODEL 8
REMARK VINA RESULT:    -2.662      2.294      6.991
REMARK INTER + INTRA:         -11.546
REMARK INTER:                  -5.145
REMARK INTRA:                  -6.401
REMARK UNBOUND:                -4.839
REMARK SMILES CCCCCCCCCCCCCCCCCCCCCCCCCCCC(=O)[O-]
REMARK SMILES IDX 15 1 16 2 17 3 18 4 19 5 20 6 21 7 22 8 23 9 24 10 25 11
REMARK SMILES IDX 26 12 27 13 28 14 29 15 30 16 14 17 13 18 12 19 11 20 10 21
REMARK SMILES IDX 9 22 8 23 7 24 6 25 5 26 4 27 3 28 2 29 1 30
REMARK H PARENT
REMARK Flexibility Score: inf
ROOT
ATOM      1  C   UNL     1       3.251  18.256  10.799  1.00  0.00     0.000 C 
ENDROOT
BRANCH   1   2
ATOM      2  C   UNL     1       4.433  17.392  11.280  1.00  0.00     0.000 C 
BRANCH   2   3
ATOM      3  C   UNL     1       5.415  18.164  12.172  1.00  0.00     0.000 C 
BRANCH   3   4
ATOM      4  C   UNL     1       6.753  18.383  11.453  1.00  0.00     0.000 C 
BRANCH   4   5
ATOM      5  C   UNL     1       7.103  17.248  10.475  1.00  0.00     0.000 C 
BRANCH   5   6
ATOM      6  C   UNL     1       7.492  17.738   9.064  1.00  0.00     0.000 C 
BRANCH   6   7
ATOM      7  C   UNL     1       6.938  19.136   8.752  1.00  0.00     0.000 C 
BRANCH   7   8
ATOM      8  C   UNL     1       5.579  19.046   8.042  1.00  0.00     0.000 C 
BRANCH   8   9
ATOM      9  C   UNL     1       5.698  18.601   6.576  1.00  0.00     0.000 C 
BRANCH   9  10
ATOM     10  C   UNL     1       4.847  17.359   6.258  1.00  0.00     0.000 C 
BRANCH  10  11
ATOM     11  C   UNL     1       3.994  16.903   7.461  1.00  0.00     0.000 C 
BRANCH  11  12
ATOM     12  C   UNL     1       3.972  15.375   7.667  1.00  0.00     0.006 C 
BRANCH  12  13
ATOM     13  C   UNL     1       5.043  14.850   8.636  1.00  0.00     0.053 C 
BRANCH  13  14
ATOM     14  C   UNL     1       6.168  14.171   7.912  1.00  0.00     0.041 C 
ATOM     15  O   UNL     1       5.946  13.529   6.851  1.00  0.00    -0.550 OA
ATOM     16  O   UNL     1       7.460  14.241   8.416  1.00  0.00    -0.550 OA
ENDBRANCH  13  14
ENDBRANCH  12  13
ENDBRANCH  11  12
ENDBRANCH  10  11
ENDBRANCH   9  10
ENDBRANCH   8   9
ENDBRANCH   7   8
ENDBRANCH   6   7
ENDBRANCH   5   6
ENDBRANCH   4   5
ENDBRANCH   3   4
ENDBRANCH   2   3
ENDBRANCH   1   2
BRANCH   1  17
ATOM     17  C   UNL     1       2.261  18.686  11.898  1.00  0.00     0.000 C 
BRANCH  17  18
ATOM     18  C   UNL     1       1.379  19.872  11.478  1.00  0.00     0.000 C 
BRANCH  18  19
ATOM     19  C   UNL     1       1.184  20.902  12.606  1.00  0.00     0.000 C 
BRANCH  19  20
ATOM     20  C   UNL     1       2.478  21.348  13.313  1.00  0.00     0.000 C 
BRANCH  20  21
ATOM     21  C   UNL     1       3.260  22.408  12.521  1.00  0.00     0.000 C 
BRANCH  21  22
ATOM     22  C   UNL     1       4.660  21.893  12.147  1.00  0.00    -0.000 C 
BRANCH  22  23
ATOM     23  C   UNL     1       4.769  21.481  10.669  1.00  0.00    -0.000 C 
BRANCH  23  24
ATOM     24  C   UNL     1       4.691  22.646   9.663  1.00  0.00    -0.000 C 
BRANCH  24  25
ATOM     25  C   UNL     1       3.708  22.401   8.498  1.00  0.00    -0.000 C 
BRANCH  25  26
ATOM     26  C   UNL     1       2.238  22.462   8.951  1.00  0.00    -0.000 C 
BRANCH  26  27
ATOM     27  C   UNL     1       1.351  21.425   8.245  1.00  0.00    -0.000 C 
BRANCH  27  28
ATOM     28  C   UNL     1       2.135  20.179   7.798  1.00  0.00    -0.000 C 
BRANCH  28  29
ATOM     29  C   UNL     1       1.810  19.770   6.352  1.00  0.00    -0.003 C 
ATOM     30  C   UNL     1       2.724  20.444   5.328  1.00  0.00     0.004 C 
ENDBRANCH  28  29
ENDBRANCH  27  28
ENDBRANCH  26  27
ENDBRANCH  25  26
ENDBRANCH  24  25
ENDBRANCH  23  24
ENDBRANCH  22  23
ENDBRANCH  21  22
ENDBRANCH  20  21
ENDBRANCH  19  20
ENDBRANCH  18  19
ENDBRANCH  17  18
ENDBRANCH   1  17
TORSDOF 26
ENDMDL
MODEL 9
REMARK VINA RESULT:    -2.629      4.006      7.370
REMARK INTER + INTRA:         -11.464
REMARK INTER:                  -5.411
REMARK INTRA:                  -6.053
REMARK UNBOUND:                -4.839
REMARK SMILES CCCCCCCCCCCCCCCCCCCCCCCCCCCC(=O)[O-]
REMARK SMILES IDX 15 1 16 2 17 3 18 4 19 5 20 6 21 7 22 8 23 9 24 10 25 11
REMARK SMILES IDX 26 12 27 13 28 14 29 15 30 16 14 17 13 18 12 19 11 20 10 21
REMARK SMILES IDX 9 22 8 23 7 24 6 25 5 26 4 27 3 28 2 29 1 30
REMARK H PARENT
REMARK Flexibility Score: inf
ROOT
ATOM      1  C   UNL     1       4.339  22.822   4.835  1.00  0.00     0.000 C 
ENDROOT
BRANCH   1   2
ATOM      2  C   UNL     1       5.108  22.933   6.165  1.00  0.00     0.000 C 
BRANCH   2   3
ATOM      3  C   UNL     1       4.198  22.808   7.395  1.00  0.00     0.000 C 
BRANCH   3   4
ATOM      4  C   UNL     1       4.669  21.671   8.312  1.00  0.00     0.000 C 
BRANCH   4   5
ATOM      5  C   UNL     1       5.915  20.945   7.778  1.00  0.00     0.000 C 
BRANCH   5   6
ATOM      6  C   UNL     1       6.603  20.038   8.821  1.00  0.00     0.000 C 
BRANCH   6   7
ATOM      7  C   UNL     1       7.550  19.014   8.178  1.00  0.00     0.000 C 
BRANCH   7   8
ATOM      8  C   UNL     1       8.138  19.553   6.865  1.00  0.00     0.000 C 
BRANCH   8   9
ATOM      9  C   UNL     1       8.228  18.483   5.766  1.00  0.00     0.000 C 
BRANCH   9  10
ATOM     10  C   UNL     1       7.830  19.016   4.378  1.00  0.00     0.000 C 
BRANCH  10  11
ATOM     11  C   UNL     1       6.474  19.753   4.395  1.00  0.00     0.000 C 
BRANCH  11  12
ATOM     12  C   UNL     1       5.478  19.250   3.330  1.00  0.00     0.006 C 
BRANCH  12  13
ATOM     13  C   UNL     1       5.039  20.319   2.317  1.00  0.00     0.053 C 
BRANCH  13  14
ATOM     14  C   UNL     1       6.213  21.028   1.709  1.00  0.00     0.041 C 
ATOM     15  O   UNL     1       6.384  22.260   1.907  1.00  0.00    -0.550 OA
ATOM     16  O   UNL     1       7.111  20.328   0.915  1.00  0.00    -0.550 OA
ENDBRANCH  13  14
ENDBRANCH  12  13
ENDBRANCH  11  12
ENDBRANCH  10  11
ENDBRANCH   9  10
ENDBRANCH   8   9
ENDBRANCH   7   8
ENDBRANCH   6   7
ENDBRANCH   5   6
ENDBRANCH   4   5
ENDBRANCH   3   4
ENDBRANCH   2   3
ENDBRANCH   1   2
BRANCH   1  17
ATOM     17  C   UNL     1       2.804  22.850   4.959  1.00  0.00     0.000 C 
BRANCH  17  18
ATOM     18  C   UNL     1       2.140  21.551   4.471  1.00  0.00     0.000 C 
BRANCH  18  19
ATOM     19  C   UNL     1       1.156  20.961   5.498  1.00  0.00     0.000 C 
BRANCH  19  20
ATOM     20  C   UNL     1       1.793  20.050   6.563  1.00  0.00     0.000 C 
BRANCH  20  21
ATOM     21  C   UNL     1       3.066  19.346   6.068  1.00  0.00     0.000 C 
BRANCH  21  22
ATOM     22  C   UNL     1       3.455  18.189   7.003  1.00  0.00    -0.000 C 
BRANCH  22  23
ATOM     23  C   UNL     1       4.771  17.507   6.593  1.00  0.00    -0.000 C 
BRANCH  23  24
ATOM     24  C   UNL     1       4.928  16.054   7.081  1.00  0.00    -0.000 C 
BRANCH  24  25
ATOM     25  C   UNL     1       3.901  15.642   8.158  1.00  0.00    -0.000 C 
BRANCH  25  26
ATOM     26  C   UNL     1       4.534  15.535   9.557  1.00  0.00    -0.000 C 
BRANCH  26  27
ATOM     27  C   UNL     1       4.914  16.901  10.148  1.00  0.00    -0.000 C 
BRANCH  27  28
ATOM     28  C   UNL     1       3.786  17.518  10.992  1.00  0.00    -0.000 C 
BRANCH  28  29
ATOM     29  C   UNL     1       3.657  19.035  10.778  1.00  0.00    -0.003 C 
ATOM     30  C   UNL     1       2.274  19.447  10.275  1.00  0.00     0.004 C 
ENDBRANCH  28  29
ENDBRANCH  27  28
ENDBRANCH  26  27
ENDBRANCH  25  26
ENDBRANCH  24  25
ENDBRANCH  23  24
ENDBRANCH  22  23
ENDBRANCH  21  22
ENDBRANCH  20  21
ENDBRANCH  19  20
ENDBRANCH  18  19
ENDBRANCH  17  18
ENDBRANCH   1  17
TORSDOF 26
ENDMDL
