MODEL 1
REMARK VINA RESULT:    -3.157      0.000      0.000
REMARK INTER + INTRA:          -6.731
REMARK INTER:                  -5.556
REMARK INTRA:                  -1.175
REMARK UNBOUND:                -1.175
REMARK SMILES CCCCCCCCCCCCCCC(=O)[O-]
REMARK SMILES IDX 9 1 10 2 11 3 12 4 13 5 14 6 15 7 16 8 17 9 8 10 7 11 6 12
REMARK SMILES IDX 5 13 4 14 3 15 2 16 1 17
REMARK H PARENT
REMARK Flexibility Score: inf
ROOT
ATOM      1  C   UNL     1       6.102 -20.313   4.823  1.00  0.00     0.000 C 
ENDROOT
BRANCH   1   2
ATOM      2  C   UNL     1       6.583 -19.508   3.600  1.00  0.00     0.000 C 
BRANCH   2   3
ATOM      3  C   UNL     1       8.114 -19.424   3.436  1.00  0.00     0.000 C 
BRANCH   3   4
ATOM      4  C   UNL     1       8.659 -18.029   3.078  1.00  0.00     0.000 C 
BRANCH   4   5
ATOM      5  C   UNL     1       9.750 -17.486   4.022  1.00  0.00     0.006 C 
BRANCH   5   6
ATOM      6  C   UNL     1       9.231 -17.091   5.417  1.00  0.00     0.053 C 
BRANCH   6   7
ATOM      7  C   UNL     1       9.686 -15.727   5.839  1.00  0.00     0.041 C 
ATOM      8  O   UNL     1      10.843 -15.325   5.548  1.00  0.00    -0.550 OA
ATOM      9  O   UNL     1       8.820 -14.884   6.523  1.00  0.00    -0.550 OA
ENDBRANCH   6   7
ENDBRANCH   5   6
ENDBRANCH   4   5
ENDBRANCH   3   4
ENDBRANCH   2   3
ENDBRANCH   1   2
BRANCH   1  10
ATOM     10  C   UNL     1       5.380 -19.486   5.905  1.00  0.00     0.000 C 
BRANCH  10  11
ATOM     11  C   UNL     1       3.874 -19.782   6.052  1.00  0.00    -0.000 C 
BRANCH  11  12
ATOM     12  C   UNL     1       2.941 -18.629   5.636  1.00  0.00    -0.000 C 
BRANCH  12  13
ATOM     13  C   UNL     1       2.326 -18.763   4.229  1.00  0.00    -0.000 C 
BRANCH  13  14
ATOM     14  C   UNL     1       2.894 -17.796   3.175  1.00  0.00    -0.000 C 
BRANCH  14  15
ATOM     15  C   UNL     1       3.609 -18.520   2.024  1.00  0.00    -0.000 C 
BRANCH  15  16
ATOM     16  C   UNL     1       2.875 -19.813   1.649  1.00  0.00    -0.003 C 
ATOM     17  C   UNL     1       3.295 -20.304   0.267  1.00  0.00     0.004 C 
ENDBRANCH  15  16
ENDBRANCH  14  15
ENDBRANCH  13  14
ENDBRANCH  12  13
ENDBRANCH  11  12
ENDBRANCH  10  11
ENDBRANCH   1  10
TORSDOF 13
ENDMDL
MODEL 2
REMARK VINA RESULT:    -3.095      0.967      2.062
REMARK INTER + INTRA:          -6.622
REMARK INTER:                  -5.371
REMARK INTRA:                  -1.251
REMARK UNBOUND:                -1.175
REMARK SMILES CCCCCCCCCCCCCCC(=O)[O-]
REMARK SMILES IDX 9 1 10 2 11 3 12 4 13 5 14 6 15 7 16 8 17 9 8 10 7 11 6 12
REMARK SMILES IDX 5 13 4 14 3 15 2 16 1 17
REMARK H PARENT
REMARK Flexibility Score: inf
ROOT
ATOM      1  C   UNL     1       8.084 -19.439   3.379  1.00  0.00     0.000 C 
ENDROOT
BRANCH   1   2
ATOM      2  C   UNL     1       8.533 -18.019   2.983  1.00  0.00     0.000 C 
BRANCH   2   3
ATOM      3  C   UNL     1       9.456 -17.320   4.001  1.00  0.00     0.000 C 
BRANCH   3   4
ATOM      4  C   UNL     1       9.671 -18.083   5.322  1.00  0.00     0.000 C 
BRANCH   4   5
ATOM      5  C   UNL     1       9.117 -17.390   6.582  1.00  0.00     0.006 C 
BRANCH   5   6
ATOM      6  C   UNL     1       8.936 -15.868   6.429  1.00  0.00     0.053 C 
BRANCH   6   7
ATOM      7  C   UNL     1      10.014 -15.086   7.117  1.00  0.00     0.041 C 
ATOM      8  O   UNL     1      11.183 -15.070   6.651  1.00  0.00    -0.550 OA
ATOM      9  O   UNL     1       9.719 -14.343   8.253  1.00  0.00    -0.550 OA
ENDBRANCH   6   7
ENDBRANCH   5   6
ENDBRANCH   4   5
ENDBRANCH   3   4
ENDBRANCH   2   3
ENDBRANCH   1   2
BRANCH   1  10
ATOM     10  C   UNL     1       6.592 -19.574   3.740  1.00  0.00     0.000 C 
BRANCH  10  11
ATOM     11  C   UNL     1       6.312 -19.975   5.202  1.00  0.00    -0.000 C 
BRANCH  11  12
ATOM     12  C   UNL     1       4.955 -19.499   5.758  1.00  0.00    -0.000 C 
BRANCH  12  13
ATOM     13  C   UNL     1       3.744 -19.767   4.842  1.00  0.00    -0.000 C 
BRANCH  13  14
ATOM     14  C   UNL     1       2.806 -18.565   4.636  1.00  0.00    -0.000 C 
BRANCH  14  15
ATOM     15  C   UNL     1       2.921 -17.949   3.234  1.00  0.00    -0.000 C 
BRANCH  15  16
ATOM     16  C   UNL     1       2.383 -18.911   2.167  1.00  0.00    -0.003 C 
ATOM     17  C   UNL     1       3.497 -19.376   1.234  1.00  0.00     0.004 C 
ENDBRANCH  15  16
ENDBRANCH  14  15
ENDBRANCH  13  14
ENDBRANCH  12  13
ENDBRANCH  11  12
ENDBRANCH  10  11
ENDBRANCH   1  10
TORSDOF 13
ENDMDL
MODEL 3
REMARK VINA RESULT:    -3.089      4.164      6.239
REMARK INTER + INTRA:          -6.612
REMARK INTER:                  -5.188
REMARK INTRA:                  -1.424
REMARK UNBOUND:                -1.175
REMARK SMILES CCCCCCCCCCCCCCC(=O)[O-]
REMARK SMILES IDX 9 1 10 2 11 3 12 4 13 5 14 6 15 7 16 8 17 9 8 10 7 11 6 12
REMARK SMILES IDX 5 13 4 14 3 15 2 16 1 17
REMARK H PARENT
REMARK Flexibility Score: inf
ROOT
ATOM      1  C   UNL     1       9.674 -15.109   8.883  1.00  0.00     0.000 C 
ENDROOT
BRANCH   1   2
ATOM      2  C   UNL     1      10.300 -14.877   7.494  1.00  0.00     0.000 C 
BRANCH   2   3
ATOM      3  C   UNL     1       9.356 -15.139   6.303  1.00  0.00     0.000 C 
BRANCH   3   4
ATOM      4  C   UNL     1       9.041 -16.622   6.031  1.00  0.00     0.000 C 
BRANCH   4   5
ATOM      5  C   UNL     1       9.982 -17.325   5.033  1.00  0.00     0.006 C 
BRANCH   5   6
ATOM      6  C   UNL     1       9.406 -18.623   4.439  1.00  0.00     0.053 C 
BRANCH   6   7
ATOM      7  C   UNL     1       9.112 -18.508   2.973  1.00  0.00     0.041 C 
ATOM      8  O   UNL     1       8.873 -17.384   2.460  1.00  0.00    -0.550 OA
ATOM      9  O   UNL     1       9.138 -19.638   2.167  1.00  0.00    -0.550 OA
ENDBRANCH   6   7
ENDBRANCH   5   6
ENDBRANCH   4   5
ENDBRANCH   3   4
ENDBRANCH   2   3
ENDBRANCH   1   2
BRANCH   1  10
ATOM     10  C   UNL     1      10.143 -16.388   9.603  1.00  0.00     0.000 C 
BRANCH  10  11
ATOM     11  C   UNL     1       9.083 -17.051  10.505  1.00  0.00    -0.000 C 
BRANCH  11  12
ATOM     12  C   UNL     1       7.623 -16.698  10.162  1.00  0.00    -0.000 C 
BRANCH  12  13
ATOM     13  C   UNL     1       6.918 -17.689   9.214  1.00  0.00    -0.000 C 
BRANCH  13  14
ATOM     14  C   UNL     1       5.760 -17.093   8.394  1.00  0.00    -0.000 C 
BRANCH  14  15
ATOM     15  C   UNL     1       6.063 -15.681   7.870  1.00  0.00    -0.000 C 
BRANCH  15  16
ATOM     16  C   UNL     1       4.768 -14.902   7.613  1.00  0.00    -0.003 C 
ATOM     17  C   UNL     1       5.060 -13.522   7.031  1.00  0.00     0.004 C 
ENDBRANCH  15  16
ENDBRANCH  14  15
ENDBRANCH  13  14
ENDBRANCH  12  13
ENDBRANCH  11  12
ENDBRANCH  10  11
ENDBRANCH   1  10
TORSDOF 13
ENDMDL
MODEL 4
REMARK VINA RESULT:    -3.083      4.975      7.349
REMARK INTER + INTRA:          -6.602
REMARK INTER:                  -5.864
REMARK INTRA:                  -0.738
REMARK UNBOUND:                -1.175
REMARK SMILES CCCCCCCCCCCCCCC(=O)[O-]
REMARK SMILES IDX 9 1 10 2 11 3 12 4 13 5 14 6 15 7 16 8 17 9 8 10 7 11 6 12
REMARK SMILES IDX 5 13 4 14 3 15 2 16 1 17
REMARK H PARENT
REMARK Flexibility Score: inf
ROOT
ATOM      1  C   UNL     1      10.874 -19.100   1.730  1.00  0.00     0.000 C 
ENDROOT
BRANCH   1   2
ATOM      2  C   UNL     1      10.703 -19.037   0.199  1.00  0.00     0.000 C 
BRANCH   2   3
ATOM      3  C   UNL     1      11.968 -18.624  -0.581  1.00  0.00     0.000 C 
BRANCH   3   4
ATOM      4  C   UNL     1      11.727 -18.204  -2.043  1.00  0.00     0.000 C 
BRANCH   4   5
ATOM      5  C   UNL     1      10.714 -17.060  -2.243  1.00  0.00     0.006 C 
BRANCH   5   6
ATOM      6  C   UNL     1      11.294 -15.829  -2.963  1.00  0.00     0.053 C 
BRANCH   6   7
ATOM      7  C   UNL     1      11.345 -14.616  -2.084  1.00  0.00     0.041 C 
ATOM      8  O   UNL     1      10.327 -14.258  -1.436  1.00  0.00    -0.550 OA
ATOM      9  O   UNL     1      12.528 -13.900  -1.953  1.00  0.00    -0.550 OA
ENDBRANCH   6   7
ENDBRANCH   5   6
ENDBRANCH   4   5
ENDBRANCH   3   4
ENDBRANCH   2   3
ENDBRANCH   1   2
BRANCH   1  10
ATOM     10  C   UNL     1       9.566 -19.276   2.524  1.00  0.00     0.000 C 
BRANCH  10  11
ATOM     11  C   UNL     1       8.870 -17.961   2.931  1.00  0.00    -0.000 C 
BRANCH  11  12
ATOM     12  C   UNL     1       9.512 -17.229   4.126  1.00  0.00    -0.000 C 
BRANCH  12  13
ATOM     13  C   UNL     1      10.207 -18.143   5.155  1.00  0.00    -0.000 C 
BRANCH  13  14
ATOM     14  C   UNL     1       9.864 -17.846   6.625  1.00  0.00    -0.000 C 
BRANCH  14  15
ATOM     15  C   UNL     1       8.460 -17.250   6.803  1.00  0.00    -0.000 C 
BRANCH  15  16
ATOM     16  C   UNL     1       8.512 -15.961   7.633  1.00  0.00    -0.003 C 
ATOM     17  C   UNL     1       8.463 -14.727   6.738  1.00  0.00     0.004 C 
ENDBRANCH  15  16
ENDBRANCH  14  15
ENDBRANCH  13  14
ENDBRANCH  12  13
ENDBRANCH  11  12
ENDBRANCH  10  11
ENDBRANCH   1  10
TORSDOF 13
ENDMDL
MODEL 5
REMARK VINA RESULT:    -3.066      4.636      7.302
REMARK INTER + INTRA:          -6.572
REMARK INTER:                  -4.516
REMARK INTRA:                  -2.056
REMARK UNBOUND:                -1.175
REMARK SMILES CCCCCCCCCCCCCCC(=O)[O-]
REMARK SMILES IDX 9 1 10 2 11 3 12 4 13 5 14 6 15 7 16 8 17 9 8 10 7 11 6 12
REMARK SMILES IDX 5 13 4 14 3 15 2 16 1 17
REMARK H PARENT
REMARK Flexibility Score: inf
ROOT
ATOM      1  C   UNL     1      12.711 -17.422   7.375  1.00  0.00     0.000 C 
ENDROOT
BRANCH   1   2
ATOM      2  C   UNL     1      11.729 -17.534   6.192  1.00  0.00     0.000 C 
BRANCH   2   3
ATOM      3  C   UNL     1      11.455 -16.212   5.446  1.00  0.00     0.000 C 
BRANCH   3   4
ATOM      4  C   UNL     1      10.220 -16.224   4.526  1.00  0.00     0.000 C 
BRANCH   4   5
ATOM      5  C   UNL     1       9.512 -17.587   4.389  1.00  0.00     0.006 C 
BRANCH   5   6
ATOM      6  C   UNL     1       8.854 -17.814   3.016  1.00  0.00     0.053 C 
BRANCH   6   7
ATOM      7  C   UNL     1       9.507 -18.914   2.236  1.00  0.00     0.041 C 
ATOM      8  O   UNL     1       9.076 -20.094   2.319  1.00  0.00    -0.550 OA
ATOM      9  O   UNL     1      10.570 -18.631   1.388  1.00  0.00    -0.550 OA
ENDBRANCH   6   7
ENDBRANCH   5   6
ENDBRANCH   4   5
ENDBRANCH   3   4
ENDBRANCH   2   3
ENDBRANCH   1   2
BRANCH   1  10
ATOM     10  C   UNL     1      12.162 -16.681   8.609  1.00  0.00     0.000 C 
BRANCH  10  11
ATOM     11  C   UNL     1      12.638 -15.222   8.757  1.00  0.00    -0.000 C 
BRANCH  11  12
ATOM     12  C   UNL     1      11.515 -14.192   8.990  1.00  0.00    -0.000 C 
BRANCH  12  13
ATOM     13  C   UNL     1      10.089 -14.777   9.016  1.00  0.00    -0.000 C 
BRANCH  13  14
ATOM     14  C   UNL     1       9.272 -14.556   7.730  1.00  0.00    -0.000 C 
BRANCH  14  15
ATOM     15  C   UNL     1       8.152 -15.592   7.549  1.00  0.00    -0.000 C 
BRANCH  15  16
ATOM     16  C   UNL     1       8.425 -16.848   8.386  1.00  0.00    -0.003 C 
ATOM     17  C   UNL     1       8.099 -18.115   7.602  1.00  0.00     0.004 C 
ENDBRANCH  15  16
ENDBRANCH  14  15
ENDBRANCH  13  14
ENDBRANCH  12  13
ENDBRANCH  11  12
ENDBRANCH  10  11
ENDBRANCH   1  10
TORSDOF 13
ENDMDL
MODEL 6
REMARK VINA RESULT:    -3.060      1.892      3.007
REMARK INTER + INTRA:          -6.561
REMARK INTER:                  -5.458
REMARK INTRA:                  -1.103
REMARK UNBOUND:                -1.175
REMARK SMILES CCCCCCCCCCCCCCC(=O)[O-]
REMARK SMILES IDX 9 1 10 2 11 3 12 4 13 5 14 6 15 7 16 8 17 9 8 10 7 11 6 12
REMARK SMILES IDX 5 13 4 14 3 15 2 16 1 17
REMARK H PARENT
REMARK Flexibility Score: inf
ROOT
ATOM      1  C   UNL     1       5.992 -18.775   7.253  1.00  0.00     0.000 C 
ENDROOT
BRANCH   1   2
ATOM      2  C   UNL     1       5.616 -17.826   8.408  1.00  0.00     0.000 C 
BRANCH   2   3
ATOM      3  C   UNL     1       6.101 -16.372   8.239  1.00  0.00     0.000 C 
BRANCH   3   4
ATOM      4  C   UNL     1       7.631 -16.193   8.193  1.00  0.00     0.000 C 
BRANCH   4   5
ATOM      5  C   UNL     1       8.157 -15.307   7.046  1.00  0.00     0.006 C 
BRANCH   5   6
ATOM      6  C   UNL     1       9.662 -15.475   6.768  1.00  0.00     0.053 C 
BRANCH   6   7
ATOM      7  C   UNL     1       9.946 -15.900   5.359  1.00  0.00     0.041 C 
ATOM      8  O   UNL     1      10.824 -15.306   4.680  1.00  0.00    -0.550 OA
ATOM      9  O   UNL     1       9.266 -16.978   4.806  1.00  0.00    -0.550 OA
ENDBRANCH   6   7
ENDBRANCH   5   6
ENDBRANCH   4   5
ENDBRANCH   3   4
ENDBRANCH   2   3
ENDBRANCH   1   2
BRANCH   1  10
ATOM     10  C   UNL     1       4.799 -19.462   6.560  1.00  0.00     0.000 C 
BRANCH  10  11
ATOM     11  C   UNL     1       3.411 -18.957   7.004  1.00  0.00    -0.000 C 
BRANCH  11  12
ATOM     12  C   UNL     1       2.563 -18.320   5.885  1.00  0.00    -0.000 C 
BRANCH  12  13
ATOM     13  C   UNL     1       1.835 -19.322   4.967  1.00  0.00    -0.000 C 
BRANCH  13  14
ATOM     14  C   UNL     1       1.793 -18.930   3.479  1.00  0.00    -0.000 C 
BRANCH  14  15
ATOM     15  C   UNL     1       2.813 -17.839   3.120  1.00  0.00    -0.000 C 
BRANCH  15  16
ATOM     16  C   UNL     1       3.865 -18.374   2.140  1.00  0.00    -0.003 C 
ATOM     17  C   UNL     1       4.810 -19.354   2.828  1.00  0.00     0.004 C 
ENDBRANCH  15  16
ENDBRANCH  14  15
ENDBRANCH  13  14
ENDBRANCH  12  13
ENDBRANCH  11  12
ENDBRANCH  10  11
ENDBRANCH   1  10
TORSDOF 13
ENDMDL
MODEL 7
REMARK VINA RESULT:    -3.047      3.407      7.537
REMARK INTER + INTRA:          -6.538
REMARK INTER:                  -5.517
REMARK INTRA:                  -1.021
REMARK UNBOUND:                -1.175
REMARK SMILES CCCCCCCCCCCCCCC(=O)[O-]
REMARK SMILES IDX 9 1 10 2 11 3 12 4 13 5 14 6 15 7 16 8 17 9 8 10 7 11 6 12
REMARK SMILES IDX 5 13 4 14 3 15 2 16 1 17
REMARK H PARENT
REMARK Flexibility Score: inf
ROOT
ATOM      1  C   UNL     1       5.329 -18.487   7.259  1.00  0.00     0.000 C 
ENDROOT
BRANCH   1   2
ATOM      2  C   UNL     1       4.098 -19.376   7.524  1.00  0.00     0.000 C 
BRANCH   2   3
ATOM      3  C   UNL     1       2.759 -18.801   7.020  1.00  0.00     0.000 C 
BRANCH   3   4
ATOM      4  C   UNL     1       2.845 -17.987   5.716  1.00  0.00     0.000 C 
BRANCH   4   5
ATOM      5  C   UNL     1       2.587 -18.784   4.422  1.00  0.00     0.006 C 
BRANCH   5   6
ATOM      6  C   UNL     1       2.963 -18.027   3.135  1.00  0.00     0.053 C 
BRANCH   6   7
ATOM      7  C   UNL     1       3.844 -18.831   2.227  1.00  0.00     0.041 C 
ATOM      8  O   UNL     1       3.428 -19.194   1.096  1.00  0.00    -0.550 OA
ATOM      9  O   UNL     1       5.139 -19.148   2.615  1.00  0.00    -0.550 OA
ENDBRANCH   6   7
ENDBRANCH   5   6
ENDBRANCH   4   5
ENDBRANCH   3   4
ENDBRANCH   2   3
ENDBRANCH   1   2
BRANCH   1  10
ATOM     10  C   UNL     1       5.479 -17.283   8.208  1.00  0.00     0.000 C 
BRANCH  10  11
ATOM     11  C   UNL     1       6.871 -16.620   8.202  1.00  0.00    -0.000 C 
BRANCH  11  12
ATOM     12  C   UNL     1       7.973 -17.428   7.489  1.00  0.00    -0.000 C 
BRANCH  12  13
ATOM     13  C   UNL     1       8.787 -16.640   6.443  1.00  0.00    -0.000 C 
BRANCH  13  14
ATOM     14  C   UNL     1       9.007 -15.153   6.775  1.00  0.00    -0.000 C 
BRANCH  14  15
ATOM     15  C   UNL     1      10.341 -14.892   7.490  1.00  0.00    -0.000 C 
BRANCH  15  16
ATOM     16  C   UNL     1      10.107 -14.394   8.921  1.00  0.00    -0.003 C 
ATOM     17  C   UNL     1      10.232 -15.533   9.928  1.00  0.00     0.004 C 
ENDBRANCH  15  16
ENDBRANCH  14  15
ENDBRANCH  13  14
ENDBRANCH  12  13
ENDBRANCH  11  12
ENDBRANCH  10  11
ENDBRANCH   1  10
TORSDOF 13
ENDMDL
MODEL 8
REMARK VINA RESULT:    -3.036      3.617      7.247
REMARK INTER + INTRA:          -6.519
REMARK INTER:                  -5.251
REMARK INTRA:                  -1.268
REMARK UNBOUND:                -1.175
REMARK SMILES CCCCCCCCCCCCCCC(=O)[O-]
REMARK SMILES IDX 9 1 10 2 11 3 12 4 13 5 14 6 15 7 16 8 17 9 8 10 7 11 6 12
REMARK SMILES IDX 5 13 4 14 3 15 2 16 1 17
REMARK H PARENT
REMARK Flexibility Score: inf
ROOT
ATOM      1  C   UNL     1       6.412 -19.881   4.721  1.00  0.00     0.000 C 
ENDROOT
BRANCH   1   2
ATOM      2  C   UNL     1       4.941 -19.737   4.284  1.00  0.00     0.000 C 
BRANCH   2   3
ATOM      3  C   UNL     1       4.721 -19.646   2.760  1.00  0.00     0.000 C 
BRANCH   3   4
ATOM      4  C   UNL     1       3.977 -18.385   2.281  1.00  0.00     0.000 C 
BRANCH   4   5
ATOM      5  C   UNL     1       2.715 -18.018   3.086  1.00  0.00     0.006 C 
BRANCH   5   6
ATOM      6  C   UNL     1       1.453 -18.788   2.658  1.00  0.00     0.053 C 
BRANCH   6   7
ATOM      7  C   UNL     1       0.864 -19.599   3.772  1.00  0.00     0.041 C 
ATOM      8  O   UNL     1       1.514 -19.785   4.834  1.00  0.00    -0.550 OA
ATOM      9  O   UNL     1      -0.418 -20.120   3.652  1.00  0.00    -0.550 OA
ENDBRANCH   6   7
ENDBRANCH   5   6
ENDBRANCH   4   5
ENDBRANCH   3   4
ENDBRANCH   2   3
ENDBRANCH   1   2
BRANCH   1  10
ATOM     10  C   UNL     1       7.315 -20.639   3.729  1.00  0.00     0.000 C 
BRANCH  10  11
ATOM     11  C   UNL     1       8.601 -19.893   3.319  1.00  0.00    -0.000 C 
BRANCH  11  12
ATOM     12  C   UNL     1       8.411 -18.396   3.004  1.00  0.00    -0.000 C 
BRANCH  12  13
ATOM     13  C   UNL     1       9.239 -17.435   3.881  1.00  0.00    -0.000 C 
BRANCH  13  14
ATOM     14  C   UNL     1       9.613 -17.981   5.270  1.00  0.00    -0.000 C 
BRANCH  14  15
ATOM     15  C   UNL     1       8.780 -17.360   6.401  1.00  0.00    -0.000 C 
BRANCH  15  16
ATOM     16  C   UNL     1       9.451 -16.094   6.946  1.00  0.00    -0.003 C 
ATOM     17  C   UNL     1       8.558 -14.872   6.759  1.00  0.00     0.004 C 
ENDBRANCH  15  16
ENDBRANCH  14  15
ENDBRANCH  13  14
ENDBRANCH  12  13
ENDBRANCH  11  12
ENDBRANCH  10  11
ENDBRANCH   1  10
TORSDOF 13
ENDMDL
MODEL 9
REMARK VINA RESULT:    -2.957      1.973      3.546
REMARK INTER + INTRA:          -6.380
REMARK INTER:                  -5.070
REMARK INTRA:                  -1.310
REMARK UNBOUND:                -1.175
REMARK SMILES CCCCCCCCCCCCCCC(=O)[O-]
REMARK SMILES IDX 9 1 10 2 11 3 12 4 13 5 14 6 15 7 16 8 17 9 8 10 7 11 6 12
REMARK SMILES IDX 5 13 4 14 3 15 2 16 1 17
REMARK H PARENT
REMARK Flexibility Score: inf
ROOT
ATOM      1  C   UNL     1       6.529 -19.468   6.076  1.00  0.00     0.000 C 
ENDROOT
BRANCH   1   2
ATOM      2  C   UNL     1       5.872 -19.292   7.459  1.00  0.00     0.000 C 
BRANCH   2   3
ATOM      3  C   UNL     1       6.088 -17.911   8.111  1.00  0.00     0.000 C 
BRANCH   3   4
ATOM      4  C   UNL     1       7.441 -17.244   7.799  1.00  0.00     0.000 C 
BRANCH   4   5
ATOM      5  C   UNL     1       7.439 -15.703   7.829  1.00  0.00     0.006 C 
BRANCH   5   6
ATOM      6  C   UNL     1       8.499 -15.058   6.917  1.00  0.00     0.053 C 
BRANCH   6   7
ATOM      7  C   UNL     1       9.853 -14.997   7.557  1.00  0.00     0.041 C 
ATOM      8  O   UNL     1      10.892 -15.007   6.847  1.00  0.00    -0.550 OA
ATOM      9  O   UNL     1       9.966 -14.892   8.938  1.00  0.00    -0.550 OA
ENDBRANCH   6   7
ENDBRANCH   5   6
ENDBRANCH   4   5
ENDBRANCH   3   4
ENDBRANCH   2   3
ENDBRANCH   1   2
BRANCH   1  10
ATOM     10  C   UNL     1       5.762 -20.383   5.102  1.00  0.00     0.000 C 
BRANCH  10  11
ATOM     11  C   UNL     1       5.775 -19.922   3.630  1.00  0.00    -0.000 C 
BRANCH  11  12
ATOM     12  C   UNL     1       4.424 -20.044   2.899  1.00  0.00    -0.000 C 
BRANCH  12  13
ATOM     13  C   UNL     1       3.917 -18.744   2.243  1.00  0.00    -0.000 C 
BRANCH  13  14
ATOM     14  C   UNL     1       2.877 -17.963   3.066  1.00  0.00    -0.000 C 
BRANCH  14  15
ATOM     15  C   UNL     1       2.375 -18.743   4.290  1.00  0.00    -0.000 C 
BRANCH  15  16
ATOM     16  C   UNL     1       2.874 -18.102   5.591  1.00  0.00    -0.003 C 
ATOM     17  C   UNL     1       2.207 -18.736   6.808  1.00  0.00     0.004 C 
ENDBRANCH  15  16
ENDBRANCH  14  15
ENDBRANCH  13  14
ENDBRANCH  12  13
ENDBRANCH  11  12
ENDBRANCH  10  11
ENDBRANCH   1  10
TORSDOF 13
ENDMDL
