MODEL 1
REMARK VINA RESULT:    30.953      0.000      0.000
REMARK INTER + INTRA:          34.397
REMARK INTER:                  33.667
REMARK INTRA:                   0.730
REMARK UNBOUND:                 0.730
REMARK SMILES CC1(C)CC[C@]2(C(=O)[O-])CC[C@]3(C)C(=CC[C@H]4[C@@]5(C)CC[C@H](O)C(C)(C)[C@@H]5CC[C@@]43C)[C@H]2C1
REMARK SMILES IDX 6 1 5 2 10 3 32 4 4 5 11 6 14 7 33 8 2 9 12 10 15 11 1 12
REMARK SMILES IDX 3 13 13 14 30 15 16 16 17 17 29 18 31 19 18 20 28 21 27 22
REMARK SMILES IDX 20 23 19 24 24 25 21 26 22 27 25 28 26 29 7 30 8 31 9 32
REMARK SMILES IDX 23 33
REMARK H PARENT 23 34
REMARK Flexibility Score: inf
ROOT
ATOM      1  C   UNL     1      22.930  52.634  53.659  1.00  0.00     0.017 C 
ATOM      2  C   UNL     1      23.049  52.659  55.213  1.00  0.00     0.014 C 
ATOM      3  C   UNL     1      24.093  53.472  53.057  1.00  0.00     0.014 C 
ATOM      4  C   UNL     1      21.567  53.290  53.279  1.00  0.00     0.028 C 
ATOM      5  C   UNL     1      21.876  51.941  55.908  1.00  0.00     0.007 C 
ATOM      6  C   UNL     1      23.935  53.812  51.550  1.00  0.00     0.013 C 
ATOM      7  C   UNL     1      21.479  53.517  51.765  1.00  0.00    -0.064 C 
ATOM      8  C   UNL     1      20.377  52.538  53.938  1.00  0.00     0.015 C 
ATOM      9  C   UNL     1      20.481  52.484  55.489  1.00  0.00    -0.035 C 
ATOM     10  C   UNL     1      22.546  54.453  51.152  1.00  0.00    -0.006 C 
ATOM     11  C   UNL     1      20.713  52.694  51.001  1.00  0.00    -0.027 C 
ATOM     12  C   UNL     1      20.218  53.873  56.123  1.00  0.00     0.011 C 
ATOM     13  C   UNL     1      19.397  51.521  56.021  1.00  0.00     0.011 C 
ATOM     14  C   UNL     1      22.468  55.863  51.825  1.00  0.00     0.017 C 
ATOM     15  C   UNL     1      22.317  54.636  49.556  1.00  0.00    -0.020 C 
ATOM     16  C   UNL     1      20.772  52.598  49.505  1.00  0.00     0.032 C 
ATOM     17  C   UNL     1      22.055  53.219  48.914  1.00  0.00     0.006 C 
ATOM     18  C   UNL     1      23.549  55.370  48.875  1.00  0.00     0.008 C 
ATOM     19  C   UNL     1      21.037  55.525  49.332  1.00  0.00     0.012 C 
ATOM     20  C   UNL     1      22.178  53.064  47.314  1.00  0.00    -0.025 C 
ATOM     21  C   UNL     1      24.016  54.803  47.525  1.00  0.00     0.005 C 
ATOM     22  C   UNL     1      22.809  54.360  46.687  1.00  0.00     0.003 C 
ATOM     23  C   UNL     1      20.809  52.846  46.595  1.00  0.00     0.010 C 
ATOM     24  C   UNL     1      23.038  51.781  47.082  1.00  0.00     0.012 C 
ATOM     25  C   UNL     1      22.980  54.385  45.112  1.00  0.00    -0.006 C 
ATOM     26  C   UNL     1      20.920  52.778  45.056  1.00  0.00     0.033 C 
ATOM     27  C   UNL     1      21.599  54.023  44.458  1.00  0.00     0.120 C 
ATOM     28  C   UNL     1      23.310  55.833  44.642  1.00  0.00     0.014 C 
ATOM     29  C   UNL     1      24.124  53.462  44.598  1.00  0.00     0.014 C 
ENDROOT
BRANCH   1  30
ATOM     30  C   UNL     1      23.083  51.194  53.160  1.00  0.00     0.048 C 
ATOM     31  O   UNL     1      23.241  50.937  51.938  1.00  0.00    -0.550 OA
ATOM     32  O   UNL     1      23.146  50.143  54.069  1.00  0.00    -0.550 OA
ENDBRANCH   1  30
BRANCH  27  33
ATOM     33  O   UNL     1      21.743  53.838  43.071  1.00  0.00    -0.393 OA
ATOM     34  H   UNL     1      21.354  54.645  42.627  1.00  0.00     0.210 HD
ENDBRANCH  27  33
TORSDOF 2
ENDMDL
MODEL 2
REMARK VINA RESULT:    32.913      1.805      3.480
REMARK INTER + INTRA:          36.529
REMARK INTER:                  35.801
REMARK INTRA:                   0.728
REMARK UNBOUND:                 0.730
REMARK SMILES CC1(C)CC[C@]2(C(=O)[O-])CC[C@]3(C)C(=CC[C@H]4[C@@]5(C)CC[C@H](O)C(C)(C)[C@@H]5CC[C@@]43C)[C@H]2C1
REMARK SMILES IDX 6 1 5 2 10 3 32 4 4 5 11 6 14 7 33 8 2 9 12 10 15 11 1 12
REMARK SMILES IDX 3 13 13 14 30 15 16 16 17 17 29 18 31 19 18 20 28 21 27 22
REMARK SMILES IDX 20 23 19 24 24 25 21 26 22 27 25 28 26 29 7 30 8 31 9 32
REMARK SMILES IDX 23 33
REMARK H PARENT 23 34
REMARK Flexibility Score: inf
ROOT
ATOM      1  C   UNL     1      21.176  52.547  52.911  1.00  0.00     0.017 C 
ATOM      2  C   UNL     1      20.892  51.932  54.315  1.00  0.00     0.014 C 
ATOM      3  C   UNL     1      20.298  51.813  51.859  1.00  0.00     0.014 C 
ATOM      4  C   UNL     1      22.683  52.307  52.587  1.00  0.00     0.028 C 
ATOM      5  C   UNL     1      21.796  52.523  55.415  1.00  0.00     0.007 C 
ATOM      6  C   UNL     1      20.694  52.083  50.382  1.00  0.00     0.013 C 
ATOM      7  C   UNL     1      22.987  52.672  51.129  1.00  0.00    -0.064 C 
ATOM      8  C   UNL     1      23.599  52.946  53.668  1.00  0.00     0.015 C 
ATOM      9  C   UNL     1      23.313  52.407  55.098  1.00  0.00    -0.035 C 
ATOM     10  C   UNL     1      22.225  51.867  50.051  1.00  0.00    -0.006 C 
ATOM     11  C   UNL     1      23.638  53.831  50.843  1.00  0.00    -0.027 C 
ATOM     12  C   UNL     1      23.798  50.945  55.260  1.00  0.00     0.011 C 
ATOM     13  C   UNL     1      24.096  53.269  56.114  1.00  0.00     0.011 C 
ATOM     14  C   UNL     1      22.531  50.342  50.208  1.00  0.00     0.017 C 
ATOM     15  C   UNL     1      22.666  52.326  48.558  1.00  0.00    -0.020 C 
ATOM     16  C   UNL     1      23.727  54.461  49.484  1.00  0.00     0.032 C 
ATOM     17  C   UNL     1      22.684  53.901  48.493  1.00  0.00     0.006 C 
ATOM     18  C   UNL     1      21.707  51.705  47.456  1.00  0.00     0.008 C 
ATOM     19  C   UNL     1      24.125  51.802  48.284  1.00  0.00     0.012 C 
ATOM     20  C   UNL     1      22.711  54.614  47.047  1.00  0.00    -0.025 C 
ATOM     21  C   UNL     1      21.283  52.646  46.316  1.00  0.00     0.005 C 
ATOM     22  C   UNL     1      22.451  53.556  45.914  1.00  0.00     0.003 C 
ATOM     23  C   UNL     1      24.072  55.300  46.708  1.00  0.00     0.010 C 
ATOM     24  C   UNL     1      21.624  55.734  47.111  1.00  0.00     0.012 C 
ATOM     25  C   UNL     1      22.468  54.086  44.421  1.00  0.00    -0.006 C 
ATOM     26  C   UNL     1      24.122  55.911  45.291  1.00  0.00     0.033 C 
ATOM     27  C   UNL     1      23.801  54.882  44.193  1.00  0.00     0.120 C 
ATOM     28  C   UNL     1      22.514  52.880  43.435  1.00  0.00     0.014 C 
ATOM     29  C   UNL     1      21.215  54.934  44.051  1.00  0.00     0.014 C 
ENDROOT
BRANCH   1  30
ATOM     30  C   UNL     1      20.772  54.024  52.911  1.00  0.00     0.048 C 
ATOM     31  O   UNL     1      21.149  54.807  52.001  1.00  0.00    -0.550 OA
ATOM     32  O   UNL     1      19.892  54.507  53.874  1.00  0.00    -0.550 OA
ENDBRANCH   1  30
BRANCH  27  33
ATOM     33  O   UNL     1      23.777  55.539  42.949  1.00  0.00    -0.393 OA
ATOM     34  H   UNL     1      24.692  55.914  42.799  1.00  0.00     0.210 HD
ENDBRANCH  27  33
TORSDOF 2
ENDMDL
