MODEL 1
REMARK VINA RESULT:    -5.944      0.000      0.000
REMARK INTER + INTRA:         -10.624
REMARK INTER:                  -9.071
REMARK INTRA:                  -1.553
REMARK UNBOUND:                -1.553
REMARK SMILES CC(=O)CCC=C(C)CCC=C(C)CCC=C(C)C
REMARK SMILES IDX 10 1 11 2 12 3 13 4 14 5 15 6 16 7 18 8 17 9 19 10 9 11 7 12
REMARK SMILES IDX 6 13 8 14 5 15 4 16 2 17 3 18 1 19
REMARK H PARENT
REMARK Flexibility Score: inf
ROOT
ATOM      1  C   UNL     1      -3.318  -1.431   1.737  1.00  0.00     0.032 C 
ENDROOT
BRANCH   1   2
ATOM      2  C   UNL     1      -4.532  -0.563   1.505  1.00  0.00    -0.028 C 
ATOM      3  C   UNL     1      -5.637  -0.942   0.823  1.00  0.00    -0.077 C 
ATOM      4  C   UNL     1      -6.748   0.061   0.651  1.00  0.00     0.039 C 
BRANCH   3   5
ATOM      5  C   UNL     1      -5.832  -2.345   0.284  1.00  0.00     0.034 C 
BRANCH   5   6
ATOM      6  C   UNL     1      -5.558  -2.388  -1.223  1.00  0.00     0.032 C 
BRANCH   6   7
ATOM      7  C   UNL     1      -4.145  -2.836  -1.510  1.00  0.00    -0.028 C 
ATOM      8  C   UNL     1      -3.408  -0.499  -1.996  1.00  0.00     0.039 C 
ATOM      9  C   UNL     1      -3.160  -1.983  -1.863  1.00  0.00    -0.080 C 
ATOM     10  C   UNL     1      -1.784  -2.537  -2.128  1.00  0.00     0.039 C 
ENDBRANCH   6   7
ENDBRANCH   5   6
ENDBRANCH   3   5
ENDBRANCH   1   2
BRANCH   1  11
ATOM     11  C   UNL     1      -2.573  -1.038   3.022  1.00  0.00     0.034 C 
BRANCH  11  12
ATOM     12  C   UNL     1      -1.123  -0.679   2.749  1.00  0.00    -0.077 C 
ATOM     13  C   UNL     1      -0.170  -0.712   3.707  1.00  0.00    -0.028 C 
ATOM     14  C   UNL     1      -0.728  -0.245   1.360  1.00  0.00     0.039 C 
BRANCH  13  15
ATOM     15  C   UNL     1      -0.422  -1.158   5.127  1.00  0.00     0.035 C 
BRANCH  15  16
ATOM     16  C   UNL     1       0.818  -1.831   5.725  1.00  0.00     0.079 C 
BRANCH  16  17
ATOM     17  C   UNL     1       1.859  -0.808   6.092  1.00  0.00     0.130 C 
ATOM     18  O   UNL     1       1.543   0.163   6.764  1.00  0.00    -0.300 OA
ATOM     19  C   UNL     1       3.273  -0.960   5.622  1.00  0.00     0.087 C 
ENDBRANCH  16  17
ENDBRANCH  15  16
ENDBRANCH  13  15
ENDBRANCH  11  12
ENDBRANCH   1  11
TORSDOF 9
ENDMDL
MODEL 2
REMARK VINA RESULT:    -5.916      1.883      2.685
REMARK INTER + INTRA:         -10.582
REMARK INTER:                  -8.246
REMARK INTRA:                  -2.336
REMARK UNBOUND:                -1.553
REMARK SMILES CC(=O)CCC=C(C)CCC=C(C)CCC=C(C)C
REMARK SMILES IDX 10 1 11 2 12 3 13 4 14 5 15 6 16 7 18 8 17 9 19 10 9 11 7 12
REMARK SMILES IDX 6 13 8 14 5 15 4 16 2 17 3 18 1 19
REMARK H PARENT
REMARK Flexibility Score: inf
ROOT
ATOM      1  C   UNL     1      -3.797  -2.387   1.273  1.00  0.00     0.032 C 
ENDROOT
BRANCH   1   2
ATOM      2  C   UNL     1      -5.175  -2.220   0.676  1.00  0.00    -0.028 C 
ATOM      3  C   UNL     1      -5.542  -2.642  -0.555  1.00  0.00    -0.077 C 
ATOM      4  C   UNL     1      -6.950  -2.364  -1.014  1.00  0.00     0.039 C 
BRANCH   3   5
ATOM      5  C   UNL     1      -4.624  -3.435  -1.463  1.00  0.00     0.034 C 
BRANCH   5   6
ATOM      6  C   UNL     1      -4.083  -2.551  -2.591  1.00  0.00     0.032 C 
BRANCH   6   7
ATOM      7  C   UNL     1      -2.703  -2.031  -2.267  1.00  0.00    -0.028 C 
ATOM      8  C   UNL     1      -3.605   0.194  -1.580  1.00  0.00     0.039 C 
ATOM      9  C   UNL     1      -2.476  -0.783  -1.807  1.00  0.00    -0.080 C 
ATOM     10  C   UNL     1      -1.057  -0.367  -1.515  1.00  0.00     0.039 C 
ENDBRANCH   6   7
ENDBRANCH   5   6
ENDBRANCH   3   5
ENDBRANCH   1   2
BRANCH   1  11
ATOM     11  C   UNL     1      -3.605  -1.510   2.520  1.00  0.00     0.034 C 
BRANCH  11  12
ATOM     12  C   UNL     1      -3.330  -0.061   2.158  1.00  0.00    -0.077 C 
ATOM     13  C   UNL     1      -2.080   0.425   1.991  1.00  0.00    -0.028 C 
ATOM     14  C   UNL     1      -4.495   0.883   1.998  1.00  0.00     0.039 C 
BRANCH  13  15
ATOM     15  C   UNL     1      -0.831  -0.417   2.090  1.00  0.00     0.035 C 
BRANCH  15  16
ATOM     16  C   UNL     1      -0.245  -0.376   3.505  1.00  0.00     0.079 C 
BRANCH  16  17
ATOM     17  C   UNL     1      -0.405  -1.707   4.189  1.00  0.00     0.130 C 
ATOM     18  O   UNL     1      -0.380  -2.735   3.529  1.00  0.00    -0.300 OA
ATOM     19  C   UNL     1      -0.615  -1.778   5.671  1.00  0.00     0.087 C 
ENDBRANCH  16  17
ENDBRANCH  15  16
ENDBRANCH  13  15
ENDBRANCH  11  12
ENDBRANCH   1  11
TORSDOF 9
ENDMDL
MODEL 3
REMARK VINA RESULT:    -5.910      3.184      6.640
REMARK INTER + INTRA:         -10.573
REMARK INTER:                  -8.294
REMARK INTRA:                  -2.279
REMARK UNBOUND:                -1.553
REMARK SMILES CC(=O)CCC=C(C)CCC=C(C)CCC=C(C)C
REMARK SMILES IDX 10 1 11 2 12 3 13 4 14 5 15 6 16 7 18 8 17 9 19 10 9 11 7 12
REMARK SMILES IDX 6 13 8 14 5 15 4 16 2 17 3 18 1 19
REMARK H PARENT
REMARK Flexibility Score: inf
ROOT
ATOM      1  C   UNL     1      -3.201  -1.205   1.924  1.00  0.00     0.032 C 
ENDROOT
BRANCH   1   2
ATOM      2  C   UNL     1      -2.271  -0.887   3.071  1.00  0.00    -0.028 C 
ATOM      3  C   UNL     1      -1.144  -1.573   3.368  1.00  0.00    -0.077 C 
ATOM      4  C   UNL     1      -0.345  -1.146   4.572  1.00  0.00     0.039 C 
BRANCH   3   5
ATOM      5  C   UNL     1      -0.618  -2.706   2.510  1.00  0.00     0.034 C 
BRANCH   5   6
ATOM      6  C   UNL     1       0.496  -2.209   1.583  1.00  0.00     0.032 C 
BRANCH   6   7
ATOM      7  C   UNL     1      -0.045  -1.844   0.222  1.00  0.00    -0.028 C 
ATOM      8  C   UNL     1       0.233   0.597   0.667  1.00  0.00     0.039 C 
ATOM      9  C   UNL     1      -0.169  -0.569  -0.204  1.00  0.00    -0.080 C 
ATOM     10  C   UNL     1      -0.723  -0.317  -1.582  1.00  0.00     0.039 C 
ENDBRANCH   6   7
ENDBRANCH   5   6
ENDBRANCH   3   5
ENDBRANCH   1   2
BRANCH   1  11
ATOM     11  C   UNL     1      -3.566   0.051   1.119  1.00  0.00     0.034 C 
BRANCH  11  12
ATOM     12  C   UNL     1      -4.964   0.546   1.443  1.00  0.00    -0.077 C 
ATOM     13  C   UNL     1      -6.015   0.360   0.613  1.00  0.00    -0.028 C 
ATOM     14  C   UNL     1      -5.192   1.297   2.731  1.00  0.00     0.039 C 
BRANCH  13  15
ATOM     15  C   UNL     1      -5.933  -0.400  -0.688  1.00  0.00     0.035 C 
BRANCH  15  16
ATOM     16  C   UNL     1      -6.079  -1.908  -0.460  1.00  0.00     0.079 C 
BRANCH  16  17
ATOM     17  C   UNL     1      -5.266  -2.683  -1.460  1.00  0.00     0.130 C 
ATOM     18  O   UNL     1      -5.824  -3.448  -2.234  1.00  0.00    -0.300 OA
ATOM     19  C   UNL     1      -3.774  -2.540  -1.501  1.00  0.00     0.087 C 
ENDBRANCH  16  17
ENDBRANCH  15  16
ENDBRANCH  13  15
ENDBRANCH  11  12
ENDBRANCH   1  11
TORSDOF 9
ENDMDL
MODEL 4
REMARK VINA RESULT:    -5.890      3.199      7.986
REMARK INTER + INTRA:         -10.543
REMARK INTER:                  -9.397
REMARK INTRA:                  -1.145
REMARK UNBOUND:                -1.553
REMARK SMILES CC(=O)CCC=C(C)CCC=C(C)CCC=C(C)C
REMARK SMILES IDX 10 1 11 2 12 3 13 4 14 5 15 6 16 7 18 8 17 9 19 10 9 11 7 12
REMARK SMILES IDX 6 13 8 14 5 15 4 16 2 17 3 18 1 19
REMARK H PARENT
REMARK Flexibility Score: inf
ROOT
ATOM      1  C   UNL     1      -2.711  -0.782   3.019  1.00  0.00     0.032 C 
ENDROOT
BRANCH   1   2
ATOM      2  C   UNL     1      -1.587  -1.749   2.732  1.00  0.00    -0.028 C 
ATOM      3  C   UNL     1      -0.629  -2.108   3.617  1.00  0.00    -0.077 C 
ATOM      4  C   UNL     1       0.445  -3.060   3.158  1.00  0.00     0.039 C 
BRANCH   3   5
ATOM      5  C   UNL     1      -0.627  -1.650   5.061  1.00  0.00     0.034 C 
BRANCH   5   6
ATOM      6  C   UNL     1       0.742  -1.075   5.443  1.00  0.00     0.032 C 
BRANCH   6   7
ATOM      7  C   UNL     1       0.890   0.349   4.967  1.00  0.00    -0.028 C 
ATOM      8  C   UNL     1       2.016   1.036   7.088  1.00  0.00     0.039 C 
ATOM      9  C   UNL     1       1.469   1.318   5.709  1.00  0.00    -0.080 C 
ATOM     10  C   UNL     1       1.565   2.708   5.137  1.00  0.00     0.039 C 
ENDBRANCH   6   7
ENDBRANCH   5   6
ENDBRANCH   3   5
ENDBRANCH   1   2
BRANCH   1  11
ATOM     11  C   UNL     1      -2.867   0.261   1.902  1.00  0.00     0.034 C 
BRANCH  11  12
ATOM     12  C   UNL     1      -4.325   0.528   1.574  1.00  0.00    -0.077 C 
ATOM     13  C   UNL     1      -4.918   0.063   0.451  1.00  0.00    -0.028 C 
ATOM     14  C   UNL     1      -5.144   1.364   2.524  1.00  0.00     0.039 C 
BRANCH  13  15
ATOM     15  C   UNL     1      -4.224  -0.810  -0.565  1.00  0.00     0.035 C 
BRANCH  15  16
ATOM     16  C   UNL     1      -4.576  -2.287  -0.360  1.00  0.00     0.079 C 
BRANCH  16  17
ATOM     17  C   UNL     1      -5.622  -2.730  -1.347  1.00  0.00     0.130 C 
ATOM     18  O   UNL     1      -6.792  -2.425  -1.168  1.00  0.00    -0.300 OA
ATOM     19  C   UNL     1      -5.243  -3.560  -2.535  1.00  0.00     0.087 C 
ENDBRANCH  16  17
ENDBRANCH  15  16
ENDBRANCH  13  15
ENDBRANCH  11  12
ENDBRANCH   1  11
TORSDOF 9
ENDMDL
MODEL 5
REMARK VINA RESULT:    -5.856      1.437      3.112
REMARK INTER + INTRA:         -10.491
REMARK INTER:                  -8.090
REMARK INTRA:                  -2.400
REMARK UNBOUND:                -1.553
REMARK SMILES CC(=O)CCC=C(C)CCC=C(C)CCC=C(C)C
REMARK SMILES IDX 10 1 11 2 12 3 13 4 14 5 15 6 16 7 18 8 17 9 19 10 9 11 7 12
REMARK SMILES IDX 6 13 8 14 5 15 4 16 2 17 3 18 1 19
REMARK H PARENT
REMARK Flexibility Score: inf
ROOT
ATOM      1  C   UNL     1      -5.039  -1.839   0.705  1.00  0.00     0.032 C 
ENDROOT
BRANCH   1   2
ATOM      2  C   UNL     1      -5.154  -2.887  -0.377  1.00  0.00    -0.028 C 
ATOM      3  C   UNL     1      -4.675  -2.757  -1.635  1.00  0.00    -0.077 C 
ATOM      4  C   UNL     1      -4.905  -3.885  -2.606  1.00  0.00     0.039 C 
BRANCH   3   5
ATOM      5  C   UNL     1      -3.864  -1.560  -2.089  1.00  0.00     0.034 C 
BRANCH   5   6
ATOM      6  C   UNL     1      -2.363  -1.856  -1.993  1.00  0.00     0.032 C 
BRANCH   6   7
ATOM      7  C   UNL     1      -1.631  -0.748  -1.275  1.00  0.00    -0.028 C 
ATOM      8  C   UNL     1      -0.096  -2.367  -0.153  1.00  0.00     0.039 C 
ATOM      9  C   UNL     1      -0.597  -0.971  -0.435  1.00  0.00    -0.080 C 
ATOM     10  C   UNL     1       0.062   0.209   0.229  1.00  0.00     0.039 C 
ENDBRANCH   6   7
ENDBRANCH   5   6
ENDBRANCH   3   5
ENDBRANCH   1   2
BRANCH   1  11
ATOM     11  C   UNL     1      -3.757  -2.011   1.533  1.00  0.00     0.034 C 
BRANCH  11  12
ATOM     12  C   UNL     1      -3.288  -0.698   2.133  1.00  0.00    -0.077 C 
ATOM     13  C   UNL     1      -2.204  -0.607   2.936  1.00  0.00    -0.028 C 
ATOM     14  C   UNL     1      -4.072   0.557   1.843  1.00  0.00     0.039 C 
BRANCH  13  15
ATOM     15  C   UNL     1      -1.314  -1.777   3.280  1.00  0.00     0.035 C 
BRANCH  15  16
ATOM     16  C   UNL     1       0.052  -1.303   3.787  1.00  0.00     0.079 C 
BRANCH  16  17
ATOM     17  C   UNL     1       0.068  -1.227   5.290  1.00  0.00     0.130 C 
ATOM     18  O   UNL     1      -0.799  -1.797   5.936  1.00  0.00    -0.300 OA
ATOM     19  C   UNL     1       1.127  -0.439   5.999  1.00  0.00     0.087 C 
ENDBRANCH  16  17
ENDBRANCH  15  16
ENDBRANCH  13  15
ENDBRANCH  11  12
ENDBRANCH   1  11
TORSDOF 9
ENDMDL
MODEL 6
REMARK VINA RESULT:    -5.615      1.205      3.338
REMARK INTER + INTRA:         -10.122
REMARK INTER:                  -8.675
REMARK INTRA:                  -1.447
REMARK UNBOUND:                -1.553
REMARK SMILES CC(=O)CCC=C(C)CCC=C(C)CCC=C(C)C
REMARK SMILES IDX 10 1 11 2 12 3 13 4 14 5 15 6 16 7 18 8 17 9 19 10 9 11 7 12
REMARK SMILES IDX 6 13 8 14 5 15 4 16 2 17 3 18 1 19
REMARK H PARENT
REMARK Flexibility Score: inf
ROOT
ATOM      1  C   UNL     1      -0.541  -1.481   0.633  1.00  0.00     0.032 C 
ENDROOT
BRANCH   1   2
ATOM      2  C   UNL     1      -0.565  -1.168  -0.845  1.00  0.00    -0.028 C 
ATOM      3  C   UNL     1      -1.590  -1.452  -1.680  1.00  0.00    -0.077 C 
ATOM      4  C   UNL     1      -1.439  -1.104  -3.138  1.00  0.00     0.039 C 
BRANCH   3   5
ATOM      5  C   UNL     1      -2.903  -2.042  -1.205  1.00  0.00     0.034 C 
BRANCH   5   6
ATOM      6  C   UNL     1      -4.087  -1.270  -1.796  1.00  0.00     0.032 C 
BRANCH   6   7
ATOM      7  C   UNL     1      -4.826  -0.499  -0.730  1.00  0.00    -0.028 C 
ATOM      8  C   UNL     1      -6.719  -2.128  -0.737  1.00  0.00     0.039 C 
ATOM      9  C   UNL     1      -6.026  -0.882  -0.242  1.00  0.00    -0.080 C 
ATOM     10  C   UNL     1      -6.676  -0.037   0.822  1.00  0.00     0.039 C 
ENDBRANCH   6   7
ENDBRANCH   5   6
ENDBRANCH   3   5
ENDBRANCH   1   2
BRANCH   1  11
ATOM     11  C   UNL     1      -0.947  -0.266   1.481  1.00  0.00     0.034 C 
BRANCH  11  12
ATOM     12  C   UNL     1      -1.743  -0.672   2.709  1.00  0.00    -0.077 C 
ATOM     13  C   UNL     1      -1.158  -0.992   3.885  1.00  0.00    -0.028 C 
ATOM     14  C   UNL     1      -3.246  -0.743   2.612  1.00  0.00     0.039 C 
BRANCH  13  15
ATOM     15  C   UNL     1       0.331  -0.931   4.126  1.00  0.00     0.035 C 
BRANCH  15  16
ATOM     16  C   UNL     1       0.723   0.364   4.846  1.00  0.00     0.079 C 
BRANCH  16  17
ATOM     17  C   UNL     1       1.470   0.064   6.118  1.00  0.00     0.130 C 
ATOM     18  O   UNL     1       1.792   0.980   6.861  1.00  0.00    -0.300 OA
ATOM     19  C   UNL     1       1.840  -1.345   6.468  1.00  0.00     0.087 C 
ENDBRANCH  16  17
ENDBRANCH  15  16
ENDBRANCH  13  15
ENDBRANCH  11  12
ENDBRANCH   1  11
TORSDOF 9
ENDMDL
MODEL 7
REMARK VINA RESULT:    -5.588      2.948      7.249
REMARK INTER + INTRA:         -10.081
REMARK INTER:                  -8.350
REMARK INTRA:                  -1.731
REMARK UNBOUND:                -1.553
REMARK SMILES CC(=O)CCC=C(C)CCC=C(C)CCC=C(C)C
REMARK SMILES IDX 10 1 11 2 12 3 13 4 14 5 15 6 16 7 18 8 17 9 19 10 9 11 7 12
REMARK SMILES IDX 6 13 8 14 5 15 4 16 2 17 3 18 1 19
REMARK H PARENT
REMARK Flexibility Score: inf
ROOT
ATOM      1  C   UNL     1      -0.357  -1.549  -0.614  1.00  0.00     0.032 C 
ENDROOT
BRANCH   1   2
ATOM      2  C   UNL     1      -1.224  -0.520   0.072  1.00  0.00    -0.028 C 
ATOM      3  C   UNL     1      -1.662  -0.604   1.349  1.00  0.00    -0.077 C 
ATOM      4  C   UNL     1      -2.552   0.494   1.871  1.00  0.00     0.039 C 
BRANCH   3   5
ATOM      5  C   UNL     1      -1.246  -1.714   2.293  1.00  0.00     0.034 C 
BRANCH   5   6
ATOM      6  C   UNL     1      -1.623  -1.366   3.737  1.00  0.00     0.032 C 
BRANCH   6   7
ATOM      7  C   UNL     1      -0.527  -1.754   4.699  1.00  0.00    -0.028 C 
ATOM      8  C   UNL     1       0.586   0.469   4.469  1.00  0.00     0.039 C 
ATOM      9  C   UNL     1       0.484  -0.926   5.038  1.00  0.00    -0.080 C 
ATOM     10  C   UNL     1       1.526  -1.416   6.008  1.00  0.00     0.039 C 
ENDBRANCH   6   7
ENDBRANCH   5   6
ENDBRANCH   3   5
ENDBRANCH   1   2
BRANCH   1  11
ATOM     11  C   UNL     1      -1.192  -2.552  -1.423  1.00  0.00     0.034 C 
BRANCH  11  12
ATOM     12  C   UNL     1      -2.090  -1.859  -2.433  1.00  0.00    -0.077 C 
ATOM     13  C   UNL     1      -3.433  -2.010  -2.440  1.00  0.00    -0.028 C 
ATOM     14  C   UNL     1      -1.460  -0.984  -3.487  1.00  0.00     0.039 C 
BRANCH  13  15
ATOM     15  C   UNL     1      -4.192  -2.829  -1.425  1.00  0.00     0.035 C 
BRANCH  15  16
ATOM     16  C   UNL     1      -4.624  -1.971  -0.231  1.00  0.00     0.079 C 
BRANCH  16  17
ATOM     17  C   UNL     1      -5.965  -1.337  -0.485  1.00  0.00     0.130 C 
ATOM     18  O   UNL     1      -6.873  -2.006  -0.956  1.00  0.00    -0.300 OA
ATOM     19  C   UNL     1      -6.188   0.114  -0.184  1.00  0.00     0.087 C 
ENDBRANCH  16  17
ENDBRANCH  15  16
ENDBRANCH  13  15
ENDBRANCH  11  12
ENDBRANCH   1  11
TORSDOF 9
ENDMDL
MODEL 8
REMARK VINA RESULT:    -5.512      2.895      7.548
REMARK INTER + INTRA:          -9.966
REMARK INTER:                  -7.647
REMARK INTRA:                  -2.318
REMARK UNBOUND:                -1.553
REMARK SMILES CC(=O)CCC=C(C)CCC=C(C)CCC=C(C)C
REMARK SMILES IDX 10 1 11 2 12 3 13 4 14 5 15 6 16 7 18 8 17 9 19 10 9 11 7 12
REMARK SMILES IDX 6 13 8 14 5 15 4 16 2 17 3 18 1 19
REMARK H PARENT
REMARK Flexibility Score: inf
ROOT
ATOM      1  C   UNL     1      -0.795  -2.029   4.363  1.00  0.00     0.032 C 
ENDROOT
BRANCH   1   2
ATOM      2  C   UNL     1      -0.042  -1.458   5.541  1.00  0.00    -0.028 C 
ATOM      3  C   UNL     1       1.281  -1.174   5.551  1.00  0.00    -0.077 C 
ATOM      4  C   UNL     1       1.886  -0.641   6.824  1.00  0.00     0.039 C 
BRANCH   3   5
ATOM      5  C   UNL     1       2.162  -1.306   4.325  1.00  0.00     0.034 C 
BRANCH   5   6
ATOM      6  C   UNL     1       2.664   0.068   3.870  1.00  0.00     0.032 C 
BRANCH   6   7
ATOM      7  C   UNL     1       1.653   0.755   2.984  1.00  0.00    -0.028 C 
ATOM      8  C   UNL     1       1.069   2.397   4.773  1.00  0.00     0.039 C 
ATOM      9  C   UNL     1       0.922   1.816   3.387  1.00  0.00    -0.080 C 
ATOM     10  C   UNL     1      -0.060   2.426   2.421  1.00  0.00     0.039 C 
ENDBRANCH   6   7
ENDBRANCH   5   6
ENDBRANCH   3   5
ENDBRANCH   1   2
BRANCH   1  11
ATOM     11  C   UNL     1      -1.515  -0.935   3.561  1.00  0.00     0.034 C 
BRANCH  11  12
ATOM     12  C   UNL     1      -1.476  -1.208   2.067  1.00  0.00    -0.077 C 
ATOM     13  C   UNL     1      -2.480  -0.852   1.234  1.00  0.00    -0.028 C 
ATOM     14  C   UNL     1      -0.282  -1.923   1.488  1.00  0.00     0.039 C 
BRANCH  13  15
ATOM     15  C   UNL     1      -3.714  -0.104   1.677  1.00  0.00     0.035 C 
BRANCH  15  16
ATOM     16  C   UNL     1      -4.564   0.321   0.475  1.00  0.00     0.079 C 
BRANCH  16  17
ATOM     17  C   UNL     1      -5.967  -0.211   0.597  1.00  0.00     0.130 C 
ATOM     18  O   UNL     1      -6.743   0.302   1.390  1.00  0.00    -0.300 OA
ATOM     19  C   UNL     1      -6.412  -1.377  -0.231  1.00  0.00     0.087 C 
ENDBRANCH  16  17
ENDBRANCH  15  16
ENDBRANCH  13  15
ENDBRANCH  11  12
ENDBRANCH   1  11
TORSDOF 9
ENDMDL
MODEL 9
REMARK VINA RESULT:    -5.461      2.957      6.271
REMARK INTER + INTRA:          -9.888
REMARK INTER:                  -8.184
REMARK INTRA:                  -1.704
REMARK UNBOUND:                -1.553
REMARK SMILES CC(=O)CCC=C(C)CCC=C(C)CCC=C(C)C
REMARK SMILES IDX 10 1 11 2 12 3 13 4 14 5 15 6 16 7 18 8 17 9 19 10 9 11 7 12
REMARK SMILES IDX 6 13 8 14 5 15 4 16 2 17 3 18 1 19
REMARK H PARENT
REMARK Flexibility Score: inf
ROOT
ATOM      1  C   UNL     1      -6.000  -0.122  -0.313  1.00  0.00     0.032 C 
ENDROOT
BRANCH   1   2
ATOM      2  C   UNL     1      -5.911   0.709   0.944  1.00  0.00    -0.028 C 
ATOM      3  C   UNL     1      -4.825   0.786   1.747  1.00  0.00    -0.077 C 
ATOM      4  C   UNL     1      -4.913   1.637   2.987  1.00  0.00     0.039 C 
BRANCH   3   5
ATOM      5  C   UNL     1      -3.508   0.110   1.420  1.00  0.00     0.034 C 
BRANCH   5   6
ATOM      6  C   UNL     1      -3.196  -0.988   2.442  1.00  0.00     0.032 C 
BRANCH   6   7
ATOM      7  C   UNL     1      -2.037  -1.843   1.990  1.00  0.00    -0.028 C 
ATOM      8  C   UNL     1      -0.759  -1.376   4.084  1.00  0.00     0.039 C 
ATOM      9  C   UNL     1      -0.923  -2.026   2.731  1.00  0.00    -0.080 C 
ATOM     10  C   UNL     1       0.174  -2.901   2.184  1.00  0.00     0.039 C 
ENDBRANCH   6   7
ENDBRANCH   5   6
ENDBRANCH   3   5
ENDBRANCH   1   2
BRANCH   1  11
ATOM     11  C   UNL     1      -5.992  -1.627  -0.005  1.00  0.00     0.034 C 
BRANCH  11  12
ATOM     12  C   UNL     1      -6.013  -2.466  -1.271  1.00  0.00    -0.077 C 
ATOM     13  C   UNL     1      -4.887  -2.834  -1.921  1.00  0.00    -0.028 C 
ATOM     14  C   UNL     1      -7.343  -2.889  -1.842  1.00  0.00     0.039 C 
BRANCH  13  15
ATOM     15  C   UNL     1      -3.494  -2.506  -1.441  1.00  0.00     0.035 C 
BRANCH  15  16
ATOM     16  C   UNL     1      -2.971  -1.223  -2.094  1.00  0.00     0.079 C 
BRANCH  16  17
ATOM     17  C   UNL     1      -1.481  -1.294  -2.296  1.00  0.00     0.130 C 
ATOM     18  O   UNL     1      -1.031  -1.759  -3.334  1.00  0.00    -0.300 OA
ATOM     19  C   UNL     1      -0.546  -0.819  -1.226  1.00  0.00     0.087 C 
ENDBRANCH  16  17
ENDBRANCH  15  16
ENDBRANCH  13  15
ENDBRANCH  11  12
ENDBRANCH   1  11
TORSDOF 9
ENDMDL
