MODEL 1
REMARK VINA RESULT:    -3.789      0.000      0.000
REMARK INTER + INTRA:          -5.689
REMARK INTER:                  -5.340
REMARK INTRA:                  -0.350
REMARK UNBOUND:                -0.350
REMARK SMILES CCCCCCCCC(=O)[O-]
REMARK SMILES IDX 6 1 7 2 8 3 9 4 10 5 11 6 5 7 4 8 3 9 2 10 1 11
REMARK H PARENT
REMARK Flexibility Score: inf
ROOT
ATOM      1  C   UNL     1      16.817  45.294  -0.126  1.00  0.00     0.000 C 
ENDROOT
BRANCH   1   2
ATOM      2  C   UNL     1      16.477  46.783  -0.289  1.00  0.00     0.006 C 
BRANCH   2   3
ATOM      3  C   UNL     1      16.684  47.281  -1.725  1.00  0.00     0.053 C 
BRANCH   3   4
ATOM      4  C   UNL     1      15.372  47.637  -2.349  1.00  0.00     0.041 C 
ATOM      5  O   UNL     1      14.307  47.548  -1.682  1.00  0.00    -0.550 OA
ATOM      6  O   UNL     1      15.317  48.021  -3.682  1.00  0.00    -0.550 OA
ENDBRANCH   3   4
ENDBRANCH   2   3
ENDBRANCH   1   2
BRANCH   1   7
ATOM      7  C   UNL     1      15.811  44.554   0.773  1.00  0.00     0.000 C 
BRANCH   7   8
ATOM      8  C   UNL     1      14.351  44.762   0.331  1.00  0.00    -0.000 C 
BRANCH   8   9
ATOM      9  C   UNL     1      13.403  43.588   0.647  1.00  0.00    -0.000 C 
BRANCH   9  10
ATOM     10  C   UNL     1      12.264  43.381  -0.368  1.00  0.00    -0.003 C 
ATOM     11  C   UNL     1      11.842  44.675  -1.060  1.00  0.00     0.004 C 
ENDBRANCH   9  10
ENDBRANCH   8   9
ENDBRANCH   7   8
ENDBRANCH   1   7
TORSDOF 7
ENDMDL
MODEL 2
REMARK VINA RESULT:    -3.757      2.229      4.438
REMARK INTER + INTRA:          -5.644
REMARK INTER:                  -5.141
REMARK INTRA:                  -0.504
REMARK UNBOUND:                -0.350
REMARK SMILES CCCCCCCCC(=O)[O-]
REMARK SMILES IDX 6 1 7 2 8 3 9 4 10 5 11 6 5 7 4 8 3 9 2 10 1 11
REMARK H PARENT
REMARK Flexibility Score: inf
ROOT
ATOM      1  C   UNL     1      15.733  44.656   0.831  1.00  0.00     0.000 C 
ENDROOT
BRANCH   1   2
ATOM      2  C   UNL     1      14.307  44.084   0.851  1.00  0.00     0.006 C 
BRANCH   2   3
ATOM      3  C   UNL     1      13.298  44.994   0.140  1.00  0.00     0.053 C 
BRANCH   3   4
ATOM      4  C   UNL     1      12.266  44.175  -0.570  1.00  0.00     0.041 C 
ATOM      5  O   UNL     1      12.253  42.923  -0.442  1.00  0.00    -0.550 OA
ATOM      6  O   UNL     1      11.350  44.791  -1.412  1.00  0.00    -0.550 OA
ENDBRANCH   3   4
ENDBRANCH   2   3
ENDBRANCH   1   2
BRANCH   1   7
ATOM      7  C   UNL     1      16.014  45.499  -0.425  1.00  0.00     0.000 C 
BRANCH   7   8
ATOM      8  C   UNL     1      16.707  46.836  -0.103  1.00  0.00    -0.000 C 
BRANCH   8   9
ATOM      9  C   UNL     1      16.016  48.084  -0.686  1.00  0.00    -0.000 C 
BRANCH   9  10
ATOM     10  C   UNL     1      14.893  47.793  -1.698  1.00  0.00    -0.003 C 
ATOM     11  C   UNL     1      15.287  48.125  -3.135  1.00  0.00     0.004 C 
ENDBRANCH   9  10
ENDBRANCH   8   9
ENDBRANCH   7   8
ENDBRANCH   1   7
TORSDOF 7
ENDMDL
MODEL 3
REMARK VINA RESULT:    -3.389     10.959     12.877
REMARK INTER + INTRA:          -5.126
REMARK INTER:                  -4.566
REMARK INTRA:                  -0.560
REMARK UNBOUND:                -0.350
REMARK SMILES CCCCCCCCC(=O)[O-]
REMARK SMILES IDX 6 1 7 2 8 3 9 4 10 5 11 6 5 7 4 8 3 9 2 10 1 11
REMARK H PARENT
REMARK Flexibility Score: inf
ROOT
ATOM      1  C   UNL     1      13.893  38.407   7.793  1.00  0.00     0.000 C 
ENDROOT
BRANCH   1   2
ATOM      2  C   UNL     1      14.333  38.761   9.222  1.00  0.00     0.006 C 
BRANCH   2   3
ATOM      3  C   UNL     1      14.058  37.631  10.221  1.00  0.00     0.053 C 
BRANCH   3   4
ATOM      4  C   UNL     1      14.957  37.753  11.410  1.00  0.00     0.041 C 
ATOM      5  O   UNL     1      14.480  38.040  12.539  1.00  0.00    -0.550 OA
ATOM      6  O   UNL     1      16.329  37.599  11.262  1.00  0.00    -0.550 OA
ENDBRANCH   3   4
ENDBRANCH   2   3
ENDBRANCH   1   2
BRANCH   1   7
ATOM      7  C   UNL     1      14.938  38.806   6.737  1.00  0.00     0.000 C 
BRANCH   7   8
ATOM      8  C   UNL     1      16.296  39.184   7.357  1.00  0.00    -0.000 C 
BRANCH   8   9
ATOM      9  C   UNL     1      16.729  40.647   7.133  1.00  0.00    -0.000 C 
BRANCH   9  10
ATOM     10  C   UNL     1      15.573  41.659   7.034  1.00  0.00    -0.003 C 
ATOM     11  C   UNL     1      15.231  42.305   8.374  1.00  0.00     0.004 C 
ENDBRANCH   9  10
ENDBRANCH   8   9
ENDBRANCH   7   8
ENDBRANCH   1   7
TORSDOF 7
ENDMDL
MODEL 4
REMARK VINA RESULT:    -3.244     10.110     11.718
REMARK INTER + INTRA:          -4.922
REMARK INTER:                  -4.379
REMARK INTRA:                  -0.543
REMARK UNBOUND:                -0.350
REMARK SMILES CCCCCCCCC(=O)[O-]
REMARK SMILES IDX 6 1 7 2 8 3 9 4 10 5 11 6 5 7 4 8 3 9 2 10 1 11
REMARK H PARENT
REMARK Flexibility Score: inf
ROOT
ATOM      1  C   UNL     1      15.023  38.727   6.738  1.00  0.00     0.000 C 
ENDROOT
BRANCH   1   2
ATOM      2  C   UNL     1      16.168  39.525   7.382  1.00  0.00     0.006 C 
BRANCH   2   3
ATOM      3  C   UNL     1      16.134  41.011   7.006  1.00  0.00     0.053 C 
BRANCH   3   4
ATOM      4  C   UNL     1      15.895  41.853   8.219  1.00  0.00     0.041 C 
ATOM      5  O   UNL     1      14.801  42.459   8.364  1.00  0.00    -0.550 OA
ATOM      6  O   UNL     1      16.898  42.008   9.167  1.00  0.00    -0.550 OA
ENDBRANCH   3   4
ENDBRANCH   2   3
ENDBRANCH   1   2
BRANCH   1   7
ATOM      7  C   UNL     1      13.873  38.447   7.721  1.00  0.00     0.000 C 
BRANCH   7   8
ATOM      8  C   UNL     1      14.247  38.761   9.181  1.00  0.00    -0.000 C 
BRANCH   8   9
ATOM      9  C   UNL     1      14.079  37.585  10.164  1.00  0.00    -0.000 C 
BRANCH   9  10
ATOM     10  C   UNL     1      15.184  37.465  11.229  1.00  0.00    -0.003 C 
ATOM     11  C   UNL     1      16.347  38.425  10.990  1.00  0.00     0.004 C 
ENDBRANCH   9  10
ENDBRANCH   8   9
ENDBRANCH   7   8
ENDBRANCH   1   7
TORSDOF 7
ENDMDL
MODEL 5
REMARK VINA RESULT:    -3.123     12.403     14.198
REMARK INTER + INTRA:          -4.750
REMARK INTER:                  -4.325
REMARK INTRA:                  -0.425
REMARK UNBOUND:                -0.350
REMARK SMILES CCCCCCCCC(=O)[O-]
REMARK SMILES IDX 6 1 7 2 8 3 9 4 10 5 11 6 5 7 4 8 3 9 2 10 1 11
REMARK H PARENT
REMARK Flexibility Score: inf
ROOT
ATOM      1  C   UNL     1      14.341  38.014  10.390  1.00  0.00     0.000 C 
ENDROOT
BRANCH   1   2
ATOM      2  C   UNL     1      15.500  38.334  11.346  1.00  0.00     0.006 C 
BRANCH   2   3
ATOM      3  C   UNL     1      16.688  37.379  11.172  1.00  0.00     0.053 C 
BRANCH   3   4
ATOM      4  C   UNL     1      16.515  36.167  12.030  1.00  0.00     0.041 C 
ATOM      5  O   UNL     1      16.372  35.032  11.504  1.00  0.00    -0.550 OA
ATOM      6  O   UNL     1      16.461  36.295  13.412  1.00  0.00    -0.550 OA
ENDBRANCH   3   4
ENDBRANCH   2   3
ENDBRANCH   1   2
BRANCH   1   7
ATOM      7  C   UNL     1      14.261  38.999   9.210  1.00  0.00     0.000 C 
BRANCH   7   8
ATOM      8  C   UNL     1      13.784  38.330   7.908  1.00  0.00    -0.000 C 
BRANCH   8   9
ATOM      9  C   UNL     1      14.571  38.732   6.644  1.00  0.00    -0.000 C 
BRANCH   9  10
ATOM     10  C   UNL     1      15.876  39.505   6.910  1.00  0.00    -0.003 C 
ATOM     11  C   UNL     1      17.125  38.647   6.717  1.00  0.00     0.004 C 
ENDBRANCH   9  10
ENDBRANCH   8   9
ENDBRANCH   7   8
ENDBRANCH   1   7
TORSDOF 7
ENDMDL
MODEL 6
REMARK VINA RESULT:    -3.106     12.104     13.772
REMARK INTER + INTRA:          -4.726
REMARK INTER:                  -4.063
REMARK INTRA:                  -0.663
REMARK UNBOUND:                -0.350
REMARK SMILES CCCCCCCCC(=O)[O-]
REMARK SMILES IDX 6 1 7 2 8 3 9 4 10 5 11 6 5 7 4 8 3 9 2 10 1 11
REMARK H PARENT
REMARK Flexibility Score: inf
ROOT
ATOM      1  C   UNL     1      16.711  38.945   9.861  1.00  0.00     0.000 C 
ENDROOT
BRANCH   1   2
ATOM      2  C   UNL     1      15.669  38.812  10.982  1.00  0.00     0.006 C 
BRANCH   2   3
ATOM      3  C   UNL     1      15.112  37.388  11.103  1.00  0.00     0.053 C 
BRANCH   3   4
ATOM      4  C   UNL     1      16.023  36.540  11.933  1.00  0.00     0.041 C 
ATOM      5  O   UNL     1      16.475  36.974  13.024  1.00  0.00    -0.550 OA
ATOM      6  O   UNL     1      16.412  35.287  11.476  1.00  0.00    -0.550 OA
ENDBRANCH   3   4
ENDBRANCH   2   3
ENDBRANCH   1   2
BRANCH   1   7
ATOM      7  C   UNL     1      16.737  40.354   9.243  1.00  0.00     0.000 C 
BRANCH   7   8
ATOM      8  C   UNL     1      16.213  40.381   7.796  1.00  0.00    -0.000 C 
BRANCH   8   9
ATOM      9  C   UNL     1      16.070  38.998   7.130  1.00  0.00    -0.000 C 
BRANCH   9  10
ATOM     10  C   UNL     1      14.661  38.672   6.602  1.00  0.00    -0.003 C 
ATOM     11  C   UNL     1      13.688  38.272   7.710  1.00  0.00     0.004 C 
ENDBRANCH   9  10
ENDBRANCH   8   9
ENDBRANCH   7   8
ENDBRANCH   1   7
TORSDOF 7
ENDMDL
MODEL 7
REMARK VINA RESULT:    -3.088     12.119     13.990
REMARK INTER + INTRA:          -4.702
REMARK INTER:                  -4.324
REMARK INTRA:                  -0.378
REMARK UNBOUND:                -0.350
REMARK SMILES CCCCCCCCC(=O)[O-]
REMARK SMILES IDX 6 1 7 2 8 3 9 4 10 5 11 6 5 7 4 8 3 9 2 10 1 11
REMARK H PARENT
REMARK Flexibility Score: inf
ROOT
ATOM      1  C   UNL     1      14.201  37.834  10.413  1.00  0.00     0.000 C 
ENDROOT
BRANCH   1   2
ATOM      2  C   UNL     1      15.457  37.528  11.245  1.00  0.00     0.006 C 
BRANCH   2   3
ATOM      3  C   UNL     1      15.170  37.491  12.751  1.00  0.00     0.053 C 
BRANCH   3   4
ATOM      4  C   UNL     1      14.781  38.849  13.242  1.00  0.00     0.041 C 
ATOM      5  O   UNL     1      13.623  39.052  13.694  1.00  0.00    -0.550 OA
ATOM      6  O   UNL     1      15.681  39.904  13.157  1.00  0.00    -0.550 OA
ENDBRANCH   3   4
ENDBRANCH   2   3
ENDBRANCH   1   2
BRANCH   1   7
ATOM      7  C   UNL     1      14.483  38.808   9.255  1.00  0.00     0.000 C 
BRANCH   7   8
ATOM      8  C   UNL     1      13.800  38.387   7.942  1.00  0.00    -0.000 C 
BRANCH   8   9
ATOM      9  C   UNL     1      14.575  38.749   6.660  1.00  0.00    -0.000 C 
BRANCH   9  10
ATOM     10  C   UNL     1      15.913  39.474   6.892  1.00  0.00    -0.003 C 
ATOM     11  C   UNL     1      17.125  38.573   6.662  1.00  0.00     0.004 C 
ENDBRANCH   9  10
ENDBRANCH   8   9
ENDBRANCH   7   8
ENDBRANCH   1   7
TORSDOF 7
ENDMDL
MODEL 8
REMARK VINA RESULT:    -1.734      2.747      4.824
REMARK INTER + INTRA:          -2.794
REMARK INTER:                  -2.250
REMARK INTRA:                  -0.544
REMARK UNBOUND:                -0.350
REMARK SMILES CCCCCCCCC(=O)[O-]
REMARK SMILES IDX 6 1 7 2 8 3 9 4 10 5 11 6 5 7 4 8 3 9 2 10 1 11
REMARK H PARENT
REMARK Flexibility Score: inf
ROOT
ATOM      1  C   UNL     1      13.863  46.962  -1.240  1.00  0.00     0.000 C 
ENDROOT
BRANCH   1   2
ATOM      2  C   UNL     1      13.444  45.918  -0.194  1.00  0.00     0.006 C 
BRANCH   2   3
ATOM      3  C   UNL     1      12.422  44.914  -0.740  1.00  0.00     0.053 C 
BRANCH   3   4
ATOM      4  C   UNL     1      12.633  43.567  -0.125  1.00  0.00     0.041 C 
ATOM      5  O   UNL     1      12.244  42.529  -0.723  1.00  0.00    -0.550 OA
ATOM      6  O   UNL     1      13.214  43.459   1.132  1.00  0.00    -0.550 OA
ENDBRANCH   3   4
ENDBRANCH   2   3
ENDBRANCH   1   2
BRANCH   1   7
ATOM      7  C   UNL     1      15.356  46.869  -1.603  1.00  0.00     0.000 C 
BRANCH   7   8
ATOM      8  C   UNL     1      16.262  47.590  -0.589  1.00  0.00    -0.000 C 
BRANCH   8   9
ATOM      9  C   UNL     1      17.125  46.660   0.288  1.00  0.00    -0.000 C 
BRANCH   9  10
ATOM     10  C   UNL     1      16.976  45.158  -0.015  1.00  0.00    -0.003 C 
ATOM     11  C   UNL     1      16.620  44.335   1.222  1.00  0.00     0.004 C 
ENDBRANCH   9  10
ENDBRANCH   8   9
ENDBRANCH   7   8
ENDBRANCH   1   7
TORSDOF 7
ENDMDL
