MODEL 1
REMARK VINA RESULT:    -5.175      0.000      0.000
REMARK INTER + INTRA:          -5.175
REMARK INTER:                  -5.175
REMARK INTRA:                   0.000
REMARK UNBOUND:                 0.000
REMARK SMILES O=c1ccc2ccccc2o1
REMARK SMILES IDX 7 1 8 2 9 3 10 4 5 5 6 6 4 7 3 8 2 9 1 10 11 11
REMARK H PARENT
REMARK Flexibility Score: inf
ROOT
ATOM      1  C   UNL     1      29.820 -25.812  33.988  1.00  0.00     0.001 A 
ATOM      2  C   UNL     1      29.123 -24.808  34.669  1.00  0.00     0.004 A 
ATOM      3  C   UNL     1      28.299 -25.134  35.752  1.00  0.00     0.048 A 
ATOM      4  C   UNL     1      28.169 -26.466  36.158  1.00  0.00     0.138 A 
ATOM      5  C   UNL     1      28.873 -27.481  35.470  1.00  0.00     0.018 A 
ATOM      6  C   UNL     1      29.697 -27.148  34.386  1.00  0.00     0.012 A 
ATOM      7  C   UNL     1      28.723 -28.803  35.898  1.00  0.00     0.019 A 
ATOM      8  C   UNL     1      27.891 -29.081  36.982  1.00  0.00     0.094 A 
ATOM      9  C   UNL     1      27.226 -28.026  37.615  1.00  0.00     0.336 A 
ATOM     10  O   UNL     1      26.471 -28.257  38.596  1.00  0.00    -0.246 OA
ATOM     11  O   UNL     1      27.385 -26.775  37.188  1.00  0.00    -0.423 OA
ENDROOT
TORSDOF 0
ENDMDL
MODEL 2
REMARK VINA RESULT:    -5.107      3.465      4.553
REMARK INTER + INTRA:          -5.107
REMARK INTER:                  -5.107
REMARK INTRA:                   0.000
REMARK UNBOUND:                 0.000
REMARK SMILES O=c1ccc2ccccc2o1
REMARK SMILES IDX 7 1 8 2 9 3 10 4 5 5 6 6 4 7 3 8 2 9 1 10 11 11
REMARK H PARENT
REMARK Flexibility Score: inf
ROOT
ATOM      1  C   UNL     1      29.137 -28.284  35.890  1.00  0.00     0.001 A 
ATOM      2  C   UNL     1      29.494 -26.979  35.535  1.00  0.00     0.004 A 
ATOM      3  C   UNL     1      29.222 -26.498  34.250  1.00  0.00     0.048 A 
ATOM      4  C   UNL     1      28.590 -27.324  33.314  1.00  0.00     0.138 A 
ATOM      5  C   UNL     1      28.229 -28.643  33.672  1.00  0.00     0.018 A 
ATOM      6  C   UNL     1      28.505 -29.117  34.961  1.00  0.00     0.012 A 
ATOM      7  C   UNL     1      27.599 -29.443  32.714  1.00  0.00     0.019 A 
ATOM      8  C   UNL     1      27.348 -28.923  31.445  1.00  0.00     0.094 A 
ATOM      9  C   UNL     1      27.733 -27.608  31.161  1.00  0.00     0.336 A 
ATOM     10  O   UNL     1      27.514 -27.121  30.022  1.00  0.00    -0.246 OA
ATOM     11  O   UNL     1      28.332 -26.867  32.091  1.00  0.00    -0.423 OA
ENDROOT
TORSDOF 0
ENDMDL
MODEL 3
REMARK VINA RESULT:    -5.103      1.037      2.087
REMARK INTER + INTRA:          -5.103
REMARK INTER:                  -5.103
REMARK INTRA:                   0.000
REMARK UNBOUND:                 0.000
REMARK SMILES O=c1ccc2ccccc2o1
REMARK SMILES IDX 7 1 8 2 9 3 10 4 5 5 6 6 4 7 3 8 2 9 1 10 11 11
REMARK H PARENT
REMARK Flexibility Score: inf
ROOT
ATOM      1  C   UNL     1      29.531 -25.577  34.321  1.00  0.00     0.001 A 
ATOM      2  C   UNL     1      29.758 -26.896  33.914  1.00  0.00     0.004 A 
ATOM      3  C   UNL     1      29.207 -27.960  34.635  1.00  0.00     0.048 A 
ATOM      4  C   UNL     1      28.425 -27.708  35.767  1.00  0.00     0.138 A 
ATOM      5  C   UNL     1      28.194 -26.376  36.178  1.00  0.00     0.018 A 
ATOM      6  C   UNL     1      28.750 -25.314  35.452  1.00  0.00     0.012 A 
ATOM      7  C   UNL     1      27.409 -26.156  37.314  1.00  0.00     0.019 A 
ATOM      8  C   UNL     1      26.880 -27.248  38.002  1.00  0.00     0.094 A 
ATOM      9  C   UNL     1      27.149 -28.539  37.536  1.00  0.00     0.336 A 
ATOM     10  O   UNL     1      26.680 -29.537  38.143  1.00  0.00    -0.246 OA
ATOM     11  O   UNL     1      27.901 -28.722  36.453  1.00  0.00    -0.423 OA
ENDROOT
TORSDOF 0
ENDMDL
MODEL 4
REMARK VINA RESULT:    -5.086      1.291      2.587
REMARK INTER + INTRA:          -5.086
REMARK INTER:                  -5.086
REMARK INTRA:                   0.000
REMARK UNBOUND:                 0.000
REMARK SMILES O=c1ccc2ccccc2o1
REMARK SMILES IDX 7 1 8 2 9 3 10 4 5 5 6 6 4 7 3 8 2 9 1 10 11 11
REMARK H PARENT
REMARK Flexibility Score: inf
ROOT
ATOM      1  C   UNL     1      29.507 -27.652  33.760  1.00  0.00     0.001 A 
ATOM      2  C   UNL     1      28.762 -28.736  34.236  1.00  0.00     0.004 A 
ATOM      3  C   UNL     1      28.007 -28.612  35.407  1.00  0.00     0.048 A 
ATOM      4  C   UNL     1      27.996 -27.402  36.108  1.00  0.00     0.138 A 
ATOM      5  C   UNL     1      28.749 -26.306  35.628  1.00  0.00     0.018 A 
ATOM      6  C   UNL     1      29.503 -26.437  34.454  1.00  0.00     0.012 A 
ATOM      7  C   UNL     1      28.717 -25.109  36.350  1.00  0.00     0.019 A 
ATOM      8  C   UNL     1      27.952 -25.031  37.513  1.00  0.00     0.094 A 
ATOM      9  C   UNL     1      27.231 -26.156  37.928  1.00  0.00     0.336 A 
ATOM     10  O   UNL     1      26.533 -26.106  38.974  1.00  0.00    -0.246 OA
ATOM     11  O   UNL     1      27.278 -27.284  37.223  1.00  0.00    -0.423 OA
ENDROOT
TORSDOF 0
ENDMDL
MODEL 5
REMARK VINA RESULT:    -5.079      1.589      3.819
REMARK INTER + INTRA:          -5.079
REMARK INTER:                  -5.079
REMARK INTRA:                   0.000
REMARK UNBOUND:                 0.000
REMARK SMILES O=c1ccc2ccccc2o1
REMARK SMILES IDX 7 1 8 2 9 3 10 4 5 5 6 6 4 7 3 8 2 9 1 10 11 11
REMARK H PARENT
REMARK Flexibility Score: inf
ROOT
ATOM      1  C   UNL     1      27.481 -29.058  37.343  1.00  0.00     0.001 A 
ATOM      2  C   UNL     1      26.922 -27.930  37.953  1.00  0.00     0.004 A 
ATOM      3  C   UNL     1      27.209 -26.651  37.464  1.00  0.00     0.048 A 
ATOM      4  C   UNL     1      28.057 -26.496  36.362  1.00  0.00     0.138 A 
ATOM      5  C   UNL     1      28.622 -27.636  35.746  1.00  0.00     0.018 A 
ATOM      6  C   UNL     1      28.330 -28.915  36.241  1.00  0.00     0.012 A 
ATOM      7  C   UNL     1      29.466 -27.449  34.647  1.00  0.00     0.019 A 
ATOM      8  C   UNL     1      29.724 -26.156  34.195  1.00  0.00     0.094 A 
ATOM      9  C   UNL     1      29.130 -25.075  34.853  1.00  0.00     0.336 A 
ATOM     10  O   UNL     1      29.350 -23.900  34.460  1.00  0.00    -0.246 OA
ATOM     11  O   UNL     1      28.330 -25.279  35.898  1.00  0.00    -0.423 OA
ENDROOT
TORSDOF 0
ENDMDL
MODEL 6
REMARK VINA RESULT:    -5.033      3.399      4.764
REMARK INTER + INTRA:          -5.033
REMARK INTER:                  -5.033
REMARK INTRA:                   0.000
REMARK UNBOUND:                 0.000
REMARK SMILES O=c1ccc2ccccc2o1
REMARK SMILES IDX 7 1 8 2 9 3 10 4 5 5 6 6 4 7 3 8 2 9 1 10 11 11
REMARK H PARENT
REMARK Flexibility Score: inf
ROOT
ATOM      1  C   UNL     1      29.402 -27.573  35.797  1.00  0.00     0.001 A 
ATOM      2  C   UNL     1      29.077 -28.933  35.791  1.00  0.00     0.004 A 
ATOM      3  C   UNL     1      28.469 -29.507  34.670  1.00  0.00     0.048 A 
ATOM      4  C   UNL     1      28.184 -28.720  33.548  1.00  0.00     0.138 A 
ATOM      5  C   UNL     1      28.513 -27.346  33.554  1.00  0.00     0.018 A 
ATOM      6  C   UNL     1      29.122 -26.777  34.681  1.00  0.00     0.012 A 
ATOM      7  C   UNL     1      28.216 -26.586  32.419  1.00  0.00     0.019 A 
ATOM      8  C   UNL     1      27.610 -27.199  31.324  1.00  0.00     0.094 A 
ATOM      9  C   UNL     1      27.313 -28.565  31.388  1.00  0.00     0.336 A 
ATOM     10  O   UNL     1      26.767 -29.137  30.410  1.00  0.00    -0.246 OA
ATOM     11  O   UNL     1      27.606 -29.267  32.481  1.00  0.00    -0.423 OA
ENDROOT
TORSDOF 0
ENDMDL
MODEL 7
REMARK VINA RESULT:    -4.967      2.599      3.369
REMARK INTER + INTRA:          -4.967
REMARK INTER:                  -4.967
REMARK INTRA:                   0.000
REMARK UNBOUND:                 0.000
REMARK SMILES O=c1ccc2ccccc2o1
REMARK SMILES IDX 7 1 8 2 9 3 10 4 5 5 6 6 4 7 3 8 2 9 1 10 11 11
REMARK H PARENT
REMARK Flexibility Score: inf
ROOT
ATOM      1  C   UNL     1      28.789 -24.984  36.185  1.00  0.00     0.001 A 
ATOM      2  C   UNL     1      28.695 -24.387  34.923  1.00  0.00     0.004 A 
ATOM      3  C   UNL     1      28.528 -25.177  33.781  1.00  0.00     0.048 A 
ATOM      4  C   UNL     1      28.454 -26.569  33.897  1.00  0.00     0.138 A 
ATOM      5  C   UNL     1      28.549 -27.173  35.172  1.00  0.00     0.018 A 
ATOM      6  C   UNL     1      28.716 -26.375  36.312  1.00  0.00     0.012 A 
ATOM      7  C   UNL     1      28.472 -28.566  35.256  1.00  0.00     0.019 A 
ATOM      8  C   UNL     1      28.306 -29.314  34.091  1.00  0.00     0.094 A 
ATOM      9  C   UNL     1      28.219 -28.649  32.863  1.00  0.00     0.336 A 
ATOM     10  O   UNL     1      28.068 -29.306  31.801  1.00  0.00    -0.246 OA
ATOM     11  O   UNL     1      28.296 -27.321  32.810  1.00  0.00    -0.423 OA
ENDROOT
TORSDOF 0
ENDMDL
MODEL 8
REMARK VINA RESULT:    -4.934      1.948      3.287
REMARK INTER + INTRA:          -4.934
REMARK INTER:                  -4.934
REMARK INTRA:                   0.000
REMARK UNBOUND:                 0.000
REMARK SMILES O=c1ccc2ccccc2o1
REMARK SMILES IDX 7 1 8 2 9 3 10 4 5 5 6 6 4 7 3 8 2 9 1 10 11 11
REMARK H PARENT
REMARK Flexibility Score: inf
ROOT
ATOM      1  C   UNL     1      27.946 -24.993  37.741  1.00  0.00     0.001 A 
ATOM      2  C   UNL     1      26.997 -25.947  38.122  1.00  0.00     0.004 A 
ATOM      3  C   UNL     1      26.862 -27.136  37.397  1.00  0.00     0.048 A 
ATOM      4  C   UNL     1      27.679 -27.375  36.287  1.00  0.00     0.138 A 
ATOM      5  C   UNL     1      28.639 -26.411  35.901  1.00  0.00     0.018 A 
ATOM      6  C   UNL     1      28.768 -25.222  36.632  1.00  0.00     0.012 A 
ATOM      7  C   UNL     1      29.439 -26.679  34.787  1.00  0.00     0.019 A 
ATOM      8  C   UNL     1      29.270 -27.876  34.094  1.00  0.00     0.094 A 
ATOM      9  C   UNL     1      28.301 -28.784  34.533  1.00  0.00     0.336 A 
ATOM     10  O   UNL     1      28.133 -29.871  33.921  1.00  0.00    -0.246 OA
ATOM     11  O   UNL     1      27.550 -28.506  35.597  1.00  0.00    -0.423 OA
ENDROOT
TORSDOF 0
ENDMDL
MODEL 9
REMARK VINA RESULT:    -4.900      1.670      2.462
REMARK INTER + INTRA:          -4.900
REMARK INTER:                  -4.900
REMARK INTRA:                   0.000
REMARK UNBOUND:                 0.000
REMARK SMILES O=c1ccc2ccccc2o1
REMARK SMILES IDX 7 1 8 2 9 3 10 4 5 5 6 6 4 7 3 8 2 9 1 10 11 11
REMARK H PARENT
REMARK Flexibility Score: inf
ROOT
ATOM      1  C   UNL     1      29.088 -28.478  33.987  1.00  0.00     0.001 A 
ATOM      2  C   UNL     1      29.693 -27.247  33.711  1.00  0.00     0.004 A 
ATOM      3  C   UNL     1      29.474 -26.150  34.551  1.00  0.00     0.048 A 
ATOM      4  C   UNL     1      28.648 -26.281  35.672  1.00  0.00     0.138 A 
ATOM      5  C   UNL     1      28.037 -27.525  35.952  1.00  0.00     0.018 A 
ATOM      6  C   UNL     1      28.260 -28.619  35.106  1.00  0.00     0.012 A 
ATOM      7  C   UNL     1      27.217 -27.624  37.080  1.00  0.00     0.019 A 
ATOM      8  C   UNL     1      27.027 -26.505  37.889  1.00  0.00     0.094 A 
ATOM      9  C   UNL     1      27.664 -25.306  37.551  1.00  0.00     0.336 A 
ATOM     10  O   UNL     1      27.505 -24.285  38.269  1.00  0.00    -0.246 OA
ATOM     11  O   UNL     1      28.440 -25.237  36.471  1.00  0.00    -0.423 OA
ENDROOT
TORSDOF 0
ENDMDL
