MODEL 1
REMARK VINA RESULT:    -6.830      0.000      0.000
REMARK INTER + INTRA:          -8.317
REMARK INTER:                  -8.028
REMARK INTRA:                  -0.289
REMARK UNBOUND:                -0.289
REMARK SMILES O=c1c(O)c(-c2ccc(O)cc2)oc2cc(O)cc(O)c12
REMARK SMILES IDX 5 1 3 2 2 3 1 4 21 5 19 6 18 7 16 8 15 9 14 10 13 11 6 12
REMARK SMILES IDX 7 13 8 14 9 15 12 16 11 17 10 18 4 20 20 22 17 24
REMARK H PARENT 10 19 4 21 20 23 17 25
REMARK Flexibility Score: inf
ROOT
ATOM      1  C   UNL     1      24.844  44.694  14.040  1.00  0.00     0.180 A 
ATOM      2  C   UNL     1      24.770  45.943  13.401  1.00  0.00     0.208 A 
ATOM      3  C   UNL     1      25.892  46.788  13.426  1.00  0.00     0.238 A 
ATOM      4  O   UNL     1      25.803  47.927  12.899  1.00  0.00    -0.285 OA
ATOM      5  C   UNL     1      27.077  46.366  14.076  1.00  0.00     0.111 A 
ATOM      6  C   UNL     1      28.286  47.124  14.128  1.00  0.00     0.134 A 
ATOM      7  C   UNL     1      29.354  46.666  14.910  1.00  0.00     0.093 A 
ATOM      8  C   UNL     1      29.280  45.446  15.587  1.00  0.00     0.123 A 
ATOM      9  C   UNL     1      28.127  44.671  15.494  1.00  0.00     0.094 A 
ATOM     10  C   UNL     1      27.031  45.118  14.751  1.00  0.00     0.146 A 
ATOM     11  O   UNL     1      25.947  44.355  14.697  1.00  0.00    -0.452 OA
ENDROOT
BRANCH   1  12
ATOM     12  C   UNL     1      23.712  43.738  14.035  1.00  0.00     0.021 A 
ATOM     13  C   UNL     1      23.581  42.828  12.973  1.00  0.00     0.016 A 
ATOM     14  C   UNL     1      22.508  41.932  12.937  1.00  0.00     0.047 A 
ATOM     15  C   UNL     1      21.545  41.945  13.950  1.00  0.00     0.115 A 
ATOM     16  C   UNL     1      22.729  43.761  15.041  1.00  0.00     0.016 A 
ATOM     17  C   UNL     1      21.657  42.865  15.002  1.00  0.00     0.047 A 
BRANCH  15  18
ATOM     18  O   UNL     1      20.482  41.048  13.902  1.00  0.00    -0.508 OA
ATOM     19  H   UNL     1      20.142  40.583  14.736  1.00  0.00     0.293 HD
ENDBRANCH  15  18
ENDBRANCH   1  12
BRANCH   2  20
ATOM     20  O   UNL     1      23.584  46.349  12.784  1.00  0.00    -0.502 OA
ATOM     21  H   UNL     1      23.567  47.025  12.029  1.00  0.00     0.293 HD
ENDBRANCH   2  20
BRANCH   6  22
ATOM     22  O   UNL     1      28.497  48.308  13.415  1.00  0.00    -0.507 OA
ATOM     23  H   UNL     1      28.146  49.213  13.689  1.00  0.00     0.293 HD
ENDBRANCH   6  22
BRANCH   8  24
ATOM     24  O   UNL     1      30.354  44.991  16.350  1.00  0.00    -0.508 OA
ATOM     25  H   UNL     1      30.511  44.004  16.509  1.00  0.00     0.293 HD
ENDBRANCH   8  24
TORSDOF 5
ENDMDL
MODEL 2
REMARK VINA RESULT:    -6.720      2.858      5.327
REMARK INTER + INTRA:          -8.187
REMARK INTER:                  -7.974
REMARK INTRA:                  -0.213
REMARK UNBOUND:                -0.289
REMARK SMILES O=c1c(O)c(-c2ccc(O)cc2)oc2cc(O)cc(O)c12
REMARK SMILES IDX 5 1 3 2 2 3 1 4 21 5 19 6 18 7 16 8 15 9 14 10 13 11 6 12
REMARK SMILES IDX 7 13 8 14 9 15 12 16 11 17 10 18 4 20 20 22 17 24
REMARK H PARENT 10 19 4 21 20 23 17 25
REMARK Flexibility Score: inf
ROOT
ATOM      1  C   UNL     1      27.970  43.468  15.445  1.00  0.00     0.180 A 
ATOM      2  C   UNL     1      29.059  44.338  15.271  1.00  0.00     0.208 A 
ATOM      3  C   UNL     1      28.847  45.575  14.641  1.00  0.00     0.238 A 
ATOM      4  O   UNL     1      29.835  46.329  14.440  1.00  0.00    -0.285 OA
ATOM      5  C   UNL     1      27.547  45.933  14.209  1.00  0.00     0.111 A 
ATOM      6  C   UNL     1      27.210  47.177  13.596  1.00  0.00     0.134 A 
ATOM      7  C   UNL     1      25.918  47.370  13.090  1.00  0.00     0.093 A 
ATOM      8  C   UNL     1      24.935  46.389  13.234  1.00  0.00     0.123 A 
ATOM      9  C   UNL     1      25.237  45.194  13.883  1.00  0.00     0.094 A 
ATOM     10  C   UNL     1      26.527  44.958  14.367  1.00  0.00     0.146 A 
ATOM     11  O   UNL     1      26.777  43.803  14.970  1.00  0.00    -0.452 OA
ENDROOT
BRANCH   1  12
ATOM     12  C   UNL     1      28.110  42.157  16.122  1.00  0.00     0.021 A 
ATOM     13  C   UNL     1      28.719  41.089  15.442  1.00  0.00     0.016 A 
ATOM     14  C   UNL     1      28.841  39.838  16.054  1.00  0.00     0.047 A 
ATOM     15  C   UNL     1      28.343  39.634  17.344  1.00  0.00     0.115 A 
ATOM     16  C   UNL     1      27.592  41.940  17.412  1.00  0.00     0.016 A 
ATOM     17  C   UNL     1      27.716  40.688  18.021  1.00  0.00     0.047 A 
BRANCH  15  18
ATOM     18  O   UNL     1      28.472  38.382  17.942  1.00  0.00    -0.508 OA
ATOM     19  H   UNL     1      28.045  37.556  17.538  1.00  0.00     0.293 HD
ENDBRANCH  15  18
ENDBRANCH   1  12
BRANCH   2  20
ATOM     20  O   UNL     1      30.338  43.957  15.686  1.00  0.00    -0.502 OA
ATOM     21  H   UNL     1      31.178  44.259  15.206  1.00  0.00     0.293 HD
ENDBRANCH   2  20
BRANCH   6  22
ATOM     22  O   UNL     1      28.091  48.257  13.485  1.00  0.00    -0.507 OA
ATOM     23  H   UNL     1      27.988  49.135  13.972  1.00  0.00     0.293 HD
ENDBRANCH   6  22
BRANCH   8  24
ATOM     24  O   UNL     1      23.648  46.596  12.741  1.00  0.00    -0.508 OA
ATOM     25  H   UNL     1      22.833  46.525  13.337  1.00  0.00     0.293 HD
ENDBRANCH   8  24
TORSDOF 5
ENDMDL
MODEL 3
REMARK VINA RESULT:    -6.585      1.799      6.563
REMARK INTER + INTRA:          -8.028
REMARK INTER:                  -8.054
REMARK INTRA:                   0.025
REMARK UNBOUND:                -0.289
REMARK SMILES O=c1c(O)c(-c2ccc(O)cc2)oc2cc(O)cc(O)c12
REMARK SMILES IDX 5 1 3 2 2 3 1 4 21 5 19 6 18 7 16 8 15 9 14 10 13 11 6 12
REMARK SMILES IDX 7 13 8 14 9 15 12 16 11 17 10 18 4 20 20 22 17 24
REMARK H PARENT 10 19 4 21 20 23 17 25
REMARK Flexibility Score: inf
ROOT
ATOM      1  C   UNL     1      25.765  44.971  14.686  1.00  0.00     0.180 A 
ATOM      2  C   UNL     1      24.790  45.343  13.745  1.00  0.00     0.208 A 
ATOM      3  C   UNL     1      23.529  44.728  13.793  1.00  0.00     0.238 A 
ATOM      4  O   UNL     1      22.677  45.026  12.915  1.00  0.00    -0.285 OA
ATOM      5  C   UNL     1      23.253  43.761  14.790  1.00  0.00     0.111 A 
ATOM      6  C   UNL     1      21.997  43.104  14.956  1.00  0.00     0.134 A 
ATOM      7  C   UNL     1      21.878  42.070  15.894  1.00  0.00     0.093 A 
ATOM      8  C   UNL     1      22.951  41.715  16.715  1.00  0.00     0.123 A 
ATOM      9  C   UNL     1      24.164  42.391  16.601  1.00  0.00     0.094 A 
ATOM     10  C   UNL     1      24.324  43.403  15.650  1.00  0.00     0.146 A 
ATOM     11  O   UNL     1      25.499  44.015  15.566  1.00  0.00    -0.452 OA
ENDROOT
BRANCH   1  12
ATOM     12  C   UNL     1      27.110  45.593  14.715  1.00  0.00     0.021 A 
ATOM     13  C   UNL     1      27.576  46.176  15.905  1.00  0.00     0.016 A 
ATOM     14  C   UNL     1      28.833  46.788  15.948  1.00  0.00     0.047 A 
ATOM     15  C   UNL     1      29.631  46.840  14.802  1.00  0.00     0.115 A 
ATOM     16  C   UNL     1      27.908  45.666  13.559  1.00  0.00     0.016 A 
ATOM     17  C   UNL     1      29.164  46.280  13.606  1.00  0.00     0.047 A 
BRANCH  15  18
ATOM     18  O   UNL     1      30.880  47.452  14.860  1.00  0.00    -0.508 OA
ATOM     19  H   UNL     1      31.622  47.088  15.447  1.00  0.00     0.293 HD
ENDBRANCH  15  18
ENDBRANCH   1  12
BRANCH   2  20
ATOM     20  O   UNL     1      25.089  46.284  12.756  1.00  0.00    -0.502 OA
ATOM     21  H   UNL     1      25.629  46.052  11.930  1.00  0.00     0.293 HD
ENDBRANCH   2  20
BRANCH   6  22
ATOM     22  O   UNL     1      20.838  43.444  14.253  1.00  0.00    -0.507 OA
ATOM     23  H   UNL     1      19.925  43.552  14.667  1.00  0.00     0.293 HD
ENDBRANCH   6  22
BRANCH   8  24
ATOM     24  O   UNL     1      22.819  40.696  17.655  1.00  0.00    -0.508 OA
ATOM     25  H   UNL     1      23.287  39.805  17.541  1.00  0.00     0.293 HD
ENDBRANCH   8  24
TORSDOF 5
ENDMDL
MODEL 4
REMARK VINA RESULT:    -6.559      8.171     10.477
REMARK INTER + INTRA:          -7.998
REMARK INTER:                  -7.861
REMARK INTRA:                  -0.137
REMARK UNBOUND:                -0.289
REMARK SMILES O=c1c(O)c(-c2ccc(O)cc2)oc2cc(O)cc(O)c12
REMARK SMILES IDX 5 1 3 2 2 3 1 4 21 5 19 6 18 7 16 8 15 9 14 10 13 11 6 12
REMARK SMILES IDX 7 13 8 14 9 15 12 16 11 17 10 18 4 20 20 22 17 24
REMARK H PARENT 10 19 4 21 20 23 17 25
REMARK Flexibility Score: inf
ROOT
ATOM      1  C   UNL     1      17.963  42.099  17.929  1.00  0.00     0.180 A 
ATOM      2  C   UNL     1      18.745  43.215  17.586  1.00  0.00     0.208 A 
ATOM      3  C   UNL     1      18.105  44.389  17.157  1.00  0.00     0.238 A 
ATOM      4  O   UNL     1      18.812  45.367  16.800  1.00  0.00    -0.285 OA
ATOM      5  C   UNL     1      16.691  44.437  17.092  1.00  0.00     0.111 A 
ATOM      6  C   UNL     1      15.937  45.587  16.711  1.00  0.00     0.134 A 
ATOM      7  C   UNL     1      14.548  45.481  16.556  1.00  0.00     0.093 A 
ATOM      8  C   UNL     1      13.882  44.285  16.833  1.00  0.00     0.123 A 
ATOM      9  C   UNL     1      14.603  43.174  17.263  1.00  0.00     0.094 A 
ATOM     10  C   UNL     1      15.993  43.238  17.392  1.00  0.00     0.146 A 
ATOM     11  O   UNL     1      16.644  42.154  17.795  1.00  0.00    -0.452 OA
ENDROOT
BRANCH   1  12
ATOM     12  C   UNL     1      18.565  40.834  18.413  1.00  0.00     0.021 A 
ATOM     13  C   UNL     1      19.336  40.055  17.535  1.00  0.00     0.016 A 
ATOM     14  C   UNL     1      19.895  38.847  17.966  1.00  0.00     0.047 A 
ATOM     15  C   UNL     1      19.676  38.396  19.270  1.00  0.00     0.115 A 
ATOM     16  C   UNL     1      18.331  40.366  19.719  1.00  0.00     0.016 A 
ATOM     17  C   UNL     1      18.891  39.157  20.146  1.00  0.00     0.047 A 
BRANCH  15  18
ATOM     18  O   UNL     1      20.239  37.191  19.685  1.00  0.00    -0.508 OA
ATOM     19  H   UNL     1      19.839  36.299  19.416  1.00  0.00     0.293 HD
ENDBRANCH  15  18
ENDBRANCH   1  12
BRANCH   2  20
ATOM     20  O   UNL     1      20.140  43.139  17.637  1.00  0.00    -0.502 OA
ATOM     21  H   UNL     1      20.637  42.255  17.647  1.00  0.00     0.293 HD
ENDBRANCH   2  20
BRANCH   6  22
ATOM     22  O   UNL     1      16.493  46.852  16.501  1.00  0.00    -0.507 OA
ATOM     23  H   UNL     1      16.149  47.528  15.836  1.00  0.00     0.293 HD
ENDBRANCH   6  22
BRANCH   8  24
ATOM     24  O   UNL     1      12.499  44.194  16.691  1.00  0.00    -0.508 OA
ATOM     25  H   UNL     1      12.035  43.300  16.584  1.00  0.00     0.293 HD
ENDBRANCH   8  24
TORSDOF 5
ENDMDL
MODEL 5
REMARK VINA RESULT:    -6.484      7.044     10.006
REMARK INTER + INTRA:          -7.910
REMARK INTER:                  -7.631
REMARK INTRA:                  -0.279
REMARK UNBOUND:                -0.289
REMARK SMILES O=c1c(O)c(-c2ccc(O)cc2)oc2cc(O)cc(O)c12
REMARK SMILES IDX 5 1 3 2 2 3 1 4 21 5 19 6 18 7 16 8 15 9 14 10 13 11 6 12
REMARK SMILES IDX 7 13 8 14 9 15 12 16 11 17 10 18 4 20 20 22 17 24
REMARK H PARENT 10 19 4 21 20 23 17 25
REMARK Flexibility Score: inf
ROOT
ATOM      1  C   UNL     1      18.802  40.741  16.864  1.00  0.00     0.180 A 
ATOM      2  C   UNL     1      17.627  41.051  17.570  1.00  0.00     0.208 A 
ATOM      3  C   UNL     1      17.451  40.526  18.861  1.00  0.00     0.238 A 
ATOM      4  O   UNL     1      16.374  40.763  19.468  1.00  0.00    -0.285 OA
ATOM      5  C   UNL     1      18.457  39.713  19.435  1.00  0.00     0.111 A 
ATOM      6  C   UNL     1      18.402  39.161  20.750  1.00  0.00     0.134 A 
ATOM      7  C   UNL     1      19.394  38.264  21.165  1.00  0.00     0.093 A 
ATOM      8  C   UNL     1      20.473  37.950  20.336  1.00  0.00     0.123 A 
ATOM      9  C   UNL     1      20.568  38.529  19.073  1.00  0.00     0.094 A 
ATOM     10  C   UNL     1      19.575  39.400  18.617  1.00  0.00     0.146 A 
ATOM     11  O   UNL     1      19.697  39.922  17.402  1.00  0.00    -0.452 OA
ENDROOT
BRANCH   1  12
ATOM     12  C   UNL     1      19.070  41.276  15.509  1.00  0.00     0.021 A 
ATOM     13  C   UNL     1      19.608  42.567  15.370  1.00  0.00     0.016 A 
ATOM     14  C   UNL     1      19.849  43.100  14.100  1.00  0.00     0.047 A 
ATOM     15  C   UNL     1      19.542  42.360  12.955  1.00  0.00     0.115 A 
ATOM     16  C   UNL     1      18.745  40.543  14.353  1.00  0.00     0.016 A 
ATOM     17  C   UNL     1      18.986  41.080  13.085  1.00  0.00     0.047 A 
BRANCH  15  18
ATOM     18  O   UNL     1      19.787  42.904  11.697  1.00  0.00    -0.508 OA
ATOM     19  H   UNL     1      19.678  43.896  11.518  1.00  0.00     0.293 HD
ENDBRANCH  15  18
ENDBRANCH   1  12
BRANCH   2  20
ATOM     20  O   UNL     1      16.637  41.838  16.977  1.00  0.00    -0.502 OA
ATOM     21  H   UNL     1      16.853  42.655  16.418  1.00  0.00     0.293 HD
ENDBRANCH   2  20
BRANCH   6  22
ATOM     22  O   UNL     1      17.418  39.481  21.690  1.00  0.00    -0.507 OA
ATOM     23  H   UNL     1      17.172  40.420  21.968  1.00  0.00     0.293 HD
ENDBRANCH   6  22
BRANCH   8  24
ATOM     24  O   UNL     1      21.464  37.068  20.763  1.00  0.00    -0.508 OA
ATOM     25  H   UNL     1      21.300  36.070  20.812  1.00  0.00     0.293 HD
ENDBRANCH   8  24
TORSDOF 5
ENDMDL
MODEL 6
REMARK VINA RESULT:    -6.443      6.910     10.401
REMARK INTER + INTRA:          -7.862
REMARK INTER:                  -7.663
REMARK INTRA:                  -0.199
REMARK UNBOUND:                -0.289
REMARK SMILES O=c1c(O)c(-c2ccc(O)cc2)oc2cc(O)cc(O)c12
REMARK SMILES IDX 5 1 3 2 2 3 1 4 21 5 19 6 18 7 16 8 15 9 14 10 13 11 6 12
REMARK SMILES IDX 7 13 8 14 9 15 12 16 11 17 10 18 4 20 20 22 17 24
REMARK H PARENT 10 19 4 21 20 23 17 25
REMARK Flexibility Score: inf
ROOT
ATOM      1  C   UNL     1      15.701  44.406  17.302  1.00  0.00     0.180 A 
ATOM      2  C   UNL     1      15.747  43.059  17.701  1.00  0.00     0.208 A 
ATOM      3  C   UNL     1      16.971  42.373  17.639  1.00  0.00     0.238 A 
ATOM      4  O   UNL     1      16.997  41.152  17.946  1.00  0.00    -0.285 OA
ATOM      5  C   UNL     1      18.135  43.046  17.196  1.00  0.00     0.111 A 
ATOM      6  C   UNL     1      19.435  42.461  17.132  1.00  0.00     0.134 A 
ATOM      7  C   UNL     1      20.489  43.180  16.554  1.00  0.00     0.093 A 
ATOM      8  C   UNL     1      20.303  44.487  16.098  1.00  0.00     0.123 A 
ATOM      9  C   UNL     1      19.052  45.089  16.211  1.00  0.00     0.094 A 
ATOM     10  C   UNL     1      17.973  44.384  16.750  1.00  0.00     0.146 A 
ATOM     11  O   UNL     1      16.795  44.990  16.829  1.00  0.00    -0.452 OA
ENDROOT
BRANCH   1  12
ATOM     12  C   UNL     1      14.453  45.202  17.363  1.00  0.00     0.021 A 
ATOM     13  C   UNL     1      13.438  44.969  16.420  1.00  0.00     0.016 A 
ATOM     14  C   UNL     1      12.262  45.725  16.446  1.00  0.00     0.047 A 
ATOM     15  C   UNL     1      12.092  46.732  17.400  1.00  0.00     0.115 A 
ATOM     16  C   UNL     1      14.286  46.230  18.308  1.00  0.00     0.016 A 
ATOM     17  C   UNL     1      13.108  46.985  18.330  1.00  0.00     0.047 A 
BRANCH  15  18
ATOM     18  O   UNL     1      10.915  47.476  17.413  1.00  0.00    -0.508 OA
ATOM     19  H   UNL     1      10.083  47.161  16.926  1.00  0.00     0.293 HD
ENDBRANCH  15  18
ENDBRANCH   1  12
BRANCH   2  20
ATOM     20  O   UNL     1      14.583  42.408  18.115  1.00  0.00    -0.502 OA
ATOM     21  H   UNL     1      13.819  42.895  18.570  1.00  0.00     0.293 HD
ENDBRANCH   2  20
BRANCH   6  22
ATOM     22  O   UNL     1      19.749  41.198  17.642  1.00  0.00    -0.507 OA
ATOM     23  H   UNL     1      20.686  40.857  17.797  1.00  0.00     0.293 HD
ENDBRANCH   6  22
BRANCH   8  24
ATOM     24  O   UNL     1      21.361  45.201  15.539  1.00  0.00    -0.508 OA
ATOM     25  H   UNL     1      21.294  45.612  14.615  1.00  0.00     0.293 HD
ENDBRANCH   8  24
TORSDOF 5
ENDMDL
MODEL 7
REMARK VINA RESULT:    -6.432      6.928     10.446
REMARK INTER + INTRA:          -7.849
REMARK INTER:                  -7.625
REMARK INTRA:                  -0.224
REMARK UNBOUND:                -0.289
REMARK SMILES O=c1c(O)c(-c2ccc(O)cc2)oc2cc(O)cc(O)c12
REMARK SMILES IDX 5 1 3 2 2 3 1 4 21 5 19 6 18 7 16 8 15 9 14 10 13 11 6 12
REMARK SMILES IDX 7 13 8 14 9 15 12 16 11 17 10 18 4 20 20 22 17 24
REMARK H PARENT 10 19 4 21 20 23 17 25
REMARK Flexibility Score: inf
ROOT
ATOM      1  C   UNL     1      15.702  44.448  17.278  1.00  0.00     0.180 A 
ATOM      2  C   UNL     1      15.741  43.107  17.695  1.00  0.00     0.208 A 
ATOM      3  C   UNL     1      16.962  42.415  17.651  1.00  0.00     0.238 A 
ATOM      4  O   UNL     1      16.981  41.199  17.975  1.00  0.00    -0.285 OA
ATOM      5  C   UNL     1      18.132  43.078  17.205  1.00  0.00     0.111 A 
ATOM      6  C   UNL     1      19.430  42.486  17.157  1.00  0.00     0.134 A 
ATOM      7  C   UNL     1      20.490  43.194  16.576  1.00  0.00     0.093 A 
ATOM      8  C   UNL     1      20.312  44.495  16.102  1.00  0.00     0.123 A 
ATOM      9  C   UNL     1      19.063  45.103  16.198  1.00  0.00     0.094 A 
ATOM     10  C   UNL     1      17.978  44.410  16.740  1.00  0.00     0.146 A 
ATOM     11  O   UNL     1      16.801  45.022  16.804  1.00  0.00    -0.452 OA
ENDROOT
BRANCH   1  12
ATOM     12  C   UNL     1      14.458  45.250  17.320  1.00  0.00     0.021 A 
ATOM     13  C   UNL     1      14.275  46.190  18.348  1.00  0.00     0.016 A 
ATOM     14  C   UNL     1      13.098  46.942  18.419  1.00  0.00     0.047 A 
ATOM     15  C   UNL     1      12.084  46.754  17.475  1.00  0.00     0.115 A 
ATOM     16  C   UNL     1      13.426  45.051  16.385  1.00  0.00     0.016 A 
ATOM     17  C   UNL     1      12.250  45.804  16.459  1.00  0.00     0.047 A 
BRANCH  15  18
ATOM     18  O   UNL     1      10.918  47.510  17.558  1.00  0.00    -0.508 OA
ATOM     19  H   UNL     1      10.923  48.511  17.395  1.00  0.00     0.293 HD
ENDBRANCH  15  18
ENDBRANCH   1  12
BRANCH   2  20
ATOM     20  O   UNL     1      14.571  42.465  18.111  1.00  0.00    -0.502 OA
ATOM     21  H   UNL     1      14.583  41.612  18.657  1.00  0.00     0.293 HD
ENDBRANCH   2  20
BRANCH   6  22
ATOM     22  O   UNL     1      19.735  41.229  17.687  1.00  0.00    -0.507 OA
ATOM     23  H   UNL     1      19.288  40.822  18.495  1.00  0.00     0.293 HD
ENDBRANCH   6  22
BRANCH   8  24
ATOM     24  O   UNL     1      21.376  45.197  15.539  1.00  0.00    -0.508 OA
ATOM     25  H   UNL     1      22.143  44.721  15.080  1.00  0.00     0.293 HD
ENDBRANCH   8  24
TORSDOF 5
ENDMDL
MODEL 8
REMARK VINA RESULT:    -6.151      8.970     10.573
REMARK INTER + INTRA:          -7.518
REMARK INTER:                  -7.331
REMARK INTRA:                  -0.187
REMARK UNBOUND:                -0.289
REMARK SMILES O=c1c(O)c(-c2ccc(O)cc2)oc2cc(O)cc(O)c12
REMARK SMILES IDX 5 1 3 2 2 3 1 4 21 5 19 6 18 7 16 8 15 9 14 10 13 11 6 12
REMARK SMILES IDX 7 13 8 14 9 15 12 16 11 17 10 18 4 20 20 22 17 24
REMARK H PARENT 10 19 4 21 20 23 17 25
REMARK Flexibility Score: inf
ROOT
ATOM      1  C   UNL     1      17.438  41.664  17.796  1.00  0.00     0.180 A 
ATOM      2  C   UNL     1      18.304  41.112  16.837  1.00  0.00     0.208 A 
ATOM      3  C   UNL     1      19.147  40.054  17.210  1.00  0.00     0.238 A 
ATOM      4  O   UNL     1      19.959  39.599  16.362  1.00  0.00    -0.285 OA
ATOM      5  C   UNL     1      19.104  39.550  18.532  1.00  0.00     0.111 A 
ATOM      6  C   UNL     1      19.884  38.455  19.009  1.00  0.00     0.134 A 
ATOM      7  C   UNL     1      19.855  38.126  20.370  1.00  0.00     0.093 A 
ATOM      8  C   UNL     1      19.024  38.812  21.258  1.00  0.00     0.123 A 
ATOM      9  C   UNL     1      18.213  39.844  20.792  1.00  0.00     0.094 A 
ATOM     10  C   UNL     1      18.247  40.219  19.446  1.00  0.00     0.146 A 
ATOM     11  O   UNL     1      17.467  41.215  19.045  1.00  0.00    -0.452 OA
ENDROOT
BRANCH   1  12
ATOM     12  C   UNL     1      16.501  42.765  17.472  1.00  0.00     0.021 A 
ATOM     13  C   UNL     1      17.004  44.060  17.260  1.00  0.00     0.016 A 
ATOM     14  C   UNL     1      16.135  45.118  16.974  1.00  0.00     0.047 A 
ATOM     15  C   UNL     1      14.755  44.900  16.912  1.00  0.00     0.115 A 
ATOM     16  C   UNL     1      15.111  42.555  17.428  1.00  0.00     0.016 A 
ATOM     17  C   UNL     1      14.245  43.615  17.143  1.00  0.00     0.047 A 
BRANCH  15  18
ATOM     18  O   UNL     1      13.902  45.963  16.627  1.00  0.00    -0.508 OA
ATOM     19  H   UNL     1      14.254  46.842  16.265  1.00  0.00     0.293 HD
ENDBRANCH  15  18
ENDBRANCH   1  12
BRANCH   2  20
ATOM     20  O   UNL     1      18.346  41.638  15.543  1.00  0.00    -0.502 OA
ATOM     21  H   UNL     1      17.511  41.787  14.988  1.00  0.00     0.293 HD
ENDBRANCH   2  20
BRANCH   6  22
ATOM     22  O   UNL     1      20.677  37.646  18.189  1.00  0.00    -0.507 OA
ATOM     23  H   UNL     1      21.686  37.659  18.171  1.00  0.00     0.293 HD
ENDBRANCH   6  22
BRANCH   8  24
ATOM     24  O   UNL     1      18.990  38.469  22.608  1.00  0.00    -0.508 OA
ATOM     25  H   UNL     1      19.551  37.710  22.977  1.00  0.00     0.293 HD
ENDBRANCH   8  24
TORSDOF 5
ENDMDL
MODEL 9
REMARK VINA RESULT:    -6.099      8.865      9.952
REMARK INTER + INTRA:          -7.457
REMARK INTER:                  -7.196
REMARK INTRA:                  -0.261
REMARK UNBOUND:                -0.289
REMARK SMILES O=c1c(O)c(-c2ccc(O)cc2)oc2cc(O)cc(O)c12
REMARK SMILES IDX 5 1 3 2 2 3 1 4 21 5 19 6 18 7 16 8 15 9 14 10 13 11 6 12
REMARK SMILES IDX 7 13 8 14 9 15 12 16 11 17 10 18 4 20 20 22 17 24
REMARK H PARENT 10 19 4 21 20 23 17 25
REMARK Flexibility Score: inf
ROOT
ATOM      1  C   UNL     1      18.311  40.756  17.360  1.00  0.00     0.180 A 
ATOM      2  C   UNL     1      18.771  40.317  16.107  1.00  0.00     0.208 A 
ATOM      3  C   UNL     1      19.671  39.241  16.051  1.00  0.00     0.238 A 
ATOM      4  O   UNL     1      20.122  38.887  14.931  1.00  0.00    -0.285 OA
ATOM      5  C   UNL     1      20.088  38.608  17.247  1.00  0.00     0.111 A 
ATOM      6  C   UNL     1      20.965  37.484  17.306  1.00  0.00     0.134 A 
ATOM      7  C   UNL     1      21.412  37.021  18.550  1.00  0.00     0.093 A 
ATOM      8  C   UNL     1      20.961  37.601  19.738  1.00  0.00     0.123 A 
ATOM      9  C   UNL     1      20.059  38.660  19.693  1.00  0.00     0.094 A 
ATOM     10  C   UNL     1      19.622  39.167  18.466  1.00  0.00     0.146 A 
ATOM     11  O   UNL     1      18.770  40.185  18.467  1.00  0.00    -0.452 OA
ENDROOT
BRANCH   1  12
ATOM     12  C   UNL     1      17.341  41.868  17.498  1.00  0.00     0.021 A 
ATOM     13  C   UNL     1      15.974  41.578  17.642  1.00  0.00     0.016 A 
ATOM     14  C   UNL     1      15.039  42.613  17.752  1.00  0.00     0.047 A 
ATOM     15  C   UNL     1      15.456  43.946  17.703  1.00  0.00     0.115 A 
ATOM     16  C   UNL     1      17.752  43.211  17.429  1.00  0.00     0.016 A 
ATOM     17  C   UNL     1      16.815  44.243  17.538  1.00  0.00     0.047 A 
BRANCH  15  18
ATOM     18  O   UNL     1      14.514  44.966  17.814  1.00  0.00    -0.508 OA
ATOM     19  H   UNL     1      14.760  45.877  18.185  1.00  0.00     0.293 HD
ENDBRANCH  15  18
ENDBRANCH   1  12
BRANCH   2  20
ATOM     20  O   UNL     1      18.364  40.970  14.940  1.00  0.00    -0.502 OA
ATOM     21  H   UNL     1      18.198  40.477  14.071  1.00  0.00     0.293 HD
ENDBRANCH   2  20
BRANCH   6  22
ATOM     22  O   UNL     1      21.401  36.774  16.183  1.00  0.00    -0.507 OA
ATOM     23  H   UNL     1      21.539  37.175  15.268  1.00  0.00     0.293 HD
ENDBRANCH   6  22
BRANCH   8  24
ATOM     24  O   UNL     1      21.400  37.124  20.972  1.00  0.00    -0.508 OA
ATOM     25  H   UNL     1      21.473  37.730  21.779  1.00  0.00     0.293 HD
ENDBRANCH   8  24
TORSDOF 5
ENDMDL
