MODEL 1
REMARK VINA RESULT:    -3.929      0.000      0.000
REMARK INTER + INTRA:          -8.001
REMARK INTER:                  -6.686
REMARK INTRA:                  -1.315
REMARK UNBOUND:                -1.315
REMARK SMILES CCCCCCCCCCCCCC(=O)[O-]
REMARK SMILES IDX 8 1 9 2 10 3 11 4 12 5 13 6 14 7 15 8 16 9 7 10 6 11 5 12
REMARK SMILES IDX 4 13 3 14 2 15 1 16
REMARK H PARENT
REMARK Flexibility Score: inf
ROOT
ATOM      1  C   UNL     1      -1.934  -8.523 -16.071  1.00  0.00     0.000 C 
ENDROOT
BRANCH   1   2
ATOM      2  C   UNL     1      -2.064 -10.022 -15.752  1.00  0.00     0.000 C 
BRANCH   2   3
ATOM      3  C   UNL     1      -0.985 -10.516 -14.778  1.00  0.00     0.000 C 
BRANCH   3   4
ATOM      4  C   UNL     1      -1.199 -11.993 -14.426  1.00  0.00     0.000 C 
BRANCH   4   5
ATOM      5  C   UNL     1      -2.429 -12.559 -15.151  1.00  0.00     0.006 C 
BRANCH   5   6
ATOM      6  C   UNL     1      -2.419 -14.092 -15.201  1.00  0.00     0.053 C 
BRANCH   6   7
ATOM      7  C   UNL     1      -2.054 -14.689 -13.876  1.00  0.00     0.041 C 
ATOM      8  O   UNL     1      -2.788 -14.496 -12.871  1.00  0.00    -0.550 OA
ATOM      9  O   UNL     1      -0.922 -15.484 -13.759  1.00  0.00    -0.550 OA
ENDBRANCH   6   7
ENDBRANCH   5   6
ENDBRANCH   4   5
ENDBRANCH   3   4
ENDBRANCH   2   3
ENDBRANCH   1   2
BRANCH   1  10
ATOM     10  C   UNL     1      -3.221  -7.929 -16.662  1.00  0.00     0.000 C 
BRANCH  10  11
ATOM     11  C   UNL     1      -4.367  -8.947 -16.615  1.00  0.00    -0.000 C 
BRANCH  11  12
ATOM     12  C   UNL     1      -4.915  -9.225 -18.023  1.00  0.00    -0.000 C 
BRANCH  12  13
ATOM     13  C   UNL     1      -5.490 -10.645 -18.173  1.00  0.00    -0.000 C 
BRANCH  13  14
ATOM     14  C   UNL     1      -5.552 -11.462 -16.870  1.00  0.00    -0.000 C 
BRANCH  14  15
ATOM     15  C   UNL     1      -5.500 -12.978 -17.109  1.00  0.00    -0.003 C 
ATOM     16  C   UNL     1      -4.928 -13.297 -18.488  1.00  0.00     0.004 C 
ENDBRANCH  14  15
ENDBRANCH  13  14
ENDBRANCH  12  13
ENDBRANCH  11  12
ENDBRANCH  10  11
ENDBRANCH   1  10
TORSDOF 12
ENDMDL
MODEL 2
REMARK VINA RESULT:    -3.895     13.883     16.143
REMARK INTER + INTRA:          -7.942
REMARK INTER:                  -6.226
REMARK INTRA:                  -1.717
REMARK UNBOUND:                -1.315
REMARK SMILES CCCCCCCCCCCCCC(=O)[O-]
REMARK SMILES IDX 8 1 9 2 10 3 11 4 12 5 13 6 14 7 15 8 16 9 7 10 6 11 5 12
REMARK SMILES IDX 4 13 3 14 2 15 1 16
REMARK H PARENT
REMARK Flexibility Score: inf
ROOT
ATOM      1  C   UNL     1      -1.869  -4.266 -25.857  1.00  0.00     0.000 C 
ENDROOT
BRANCH   1   2
ATOM      2  C   UNL     1      -1.590  -4.655 -27.318  1.00  0.00     0.000 C 
BRANCH   2   3
ATOM      3  C   UNL     1      -0.858  -3.550 -28.094  1.00  0.00     0.000 C 
BRANCH   3   4
ATOM      4  C   UNL     1      -1.584  -2.207 -27.951  1.00  0.00     0.000 C 
BRANCH   4   5
ATOM      5  C   UNL     1      -0.903  -1.120 -28.798  1.00  0.00     0.006 C 
BRANCH   5   6
ATOM      6  C   UNL     1      -1.771   0.138 -28.934  1.00  0.00     0.053 C 
BRANCH   6   7
ATOM      7  C   UNL     1      -1.504   0.859 -30.220  1.00  0.00     0.041 C 
ATOM      8  O   UNL     1      -2.208   0.622 -31.237  1.00  0.00    -0.550 OA
ATOM      9  O   UNL     1      -0.500   1.817 -30.286  1.00  0.00    -0.550 OA
ENDBRANCH   6   7
ENDBRANCH   5   6
ENDBRANCH   4   5
ENDBRANCH   3   4
ENDBRANCH   2   3
ENDBRANCH   1   2
BRANCH   1  10
ATOM     10  C   UNL     1      -3.178  -4.868 -25.324  1.00  0.00     0.000 C 
BRANCH  10  11
ATOM     11  C   UNL     1      -4.275  -4.831 -26.396  1.00  0.00    -0.000 C 
BRANCH  11  12
ATOM     12  C   UNL     1      -5.292  -3.716 -26.105  1.00  0.00    -0.000 C 
BRANCH  12  13
ATOM     13  C   UNL     1      -5.066  -2.460 -26.965  1.00  0.00    -0.000 C 
BRANCH  13  14
ATOM     14  C   UNL     1      -4.969  -1.141 -26.176  1.00  0.00    -0.000 C 
BRANCH  14  15
ATOM     15  C   UNL     1      -4.293  -1.309 -24.809  1.00  0.00    -0.003 C 
ATOM     16  C   UNL     1      -2.867  -0.764 -24.830  1.00  0.00     0.004 C 
ENDBRANCH  14  15
ENDBRANCH  13  14
ENDBRANCH  12  13
ENDBRANCH  11  12
ENDBRANCH  10  11
ENDBRANCH   1  10
TORSDOF 12
ENDMDL
MODEL 3
REMARK VINA RESULT:    -3.781      0.923      3.799
REMARK INTER + INTRA:          -7.748
REMARK INTER:                  -6.618
REMARK INTRA:                  -1.130
REMARK UNBOUND:                -1.315
REMARK SMILES CCCCCCCCCCCCCC(=O)[O-]
REMARK SMILES IDX 8 1 9 2 10 3 11 4 12 5 13 6 14 7 15 8 16 9 7 10 6 11 5 12
REMARK SMILES IDX 4 13 3 14 2 15 1 16
REMARK H PARENT
REMARK Flexibility Score: inf
ROOT
ATOM      1  C   UNL     1      -5.442 -11.537 -16.884  1.00  0.00     0.000 C 
ENDROOT
BRANCH   1   2
ATOM      2  C   UNL     1      -5.432 -12.993 -17.378  1.00  0.00     0.000 C 
BRANCH   2   3
ATOM      3  C   UNL     1      -4.061 -13.665 -17.214  1.00  0.00     0.000 C 
BRANCH   3   4
ATOM      4  C   UNL     1      -3.316 -13.101 -15.998  1.00  0.00     0.000 C 
BRANCH   4   5
ATOM      5  C   UNL     1      -2.385 -14.158 -15.384  1.00  0.00     0.006 C 
BRANCH   5   6
ATOM      6  C   UNL     1      -2.025 -13.839 -13.928  1.00  0.00     0.053 C 
BRANCH   6   7
ATOM      7  C   UNL     1      -2.177 -15.038 -13.042  1.00  0.00     0.041 C 
ATOM      8  O   UNL     1      -3.187 -15.153 -12.298  1.00  0.00    -0.550 OA
ATOM      9  O   UNL     1      -1.219 -16.043 -13.062  1.00  0.00    -0.550 OA
ENDBRANCH   6   7
ENDBRANCH   5   6
ENDBRANCH   4   5
ENDBRANCH   3   4
ENDBRANCH   2   3
ENDBRANCH   1   2
BRANCH   1  10
ATOM     10  C   UNL     1      -5.454 -10.521 -18.035  1.00  0.00     0.000 C 
BRANCH  10  11
ATOM     11  C   UNL     1      -4.658  -9.263 -17.665  1.00  0.00    -0.000 C 
BRANCH  11  12
ATOM     12  C   UNL     1      -3.910  -9.456 -16.337  1.00  0.00    -0.000 C 
BRANCH  12  13
ATOM     13  C   UNL     1      -2.380  -9.459 -16.505  1.00  0.00    -0.000 C 
BRANCH  13  14
ATOM     14  C   UNL     1      -1.635  -8.379 -15.700  1.00  0.00    -0.000 C 
BRANCH  14  15
ATOM     15  C   UNL     1      -0.615  -8.963 -14.713  1.00  0.00    -0.003 C 
ATOM     16  C   UNL     1      -0.912 -10.432 -14.421  1.00  0.00     0.004 C 
ENDBRANCH  14  15
ENDBRANCH  13  14
ENDBRANCH  12  13
ENDBRANCH  11  12
ENDBRANCH  10  11
ENDBRANCH   1  10
TORSDOF 12
ENDMDL
MODEL 4
REMARK VINA RESULT:    -3.624      2.659      4.707
REMARK INTER + INTRA:          -7.480
REMARK INTER:                  -5.911
REMARK INTRA:                  -1.569
REMARK UNBOUND:                -1.315
REMARK SMILES CCCCCCCCCCCCCC(=O)[O-]
REMARK SMILES IDX 8 1 9 2 10 3 11 4 12 5 13 6 14 7 15 8 16 9 7 10 6 11 5 12
REMARK SMILES IDX 4 13 3 14 2 15 1 16
REMARK H PARENT
REMARK Flexibility Score: inf
ROOT
ATOM      1  C   UNL     1      -2.522  -9.709 -17.430  1.00  0.00     0.000 C 
ENDROOT
BRANCH   1   2
ATOM      2  C   UNL     1      -3.722  -9.405 -16.517  1.00  0.00     0.000 C 
BRANCH   2   3
ATOM      3  C   UNL     1      -5.008 -10.107 -16.977  1.00  0.00     0.000 C 
BRANCH   3   4
ATOM      4  C   UNL     1      -5.282 -11.356 -16.131  1.00  0.00     0.000 C 
BRANCH   4   5
ATOM      5  C   UNL     1      -5.489 -12.591 -17.023  1.00  0.00     0.006 C 
BRANCH   5   6
ATOM      6  C   UNL     1      -4.163 -13.152 -17.554  1.00  0.00     0.053 C 
BRANCH   6   7
ATOM      7  C   UNL     1      -4.301 -13.673 -18.952  1.00  0.00     0.041 C 
ATOM      8  O   UNL     1      -3.847 -13.012 -19.923  1.00  0.00    -0.550 OA
ATOM      9  O   UNL     1      -4.903 -14.904 -19.179  1.00  0.00    -0.550 OA
ENDBRANCH   6   7
ENDBRANCH   5   6
ENDBRANCH   4   5
ENDBRANCH   3   4
ENDBRANCH   2   3
ENDBRANCH   1   2
BRANCH   1  10
ATOM     10  C   UNL     1      -1.209  -9.867 -16.649  1.00  0.00     0.000 C 
BRANCH  10  11
ATOM     11  C   UNL     1      -1.437  -9.664 -15.146  1.00  0.00    -0.000 C 
BRANCH  11  12
ATOM     12  C   UNL     1      -0.783 -10.792 -14.332  1.00  0.00    -0.000 C 
BRANCH  12  13
ATOM     13  C   UNL     1      -1.004 -12.183 -14.951  1.00  0.00    -0.000 C 
BRANCH  13  14
ATOM     14  C   UNL     1      -2.284 -12.904 -14.488  1.00  0.00    -0.000 C 
BRANCH  14  15
ATOM     15  C   UNL     1      -2.181 -14.432 -14.588  1.00  0.00    -0.003 C 
ATOM     16  C   UNL     1      -0.833 -14.855 -15.166  1.00  0.00     0.004 C 
ENDBRANCH  14  15
ENDBRANCH  13  14
ENDBRANCH  12  13
ENDBRANCH  11  12
ENDBRANCH  10  11
ENDBRANCH   1  10
TORSDOF 12
ENDMDL
MODEL 5
REMARK VINA RESULT:    -3.527     16.215     18.416
REMARK INTER + INTRA:          -7.316
REMARK INTER:                  -5.493
REMARK INTRA:                  -1.823
REMARK UNBOUND:                -1.315
REMARK SMILES CCCCCCCCCCCCCC(=O)[O-]
REMARK SMILES IDX 8 1 9 2 10 3 11 4 12 5 13 6 14 7 15 8 16 9 7 10 6 11 5 12
REMARK SMILES IDX 4 13 3 14 2 15 1 16
REMARK H PARENT
REMARK Flexibility Score: inf
ROOT
ATOM      1  C   UNL     1      13.371  -3.697 -23.096  1.00  0.00     0.000 C 
ENDROOT
BRANCH   1   2
ATOM      2  C   UNL     1      12.374  -2.533 -23.219  1.00  0.00     0.000 C 
BRANCH   2   3
ATOM      3  C   UNL     1      11.130  -2.724 -22.340  1.00  0.00     0.000 C 
BRANCH   3   4
ATOM      4  C   UNL     1      11.423  -2.342 -20.884  1.00  0.00     0.000 C 
BRANCH   4   5
ATOM      5  C   UNL     1      10.160  -1.805 -20.191  1.00  0.00     0.006 C 
BRANCH   5   6
ATOM      6  C   UNL     1      10.404  -0.455 -19.505  1.00  0.00     0.053 C 
BRANCH   6   7
ATOM      7  C   UNL     1       9.479   0.605 -20.021  1.00  0.00     0.041 C 
ATOM      8  O   UNL     1       8.471   0.287 -20.706  1.00  0.00    -0.550 OA
ATOM      9  O   UNL     1       9.712   1.940 -19.717  1.00  0.00    -0.550 OA
ENDBRANCH   6   7
ENDBRANCH   5   6
ENDBRANCH   4   5
ENDBRANCH   3   4
ENDBRANCH   2   3
ENDBRANCH   1   2
BRANCH   1  10
ATOM     10  C   UNL     1      12.705  -5.069 -23.274  1.00  0.00     0.000 C 
BRANCH  10  11
ATOM     11  C   UNL     1      13.278  -6.090 -22.283  1.00  0.00    -0.000 C 
BRANCH  11  12
ATOM     12  C   UNL     1      13.793  -5.396 -21.013  1.00  0.00    -0.000 C 
BRANCH  12  13
ATOM     13  C   UNL     1      12.843  -5.557 -19.813  1.00  0.00    -0.000 C 
BRANCH  13  14
ATOM     14  C   UNL     1      11.657  -6.511 -20.047  1.00  0.00    -0.000 C 
BRANCH  14  15
ATOM     15  C   UNL     1      10.304  -5.788 -20.079  1.00  0.00    -0.003 C 
ATOM     16  C   UNL     1       9.581  -6.033 -21.401  1.00  0.00     0.004 C 
ENDBRANCH  14  15
ENDBRANCH  13  14
ENDBRANCH  12  13
ENDBRANCH  11  12
ENDBRANCH  10  11
ENDBRANCH   1  10
TORSDOF 12
ENDMDL
MODEL 6
REMARK VINA RESULT:    -3.508     14.163     16.392
REMARK INTER + INTRA:          -7.283
REMARK INTER:                  -6.285
REMARK INTRA:                  -0.999
REMARK UNBOUND:                -1.315
REMARK SMILES CCCCCCCCCCCCCC(=O)[O-]
REMARK SMILES IDX 8 1 9 2 10 3 11 4 12 5 13 6 14 7 15 8 16 9 7 10 6 11 5 12
REMARK SMILES IDX 4 13 3 14 2 15 1 16
REMARK H PARENT
REMARK Flexibility Score: inf
ROOT
ATOM      1  C   UNL     1      -1.869  -2.859 -27.624  1.00  0.00     0.000 C 
ENDROOT
BRANCH   1   2
ATOM      2  C   UNL     1      -1.656  -4.333 -27.241  1.00  0.00     0.000 C 
BRANCH   2   3
ATOM      3  C   UNL     1      -2.740  -4.859 -26.289  1.00  0.00     0.000 C 
BRANCH   3   4
ATOM      4  C   UNL     1      -4.129  -4.755 -26.929  1.00  0.00     0.000 C 
BRANCH   4   5
ATOM      5  C   UNL     1      -5.046  -3.834 -26.109  1.00  0.00     0.006 C 
BRANCH   5   6
ATOM      6  C   UNL     1      -5.340  -2.514 -26.832  1.00  0.00     0.053 C 
BRANCH   6   7
ATOM      7  C   UNL     1      -4.891  -1.330 -26.031  1.00  0.00     0.041 C 
ATOM      8  O   UNL     1      -3.980  -1.456 -25.170  1.00  0.00    -0.550 OA
ATOM      9  O   UNL     1      -5.456  -0.082 -26.258  1.00  0.00    -0.550 OA
ENDBRANCH   6   7
ENDBRANCH   5   6
ENDBRANCH   4   5
ENDBRANCH   3   4
ENDBRANCH   2   3
ENDBRANCH   1   2
BRANCH   1  10
ATOM     10  C   UNL     1      -0.665  -2.260 -28.367  1.00  0.00     0.000 C 
BRANCH  10  11
ATOM     11  C   UNL     1       0.340  -3.353 -28.754  1.00  0.00    -0.000 C 
BRANCH  11  12
ATOM     12  C   UNL     1       1.374  -2.820 -29.757  1.00  0.00    -0.000 C 
BRANCH  12  13
ATOM     13  C   UNL     1       1.344  -1.287 -29.892  1.00  0.00    -0.000 C 
BRANCH  13  14
ATOM     14  C   UNL     1       1.548  -0.757 -31.323  1.00  0.00    -0.000 C 
BRANCH  14  15
ATOM     15  C   UNL     1       0.240  -0.661 -32.120  1.00  0.00    -0.003 C 
ATOM     16  C   UNL     1      -0.613   0.509 -31.637  1.00  0.00     0.004 C 
ENDBRANCH  14  15
ENDBRANCH  13  14
ENDBRANCH  12  13
ENDBRANCH  11  12
ENDBRANCH  10  11
ENDBRANCH   1  10
TORSDOF 12
ENDMDL
MODEL 7
REMARK VINA RESULT:    -3.505      3.830      6.795
REMARK INTER + INTRA:          -7.280
REMARK INTER:                  -6.099
REMARK INTRA:                  -1.181
REMARK UNBOUND:                -1.315
REMARK SMILES CCCCCCCCCCCCCC(=O)[O-]
REMARK SMILES IDX 8 1 9 2 10 3 11 4 12 5 13 6 14 7 15 8 16 9 7 10 6 11 5 12
REMARK SMILES IDX 4 13 3 14 2 15 1 16
REMARK H PARENT
REMARK Flexibility Score: inf
ROOT
ATOM      1  C   UNL     1      -4.470 -12.706 -16.721  1.00  0.00     0.000 C 
ENDROOT
BRANCH   1   2
ATOM      2  C   UNL     1      -5.288 -11.434 -16.439  1.00  0.00     0.000 C 
BRANCH   2   3
ATOM      3  C   UNL     1      -5.721 -10.712 -17.723  1.00  0.00     0.000 C 
BRANCH   3   4
ATOM      4  C   UNL     1      -4.850  -9.477 -17.978  1.00  0.00     0.000 C 
BRANCH   4   5
ATOM      5  C   UNL     1      -4.389  -8.845 -16.655  1.00  0.00     0.006 C 
BRANCH   5   6
ATOM      6  C   UNL     1      -3.411  -7.684 -16.876  1.00  0.00     0.053 C 
BRANCH   6   7
ATOM      7  C   UNL     1      -4.127  -6.379 -17.041  1.00  0.00     0.041 C 
ATOM      8  O   UNL     1      -3.963  -5.455 -16.201  1.00  0.00    -0.550 OA
ATOM      9  O   UNL     1      -4.949  -6.171 -18.141  1.00  0.00    -0.550 OA
ENDBRANCH   6   7
ENDBRANCH   5   6
ENDBRANCH   4   5
ENDBRANCH   3   4
ENDBRANCH   2   3
ENDBRANCH   1   2
BRANCH   1  10
ATOM     10  C   UNL     1      -2.959 -12.437 -16.783  1.00  0.00     0.000 C 
BRANCH  10  11
ATOM     11  C   UNL     1      -2.382 -12.226 -15.378  1.00  0.00    -0.000 C 
BRANCH  11  12
ATOM     12  C   UNL     1      -1.769 -10.824 -15.239  1.00  0.00    -0.000 C 
BRANCH  12  13
ATOM     13  C   UNL     1      -0.485 -10.811 -14.391  1.00  0.00    -0.000 C 
BRANCH  13  14
ATOM     14  C   UNL     1      -0.124  -9.446 -13.778  1.00  0.00    -0.000 C 
BRANCH  14  15
ATOM     15  C   UNL     1      -0.360  -8.275 -14.743  1.00  0.00    -0.003 C 
ATOM     16  C   UNL     1      -0.488  -6.956 -13.986  1.00  0.00     0.004 C 
ENDBRANCH  14  15
ENDBRANCH  13  14
ENDBRANCH  12  13
ENDBRANCH  11  12
ENDBRANCH  10  11
ENDBRANCH   1  10
TORSDOF 12
ENDMDL
MODEL 8
REMARK VINA RESULT:    -3.499      2.895      4.715
REMARK INTER + INTRA:          -7.269
REMARK INTER:                  -5.539
REMARK INTRA:                  -1.730
REMARK UNBOUND:                -1.315
REMARK SMILES CCCCCCCCCCCCCC(=O)[O-]
REMARK SMILES IDX 8 1 9 2 10 3 11 4 12 5 13 6 14 7 15 8 16 9 7 10 6 11 5 12
REMARK SMILES IDX 4 13 3 14 2 15 1 16
REMARK H PARENT
REMARK Flexibility Score: inf
ROOT
ATOM      1  C   UNL     1      -2.100 -13.616 -17.008  1.00  0.00     0.000 C 
ENDROOT
BRANCH   1   2
ATOM      2  C   UNL     1      -2.347 -14.077 -15.561  1.00  0.00     0.000 C 
BRANCH   2   3
ATOM      3  C   UNL     1      -1.776 -13.099 -14.523  1.00  0.00     0.000 C 
BRANCH   3   4
ATOM      4  C   UNL     1      -1.177 -11.864 -15.205  1.00  0.00     0.000 C 
BRANCH   4   5
ATOM      5  C   UNL     1      -0.869 -10.763 -14.178  1.00  0.00     0.006 C 
BRANCH   5   6
ATOM      6  C   UNL     1      -0.914  -9.361 -14.799  1.00  0.00     0.053 C 
BRANCH   6   7
ATOM      7  C   UNL     1       0.055  -8.429 -14.136  1.00  0.00     0.041 C 
ATOM      8  O   UNL     1       0.881  -8.868 -13.293  1.00  0.00    -0.550 OA
ATOM      9  O   UNL     1       0.066  -7.082 -14.474  1.00  0.00    -0.550 OA
ENDBRANCH   6   7
ENDBRANCH   5   6
ENDBRANCH   4   5
ENDBRANCH   3   4
ENDBRANCH   2   3
ENDBRANCH   1   2
BRANCH   1  10
ATOM     10  C   UNL     1      -3.137 -14.175 -17.993  1.00  0.00     0.000 C 
BRANCH  10  11
ATOM     11  C   UNL     1      -4.179 -13.110 -18.356  1.00  0.00    -0.000 C 
BRANCH  11  12
ATOM     12  C   UNL     1      -5.417 -13.220 -17.453  1.00  0.00    -0.000 C 
BRANCH  12  13
ATOM     13  C   UNL     1      -5.814 -11.879 -16.812  1.00  0.00    -0.000 C 
BRANCH  13  14
ATOM     14  C   UNL     1      -4.665 -11.126 -16.116  1.00  0.00    -0.000 C 
BRANCH  14  15
ATOM     15  C   UNL     1      -4.459  -9.707 -16.662  1.00  0.00    -0.003 C 
ATOM     16  C   UNL     1      -3.233  -9.639 -17.569  1.00  0.00     0.004 C 
ENDBRANCH  14  15
ENDBRANCH  13  14
ENDBRANCH  12  13
ENDBRANCH  11  12
ENDBRANCH  10  11
ENDBRANCH   1  10
TORSDOF 12
ENDMDL
MODEL 9
REMARK VINA RESULT:    -3.486     17.169     18.589
REMARK INTER + INTRA:          -7.247
REMARK INTER:                  -5.880
REMARK INTRA:                  -1.367
REMARK UNBOUND:                -1.315
REMARK SMILES CCCCCCCCCCCCCC(=O)[O-]
REMARK SMILES IDX 8 1 9 2 10 3 11 4 12 5 13 6 14 7 15 8 16 9 7 10 6 11 5 12
REMARK SMILES IDX 4 13 3 14 2 15 1 16
REMARK H PARENT
REMARK Flexibility Score: inf
ROOT
ATOM      1  C   UNL     1      10.297  -3.003 -22.046  1.00  0.00     0.000 C 
ENDROOT
BRANCH   1   2
ATOM      2  C   UNL     1      11.498  -2.499 -21.228  1.00  0.00     0.000 C 
BRANCH   2   3
ATOM      3  C   UNL     1      11.107  -2.065 -19.808  1.00  0.00     0.000 C 
BRANCH   3   4
ATOM      4  C   UNL     1      10.142  -0.874 -19.845  1.00  0.00     0.000 C 
BRANCH   4   5
ATOM      5  C   UNL     1      10.678   0.296 -19.005  1.00  0.00     0.006 C 
BRANCH   5   6
ATOM      6  C   UNL     1      10.037   1.633 -19.396  1.00  0.00     0.053 C 
BRANCH   6   7
ATOM      7  C   UNL     1       8.693   1.812 -18.758  1.00  0.00     0.041 C 
ATOM      8  O   UNL     1       7.644   1.696 -19.447  1.00  0.00    -0.550 OA
ATOM      9  O   UNL     1       8.597   2.074 -17.398  1.00  0.00    -0.550 OA
ENDBRANCH   6   7
ENDBRANCH   5   6
ENDBRANCH   4   5
ENDBRANCH   3   4
ENDBRANCH   2   3
ENDBRANCH   1   2
BRANCH   1  10
ATOM     10  C   UNL     1      10.720  -3.770 -23.307  1.00  0.00     0.000 C 
BRANCH  10  11
ATOM     11  C   UNL     1      12.233  -4.021 -23.315  1.00  0.00    -0.000 C 
BRANCH  11  12
ATOM     12  C   UNL     1      12.543  -5.512 -23.524  1.00  0.00    -0.000 C 
BRANCH  12  13
ATOM     13  C   UNL     1      12.942  -6.229 -22.222  1.00  0.00    -0.000 C 
BRANCH  13  14
ATOM     14  C   UNL     1      13.779  -5.383 -21.244  1.00  0.00    -0.000 C 
BRANCH  14  15
ATOM     15  C   UNL     1      13.292  -5.489 -19.792  1.00  0.00    -0.003 C 
ATOM     16  C   UNL     1      11.836  -5.944 -19.732  1.00  0.00     0.004 C 
ENDBRANCH  14  15
ENDBRANCH  13  14
ENDBRANCH  12  13
ENDBRANCH  11  12
ENDBRANCH  10  11
ENDBRANCH   1  10
TORSDOF 12
ENDMDL
