MODEL 1
REMARK VINA RESULT:    -3.730      0.000      0.000
REMARK INTER + INTRA:          -5.046
REMARK INTER:                  -4.820
REMARK INTRA:                  -0.226
REMARK UNBOUND:                -0.226
REMARK SMILES CCCCCCC(=O)[O-]
REMARK SMILES IDX 5 1 6 2 7 3 8 4 9 5 4 6 3 7 2 8 1 9
REMARK H PARENT
REMARK Flexibility Score: inf
ROOT
ATOM      1  C   UNL     1      13.941  -3.376 -22.452  1.00  0.00     0.006 C 
ENDROOT
BRANCH   1   2
ATOM      2  C   UNL     1      14.728  -2.693 -21.326  1.00  0.00     0.053 C 
BRANCH   2   3
ATOM      3  C   UNL     1      13.829  -2.238 -20.218  1.00  0.00     0.041 C 
ATOM      4  O   UNL     1      14.315  -1.888 -19.109  1.00  0.00    -0.550 OA
ATOM      5  O   UNL     1      12.452  -2.231 -20.398  1.00  0.00    -0.550 OA
ENDBRANCH   2   3
ENDBRANCH   1   2
BRANCH   1   6
ATOM      6  C   UNL     1      14.088  -4.907 -22.417  1.00  0.00     0.000 C 
BRANCH   6   7
ATOM      7  C   UNL     1      14.227  -5.520 -23.820  1.00  0.00    -0.000 C 
BRANCH   7   8
ATOM      8  C   UNL     1      15.500  -6.366 -23.970  1.00  0.00    -0.003 C 
ATOM      9  C   UNL     1      16.277  -6.424 -22.658  1.00  0.00     0.004 C 
ENDBRANCH   7   8
ENDBRANCH   6   7
ENDBRANCH   1   6
TORSDOF 5
ENDMDL
MODEL 2
REMARK VINA RESULT:    -3.723     12.630     13.997
REMARK INTER + INTRA:          -5.037
REMARK INTER:                  -4.676
REMARK INTRA:                  -0.362
REMARK UNBOUND:                -0.226
REMARK SMILES CCCCCCC(=O)[O-]
REMARK SMILES IDX 5 1 6 2 7 3 8 4 9 5 4 6 3 7 2 8 1 9
REMARK H PARENT
REMARK Flexibility Score: inf
ROOT
ATOM      1  C   UNL     1       8.378  -5.850 -32.895  1.00  0.00     0.006 C 
ENDROOT
BRANCH   1   2
ATOM      2  C   UNL     1       7.401  -5.717 -31.720  1.00  0.00     0.053 C 
BRANCH   2   3
ATOM      3  C   UNL     1       6.346  -6.779 -31.753  1.00  0.00     0.041 C 
ATOM      4  O   UNL     1       6.411  -7.763 -30.969  1.00  0.00    -0.550 OA
ATOM      5  O   UNL     1       5.308  -6.700 -32.673  1.00  0.00    -0.550 OA
ENDBRANCH   2   3
ENDBRANCH   1   2
BRANCH   1   6
ATOM      6  C   UNL     1       8.089  -4.828 -34.009  1.00  0.00     0.000 C 
BRANCH   6   7
ATOM      7  C   UNL     1       7.679  -3.453 -33.458  1.00  0.00    -0.000 C 
BRANCH   7   8
ATOM      8  C   UNL     1       6.342  -2.962 -34.035  1.00  0.00    -0.003 C 
ATOM      9  C   UNL     1       5.806  -3.937 -35.080  1.00  0.00     0.004 C 
ENDBRANCH   7   8
ENDBRANCH   6   7
ENDBRANCH   1   6
TORSDOF 5
ENDMDL
MODEL 3
REMARK VINA RESULT:    -3.672     12.927     14.234
REMARK INTER + INTRA:          -4.971
REMARK INTER:                  -4.731
REMARK INTRA:                  -0.240
REMARK UNBOUND:                -0.226
REMARK SMILES CCCCCCC(=O)[O-]
REMARK SMILES IDX 5 1 6 2 7 3 8 4 9 5 4 6 3 7 2 8 1 9
REMARK H PARENT
REMARK Flexibility Score: inf
ROOT
ATOM      1  C   UNL     1       7.280  -3.745 -32.862  1.00  0.00     0.006 C 
ENDROOT
BRANCH   1   2
ATOM      2  C   UNL     1       6.539  -3.091 -34.035  1.00  0.00     0.053 C 
BRANCH   2   3
ATOM      3  C   UNL     1       7.488  -2.486 -35.023  1.00  0.00     0.041 C 
ATOM      4  O   UNL     1       7.132  -2.304 -36.217  1.00  0.00    -0.550 OA
ATOM      5  O   UNL     1       8.779  -2.154 -34.632  1.00  0.00    -0.550 OA
ENDBRANCH   2   3
ENDBRANCH   1   2
BRANCH   1   6
ATOM      6  C   UNL     1       7.605  -5.224 -33.134  1.00  0.00     0.000 C 
BRANCH   6   7
ATOM      7  C   UNL     1       7.667  -6.063 -31.848  1.00  0.00    -0.000 C 
BRANCH   7   8
ATOM      8  C   UNL     1       6.285  -6.571 -31.409  1.00  0.00    -0.003 C 
ATOM      9  C   UNL     1       5.447  -6.988 -32.614  1.00  0.00     0.004 C 
ENDBRANCH   7   8
ENDBRANCH   6   7
ENDBRANCH   1   6
TORSDOF 5
ENDMDL
MODEL 4
REMARK VINA RESULT:    -3.611      0.653      1.168
REMARK INTER + INTRA:          -4.893
REMARK INTER:                  -4.698
REMARK INTRA:                  -0.195
REMARK UNBOUND:                -0.226
REMARK SMILES CCCCCCC(=O)[O-]
REMARK SMILES IDX 5 1 6 2 7 3 8 4 9 5 4 6 3 7 2 8 1 9
REMARK H PARENT
REMARK Flexibility Score: inf
ROOT
ATOM      1  C   UNL     1      14.244  -3.103 -22.290  1.00  0.00     0.006 C 
ENDROOT
BRANCH   1   2
ATOM      2  C   UNL     1      14.422  -2.392 -20.943  1.00  0.00     0.053 C 
BRANCH   2   3
ATOM      3  C   UNL     1      13.149  -2.371 -20.154  1.00  0.00     0.041 C 
ATOM      4  O   UNL     1      12.072  -2.011 -20.697  1.00  0.00    -0.550 OA
ATOM      5  O   UNL     1      13.160  -2.716 -18.808  1.00  0.00    -0.550 OA
ENDBRANCH   2   3
ENDBRANCH   1   2
BRANCH   1   6
ATOM      6  C   UNL     1      14.381  -4.630 -22.162  1.00  0.00     0.000 C 
BRANCH   6   7
ATOM      7  C   UNL     1      14.253  -5.352 -23.513  1.00  0.00    -0.000 C 
BRANCH   7   8
ATOM      8  C   UNL     1      15.528  -6.121 -23.893  1.00  0.00    -0.003 C 
ATOM      9  C   UNL     1      16.418  -6.342 -22.674  1.00  0.00     0.004 C 
ENDBRANCH   7   8
ENDBRANCH   6   7
ENDBRANCH   1   6
TORSDOF 5
ENDMDL
MODEL 5
REMARK VINA RESULT:    -3.607     13.217     14.113
REMARK INTER + INTRA:          -4.887
REMARK INTER:                  -4.596
REMARK INTRA:                  -0.291
REMARK UNBOUND:                -0.226
REMARK SMILES CCCCCCC(=O)[O-]
REMARK SMILES IDX 5 1 6 2 7 3 8 4 9 5 4 6 3 7 2 8 1 9
REMARK H PARENT
REMARK Flexibility Score: inf
ROOT
ATOM      1  C   UNL     1       8.306  -5.136 -33.918  1.00  0.00     0.006 C 
ENDROOT
BRANCH   1   2
ATOM      2  C   UNL     1       7.981  -3.667 -33.619  1.00  0.00     0.053 C 
BRANCH   2   3
ATOM      3  C   UNL     1       6.945  -3.126 -34.556  1.00  0.00     0.041 C 
ATOM      4  O   UNL     1       5.739  -3.467 -34.434  1.00  0.00    -0.550 OA
ATOM      5  O   UNL     1       7.318  -2.272 -35.586  1.00  0.00    -0.550 OA
ENDBRANCH   2   3
ENDBRANCH   1   2
BRANCH   1   6
ATOM      6  C   UNL     1       8.369  -5.989 -32.639  1.00  0.00     0.000 C 
BRANCH   6   7
ATOM      7  C   UNL     1       7.274  -5.619 -31.627  1.00  0.00    -0.000 C 
BRANCH   7   8
ATOM      8  C   UNL     1       6.265  -6.756 -31.408  1.00  0.00    -0.003 C 
ATOM      9  C   UNL     1       5.382  -6.949 -32.638  1.00  0.00     0.004 C 
ENDBRANCH   7   8
ENDBRANCH   6   7
ENDBRANCH   1   6
TORSDOF 5
ENDMDL
MODEL 6
REMARK VINA RESULT:    -3.572     12.697     14.061
REMARK INTER + INTRA:          -4.842
REMARK INTER:                  -4.445
REMARK INTRA:                  -0.397
REMARK UNBOUND:                -0.226
REMARK SMILES CCCCCCC(=O)[O-]
REMARK SMILES IDX 5 1 6 2 7 3 8 4 9 5 4 6 3 7 2 8 1 9
REMARK H PARENT
REMARK Flexibility Score: inf
ROOT
ATOM      1  C   UNL     1       7.411  -5.788 -31.455  1.00  0.00     0.006 C 
ENDROOT
BRANCH   1   2
ATOM      2  C   UNL     1       7.206  -4.790 -32.602  1.00  0.00     0.053 C 
BRANCH   2   3
ATOM      3  C   UNL     1       8.305  -4.877 -33.615  1.00  0.00     0.041 C 
ATOM      4  O   UNL     1       8.767  -3.830 -34.142  1.00  0.00    -0.550 OA
ATOM      5  O   UNL     1       8.796  -6.116 -34.004  1.00  0.00    -0.550 OA
ENDBRANCH   2   3
ENDBRANCH   1   2
BRANCH   1   6
ATOM      6  C   UNL     1       6.411  -6.956 -31.516  1.00  0.00     0.000 C 
BRANCH   6   7
ATOM      7  C   UNL     1       5.337  -6.759 -32.598  1.00  0.00    -0.000 C 
BRANCH   7   8
ATOM      8  C   UNL     1       5.385  -7.850 -33.679  1.00  0.00    -0.003 C 
ATOM      9  C   UNL     1       5.603  -7.242 -35.062  1.00  0.00     0.004 C 
ENDBRANCH   7   8
ENDBRANCH   6   7
ENDBRANCH   1   6
TORSDOF 5
ENDMDL
MODEL 7
REMARK VINA RESULT:    -3.556      3.605      5.058
REMARK INTER + INTRA:          -4.822
REMARK INTER:                  -4.548
REMARK INTRA:                  -0.274
REMARK UNBOUND:                -0.226
REMARK SMILES CCCCCCC(=O)[O-]
REMARK SMILES IDX 5 1 6 2 7 3 8 4 9 5 4 6 3 7 2 8 1 9
REMARK H PARENT
REMARK Flexibility Score: inf
ROOT
ATOM      1  C   UNL     1      15.758  -6.134 -23.685  1.00  0.00     0.006 C 
ENDROOT
BRANCH   1   2
ATOM      2  C   UNL     1      16.307  -6.285 -22.261  1.00  0.00     0.053 C 
BRANCH   2   3
ATOM      3  C   UNL     1      16.867  -7.654 -22.025  1.00  0.00     0.041 C 
ATOM      4  O   UNL     1      16.679  -8.571 -22.869  1.00  0.00    -0.550 OA
ATOM      5  O   UNL     1      17.567  -7.927 -20.858  1.00  0.00    -0.550 OA
ENDBRANCH   2   3
ENDBRANCH   1   2
BRANCH   1   6
ATOM      6  C   UNL     1      14.349  -5.514 -23.701  1.00  0.00     0.000 C 
BRANCH   6   7
ATOM      7  C   UNL     1      13.965  -4.882 -22.354  1.00  0.00    -0.000 C 
BRANCH   7   8
ATOM      8  C   UNL     1      13.941  -3.347 -22.409  1.00  0.00    -0.003 C 
ATOM      9  C   UNL     1      14.754  -2.745 -21.267  1.00  0.00     0.004 C 
ENDBRANCH   7   8
ENDBRANCH   6   7
ENDBRANCH   1   6
TORSDOF 5
ENDMDL
MODEL 8
REMARK VINA RESULT:    -3.553     13.970     15.268
REMARK INTER + INTRA:          -4.818
REMARK INTER:                  -4.675
REMARK INTRA:                  -0.143
REMARK UNBOUND:                -0.226
REMARK SMILES CCCCCCC(=O)[O-]
REMARK SMILES IDX 5 1 6 2 7 3 8 4 9 5 4 6 3 7 2 8 1 9
REMARK H PARENT
REMARK Flexibility Score: inf
ROOT
ATOM      1  C   UNL     1       6.769  -2.800 -34.239  1.00  0.00     0.006 C 
ENDROOT
BRANCH   1   2
ATOM      2  C   UNL     1       5.636  -3.588 -34.907  1.00  0.00     0.053 C 
BRANCH   2   3
ATOM      3  C   UNL     1       4.999  -2.812 -36.019  1.00  0.00     0.041 C 
ATOM      4  O   UNL     1       5.704  -2.345 -36.952  1.00  0.00    -0.550 OA
ATOM      5  O   UNL     1       3.631  -2.574 -36.005  1.00  0.00    -0.550 OA
ENDBRANCH   2   3
ENDBRANCH   1   2
BRANCH   1   6
ATOM      6  C   UNL     1       7.509  -3.633 -33.179  1.00  0.00     0.000 C 
BRANCH   6   7
ATOM      7  C   UNL     1       6.885  -5.023 -32.977  1.00  0.00    -0.000 C 
BRANCH   7   8
ATOM      8  C   UNL     1       7.334  -5.686 -31.666  1.00  0.00    -0.003 C 
ATOM      9  C   UNL     1       6.372  -6.797 -31.257  1.00  0.00     0.004 C 
ENDBRANCH   7   8
ENDBRANCH   6   7
ENDBRANCH   1   6
TORSDOF 5
ENDMDL
MODEL 9
REMARK VINA RESULT:    -3.551      2.032      2.642
REMARK INTER + INTRA:          -4.815
REMARK INTER:                  -4.723
REMARK INTRA:                  -0.092
REMARK UNBOUND:                -0.226
REMARK SMILES CCCCCCC(=O)[O-]
REMARK SMILES IDX 5 1 6 2 7 3 8 4 9 5 4 6 3 7 2 8 1 9
REMARK H PARENT
REMARK Flexibility Score: inf
ROOT
ATOM      1  C   UNL     1      12.609  -3.383 -21.400  1.00  0.00     0.006 C 
ENDROOT
BRANCH   1   2
ATOM      2  C   UNL     1      12.180  -2.159 -20.580  1.00  0.00     0.053 C 
BRANCH   2   3
ATOM      3  C   UNL     1      10.743  -1.811 -20.814  1.00  0.00     0.041 C 
ATOM      4  O   UNL     1       9.830  -2.590 -20.433  1.00  0.00    -0.550 OA
ATOM      5  O   UNL     1      10.412  -0.640 -21.485  1.00  0.00    -0.550 OA
ENDBRANCH   2   3
ENDBRANCH   1   2
BRANCH   1   6
ATOM      6  C   UNL     1      13.993  -3.194 -22.044  1.00  0.00     0.000 C 
BRANCH   6   7
ATOM      7  C   UNL     1      14.739  -4.523 -22.244  1.00  0.00    -0.000 C 
BRANCH   7   8
ATOM      8  C   UNL     1      14.317  -5.248 -23.531  1.00  0.00    -0.003 C 
ATOM      9  C   UNL     1      15.417  -6.187 -24.017  1.00  0.00     0.004 C 
ENDBRANCH   7   8
ENDBRANCH   6   7
ENDBRANCH   1   6
TORSDOF 5
ENDMDL
