MODEL 1
REMARK VINA RESULT:    -4.194      0.000      0.000
REMARK INTER + INTRA:          -6.823
REMARK INTER:                  -6.401
REMARK INTRA:                  -0.422
REMARK UNBOUND:                -0.422
REMARK SMILES O=C([O-])CCCCCCCCC(=O)[O-]
REMARK SMILES IDX 7 1 6 2 5 3 4 4 2 5 1 6 3 7 8 8 9 9 10 10 11 11 12 12 13 13
REMARK SMILES IDX 14 14
REMARK H PARENT
REMARK Flexibility Score: inf
ROOT
ATOM      1  C   UNL     1       0.175   3.282   9.495  1.00  0.00     0.000 C 
ENDROOT
BRANCH   1   2
ATOM      2  C   UNL     1      -1.342   3.440   9.339  1.00  0.00     0.000 C 
BRANCH   2   3
ATOM      3  C   UNL     1      -1.692   4.786   8.686  1.00  0.00     0.006 C 
BRANCH   3   4
ATOM      4  C   UNL     1      -2.286   5.783   9.691  1.00  0.00     0.053 C 
BRANCH   4   5
ATOM      5  C   UNL     1      -1.513   7.066   9.723  1.00  0.00     0.041 C 
ATOM      6  O   UNL     1      -0.256   7.050   9.649  1.00  0.00    -0.550 OA
ATOM      7  O   UNL     1      -2.178   8.277   9.870  1.00  0.00    -0.550 OA
ENDBRANCH   4   5
ENDBRANCH   3   4
ENDBRANCH   2   3
ENDBRANCH   1   2
BRANCH   1   8
ATOM      8  C   UNL     1       0.525   1.927  10.122  1.00  0.00     0.000 C 
BRANCH   8   9
ATOM      9  C   UNL     1       1.989   1.558   9.852  1.00  0.00     0.000 C 
BRANCH   9  10
ATOM     10  C   UNL     1       2.662   2.599   8.945  1.00  0.00     0.006 C 
BRANCH  10  11
ATOM     11  C   UNL     1       4.175   2.380   8.833  1.00  0.00     0.053 C 
BRANCH  11  12
ATOM     12  C   UNL     1       4.545   1.705   7.548  1.00  0.00     0.041 C 
ATOM     13  O   UNL     1       3.663   1.464   6.681  1.00  0.00    -0.550 OA
ATOM     14  O   UNL     1       5.857   1.311   7.322  1.00  0.00    -0.550 OA
ENDBRANCH  11  12
ENDBRANCH  10  11
ENDBRANCH   9  10
ENDBRANCH   8   9
ENDBRANCH   1   8
TORSDOF 9
ENDMDL
MODEL 2
REMARK VINA RESULT:    -4.183      0.800      6.792
REMARK INTER + INTRA:          -6.806
REMARK INTER:                  -6.239
REMARK INTRA:                  -0.566
REMARK UNBOUND:                -0.422
REMARK SMILES O=C([O-])CCCCCCCCC(=O)[O-]
REMARK SMILES IDX 7 1 6 2 5 3 4 4 2 5 1 6 3 7 8 8 9 9 10 10 11 11 12 12 13 13
REMARK SMILES IDX 14 14
REMARK H PARENT
REMARK Flexibility Score: inf
ROOT
ATOM      1  C   UNL     1       0.667   2.881   9.839  1.00  0.00     0.000 C 
ENDROOT
BRANCH   1   2
ATOM      2  C   UNL     1       1.695   3.894   9.320  1.00  0.00     0.000 C 
BRANCH   2   3
ATOM      3  C   UNL     1       3.114   3.308   9.361  1.00  0.00     0.006 C 
BRANCH   3   4
ATOM      4  C   UNL     1       3.143   1.826   8.963  1.00  0.00     0.053 C 
BRANCH   4   5
ATOM      5  C   UNL     1       4.087   1.576   7.826  1.00  0.00     0.041 C 
ATOM      6  O   UNL     1       3.729   1.811   6.642  1.00  0.00    -0.550 OA
ATOM      7  O   UNL     1       5.350   1.051   8.072  1.00  0.00    -0.550 OA
ENDBRANCH   4   5
ENDBRANCH   3   4
ENDBRANCH   2   3
ENDBRANCH   1   2
BRANCH   1   8
ATOM      8  C   UNL     1      -0.706   3.538  10.028  1.00  0.00     0.000 C 
BRANCH   8   9
ATOM      9  C   UNL     1      -1.325   3.920   8.679  1.00  0.00     0.000 C 
BRANCH   9  10
ATOM     10  C   UNL     1      -2.263   5.127   8.824  1.00  0.00     0.006 C 
BRANCH  10  11
ATOM     11  C   UNL     1      -2.015   5.902  10.125  1.00  0.00     0.053 C 
BRANCH  11  12
ATOM     12  C   UNL     1      -1.281   7.184   9.876  1.00  0.00     0.041 C 
ATOM     13  O   UNL     1      -1.908   8.275   9.829  1.00  0.00    -0.550 OA
ATOM     14  O   UNL     1       0.091   7.170   9.664  1.00  0.00    -0.550 OA
ENDBRANCH  11  12
ENDBRANCH  10  11
ENDBRANCH   9  10
ENDBRANCH   8   9
ENDBRANCH   1   8
TORSDOF 9
ENDMDL
MODEL 3
REMARK VINA RESULT:    -4.043      5.605      8.948
REMARK INTER + INTRA:          -6.592
REMARK INTER:                  -6.245
REMARK INTRA:                  -0.347
REMARK UNBOUND:                -0.422
REMARK SMILES O=C([O-])CCCCCCCCC(=O)[O-]
REMARK SMILES IDX 7 1 6 2 5 3 4 4 2 5 1 6 3 7 8 8 9 9 10 10 11 11 12 12 13 13
REMARK SMILES IDX 14 14
REMARK H PARENT
REMARK Flexibility Score: inf
ROOT
ATOM      1  C   UNL     1       8.212   5.266   8.941  1.00  0.00     0.000 C 
ENDROOT
BRANCH   1   2
ATOM      2  C   UNL     1       8.911   6.407   9.689  1.00  0.00     0.000 C 
BRANCH   2   3
ATOM      3  C   UNL     1       9.247   7.565   8.739  1.00  0.00     0.006 C 
BRANCH   3   4
ATOM      4  C   UNL     1      10.409   7.225   7.795  1.00  0.00     0.053 C 
BRANCH   4   5
ATOM      5  C   UNL     1      11.633   6.805   8.550  1.00  0.00     0.041 C 
ATOM      6  O   UNL     1      12.297   7.653   9.202  1.00  0.00    -0.550 OA
ATOM      7  O   UNL     1      12.059   5.483   8.506  1.00  0.00    -0.550 OA
ENDBRANCH   4   5
ENDBRANCH   3   4
ENDBRANCH   2   3
ENDBRANCH   1   2
BRANCH   1   8
ATOM      8  C   UNL     1       7.699   4.201   9.917  1.00  0.00     0.000 C 
BRANCH   8   9
ATOM      9  C   UNL     1       6.356   3.628   9.450  1.00  0.00     0.000 C 
BRANCH   9  10
ATOM     10  C   UNL     1       6.496   2.152   9.049  1.00  0.00     0.006 C 
BRANCH  10  11
ATOM     11  C   UNL     1       5.136   1.470   8.857  1.00  0.00     0.053 C 
BRANCH  11  12
ATOM     12  C   UNL     1       4.688   1.517   7.428  1.00  0.00     0.041 C 
ATOM     13  O   UNL     1       3.750   2.283   7.082  1.00  0.00    -0.550 OA
ATOM     14  O   UNL     1       5.283   0.690   6.485  1.00  0.00    -0.550 OA
ENDBRANCH  11  12
ENDBRANCH  10  11
ENDBRANCH   9  10
ENDBRANCH   8   9
ENDBRANCH   1   8
TORSDOF 9
ENDMDL
MODEL 4
REMARK VINA RESULT:    -4.042      5.569      8.557
REMARK INTER + INTRA:          -6.590
REMARK INTER:                  -6.220
REMARK INTRA:                  -0.370
REMARK UNBOUND:                -0.422
REMARK SMILES O=C([O-])CCCCCCCCC(=O)[O-]
REMARK SMILES IDX 7 1 6 2 5 3 4 4 2 5 1 6 3 7 8 8 9 9 10 10 11 11 12 12 13 13
REMARK SMILES IDX 14 14
REMARK H PARENT
REMARK Flexibility Score: inf
ROOT
ATOM      1  C   UNL     1       8.498   3.744  10.012  1.00  0.00     0.000 C 
ENDROOT
BRANCH   1   2
ATOM      2  C   UNL     1       7.511   2.584   9.838  1.00  0.00     0.000 C 
BRANCH   2   3
ATOM      3  C   UNL     1       6.397   2.952   8.848  1.00  0.00     0.006 C 
BRANCH   3   4
ATOM      4  C   UNL     1       5.279   1.902   8.813  1.00  0.00     0.053 C 
BRANCH   4   5
ATOM      5  C   UNL     1       4.720   1.731   7.433  1.00  0.00     0.041 C 
ATOM      6  O   UNL     1       3.716   2.399   7.070  1.00  0.00    -0.550 OA
ATOM      7  O   UNL     1       5.287   0.811   6.560  1.00  0.00    -0.550 OA
ENDBRANCH   4   5
ENDBRANCH   3   4
ENDBRANCH   2   3
ENDBRANCH   1   2
BRANCH   1   8
ATOM      8  C   UNL     1       8.064   4.964   9.192  1.00  0.00     0.000 C 
BRANCH   8   9
ATOM      9  C   UNL     1       8.793   6.230   9.660  1.00  0.00     0.000 C 
BRANCH   9  10
ATOM     10  C   UNL     1       8.879   7.265   8.529  1.00  0.00     0.006 C 
BRANCH  10  11
ATOM     11  C   UNL     1      10.164   7.119   7.704  1.00  0.00     0.053 C 
BRANCH  11  12
ATOM     12  C   UNL     1      11.338   6.761   8.563  1.00  0.00     0.041 C 
ATOM     13  O   UNL     1      11.863   7.628   9.312  1.00  0.00    -0.550 OA
ATOM     14  O   UNL     1      11.871   5.481   8.513  1.00  0.00    -0.550 OA
ENDBRANCH  11  12
ENDBRANCH  10  11
ENDBRANCH   9  10
ENDBRANCH   8   9
ENDBRANCH   1   8
TORSDOF 9
ENDMDL
MODEL 5
REMARK VINA RESULT:    -3.984      1.180      7.080
REMARK INTER + INTRA:          -6.501
REMARK INTER:                  -6.132
REMARK INTRA:                  -0.369
REMARK UNBOUND:                -0.422
REMARK SMILES O=C([O-])CCCCCCCCC(=O)[O-]
REMARK SMILES IDX 7 1 6 2 5 3 4 4 2 5 1 6 3 7 8 8 9 9 10 10 11 11 12 12 13 13
REMARK SMILES IDX 14 14
REMARK H PARENT
REMARK Flexibility Score: inf
ROOT
ATOM      1  C   UNL     1       2.654   3.673   9.113  1.00  0.00     0.000 C 
ENDROOT
BRANCH   1   2
ATOM      2  C   UNL     1       4.017   3.798   9.803  1.00  0.00     0.000 C 
BRANCH   2   3
ATOM      3  C   UNL     1       4.850   2.522   9.612  1.00  0.00     0.006 C 
BRANCH   3   4
ATOM      4  C   UNL     1       4.105   1.457   8.796  1.00  0.00     0.053 C 
BRANCH   4   5
ATOM      5  C   UNL     1       4.645   1.346   7.403  1.00  0.00     0.041 C 
ATOM      6  O   UNL     1       5.888   1.281   7.209  1.00  0.00    -0.550 OA
ATOM      7  O   UNL     1       3.779   1.346   6.317  1.00  0.00    -0.550 OA
ENDBRANCH   4   5
ENDBRANCH   3   4
ENDBRANCH   2   3
ENDBRANCH   1   2
BRANCH   1   8
ATOM      8  C   UNL     1       1.509   3.843  10.120  1.00  0.00     0.000 C 
BRANCH   8   9
ATOM      9  C   UNL     1       0.196   3.285   9.560  1.00  0.00     0.000 C 
BRANCH   9  10
ATOM     10  C   UNL     1      -0.991   4.181   9.944  1.00  0.00     0.006 C 
BRANCH  10  11
ATOM     11  C   UNL     1      -0.616   5.668   9.961  1.00  0.00     0.053 C 
BRANCH  11  12
ATOM     12  C   UNL     1      -1.796   6.542   9.666  1.00  0.00     0.041 C 
ATOM     13  O   UNL     1      -2.964   6.126   9.885  1.00  0.00    -0.550 OA
ATOM     14  O   UNL     1      -1.606   7.804   9.119  1.00  0.00    -0.550 OA
ENDBRANCH  11  12
ENDBRANCH  10  11
ENDBRANCH   9  10
ENDBRANCH   8   9
ENDBRANCH   1   8
TORSDOF 9
ENDMDL
MODEL 6
REMARK VINA RESULT:    -3.821      5.648      8.349
REMARK INTER + INTRA:          -6.252
REMARK INTER:                  -5.844
REMARK INTRA:                  -0.409
REMARK UNBOUND:                -0.422
REMARK SMILES O=C([O-])CCCCCCCCC(=O)[O-]
REMARK SMILES IDX 7 1 6 2 5 3 4 4 2 5 1 6 3 7 8 8 9 9 10 10 11 11 12 12 13 13
REMARK SMILES IDX 14 14
REMARK H PARENT
REMARK Flexibility Score: inf
ROOT
ATOM      1  C   UNL     1       7.126   4.400   9.661  1.00  0.00     0.000 C 
ENDROOT
BRANCH   1   2
ATOM      2  C   UNL     1       6.115   3.278   9.924  1.00  0.00     0.000 C 
BRANCH   2   3
ATOM      3  C   UNL     1       6.388   2.067   9.019  1.00  0.00     0.006 C 
BRANCH   3   4
ATOM      4  C   UNL     1       5.115   1.261   8.727  1.00  0.00     0.053 C 
BRANCH   4   5
ATOM      5  C   UNL     1       4.697   1.382   7.294  1.00  0.00     0.041 C 
ATOM      6  O   UNL     1       5.261   0.686   6.408  1.00  0.00    -0.550 OA
ATOM      7  O   UNL     1       3.708   2.288   6.930  1.00  0.00    -0.550 OA
ENDBRANCH   4   5
ENDBRANCH   3   4
ENDBRANCH   2   3
ENDBRANCH   1   2
BRANCH   1   8
ATOM      8  C   UNL     1       8.561   3.917   9.909  1.00  0.00     0.000 C 
BRANCH   8   9
ATOM      9  C   UNL     1       9.510   5.101  10.125  1.00  0.00     0.000 C 
BRANCH   9  10
ATOM     10  C   UNL     1       8.870   6.414   9.650  1.00  0.00     0.006 C 
BRANCH  10  11
ATOM     11  C   UNL     1       9.393   6.851   8.276  1.00  0.00     0.053 C 
BRANCH  11  12
ATOM     12  C   UNL     1      10.820   7.302   8.342  1.00  0.00     0.041 C 
ATOM     13  O   UNL     1      11.647   6.922   7.472  1.00  0.00    -0.550 OA
ATOM     14  O   UNL     1      11.244   8.116   9.384  1.00  0.00    -0.550 OA
ENDBRANCH  11  12
ENDBRANCH  10  11
ENDBRANCH   9  10
ENDBRANCH   8   9
ENDBRANCH   1   8
TORSDOF 9
ENDMDL
MODEL 7
REMARK VINA RESULT:    -3.808      2.015      3.098
REMARK INTER + INTRA:          -6.234
REMARK INTER:                  -5.782
REMARK INTRA:                  -0.452
REMARK UNBOUND:                -0.422
REMARK SMILES O=C([O-])CCCCCCCCC(=O)[O-]
REMARK SMILES IDX 7 1 6 2 5 3 4 4 2 5 1 6 3 7 8 8 9 9 10 10 11 11 12 12 13 13
REMARK SMILES IDX 14 14
REMARK H PARENT
REMARK Flexibility Score: inf
ROOT
ATOM      1  C   UNL     1       3.058   4.389   9.135  1.00  0.00     0.000 C 
ENDROOT
BRANCH   1   2
ATOM      2  C   UNL     1       2.366   5.615   9.742  1.00  0.00     0.000 C 
BRANCH   2   3
ATOM      3  C   UNL     1       0.914   5.296  10.124  1.00  0.00     0.006 C 
BRANCH   3   4
ATOM      4  C   UNL     1       0.373   4.068   9.379  1.00  0.00     0.053 C 
BRANCH   4   5
ATOM      5  C   UNL     1      -1.106   4.160   9.158  1.00  0.00     0.041 C 
ATOM      6  O   UNL     1      -1.674   5.284   9.131  1.00  0.00    -0.550 OA
ATOM      7  O   UNL     1      -1.863   3.004   9.015  1.00  0.00    -0.550 OA
ENDBRANCH   4   5
ENDBRANCH   3   4
ENDBRANCH   2   3
ENDBRANCH   1   2
BRANCH   1   8
ATOM      8  C   UNL     1       4.087   3.800  10.107  1.00  0.00     0.000 C 
BRANCH   8   9
ATOM      9  C   UNL     1       5.346   3.338   9.363  1.00  0.00     0.000 C 
BRANCH   9  10
ATOM     10  C   UNL     1       5.553   1.824   9.518  1.00  0.00     0.006 C 
BRANCH  10  11
ATOM     11  C   UNL     1       4.494   1.013   8.762  1.00  0.00     0.053 C 
BRANCH  11  12
ATOM     12  C   UNL     1       4.511   1.308   7.293  1.00  0.00     0.041 C 
ATOM     13  O   UNL     1       3.631   2.054   6.787  1.00  0.00    -0.550 OA
ATOM     14  O   UNL     1       5.478   0.735   6.480  1.00  0.00    -0.550 OA
ENDBRANCH  11  12
ENDBRANCH  10  11
ENDBRANCH   9  10
ENDBRANCH   8   9
ENDBRANCH   1   8
TORSDOF 9
ENDMDL
MODEL 8
REMARK VINA RESULT:    -3.705      5.263      7.949
REMARK INTER + INTRA:          -6.077
REMARK INTER:                  -5.691
REMARK INTRA:                  -0.386
REMARK UNBOUND:                -0.422
REMARK SMILES O=C([O-])CCCCCCCCC(=O)[O-]
REMARK SMILES IDX 7 1 6 2 5 3 4 4 2 5 1 6 3 7 8 8 9 9 10 10 11 11 12 12 13 13
REMARK SMILES IDX 14 14
REMARK H PARENT
REMARK Flexibility Score: inf
ROOT
ATOM      1  C   UNL     1       8.279   4.818   9.902  1.00  0.00     0.000 C 
ENDROOT
BRANCH   1   2
ATOM      2  C   UNL     1       9.709   5.270   9.580  1.00  0.00     0.000 C 
BRANCH   2   3
ATOM      3  C   UNL     1       9.841   6.796   9.686  1.00  0.00     0.006 C 
BRANCH   3   4
ATOM      4  C   UNL     1       8.510   7.515   9.425  1.00  0.00     0.053 C 
BRANCH   4   5
ATOM      5  C   UNL     1       8.611   8.470   8.276  1.00  0.00     0.041 C 
ATOM      6  O   UNL     1       7.984   9.563   8.303  1.00  0.00    -0.550 OA
ATOM      7  O   UNL     1       9.369   8.140   7.159  1.00  0.00    -0.550 OA
ENDBRANCH   4   5
ENDBRANCH   3   4
ENDBRANCH   2   3
ENDBRANCH   1   2
BRANCH   1   8
ATOM      8  C   UNL     1       8.206   3.295  10.061  1.00  0.00     0.000 C 
BRANCH   8   9
ATOM      9  C   UNL     1       6.752   2.809  10.050  1.00  0.00     0.000 C 
BRANCH   9  10
ATOM     10  C   UNL     1       6.112   3.019   8.669  1.00  0.00     0.006 C 
BRANCH  10  11
ATOM     11  C   UNL     1       5.431   1.749   8.145  1.00  0.00     0.053 C 
BRANCH  11  12
ATOM     12  C   UNL     1       4.147   2.059   7.437  1.00  0.00     0.041 C 
ATOM     13  O   UNL     1       3.810   1.398   6.419  1.00  0.00    -0.550 OA
ATOM     14  O   UNL     1       3.342   3.098   7.881  1.00  0.00    -0.550 OA
ENDBRANCH  11  12
ENDBRANCH  10  11
ENDBRANCH   9  10
ENDBRANCH   8   9
ENDBRANCH   1   8
TORSDOF 9
ENDMDL
MODEL 9
REMARK VINA RESULT:    -3.592      8.153      8.777
REMARK INTER + INTRA:          -5.904
REMARK INTER:                  -5.483
REMARK INTRA:                  -0.421
REMARK UNBOUND:                -0.422
REMARK SMILES O=C([O-])CCCCCCCCC(=O)[O-]
REMARK SMILES IDX 7 1 6 2 5 3 4 4 2 5 1 6 3 7 8 8 9 9 10 10 11 11 12 12 13 13
REMARK SMILES IDX 14 14
REMARK H PARENT
REMARK Flexibility Score: inf
ROOT
ATOM      1  C   UNL     1       7.133  10.071   9.491  1.00  0.00     0.000 C 
ENDROOT
BRANCH   1   2
ATOM      2  C   UNL     1       7.022  10.738   8.116  1.00  0.00     0.000 C 
BRANCH   2   3
ATOM      3  C   UNL     1       6.173  12.015   8.190  1.00  0.00     0.006 C 
BRANCH   3   4
ATOM      4  C   UNL     1       4.669  11.719   8.113  1.00  0.00     0.053 C 
BRANCH   4   5
ATOM      5  C   UNL     1       4.111  12.028   6.758  1.00  0.00     0.041 C 
ATOM      6  O   UNL     1       3.730  13.196   6.480  1.00  0.00    -0.550 OA
ATOM      7  O   UNL     1       3.979  11.019   5.812  1.00  0.00    -0.550 OA
ENDBRANCH   4   5
ENDBRANCH   3   4
ENDBRANCH   2   3
ENDBRANCH   1   2
BRANCH   1   8
ATOM      8  C   UNL     1       7.955   8.778   9.412  1.00  0.00     0.000 C 
BRANCH   8   9
ATOM      9  C   UNL     1       8.837   8.763   8.158  1.00  0.00     0.000 C 
BRANCH   9  10
ATOM     10  C   UNL     1       9.381   7.353   7.884  1.00  0.00     0.006 C 
BRANCH  10  11
ATOM     11  C   UNL     1       8.966   6.350   8.967  1.00  0.00     0.053 C 
BRANCH  11  12
ATOM     12  C   UNL     1      10.072   5.392   9.290  1.00  0.00     0.041 C 
ATOM     13  O   UNL     1       9.836   4.356   9.966  1.00  0.00    -0.550 OA
ATOM     14  O   UNL     1      11.368   5.660   8.873  1.00  0.00    -0.550 OA
ENDBRANCH  11  12
ENDBRANCH  10  11
ENDBRANCH   9  10
ENDBRANCH   8   9
ENDBRANCH   1   8
TORSDOF 9
ENDMDL
