MODEL 1
REMARK VINA RESULT:    -3.942      0.000      0.000
REMARK INTER + INTRA:          -6.336
REMARK INTER:                  -5.786
REMARK INTRA:                  -0.550
REMARK UNBOUND:                -0.550
REMARK SMILES O=C([O-])CCCCCCCC(=O)[O-]
REMARK SMILES IDX 7 1 6 2 5 3 4 4 2 5 1 6 3 7 8 8 9 9 10 10 11 11 12 12 13 13
REMARK H PARENT
REMARK Flexibility Score: inf
ROOT
ATOM      1  C   UNL     1      10.615  33.138  -1.036  1.00  0.00     0.000 C 
ENDROOT
BRANCH   1   2
ATOM      2  C   UNL     1      11.078  34.569  -1.352  1.00  0.00     0.000 C 
BRANCH   2   3
ATOM      3  C   UNL     1      10.578  35.555  -0.289  1.00  0.00     0.006 C 
BRANCH   3   4
ATOM      4  C   UNL     1      10.117  36.866  -0.929  1.00  0.00     0.053 C 
BRANCH   4   5
ATOM      5  C   UNL     1      11.070  37.973  -0.602  1.00  0.00     0.041 C 
ATOM      6  O   UNL     1      10.724  39.173  -0.757  1.00  0.00    -0.550 OA
ATOM      7  O   UNL     1      12.358  37.677  -0.173  1.00  0.00    -0.550 OA
ENDBRANCH   4   5
ENDBRANCH   3   4
ENDBRANCH   2   3
ENDBRANCH   1   2
BRANCH   1   8
ATOM      8  C   UNL     1       9.118  33.061  -0.696  1.00  0.00     0.000 C 
BRANCH   8   9
ATOM      9  C   UNL     1       8.220  33.243  -1.930  1.00  0.00     0.006 C 
BRANCH   9  10
ATOM     10  C   UNL     1       7.085  34.228  -1.640  1.00  0.00     0.053 C 
BRANCH  10  11
ATOM     11  C   UNL     1       5.842  33.825  -2.369  1.00  0.00     0.041 C 
ATOM     12  O   UNL     1       4.755  34.420  -2.145  1.00  0.00    -0.550 OA
ATOM     13  O   UNL     1       5.873  32.760  -3.260  1.00  0.00    -0.550 OA
ENDBRANCH  10  11
ENDBRANCH   9  10
ENDBRANCH   8   9
ENDBRANCH   1   8
TORSDOF 8
ENDMDL
MODEL 2
REMARK VINA RESULT:    -3.891      2.925      5.512
REMARK INTER + INTRA:          -6.261
REMARK INTER:                  -5.621
REMARK INTRA:                  -0.640
REMARK UNBOUND:                -0.550
REMARK SMILES O=C([O-])CCCCCCCC(=O)[O-]
REMARK SMILES IDX 7 1 6 2 5 3 4 4 2 5 1 6 3 7 8 8 9 9 10 10 11 11 12 12 13 13
REMARK H PARENT
REMARK Flexibility Score: inf
ROOT
ATOM      1  C   UNL     1       7.277  34.973  -0.974  1.00  0.00     0.000 C 
ENDROOT
BRANCH   1   2
ATOM      2  C   UNL     1       7.686  33.712  -1.752  1.00  0.00     0.000 C 
BRANCH   2   3
ATOM      3  C   UNL     1       8.811  32.962  -1.029  1.00  0.00     0.006 C 
BRANCH   3   4
ATOM      4  C   UNL     1       9.877  32.484  -2.018  1.00  0.00     0.053 C 
BRANCH   4   5
ATOM      5  C   UNL     1      10.705  31.394  -1.411  1.00  0.00     0.041 C 
ATOM      6  O   UNL     1      10.542  31.073  -0.205  1.00  0.00    -0.550 OA
ATOM      7  O   UNL     1      11.688  30.767  -2.163  1.00  0.00    -0.550 OA
ENDBRANCH   4   5
ENDBRANCH   3   4
ENDBRANCH   2   3
ENDBRANCH   1   2
BRANCH   1   8
ATOM      8  C   UNL     1       7.771  36.267  -1.641  1.00  0.00     0.000 C 
BRANCH   8   9
ATOM      9  C   UNL     1       8.585  37.152  -0.684  1.00  0.00     0.006 C 
BRANCH   9  10
ATOM     10  C   UNL     1      10.067  37.153  -1.066  1.00  0.00     0.053 C 
BRANCH  10  11
ATOM     11  C   UNL     1      10.769  35.985  -0.448  1.00  0.00     0.041 C 
ATOM     12  O   UNL     1      11.630  35.343  -1.105  1.00  0.00    -0.550 OA
ATOM     13  O   UNL     1      10.437  35.576   0.838  1.00  0.00    -0.550 OA
ENDBRANCH  10  11
ENDBRANCH   9  10
ENDBRANCH   8   9
ENDBRANCH   1   8
TORSDOF 8
ENDMDL
MODEL 3
REMARK VINA RESULT:    -3.867      2.880      4.200
REMARK INTER + INTRA:          -6.226
REMARK INTER:                  -5.504
REMARK INTRA:                  -0.722
REMARK UNBOUND:                -0.550
REMARK SMILES O=C([O-])CCCCCCCC(=O)[O-]
REMARK SMILES IDX 7 1 6 2 5 3 4 4 2 5 1 6 3 7 8 8 9 9 10 10 11 11 12 12 13 13
REMARK H PARENT
REMARK Flexibility Score: inf
ROOT
ATOM      1  C   UNL     1       9.918  36.075  -1.371  1.00  0.00     0.000 C 
ENDROOT
BRANCH   1   2
ATOM      2  C   UNL     1      10.561  34.803  -0.795  1.00  0.00     0.000 C 
BRANCH   2   3
ATOM      3  C   UNL     1       9.505  33.895  -0.155  1.00  0.00     0.006 C 
BRANCH   3   4
ATOM      4  C   UNL     1       9.215  32.680  -1.039  1.00  0.00     0.053 C 
BRANCH   4   5
ATOM      5  C   UNL     1      10.054  31.514  -0.619  1.00  0.00     0.041 C 
ATOM      6  O   UNL     1      11.021  31.140  -1.332  1.00  0.00    -0.550 OA
ATOM      7  O   UNL     1       9.738  30.810   0.536  1.00  0.00    -0.550 OA
ENDBRANCH   4   5
ENDBRANCH   3   4
ENDBRANCH   2   3
ENDBRANCH   1   2
BRANCH   1   8
ATOM      8  C   UNL     1       8.745  36.583  -0.519  1.00  0.00     0.000 C 
BRANCH   8   9
ATOM      9  C   UNL     1       7.496  36.897  -1.357  1.00  0.00     0.006 C 
BRANCH   9  10
ATOM     10  C   UNL     1       7.301  35.853  -2.460  1.00  0.00     0.053 C 
BRANCH  10  11
ATOM     11  C   UNL     1       6.332  34.801  -2.022  1.00  0.00     0.041 C 
ATOM     12  O   UNL     1       5.607  34.989  -1.009  1.00  0.00    -0.550 OA
ATOM     13  O   UNL     1       6.263  33.592  -2.703  1.00  0.00    -0.550 OA
ENDBRANCH  10  11
ENDBRANCH   9  10
ENDBRANCH   8   9
ENDBRANCH   1   8
TORSDOF 8
ENDMDL
MODEL 4
REMARK VINA RESULT:    -3.867      2.622      3.447
REMARK INTER + INTRA:          -6.226
REMARK INTER:                  -5.597
REMARK INTRA:                  -0.628
REMARK UNBOUND:                -0.550
REMARK SMILES O=C([O-])CCCCCCCC(=O)[O-]
REMARK SMILES IDX 7 1 6 2 5 3 4 4 2 5 1 6 3 7 8 8 9 9 10 10 11 11 12 12 13 13
REMARK H PARENT
REMARK Flexibility Score: inf
ROOT
ATOM      1  C   UNL     1       8.193  35.107   0.375  1.00  0.00     0.000 C 
ENDROOT
BRANCH   1   2
ATOM      2  C   UNL     1       7.958  36.617   0.214  1.00  0.00     0.000 C 
BRANCH   2   3
ATOM      3  C   UNL     1       8.595  37.137  -1.080  1.00  0.00     0.006 C 
BRANCH   3   4
ATOM      4  C   UNL     1      10.103  36.881  -1.091  1.00  0.00     0.053 C 
BRANCH   4   5
ATOM      5  C   UNL     1      10.835  38.030  -0.472  1.00  0.00     0.041 C 
ATOM      6  O   UNL     1      11.067  39.069  -1.144  1.00  0.00    -0.550 OA
ATOM      7  O   UNL     1      11.304  37.935   0.832  1.00  0.00    -0.550 OA
ENDBRANCH   4   5
ENDBRANCH   3   4
ENDBRANCH   2   3
ENDBRANCH   1   2
BRANCH   1   8
ATOM      8  C   UNL     1       7.517  34.281  -0.731  1.00  0.00     0.000 C 
BRANCH   8   9
ATOM      9  C   UNL     1       8.509  33.393  -1.498  1.00  0.00     0.006 C 
BRANCH   9  10
ATOM     10  C   UNL     1       9.758  33.115  -0.657  1.00  0.00     0.053 C 
BRANCH  10  11
ATOM     11  C   UNL     1      10.060  31.651  -0.633  1.00  0.00     0.041 C 
ATOM     12  O   UNL     1      10.595  31.097  -1.631  1.00  0.00    -0.550 OA
ATOM     13  O   UNL     1       9.705  30.886   0.471  1.00  0.00    -0.550 OA
ENDBRANCH  10  11
ENDBRANCH   9  10
ENDBRANCH   8   9
ENDBRANCH   1   8
TORSDOF 8
ENDMDL
MODEL 5
REMARK VINA RESULT:    -3.855      3.442      4.339
REMARK INTER + INTRA:          -6.208
REMARK INTER:                  -5.588
REMARK INTRA:                  -0.620
REMARK UNBOUND:                -0.550
REMARK SMILES O=C([O-])CCCCCCCC(=O)[O-]
REMARK SMILES IDX 7 1 6 2 5 3 4 4 2 5 1 6 3 7 8 8 9 9 10 10 11 11 12 12 13 13
REMARK H PARENT
REMARK Flexibility Score: inf
ROOT
ATOM      1  C   UNL     1       7.367  34.881  -0.083  1.00  0.00     0.000 C 
ENDROOT
BRANCH   1   2
ATOM      2  C   UNL     1       8.677  34.321   0.495  1.00  0.00     0.000 C 
BRANCH   2   3
ATOM      3  C   UNL     1       9.624  33.875  -0.626  1.00  0.00     0.006 C 
BRANCH   3   4
ATOM      4  C   UNL     1       9.238  32.492  -1.153  1.00  0.00     0.053 C 
BRANCH   4   5
ATOM      5  C   UNL     1      10.091  31.434  -0.525  1.00  0.00     0.041 C 
ATOM      6  O   UNL     1       9.720  30.871   0.538  1.00  0.00    -0.550 OA
ATOM      7  O   UNL     1      11.318  31.106  -1.086  1.00  0.00    -0.550 OA
ENDBRANCH   4   5
ENDBRANCH   3   4
ENDBRANCH   2   3
ENDBRANCH   1   2
BRANCH   1   8
ATOM      8  C   UNL     1       7.592  35.740  -1.337  1.00  0.00     0.000 C 
BRANCH   8   9
ATOM      9  C   UNL     1       6.544  35.479  -2.430  1.00  0.00     0.006 C 
BRANCH   9  10
ATOM     10  C   UNL     1       5.986  34.057  -2.324  1.00  0.00     0.053 C 
BRANCH  10  11
ATOM     11  C   UNL     1       4.493  34.085  -2.233  1.00  0.00     0.041 C 
ATOM     12  O   UNL     1       3.817  33.093  -2.616  1.00  0.00    -0.550 OA
ATOM     13  O   UNL     1       3.846  35.224  -1.772  1.00  0.00    -0.550 OA
ENDBRANCH  10  11
ENDBRANCH   9  10
ENDBRANCH   8   9
ENDBRANCH   1   8
TORSDOF 8
ENDMDL
MODEL 6
REMARK VINA RESULT:    -3.853      1.322      5.573
REMARK INTER + INTRA:          -6.206
REMARK INTER:                  -5.574
REMARK INTRA:                  -0.632
REMARK UNBOUND:                -0.550
REMARK SMILES O=C([O-])CCCCCCCC(=O)[O-]
REMARK SMILES IDX 7 1 6 2 5 3 4 4 2 5 1 6 3 7 8 8 9 9 10 10 11 11 12 12 13 13
REMARK H PARENT
REMARK Flexibility Score: inf
ROOT
ATOM      1  C   UNL     1       8.769  33.825  -0.307  1.00  0.00     0.000 C 
ENDROOT
BRANCH   1   2
ATOM      2  C   UNL     1       8.953  33.385  -1.768  1.00  0.00     0.000 C 
BRANCH   2   3
ATOM      3  C   UNL     1       7.607  33.335  -2.500  1.00  0.00     0.006 C 
BRANCH   3   4
ATOM      4  C   UNL     1       6.528  34.089  -1.718  1.00  0.00     0.053 C 
BRANCH   4   5
ATOM      5  C   UNL     1       6.059  35.282  -2.490  1.00  0.00     0.041 C 
ATOM      6  O   UNL     1       6.894  36.077  -2.996  1.00  0.00    -0.550 OA
ATOM      7  O   UNL     1       4.701  35.544  -2.609  1.00  0.00    -0.550 OA
ENDBRANCH   4   5
ENDBRANCH   3   4
ENDBRANCH   2   3
ENDBRANCH   1   2
BRANCH   1   8
ATOM      8  C   UNL     1       9.659  35.021   0.068  1.00  0.00     0.000 C 
BRANCH   8   9
ATOM      9  C   UNL     1       9.919  35.960  -1.119  1.00  0.00     0.006 C 
BRANCH   9  10
ATOM     10  C   UNL     1       9.706  37.422  -0.717  1.00  0.00     0.053 C 
BRANCH  10  11
ATOM     11  C   UNL     1      11.013  38.148  -0.664  1.00  0.00     0.041 C 
ATOM     12  O   UNL     1      11.124  39.291  -1.181  1.00  0.00    -0.550 OA
ATOM     13  O   UNL     1      12.122  37.541  -0.088  1.00  0.00    -0.550 OA
ENDBRANCH  10  11
ENDBRANCH   9  10
ENDBRANCH   8   9
ENDBRANCH   1   8
TORSDOF 8
ENDMDL
MODEL 7
REMARK VINA RESULT:    -3.820      1.379      5.776
REMARK INTER + INTRA:          -6.157
REMARK INTER:                  -5.582
REMARK INTRA:                  -0.576
REMARK UNBOUND:                -0.550
REMARK SMILES O=C([O-])CCCCCCCC(=O)[O-]
REMARK SMILES IDX 7 1 6 2 5 3 4 4 2 5 1 6 3 7 8 8 9 9 10 10 11 11 12 12 13 13
REMARK H PARENT
REMARK Flexibility Score: inf
ROOT
ATOM      1  C   UNL     1       8.835  33.247  -1.373  1.00  0.00     0.000 C 
ENDROOT
BRANCH   1   2
ATOM      2  C   UNL     1       7.537  33.439  -2.171  1.00  0.00     0.000 C 
BRANCH   2   3
ATOM      3  C   UNL     1       6.570  34.373  -1.433  1.00  0.00     0.006 C 
BRANCH   3   4
ATOM      4  C   UNL     1       5.517  34.940  -2.388  1.00  0.00     0.053 C 
BRANCH   4   5
ATOM      5  C   UNL     1       4.201  34.256  -2.182  1.00  0.00     0.041 C 
ATOM      6  O   UNL     1       3.270  34.844  -1.574  1.00  0.00    -0.550 OA
ATOM      7  O   UNL     1       4.021  32.950  -2.619  1.00  0.00    -0.550 OA
ENDBRANCH   4   5
ENDBRANCH   3   4
ENDBRANCH   2   3
ENDBRANCH   1   2
BRANCH   1   8
ATOM      8  C   UNL     1       8.815  33.983  -0.024  1.00  0.00     0.000 C 
BRANCH   8   9
ATOM      9  C   UNL     1       9.965  34.993   0.117  1.00  0.00     0.006 C 
BRANCH   9  10
ATOM     10  C   UNL     1      10.184  35.759  -1.190  1.00  0.00     0.053 C 
BRANCH  10  11
ATOM     11  C   UNL     1       9.712  37.172  -1.056  1.00  0.00     0.041 C 
ATOM     12  O   UNL     1      10.539  38.121  -1.075  1.00  0.00    -0.550 OA
ATOM     13  O   UNL     1       8.362  37.439  -0.860  1.00  0.00    -0.550 OA
ENDBRANCH  10  11
ENDBRANCH   9  10
ENDBRANCH   8   9
ENDBRANCH   1   8
TORSDOF 8
ENDMDL
MODEL 8
REMARK VINA RESULT:    -3.808      1.264      5.724
REMARK INTER + INTRA:          -6.139
REMARK INTER:                  -5.676
REMARK INTRA:                  -0.462
REMARK UNBOUND:                -0.550
REMARK SMILES O=C([O-])CCCCCCCC(=O)[O-]
REMARK SMILES IDX 7 1 6 2 5 3 4 4 2 5 1 6 3 7 8 8 9 9 10 10 11 11 12 12 13 13
REMARK H PARENT
REMARK Flexibility Score: inf
ROOT
ATOM      1  C   UNL     1       8.505  33.571  -0.622  1.00  0.00     0.000 C 
ENDROOT
BRANCH   1   2
ATOM      2  C   UNL     1       8.535  33.182  -2.109  1.00  0.00     0.000 C 
BRANCH   2   3
ATOM      3  C   UNL     1       7.133  33.261  -2.725  1.00  0.00     0.006 C 
BRANCH   3   4
ATOM      4  C   UNL     1       6.469  34.604  -2.409  1.00  0.00     0.053 C 
BRANCH   4   5
ATOM      5  C   UNL     1       5.096  34.391  -1.854  1.00  0.00     0.041 C 
ATOM      6  O   UNL     1       4.300  33.597  -2.420  1.00  0.00    -0.550 OA
ATOM      7  O   UNL     1       4.678  35.106  -0.739  1.00  0.00    -0.550 OA
ENDBRANCH   4   5
ENDBRANCH   3   4
ENDBRANCH   2   3
ENDBRANCH   1   2
BRANCH   1   8
ATOM      8  C   UNL     1       9.692  34.459  -0.218  1.00  0.00     0.000 C 
BRANCH   8   9
ATOM      9  C   UNL     1       9.983  35.563  -1.247  1.00  0.00     0.006 C 
BRANCH   9  10
ATOM     10  C   UNL     1      10.879  36.650  -0.646  1.00  0.00     0.053 C 
BRANCH  10  11
ATOM     11  C   UNL     1      10.254  37.998  -0.816  1.00  0.00     0.041 C 
ATOM     12  O   UNL     1       9.005  38.134  -0.722  1.00  0.00    -0.550 OA
ATOM     13  O   UNL     1      11.045  39.097  -1.127  1.00  0.00    -0.550 OA
ENDBRANCH  10  11
ENDBRANCH   9  10
ENDBRANCH   8   9
ENDBRANCH   1   8
TORSDOF 8
ENDMDL
MODEL 9
REMARK VINA RESULT:    -3.747      2.297      5.775
REMARK INTER + INTRA:          -6.050
REMARK INTER:                  -5.457
REMARK INTRA:                  -0.593
REMARK UNBOUND:                -0.550
REMARK SMILES O=C([O-])CCCCCCCC(=O)[O-]
REMARK SMILES IDX 7 1 6 2 5 3 4 4 2 5 1 6 3 7 8 8 9 9 10 10 11 11 12 12 13 13
REMARK H PARENT
REMARK Flexibility Score: inf
ROOT
ATOM      1  C   UNL     1       7.860  35.430   0.578  1.00  0.00     0.000 C 
ENDROOT
BRANCH   1   2
ATOM      2  C   UNL     1       7.030  34.821  -0.563  1.00  0.00     0.000 C 
BRANCH   2   3
ATOM      3  C   UNL     1       7.790  33.678  -1.246  1.00  0.00     0.006 C 
BRANCH   3   4
ATOM      4  C   UNL     1       8.994  33.241  -0.408  1.00  0.00     0.053 C 
BRANCH   4   5
ATOM      5  C   UNL     1       9.719  32.117  -1.078  1.00  0.00     0.041 C 
ATOM      6  O   UNL     1       9.985  32.179  -2.307  1.00  0.00    -0.550 OA
ATOM      7  O   UNL     1      10.059  30.979  -0.357  1.00  0.00    -0.550 OA
ENDBRANCH   4   5
ENDBRANCH   3   4
ENDBRANCH   2   3
ENDBRANCH   1   2
BRANCH   1   8
ATOM      8  C   UNL     1       7.979  36.958   0.474  1.00  0.00     0.000 C 
BRANCH   8   9
ATOM      9  C   UNL     1       8.626  37.414  -0.843  1.00  0.00     0.006 C 
BRANCH   9  10
ATOM     10  C   UNL     1      10.060  36.890  -0.958  1.00  0.00     0.053 C 
BRANCH  10  11
ATOM     11  C   UNL     1      11.041  37.971  -0.634  1.00  0.00     0.041 C 
ATOM     12  O   UNL     1      10.796  39.165  -0.952  1.00  0.00    -0.550 OA
ATOM     13  O   UNL     1      12.249  37.654  -0.025  1.00  0.00    -0.550 OA
ENDBRANCH  10  11
ENDBRANCH   9  10
ENDBRANCH   8   9
ENDBRANCH   1   8
TORSDOF 8
ENDMDL
