MODEL 1
REMARK VINA RESULT:    -0.610      0.000      0.000
REMARK INTER + INTRA:          -0.828
REMARK INTER:                  -0.752
REMARK INTRA:                  -0.076
REMARK UNBOUND:                -0.076
REMARK SMILES O=c1c(O)c(-c2cc(O)c(O)c(O)c2)oc2cc(O)cc(O)c12
REMARK SMILES IDX 5 1 3 2 2 3 1 4 23 5 21 6 20 7 18 8 17 9 16 10 15 11 6 12
REMARK SMILES IDX 7 13 8 14 14 15 10 16 12 17 9 18 11 20 13 22 4 24 22 26
REMARK SMILES IDX 19 28
REMARK H PARENT 9 19 11 21 13 23 4 25 22 27 19 29
REMARK Flexibility Score: inf
ROOT
ATOM      1  C   UNL     1      -4.222 -12.664  31.676  1.00  0.00     0.180 A 
ATOM      2  C   UNL     1      -2.880 -12.270  31.516  1.00  0.00     0.208 A 
ATOM      3  C   UNL     1      -2.267 -12.442  30.264  1.00  0.00     0.238 A 
ATOM      4  O   UNL     1      -1.069 -12.083  30.106  1.00  0.00    -0.285 OA
ATOM      5  C   UNL     1      -2.996 -13.022  29.205  1.00  0.00     0.111 A 
ATOM      6  C   UNL     1      -2.451 -13.235  27.916  1.00  0.00     0.134 A 
ATOM      7  C   UNL     1      -3.238 -13.826  26.916  1.00  0.00     0.093 A 
ATOM      8  C   UNL     1      -4.555 -14.209  27.180  1.00  0.00     0.123 A 
ATOM      9  C   UNL     1      -5.099 -14.002  28.453  1.00  0.00     0.094 A 
ATOM     10  C   UNL     1      -4.331 -13.412  29.461  1.00  0.00     0.146 A 
ATOM     11  O   UNL     1      -4.873 -13.222  30.658  1.00  0.00    -0.452 OA
ENDROOT
BRANCH   1  12
ATOM     12  C   UNL     1      -4.944 -12.498  32.958  1.00  0.00     0.029 A 
ATOM     13  C   UNL     1      -4.978 -11.261  33.622  1.00  0.00     0.062 A 
ATOM     14  C   UNL     1      -5.686 -11.116  34.823  1.00  0.00     0.162 A 
ATOM     15  C   UNL     1      -5.657 -13.581  33.494  1.00  0.00     0.062 A 
ATOM     16  C   UNL     1      -6.378 -12.212  35.366  1.00  0.00     0.200 A 
ATOM     17  C   UNL     1      -6.364 -13.446  34.693  1.00  0.00     0.162 A 
BRANCH  14  18
ATOM     18  O   UNL     1      -5.707  -9.885  35.477  1.00  0.00    -0.504 OA
ATOM     19  H   UNL     1      -6.537  -9.549  35.952  1.00  0.00     0.293 HD
ENDBRANCH  14  18
BRANCH  16  20
ATOM     20  O   UNL     1      -7.084 -12.088  36.562  1.00  0.00    -0.502 OA
ATOM     21  H   UNL     1      -7.620 -11.258  36.789  1.00  0.00     0.293 HD
ENDBRANCH  16  20
BRANCH  17  22
ATOM     22  O   UNL     1      -7.049 -14.551  35.200  1.00  0.00    -0.504 OA
ATOM     23  H   UNL     1      -7.505 -15.225  34.597  1.00  0.00     0.293 HD
ENDBRANCH  17  22
ENDBRANCH   1  12
BRANCH   2  24
ATOM     24  O   UNL     1      -2.165 -11.744  32.594  1.00  0.00    -0.502 OA
ATOM     25  H   UNL     1      -1.342 -11.168  32.471  1.00  0.00     0.293 HD
ENDBRANCH   2  24
BRANCH   6  26
ATOM     26  O   UNL     1      -1.138 -12.863  27.621  1.00  0.00    -0.507 OA
ATOM     27  H   UNL     1      -0.888 -12.452  26.729  1.00  0.00     0.293 HD
ENDBRANCH   6  26
BRANCH   8  28
ATOM     28  O   UNL     1      -5.315 -14.796  26.171  1.00  0.00    -0.508 OA
ATOM     29  H   UNL     1      -6.072 -15.435  26.381  1.00  0.00     0.293 HD
ENDBRANCH   8  28
TORSDOF 7
ENDMDL
MODEL 2
REMARK VINA RESULT:    -0.457      1.937      3.807
REMARK INTER + INTRA:          -0.639
REMARK INTER:                  -0.957
REMARK INTRA:                   0.318
REMARK UNBOUND:                -0.076
REMARK SMILES O=c1c(O)c(-c2cc(O)c(O)c(O)c2)oc2cc(O)cc(O)c12
REMARK SMILES IDX 5 1 3 2 2 3 1 4 23 5 21 6 20 7 18 8 17 9 16 10 15 11 6 12
REMARK SMILES IDX 7 13 8 14 14 15 10 16 12 17 9 18 11 20 13 22 4 24 22 26
REMARK SMILES IDX 19 28
REMARK H PARENT 9 19 11 21 13 23 4 25 22 27 19 29
REMARK Flexibility Score: inf
ROOT
ATOM      1  C   UNL     1      -5.209 -12.753  33.277  1.00  0.00     0.180 A 
ATOM      2  C   UNL     1      -5.414 -13.844  32.410  1.00  0.00     0.208 A 
ATOM      3  C   UNL     1      -4.625 -13.947  31.253  1.00  0.00     0.238 A 
ATOM      4  O   UNL     1      -4.792 -14.926  30.474  1.00  0.00    -0.285 OA
ATOM      5  C   UNL     1      -3.666 -12.952  30.971  1.00  0.00     0.111 A 
ATOM      6  C   UNL     1      -2.836 -12.980  29.825  1.00  0.00     0.134 A 
ATOM      7  C   UNL     1      -1.911 -11.947  29.611  1.00  0.00     0.093 A 
ATOM      8  C   UNL     1      -1.801 -10.890  30.517  1.00  0.00     0.123 A 
ATOM      9  C   UNL     1      -2.619 -10.857  31.652  1.00  0.00     0.094 A 
ATOM     10  C   UNL     1      -3.545 -11.878  31.884  1.00  0.00     0.146 A 
ATOM     11  O   UNL     1      -4.306 -11.826  32.971  1.00  0.00    -0.452 OA
ENDROOT
BRANCH   1  12
ATOM     12  C   UNL     1      -5.987 -12.584  34.525  1.00  0.00     0.029 A 
ATOM     13  C   UNL     1      -6.640 -13.670  35.132  1.00  0.00     0.062 A 
ATOM     14  C   UNL     1      -7.352 -13.496  36.327  1.00  0.00     0.162 A 
ATOM     15  C   UNL     1      -6.026 -11.329  35.149  1.00  0.00     0.062 A 
ATOM     16  C   UNL     1      -7.406 -12.229  36.933  1.00  0.00     0.200 A 
ATOM     17  C   UNL     1      -6.736 -11.145  36.340  1.00  0.00     0.162 A 
BRANCH  14  18
ATOM     18  O   UNL     1      -8.002 -14.579  36.917  1.00  0.00    -0.504 OA
ATOM     19  H   UNL     1      -8.581 -15.211  36.376  1.00  0.00     0.293 HD
ENDBRANCH  14  18
BRANCH  16  20
ATOM     20  O   UNL     1      -8.113 -12.037  38.120  1.00  0.00    -0.502 OA
ATOM     21  H   UNL     1      -7.733 -12.294  39.023  1.00  0.00     0.293 HD
ENDBRANCH  16  20
BRANCH  17  22
ATOM     22  O   UNL     1      -6.763  -9.877  36.922  1.00  0.00    -0.504 OA
ATOM     23  H   UNL     1      -7.100  -9.062  36.423  1.00  0.00     0.293 HD
ENDBRANCH  17  22
ENDBRANCH   1  12
BRANCH   2  24
ATOM     24  O   UNL     1      -6.404 -14.789  32.686  1.00  0.00    -0.502 OA
ATOM     25  H   UNL     1      -7.282 -14.543  33.127  1.00  0.00     0.293 HD
ENDBRANCH   2  24
BRANCH   6  26
ATOM     26  O   UNL     1      -2.922 -14.022  28.901  1.00  0.00    -0.507 OA
ATOM     27  H   UNL     1      -2.361 -14.033  28.057  1.00  0.00     0.293 HD
ENDBRANCH   6  26
BRANCH   8  28
ATOM     28  O   UNL     1      -0.875  -9.876  30.281  1.00  0.00    -0.508 OA
ATOM     29  H   UNL     1      -0.973  -8.960  30.703  1.00  0.00     0.293 HD
ENDBRANCH   8  28
TORSDOF 7
ENDMDL
MODEL 3
REMARK VINA RESULT:    -0.312      0.082      1.755
REMARK INTER + INTRA:          -0.461
REMARK INTER:                  -0.500
REMARK INTRA:                   0.039
REMARK UNBOUND:                -0.076
REMARK SMILES O=c1c(O)c(-c2cc(O)c(O)c(O)c2)oc2cc(O)cc(O)c12
REMARK SMILES IDX 5 1 3 2 2 3 1 4 23 5 21 6 20 7 18 8 17 9 16 10 15 11 6 12
REMARK SMILES IDX 7 13 8 14 14 15 10 16 12 17 9 18 11 20 13 22 4 24 22 26
REMARK SMILES IDX 19 28
REMARK H PARENT 9 19 11 21 13 23 4 25 22 27 19 29
REMARK Flexibility Score: inf
ROOT
ATOM      1  C   UNL     1      -4.263 -12.665  31.656  1.00  0.00     0.180 A 
ATOM      2  C   UNL     1      -2.918 -12.272  31.509  1.00  0.00     0.208 A 
ATOM      3  C   UNL     1      -2.293 -12.443  30.264  1.00  0.00     0.238 A 
ATOM      4  O   UNL     1      -1.093 -12.085  30.117  1.00  0.00    -0.285 OA
ATOM      5  C   UNL     1      -3.012 -13.022  29.197  1.00  0.00     0.111 A 
ATOM      6  C   UNL     1      -2.454 -13.234  27.913  1.00  0.00     0.134 A 
ATOM      7  C   UNL     1      -3.232 -13.824  26.905  1.00  0.00     0.093 A 
ATOM      8  C   UNL     1      -4.552 -14.207  27.156  1.00  0.00     0.123 A 
ATOM      9  C   UNL     1      -5.108 -14.000  28.423  1.00  0.00     0.094 A 
ATOM     10  C   UNL     1      -4.350 -13.411  29.440  1.00  0.00     0.146 A 
ATOM     11  O   UNL     1      -4.903 -13.221  30.631  1.00  0.00    -0.452 OA
ENDROOT
BRANCH   1  12
ATOM     12  C   UNL     1      -4.996 -12.499  32.931  1.00  0.00     0.029 A 
ATOM     13  C   UNL     1      -5.733 -13.555  33.492  1.00  0.00     0.062 A 
ATOM     14  C   UNL     1      -6.402 -13.388  34.712  1.00  0.00     0.162 A 
ATOM     15  C   UNL     1      -4.908 -11.283  33.624  1.00  0.00     0.062 A 
ATOM     16  C   UNL     1      -6.329 -12.158  35.389  1.00  0.00     0.200 A 
ATOM     17  C   UNL     1      -5.575 -11.106  34.841  1.00  0.00     0.162 A 
BRANCH  14  18
ATOM     18  O   UNL     1      -7.136 -14.440  35.257  1.00  0.00    -0.504 OA
ATOM     19  H   UNL     1      -8.058 -14.681  34.912  1.00  0.00     0.293 HD
ENDBRANCH  14  18
BRANCH  16  20
ATOM     20  O   UNL     1      -6.992 -11.972  36.603  1.00  0.00    -0.502 OA
ATOM     21  H   UNL     1      -7.442 -11.097  36.843  1.00  0.00     0.293 HD
ENDBRANCH  16  20
BRANCH  17  22
ATOM     22  O   UNL     1      -5.474  -9.877  35.493  1.00  0.00    -0.504 OA
ATOM     23  H   UNL     1      -5.413  -9.001  34.987  1.00  0.00     0.293 HD
ENDBRANCH  17  22
ENDBRANCH   1  12
BRANCH   2  24
ATOM     24  O   UNL     1      -2.214 -11.747  32.595  1.00  0.00    -0.502 OA
ATOM     25  H   UNL     1      -1.559 -10.981  32.498  1.00  0.00     0.293 HD
ENDBRANCH   2  24
BRANCH   6  26
ATOM     26  O   UNL     1      -1.139 -12.864  27.631  1.00  0.00    -0.507 OA
ATOM     27  H   UNL     1      -0.537 -12.455  28.336  1.00  0.00     0.293 HD
ENDBRANCH   6  26
BRANCH   8  28
ATOM     28  O   UNL     1      -5.302 -14.792  26.139  1.00  0.00    -0.508 OA
ATOM     29  H   UNL     1      -6.080 -14.307  25.707  1.00  0.00     0.293 HD
ENDBRANCH   8  28
TORSDOF 7
ENDMDL
MODEL 4
REMARK VINA RESULT:    -0.176      1.536      3.719
REMARK INTER + INTRA:          -0.294
REMARK INTER:                  -0.137
REMARK INTRA:                  -0.156
REMARK UNBOUND:                -0.076
REMARK SMILES O=c1c(O)c(-c2cc(O)c(O)c(O)c2)oc2cc(O)cc(O)c12
REMARK SMILES IDX 5 1 3 2 2 3 1 4 23 5 21 6 20 7 18 8 17 9 16 10 15 11 6 12
REMARK SMILES IDX 7 13 8 14 14 15 10 16 12 17 9 18 11 20 13 22 4 24 22 26
REMARK SMILES IDX 19 28
REMARK H PARENT 9 19 11 21 13 23 4 25 22 27 19 29
REMARK Flexibility Score: inf
ROOT
ATOM      1  C   UNL     1      -4.033 -12.902  32.151  1.00  0.00     0.180 A 
ATOM      2  C   UNL     1      -4.426 -13.427  30.905  1.00  0.00     0.208 A 
ATOM      3  C   UNL     1      -3.450 -13.629  29.916  1.00  0.00     0.238 A 
ATOM      4  O   UNL     1      -3.788 -14.109  28.800  1.00  0.00    -0.285 OA
ATOM      5  C   UNL     1      -2.108 -13.286  30.181  1.00  0.00     0.111 A 
ATOM      6  C   UNL     1      -1.066 -13.454  29.238  1.00  0.00     0.134 A 
ATOM      7  C   UNL     1       0.244 -13.079  29.574  1.00  0.00     0.093 A 
ATOM      8  C   UNL     1       0.531 -12.540  30.830  1.00  0.00     0.123 A 
ATOM      9  C   UNL     1      -0.495 -12.372  31.766  1.00  0.00     0.094 A 
ATOM     10  C   UNL     1      -1.807 -12.741  31.451  1.00  0.00     0.146 A 
ATOM     11  O   UNL     1      -2.761 -12.575  32.359  1.00  0.00    -0.452 OA
ENDROOT
BRANCH   1  12
ATOM     12  C   UNL     1      -5.000 -12.677  33.250  1.00  0.00     0.029 A 
ATOM     13  C   UNL     1      -5.764 -13.731  33.778  1.00  0.00     0.062 A 
ATOM     14  C   UNL     1      -6.656 -13.505  34.835  1.00  0.00     0.162 A 
ATOM     15  C   UNL     1      -5.115 -11.400  33.817  1.00  0.00     0.062 A 
ATOM     16  C   UNL     1      -6.783 -12.216  35.381  1.00  0.00     0.200 A 
ATOM     17  C   UNL     1      -6.005 -11.163  34.870  1.00  0.00     0.162 A 
BRANCH  14  18
ATOM     18  O   UNL     1      -7.414 -14.557  35.347  1.00  0.00    -0.504 OA
ATOM     19  H   UNL     1      -6.997 -15.451  35.575  1.00  0.00     0.293 HD
ENDBRANCH  14  18
BRANCH  16  20
ATOM     20  O   UNL     1      -7.670 -11.971  36.430  1.00  0.00    -0.502 OA
ATOM     21  H   UNL     1      -8.593 -11.585  36.277  1.00  0.00     0.293 HD
ENDBRANCH  16  20
BRANCH  17  22
ATOM     22  O   UNL     1      -6.101  -9.875  35.397  1.00  0.00    -0.504 OA
ATOM     23  H   UNL     1      -6.389  -9.704  36.353  1.00  0.00     0.293 HD
ENDBRANCH  17  22
ENDBRANCH   1  12
BRANCH   2  24
ATOM     24  O   UNL     1      -5.769 -13.712  30.651  1.00  0.00    -0.502 OA
ATOM     25  H   UNL     1      -6.478 -12.991  30.601  1.00  0.00     0.293 HD
ENDBRANCH   2  24
BRANCH   6  26
ATOM     26  O   UNL     1      -1.319 -13.989  27.974  1.00  0.00    -0.507 OA
ATOM     27  H   UNL     1      -2.210 -13.859  27.509  1.00  0.00     0.293 HD
ENDBRANCH   6  26
BRANCH   8  28
ATOM     28  O   UNL     1       1.839 -12.175  31.139  1.00  0.00    -0.508 OA
ATOM     29  H   UNL     1       2.623 -12.485  30.576  1.00  0.00     0.293 HD
ENDBRANCH   8  28
TORSDOF 7
ENDMDL
MODEL 5
REMARK VINA RESULT:     0.279      2.700      5.415
REMARK INTER + INTRA:           0.268
REMARK INTER:                   0.582
REMARK INTRA:                  -0.314
REMARK UNBOUND:                -0.076
REMARK SMILES O=c1c(O)c(-c2cc(O)c(O)c(O)c2)oc2cc(O)cc(O)c12
REMARK SMILES IDX 5 1 3 2 2 3 1 4 23 5 21 6 20 7 18 8 17 9 16 10 15 11 6 12
REMARK SMILES IDX 7 13 8 14 14 15 10 16 12 17 9 18 11 20 13 22 4 24 22 26
REMARK SMILES IDX 19 28
REMARK H PARENT 9 19 11 21 13 23 4 25 22 27 19 29
REMARK Flexibility Score: inf
ROOT
ATOM      1  C   UNL     1      -4.397 -14.054  30.342  1.00  0.00     0.180 A 
ATOM      2  C   UNL     1      -4.493 -13.235  31.483  1.00  0.00     0.208 A 
ATOM      3  C   UNL     1      -3.389 -12.446  31.846  1.00  0.00     0.238 A 
ATOM      4  O   UNL     1      -3.467 -11.700  32.860  1.00  0.00    -0.285 OA
ATOM      5  C   UNL     1      -2.207 -12.506  31.079  1.00  0.00     0.111 A 
ATOM      6  C   UNL     1      -1.050 -11.748  31.381  1.00  0.00     0.134 A 
ATOM      7  C   UNL     1       0.091 -11.869  30.574  1.00  0.00     0.093 A 
ATOM      8  C   UNL     1       0.099 -12.733  29.475  1.00  0.00     0.123 A 
ATOM      9  C   UNL     1      -1.042 -13.484  29.173  1.00  0.00     0.094 A 
ATOM     10  C   UNL     1      -2.190 -13.375  29.964  1.00  0.00     0.146 A 
ATOM     11  O   UNL     1      -3.260 -14.096  29.652  1.00  0.00    -0.452 OA
ENDROOT
BRANCH   1  12
ATOM     12  C   UNL     1      -5.522 -14.900  29.883  1.00  0.00     0.029 A 
ATOM     13  C   UNL     1      -6.309 -14.533  28.778  1.00  0.00     0.062 A 
ATOM     14  C   UNL     1      -7.356 -15.357  28.344  1.00  0.00     0.162 A 
ATOM     15  C   UNL     1      -5.775 -16.120  30.526  1.00  0.00     0.062 A 
ATOM     16  C   UNL     1      -7.617 -16.568  29.009  1.00  0.00     0.200 A 
ATOM     17  C   UNL     1      -6.819 -16.948  30.102  1.00  0.00     0.162 A 
BRANCH  14  18
ATOM     18  O   UNL     1      -8.134 -14.981  27.250  1.00  0.00    -0.504 OA
ATOM     19  H   UNL     1      -7.727 -14.830  26.335  1.00  0.00     0.293 HD
ENDBRANCH  14  18
BRANCH  16  20
ATOM     20  O   UNL     1      -8.658 -17.399  28.593  1.00  0.00    -0.502 OA
ATOM     21  H   UNL     1      -9.492 -17.539  29.150  1.00  0.00     0.293 HD
ENDBRANCH  16  20
BRANCH  17  22
ATOM     22  O   UNL     1      -7.047 -18.148  30.777  1.00  0.00    -0.504 OA
ATOM     23  H   UNL     1      -7.926 -18.348  31.239  1.00  0.00     0.293 HD
ENDBRANCH  17  22
ENDBRANCH   1  12
BRANCH   2  24
ATOM     24  O   UNL     1      -5.657 -13.231  32.254  1.00  0.00    -0.502 OA
ATOM     25  H   UNL     1      -5.933 -14.020  32.825  1.00  0.00     0.293 HD
ENDBRANCH   2  24
BRANCH   6  26
ATOM     26  O   UNL     1      -1.025 -10.877  32.471  1.00  0.00    -0.507 OA
ATOM     27  H   UNL     1      -1.865 -10.648  32.989  1.00  0.00     0.293 HD
ENDBRANCH   6  26
BRANCH   8  28
ATOM     28  O   UNL     1       1.245 -12.836  28.691  1.00  0.00    -0.508 OA
ATOM     29  H   UNL     1       2.048 -13.375  28.993  1.00  0.00     0.293 HD
ENDBRANCH   8  28
TORSDOF 7
ENDMDL
MODEL 6
REMARK VINA RESULT:     0.598      2.501      5.988
REMARK INTER + INTRA:           0.662
REMARK INTER:                   0.840
REMARK INTRA:                  -0.178
REMARK UNBOUND:                -0.076
REMARK SMILES O=c1c(O)c(-c2cc(O)c(O)c(O)c2)oc2cc(O)cc(O)c12
REMARK SMILES IDX 5 1 3 2 2 3 1 4 23 5 21 6 20 7 18 8 17 9 16 10 15 11 6 12
REMARK SMILES IDX 7 13 8 14 14 15 10 16 12 17 9 18 11 20 13 22 4 24 22 26
REMARK SMILES IDX 19 28
REMARK H PARENT 9 19 11 21 13 23 4 25 22 27 19 29
REMARK Flexibility Score: inf
ROOT
ATOM      1  C   UNL     1      -4.847 -13.642  29.871  1.00  0.00     0.180 A 
ATOM      2  C   UNL     1      -3.799 -13.231  29.024  1.00  0.00     0.208 A 
ATOM      3  C   UNL     1      -2.942 -12.205  29.454  1.00  0.00     0.238 A 
ATOM      4  O   UNL     1      -1.994 -11.837  28.709  1.00  0.00    -0.285 OA
ATOM      5  C   UNL     1      -3.158 -11.596  30.708  1.00  0.00     0.111 A 
ATOM      6  C   UNL     1      -2.344 -10.554  31.212  1.00  0.00     0.134 A 
ATOM      7  C   UNL     1      -2.629  -9.992  32.465  1.00  0.00     0.093 A 
ATOM      8  C   UNL     1      -3.711 -10.450  33.222  1.00  0.00     0.123 A 
ATOM      9  C   UNL     1      -4.519 -11.480  32.728  1.00  0.00     0.094 A 
ATOM     10  C   UNL     1      -4.249 -12.054  31.482  1.00  0.00     0.146 A 
ATOM     11  O   UNL     1      -5.029 -13.033  31.039  1.00  0.00    -0.452 OA
ENDROOT
BRANCH   1  12
ATOM     12  C   UNL     1      -5.780 -14.729  29.497  1.00  0.00     0.029 A 
ATOM     13  C   UNL     1      -5.866 -15.910  30.253  1.00  0.00     0.062 A 
ATOM     14  C   UNL     1      -6.773 -16.918  29.899  1.00  0.00     0.162 A 
ATOM     15  C   UNL     1      -6.639 -14.555  28.402  1.00  0.00     0.062 A 
ATOM     16  C   UNL     1      -7.613 -16.746  28.785  1.00  0.00     0.200 A 
ATOM     17  C   UNL     1      -7.545 -15.556  28.039  1.00  0.00     0.162 A 
BRANCH  14  18
ATOM     18  O   UNL     1      -6.846 -18.089  30.652  1.00  0.00    -0.504 OA
ATOM     19  H   UNL     1      -7.667 -18.320  31.197  1.00  0.00     0.293 HD
ENDBRANCH  14  18
BRANCH  16  20
ATOM     20  O   UNL     1      -8.519 -17.740  28.415  1.00  0.00    -0.502 OA
ATOM     21  H   UNL     1      -9.510 -17.668  28.611  1.00  0.00     0.293 HD
ENDBRANCH  16  20
BRANCH  17  22
ATOM     22  O   UNL     1      -8.372 -15.351  26.934  1.00  0.00    -0.504 OA
ATOM     23  H   UNL     1      -8.930 -16.095  26.533  1.00  0.00     0.293 HD
ENDBRANCH  17  22
ENDBRANCH   1  12
BRANCH   2  24
ATOM     24  O   UNL     1      -3.637 -13.817  27.767  1.00  0.00    -0.502 OA
ATOM     25  H   UNL     1      -3.558 -14.818  27.640  1.00  0.00     0.293 HD
ENDBRANCH   2  24
BRANCH   6  26
ATOM     26  O   UNL     1      -1.257 -10.073  30.480  1.00  0.00    -0.507 OA
ATOM     27  H   UNL     1      -1.320  -9.229  29.924  1.00  0.00     0.293 HD
ENDBRANCH   6  26
BRANCH   8  28
ATOM     28  O   UNL     1      -3.974  -9.875  34.463  1.00  0.00    -0.508 OA
ATOM     29  H   UNL     1      -3.705 -10.332  35.326  1.00  0.00     0.293 HD
ENDBRANCH   8  28
TORSDOF 7
ENDMDL
MODEL 7
REMARK VINA RESULT:     0.773      3.066      5.654
REMARK INTER + INTRA:           0.878
REMARK INTER:                   0.750
REMARK INTRA:                   0.128
REMARK UNBOUND:                -0.076
REMARK SMILES O=c1c(O)c(-c2cc(O)c(O)c(O)c2)oc2cc(O)cc(O)c12
REMARK SMILES IDX 5 1 3 2 2 3 1 4 23 5 21 6 20 7 18 8 17 9 16 10 15 11 6 12
REMARK SMILES IDX 7 13 8 14 14 15 10 16 12 17 9 18 11 20 13 22 4 24 22 26
REMARK SMILES IDX 19 28
REMARK H PARENT 9 19 11 21 13 23 4 25 22 27 19 29
REMARK Flexibility Score: inf
ROOT
ATOM      1  C   UNL     1      -4.831 -13.485  29.218  1.00  0.00     0.180 A 
ATOM      2  C   UNL     1      -4.303 -13.023  27.996  1.00  0.00     0.208 A 
ATOM      3  C   UNL     1      -3.344 -11.998  28.016  1.00  0.00     0.238 A 
ATOM      4  O   UNL     1      -2.856 -11.585  26.929  1.00  0.00    -0.285 OA
ATOM      5  C   UNL     1      -2.945 -11.440  29.249  1.00  0.00     0.111 A 
ATOM      6  C   UNL     1      -1.989 -10.402  29.355  1.00  0.00     0.134 A 
ATOM      7  C   UNL     1      -1.652  -9.893  30.618  1.00  0.00     0.093 A 
ATOM      8  C   UNL     1      -2.252 -10.399  31.774  1.00  0.00     0.123 A 
ATOM      9  C   UNL     1      -3.198 -11.424  31.675  1.00  0.00     0.094 A 
ATOM     10  C   UNL     1      -3.546 -11.946  30.425  1.00  0.00     0.146 A 
ATOM     11  O   UNL     1      -4.443 -12.923  30.359  1.00  0.00    -0.452 OA
ENDROOT
BRANCH   1  12
ATOM     12  C   UNL     1      -5.832 -14.574  29.281  1.00  0.00     0.029 A 
ATOM     13  C   UNL     1      -6.868 -14.669  28.336  1.00  0.00     0.062 A 
ATOM     14  C   UNL     1      -7.793 -15.721  28.397  1.00  0.00     0.162 A 
ATOM     15  C   UNL     1      -5.713 -15.564  30.267  1.00  0.00     0.062 A 
ATOM     16  C   UNL     1      -7.680 -16.696  29.403  1.00  0.00     0.200 A 
ATOM     17  C   UNL     1      -6.633 -16.615  30.337  1.00  0.00     0.162 A 
BRANCH  14  18
ATOM     18  O   UNL     1      -8.820 -15.803  27.459  1.00  0.00    -0.504 OA
ATOM     19  H   UNL     1      -9.766 -16.047  27.726  1.00  0.00     0.293 HD
ENDBRANCH  14  18
BRANCH  16  20
ATOM     20  O   UNL     1      -8.594 -17.747  29.482  1.00  0.00    -0.502 OA
ATOM     21  H   UNL     1      -9.590 -17.590  29.578  1.00  0.00     0.293 HD
ENDBRANCH  16  20
BRANCH  17  22
ATOM     22  O   UNL     1      -6.488 -17.573  31.342  1.00  0.00    -0.504 OA
ATOM     23  H   UNL     1      -6.306 -17.319  32.306  1.00  0.00     0.293 HD
ENDBRANCH  17  22
ENDBRANCH   1  12
BRANCH   2  24
ATOM     24  O   UNL     1      -4.751 -13.559  26.787  1.00  0.00    -0.502 OA
ATOM     25  H   UNL     1      -4.121 -13.782  26.026  1.00  0.00     0.293 HD
ENDBRANCH   2  24
BRANCH   6  26
ATOM     26  O   UNL     1      -1.371  -9.875  28.220  1.00  0.00    -0.507 OA
ATOM     27  H   UNL     1      -1.776  -9.978  27.296  1.00  0.00     0.293 HD
ENDBRANCH   6  26
BRANCH   8  28
ATOM     28  O   UNL     1      -1.901  -9.875  33.016  1.00  0.00    -0.508 OA
ATOM     29  H   UNL     1      -1.149 -10.273  33.565  1.00  0.00     0.293 HD
ENDBRANCH   8  28
TORSDOF 7
ENDMDL
MODEL 8
REMARK VINA RESULT:     1.740      1.751      7.218
REMARK INTER + INTRA:           2.071
REMARK INTER:                   2.183
REMARK INTRA:                  -0.111
REMARK UNBOUND:                -0.076
REMARK SMILES O=c1c(O)c(-c2cc(O)c(O)c(O)c2)oc2cc(O)cc(O)c12
REMARK SMILES IDX 5 1 3 2 2 3 1 4 23 5 21 6 20 7 18 8 17 9 16 10 15 11 6 12
REMARK SMILES IDX 7 13 8 14 14 15 10 16 12 17 9 18 11 20 13 22 4 24 22 26
REMARK SMILES IDX 19 28
REMARK H PARENT 9 19 11 21 13 23 4 25 22 27 19 29
REMARK Flexibility Score: inf
ROOT
ATOM      1  C   UNL     1      -4.092 -13.180  32.367  1.00  0.00     0.180 A 
ATOM      2  C   UNL     1      -4.808 -14.383  32.522  1.00  0.00     0.208 A 
ATOM      3  C   UNL     1      -5.824 -14.447  33.489  1.00  0.00     0.238 A 
ATOM      4  O   UNL     1      -6.480 -15.516  33.629  1.00  0.00    -0.285 OA
ATOM      5  C   UNL     1      -6.092 -13.321  34.296  1.00  0.00     0.111 A 
ATOM      6  C   UNL     1      -7.094 -13.306  35.295  1.00  0.00     0.134 A 
ATOM      7  C   UNL     1      -7.294 -12.149  36.063  1.00  0.00     0.093 A 
ATOM      8  C   UNL     1      -6.512 -11.011  35.853  1.00  0.00     0.123 A 
ATOM      9  C   UNL     1      -5.519 -11.020  34.866  1.00  0.00     0.094 A 
ATOM     10  C   UNL     1      -5.307 -12.163  34.090  1.00  0.00     0.146 A 
ATOM     11  O   UNL     1      -4.362 -12.144  33.157  1.00  0.00    -0.452 OA
ENDROOT
BRANCH   1  12
ATOM     12  C   UNL     1      -3.019 -13.027  31.358  1.00  0.00     0.029 A 
ATOM     13  C   UNL     1      -1.702 -12.716  31.734  1.00  0.00     0.062 A 
ATOM     14  C   UNL     1      -0.694 -12.599  30.767  1.00  0.00     0.162 A 
ATOM     15  C   UNL     1      -3.308 -13.254  30.005  1.00  0.00     0.062 A 
ATOM     16  C   UNL     1      -0.997 -12.804  29.410  1.00  0.00     0.200 A 
ATOM     17  C   UNL     1      -2.310 -13.136  29.033  1.00  0.00     0.162 A 
BRANCH  14  18
ATOM     18  O   UNL     1       0.609 -12.283  31.150  1.00  0.00    -0.504 OA
ATOM     19  H   UNL     1       0.803 -11.552  31.824  1.00  0.00     0.293 HD
ENDBRANCH  14  18
BRANCH  16  20
ATOM     20  O   UNL     1      -0.008 -12.687  28.433  1.00  0.00    -0.502 OA
ATOM     21  H   UNL     1      -0.154 -12.992  27.478  1.00  0.00     0.293 HD
ENDBRANCH  16  20
BRANCH  17  22
ATOM     22  O   UNL     1      -2.641 -13.356  27.695  1.00  0.00    -0.504 OA
ATOM     23  H   UNL     1      -2.421 -12.685  26.968  1.00  0.00     0.293 HD
ENDBRANCH  17  22
ENDBRANCH   1  12
BRANCH   2  24
ATOM     24  O   UNL     1      -4.490 -15.498  31.745  1.00  0.00    -0.502 OA
ATOM     25  H   UNL     1      -5.135 -15.893  31.072  1.00  0.00     0.293 HD
ENDBRANCH   2  24
BRANCH   6  26
ATOM     26  O   UNL     1      -7.892 -14.427  35.530  1.00  0.00    -0.507 OA
ATOM     27  H   UNL     1      -7.865 -15.237  34.922  1.00  0.00     0.293 HD
ENDBRANCH   6  26
BRANCH   8  28
ATOM     28  O   UNL     1      -6.729  -9.875  36.629  1.00  0.00    -0.508 OA
ATOM     29  H   UNL     1      -7.664  -9.550  36.842  1.00  0.00     0.293 HD
ENDBRANCH   8  28
TORSDOF 7
ENDMDL
