MODEL 1
REMARK VINA RESULT:    -2.481      0.000      0.000
REMARK INTER + INTRA:          -2.481
REMARK INTER:                  -2.481
REMARK INTRA:                   0.000
REMARK UNBOUND:                 0.000
REMARK SMILES CC(=O)[O-]
REMARK SMILES IDX 1 1 2 2 3 3 4 4
REMARK H PARENT
REMARK Flexibility Score: inf
ROOT
ATOM      1  C   UNL     1      -5.834  35.714  21.266  1.00  0.00     0.063 C 
ATOM      2  C   UNL     1      -5.179  36.246  20.037  1.00  0.00     0.038 C 
ATOM      3  O   UNL     1      -5.232  37.477  19.776  1.00  0.00    -0.550 OA
ATOM      4  O   UNL     1      -4.556  35.380  19.148  1.00  0.00    -0.550 OA
ENDROOT
TORSDOF 0
ENDMDL
MODEL 2
REMARK VINA RESULT:    -2.436      1.393      2.038
REMARK INTER + INTRA:          -2.436
REMARK INTER:                  -2.436
REMARK INTRA:                   0.000
REMARK UNBOUND:                 0.000
REMARK SMILES CC(=O)[O-]
REMARK SMILES IDX 1 1 2 2 3 3 4 4
REMARK H PARENT
REMARK Flexibility Score: inf
ROOT
ATOM      1  C   UNL     1      -4.686  35.245  19.193  1.00  0.00     0.063 C 
ATOM      2  C   UNL     1      -5.261  36.250  20.133  1.00  0.00     0.038 C 
ATOM      3  O   UNL     1      -5.833  35.871  21.189  1.00  0.00    -0.550 OA
ATOM      4  O   UNL     1      -5.215  37.602  19.821  1.00  0.00    -0.550 OA
ENDROOT
TORSDOF 0
ENDMDL
MODEL 3
REMARK VINA RESULT:    -2.392     13.865     14.296
REMARK INTER + INTRA:          -2.392
REMARK INTER:                  -2.392
REMARK INTRA:                   0.000
REMARK UNBOUND:                 0.000
REMARK SMILES CC(=O)[O-]
REMARK SMILES IDX 1 1 2 2 3 3 4 4
REMARK H PARENT
REMARK Flexibility Score: inf
ROOT
ATOM      1  C   UNL     1      -5.499  27.120  29.607  1.00  0.00     0.063 C 
ATOM      2  C   UNL     1      -5.013  25.710  29.606  1.00  0.00     0.038 C 
ATOM      3  O   UNL     1      -5.596  24.843  28.904  1.00  0.00    -0.550 OA
ATOM      4  O   UNL     1      -3.951  25.338  30.420  1.00  0.00    -0.550 OA
ENDROOT
TORSDOF 0
ENDMDL
MODEL 4
REMARK VINA RESULT:    -2.383      1.432      1.684
REMARK INTER + INTRA:          -2.383
REMARK INTER:                  -2.383
REMARK INTRA:                   0.000
REMARK UNBOUND:                 0.000
REMARK SMILES CC(=O)[O-]
REMARK SMILES IDX 1 1 2 2 3 3 4 4
REMARK H PARENT
REMARK Flexibility Score: inf
ROOT
ATOM      1  C   UNL     1      -5.305  37.644  20.211  1.00  0.00     0.063 C 
ATOM      2  C   UNL     1      -5.359  36.154  20.235  1.00  0.00     0.038 C 
ATOM      3  O   UNL     1      -6.039  35.561  21.113  1.00  0.00    -0.550 OA
ATOM      4  O   UNL     1      -4.616  35.415  19.323  1.00  0.00    -0.550 OA
ENDROOT
TORSDOF 0
ENDMDL
MODEL 5
REMARK VINA RESULT:    -2.188     13.860     14.436
REMARK INTER + INTRA:          -2.188
REMARK INTER:                  -2.188
REMARK INTRA:                   0.000
REMARK UNBOUND:                 0.000
REMARK SMILES CC(=O)[O-]
REMARK SMILES IDX 1 1 2 2 3 3 4 4
REMARK H PARENT
REMARK Flexibility Score: inf
ROOT
ATOM      1  C   UNL     1      -5.329  24.513  29.229  1.00  0.00     0.063 C 
ATOM      2  C   UNL     1      -4.686  25.728  29.806  1.00  0.00     0.038 C 
ATOM      3  O   UNL     1      -3.762  25.611  30.654  1.00  0.00    -0.550 OA
ATOM      4  O   UNL     1      -5.139  26.992  29.452  1.00  0.00    -0.550 OA
ENDROOT
TORSDOF 0
ENDMDL
MODEL 6
REMARK VINA RESULT:    -2.150      3.801      4.230
REMARK INTER + INTRA:          -2.150
REMARK INTER:                  -2.150
REMARK INTRA:                   0.000
REMARK UNBOUND:                 0.000
REMARK SMILES CC(=O)[O-]
REMARK SMILES IDX 1 1 2 2 3 3 4 4
REMARK H PARENT
REMARK Flexibility Score: inf
ROOT
ATOM      1  C   UNL     1      -5.866  35.915  24.663  1.00  0.00     0.063 C 
ATOM      2  C   UNL     1      -6.063  34.885  23.603  1.00  0.00     0.038 C 
ATOM      3  O   UNL     1      -6.124  33.666  23.912  1.00  0.00    -0.550 OA
ATOM      4  O   UNL     1      -6.124  35.261  22.268  1.00  0.00    -0.550 OA
ENDROOT
TORSDOF 0
ENDMDL
MODEL 7
REMARK VINA RESULT:    -2.007     13.460     13.982
REMARK INTER + INTRA:          -2.007
REMARK INTER:                  -2.007
REMARK INTRA:                   0.000
REMARK UNBOUND:                 0.000
REMARK SMILES CC(=O)[O-]
REMARK SMILES IDX 1 1 2 2 3 3 4 4
REMARK H PARENT
REMARK Flexibility Score: inf
ROOT
ATOM      1  C   UNL     1      -4.498  25.319  29.853  1.00  0.00     0.063 C 
ATOM      2  C   UNL     1      -4.978  26.703  30.129  1.00  0.00     0.038 C 
ATOM      3  O   UNL     1      -5.839  27.233  29.378  1.00  0.00    -0.550 OA
ATOM      4  O   UNL     1      -4.439  27.432  31.181  1.00  0.00    -0.550 OA
ENDROOT
TORSDOF 0
ENDMDL
MODEL 8
REMARK VINA RESULT:    -1.975     13.598     14.040
REMARK INTER + INTRA:          -1.975
REMARK INTER:                  -1.975
REMARK INTRA:                   0.000
REMARK UNBOUND:                 0.000
REMARK SMILES CC(=O)[O-]
REMARK SMILES IDX 1 1 2 2 3 3 4 4
REMARK H PARENT
REMARK Flexibility Score: inf
ROOT
ATOM      1  C   UNL     1      -3.959  25.733  30.390  1.00  0.00     0.063 C 
ATOM      2  C   UNL     1      -5.152  25.961  29.525  1.00  0.00     0.038 C 
ATOM      3  O   UNL     1      -5.709  27.090  29.504  1.00  0.00    -0.550 OA
ATOM      4  O   UNL     1      -5.685  24.916  28.782  1.00  0.00    -0.550 OA
ENDROOT
TORSDOF 0
ENDMDL
MODEL 9
REMARK VINA RESULT:    -1.848      3.780      4.058
REMARK INTER + INTRA:          -1.848
REMARK INTER:                  -1.848
REMARK INTRA:                   0.000
REMARK UNBOUND:                 0.000
REMARK SMILES CC(=O)[O-]
REMARK SMILES IDX 1 1 2 2 3 3 4 4
REMARK H PARENT
REMARK Flexibility Score: inf
ROOT
ATOM      1  C   UNL     1      -5.406  36.082  24.932  1.00  0.00     0.063 C 
ATOM      2  C   UNL     1      -5.887  35.353  23.723  1.00  0.00     0.038 C 
ATOM      3  O   UNL     1      -6.124  35.983  22.660  1.00  0.00    -0.550 OA
ATOM      4  O   UNL     1      -6.125  33.986  23.782  1.00  0.00    -0.550 OA
ENDROOT
TORSDOF 0
ENDMDL
