MODEL 1
REMARK VINA RESULT:    -3.660      0.000      0.000
REMARK INTER + INTRA:          -3.506
REMARK INTER:                  -4.516
REMARK INTRA:                   1.010
REMARK UNBOUND:                 1.010
REMARK SMILES C=C1[C@@H]2CC[C@H]3[C@@H]2C(C)(C)CCC[C@@]13C
REMARK SMILES IDX 14 1 6 2 7 3 3 4 2 5 1 6 4 7 5 8 15 9 8 10 9 11 10 12 11 13
REMARK SMILES IDX 13 15 12 16
REMARK H PARENT
REMARK Flexibility Score: 80.00
ROOT
ATOM      1  C   UNL     1     138.868 136.373 135.186  1.00  0.00    -0.008 C 
ATOM      2  C   UNL     1     138.665 137.292 136.453  1.00  0.00     0.003 C 
ATOM      3  C   UNL     1     138.585 138.726 135.884  1.00  0.00     0.006 C 
ATOM      4  C   UNL     1     139.880 138.601 135.092  1.00  0.00     0.019 C 
ATOM      5  C   UNL     1     139.644 137.335 134.316  1.00  0.00    -0.068 C 
ATOM      6  C   UNL     1     140.143 137.083 133.099  1.00  0.00     0.009 C 
ATOM      7  C   UNL     1     140.876 138.250 136.221  1.00  0.00     0.008 C 
ATOM      8  C   UNL     1     140.012 137.431 137.212  1.00  0.00     0.005 C 
ATOM      9  C   UNL     1     139.716 135.101 135.456  1.00  0.00     0.016 C 
ENDROOT
BRANCH   3  10
ATOM     10  C   UNL     1     137.288 139.227 135.143  1.00  0.00    -0.032 C 
ATOM     11  C   UNL     1     136.205 139.538 136.210  1.00  0.00     0.011 C 
ATOM     12  C   UNL     1     137.603 140.564 134.429  1.00  0.00     0.011 C 
BRANCH  10  13
ATOM     13  C   UNL     1     136.710 138.263 134.069  1.00  0.00     0.007 CG0
ATOM     14  G   UNL     1     136.347 136.873 134.595  1.00  0.00     0.000 G0
ENDBRANCH  10  13
ENDBRANCH   3  10
BRANCH   1  15
ATOM     15  C   UNL     1     137.535 135.901 134.532  1.00  0.00     0.011 C 
BRANCH  15  16
ATOM     16  C   UNL     1     136.355 136.868 134.586  1.00  0.00     0.001 CG0
ATOM     17  G   UNL     1     136.706 138.269 134.081  1.00  0.00     0.000 G0
ENDBRANCH  15  16
ENDBRANCH   1  15
TORSDOF 0
ENDMDL
MODEL 2
REMARK VINA RESULT:    -3.654      2.495      4.547
REMARK INTER + INTRA:          -3.498
REMARK INTER:                  -4.491
REMARK INTRA:                   0.993
REMARK UNBOUND:                 1.010
REMARK SMILES C=C1[C@@H]2CC[C@H]3[C@@H]2C(C)(C)CCC[C@@]13C
REMARK SMILES IDX 14 1 6 2 7 3 3 4 2 5 1 6 4 7 5 8 15 9 8 10 9 11 10 12 11 13
REMARK SMILES IDX 13 15 12 16
REMARK H PARENT
REMARK Flexibility Score: 80.00
ROOT
ATOM      1  C   UNL     1     136.385 133.756 135.240  1.00  0.00    -0.008 C 
ATOM      2  C   UNL     1     137.334 133.975 136.482  1.00  0.00     0.003 C 
ATOM      3  C   UNL     1     138.759 133.994 135.884  1.00  0.00     0.006 C 
ATOM      4  C   UNL     1     138.581 132.677 135.138  1.00  0.00     0.019 C 
ATOM      5  C   UNL     1     137.307 132.924 134.379  1.00  0.00    -0.068 C 
ATOM      6  C   UNL     1     137.017 132.392 133.185  1.00  0.00     0.009 C 
ATOM      7  C   UNL     1     138.225 131.730 136.307  1.00  0.00     0.008 C 
ATOM      8  C   UNL     1     137.451 132.650 137.284  1.00  0.00     0.005 C 
ATOM      9  C   UNL     1     135.095 132.954 135.563  1.00  0.00     0.016 C 
ENDROOT
BRANCH   3  10
ATOM     10  C   UNL     1     139.281 135.251 135.089  1.00  0.00    -0.032 C 
ATOM     11  C   UNL     1     139.664 136.352 136.114  1.00  0.00     0.011 C 
ATOM     12  C   UNL     1     140.583 134.867 134.344  1.00  0.00     0.011 C 
BRANCH  10  13
ATOM     13  C   UNL     1     138.304 135.833 134.030  1.00  0.00     0.007 CG0
ATOM     14  G   UNL     1     136.933 136.228 134.581  1.00  0.00     0.000 G0
ENDBRANCH  10  13
ENDBRANCH   3  10
BRANCH   1  15
ATOM     15  C   UNL     1     135.938 135.080 134.551  1.00  0.00     0.011 C 
BRANCH  15  16
ATOM     16  C   UNL     1     136.933 136.237 134.558  1.00  0.00     0.001 CG0
ATOM     17  G   UNL     1     138.310 135.845 134.019  1.00  0.00     0.000 G0
ENDBRANCH  15  16
ENDBRANCH   1  15
TORSDOF 0
ENDMDL
MODEL 3
REMARK VINA RESULT:    -3.590      2.564      4.560
REMARK INTER + INTRA:          -3.420
REMARK INTER:                  -4.442
REMARK INTRA:                   1.022
REMARK UNBOUND:                 1.010
REMARK SMILES C=C1[C@@H]2CC[C@H]3[C@@H]2C(C)(C)CCC[C@@]13C
REMARK SMILES IDX 14 1 6 2 7 3 3 4 2 5 1 6 4 7 5 8 15 9 8 10 9 11 10 12 11 13
REMARK SMILES IDX 13 15 12 16
REMARK H PARENT
REMARK Flexibility Score: 80.00
ROOT
ATOM      1  C   UNL     1     136.193 138.954 134.939  1.00  0.00    -0.008 C 
ATOM      2  C   UNL     1     135.391 138.706 136.276  1.00  0.00     0.003 C 
ATOM      3  C   UNL     1     133.919 138.567 135.827  1.00  0.00     0.006 C 
ATOM      4  C   UNL     1     133.923 139.869 135.036  1.00  0.00     0.019 C 
ATOM      5  C   UNL     1     135.129 139.691 134.157  1.00  0.00    -0.068 C 
ATOM      6  C   UNL     1     135.258 140.204 132.927  1.00  0.00     0.009 C 
ATOM      7  C   UNL     1     134.323 140.875 136.140  1.00  0.00     0.008 C 
ATOM      8  C   UNL     1     135.258 140.044 137.054  1.00  0.00     0.005 C 
ATOM      9  C   UNL     1     137.445 139.855 135.109  1.00  0.00     0.016 C 
ENDROOT
BRANCH   3  10
ATOM     10  C   UNL     1     133.415 137.252 135.120  1.00  0.00    -0.032 C 
ATOM     11  C   UNL     1     133.249 136.149 136.201  1.00  0.00     0.011 C 
ATOM     12  C   UNL     1     132.006 137.508 134.531  1.00  0.00     0.011 C 
BRANCH  10  13
ATOM     13  C   UNL     1     134.305 136.725 133.960  1.00  0.00     0.007 CG0
ATOM     14  G   UNL     1     135.755 136.438 134.354  1.00  0.00     0.000 G0
ENDBRANCH  10  13
ENDBRANCH   3  10
BRANCH   1  15
ATOM     15  C   UNL     1     136.665 137.644 134.239  1.00  0.00     0.011 C 
BRANCH  15  16
ATOM     16  C   UNL     1     135.749 136.428 134.349  1.00  0.00     0.001 CG0
ATOM     17  G   UNL     1     134.298 136.737 133.976  1.00  0.00     0.000 G0
ENDBRANCH  15  16
ENDBRANCH   1  15
TORSDOF 0
ENDMDL
MODEL 4
REMARK VINA RESULT:    -3.533      3.484      6.230
REMARK INTER + INTRA:          -3.349
REMARK INTER:                  -4.377
REMARK INTRA:                   1.028
REMARK UNBOUND:                 1.010
REMARK SMILES C=C1[C@@H]2CC[C@H]3[C@@H]2C(C)(C)CCC[C@@]13C
REMARK SMILES IDX 14 1 6 2 7 3 3 4 2 5 1 6 4 7 5 8 15 9 8 10 9 11 10 12 11 13
REMARK SMILES IDX 13 15 12 16
REMARK H PARENT
REMARK Flexibility Score: 80.00
ROOT
ATOM      1  C   UNL     1     134.051 136.397 135.682  1.00  0.00    -0.008 C 
ATOM      2  C   UNL     1     134.105 135.286 136.801  1.00  0.00     0.003 C 
ATOM      3  C   UNL     1     134.041 133.950 136.026  1.00  0.00     0.006 C 
ATOM      4  C   UNL     1     132.797 134.341 135.239  1.00  0.00     0.019 C 
ATOM      5  C   UNL     1     133.201 135.670 134.665  1.00  0.00    -0.068 C 
ATOM      6  C   UNL     1     132.777 136.154 133.491  1.00  0.00     0.009 C 
ATOM      7  C   UNL     1     131.809 134.637 136.391  1.00  0.00     0.008 C 
ATOM      8  C   UNL     1     132.725 135.195 137.508  1.00  0.00     0.005 C 
ATOM      9  C   UNL     1     133.344 137.706 136.125  1.00  0.00     0.016 C 
ENDROOT
BRANCH   3  10
ATOM     10  C   UNL     1     135.298 133.415 135.241  1.00  0.00    -0.032 C 
ATOM     11  C   UNL     1     136.307 132.836 136.270  1.00  0.00     0.011 C 
ATOM     12  C   UNL     1     134.860 132.234 134.339  1.00  0.00     0.011 C 
BRANCH  10  13
ATOM     13  C   UNL     1     136.011 134.448 134.325  1.00  0.00     0.007 CG0
ATOM     14  G   UNL     1     136.517 135.696 135.050  1.00  0.00     0.000 G0
ENDBRANCH  10  13
ENDBRANCH   3  10
BRANCH   1  15
ATOM     15  C   UNL     1     135.451 136.800 135.130  1.00  0.00     0.011 C 
BRANCH  15  16
ATOM     16  C   UNL     1     136.508 135.701 135.048  1.00  0.00     0.001 CG0
ATOM     17  G   UNL     1     136.011 134.445 134.330  1.00  0.00     0.000 G0
ENDBRANCH  15  16
ENDBRANCH   1  15
TORSDOF 0
ENDMDL
MODEL 5
REMARK VINA RESULT:    -3.482      3.301      5.296
REMARK INTER + INTRA:          -3.286
REMARK INTER:                  -4.296
REMARK INTRA:                   1.010
REMARK UNBOUND:                 1.010
REMARK SMILES C=C1[C@@H]2CC[C@H]3[C@@H]2C(C)(C)CCC[C@@]13C
REMARK SMILES IDX 14 1 6 2 7 3 3 4 2 5 1 6 4 7 5 8 15 9 8 10 9 11 10 12 11 13
REMARK SMILES IDX 13 15 12 16
REMARK H PARENT
REMARK Flexibility Score: 80.00
ROOT
ATOM      1  C   UNL     1     138.590 133.566 135.330  1.00  0.00    -0.008 C 
ATOM      2  C   UNL     1     137.728 132.329 135.796  1.00  0.00     0.003 C 
ATOM      3  C   UNL     1     136.263 132.796 135.642  1.00  0.00     0.006 C 
ATOM      4  C   UNL     1     136.472 134.073 136.448  1.00  0.00     0.019 C 
ATOM      5  C   UNL     1     137.662 134.679 135.760  1.00  0.00    -0.068 C 
ATOM      6  C   UNL     1     137.894 135.993 135.655  1.00  0.00     0.009 C 
ATOM      7  C   UNL     1     136.981 133.489 137.785  1.00  0.00     0.008 C 
ATOM      8  C   UNL     1     137.765 132.227 137.345  1.00  0.00     0.005 C 
ATOM      9  C   UNL     1     139.953 133.699 136.062  1.00  0.00     0.016 C 
ENDROOT
BRANCH   3  10
ATOM     10  C   UNL     1     135.596 132.899 134.218  1.00  0.00    -0.032 C 
ATOM     11  C   UNL     1     135.236 131.465 133.743  1.00  0.00     0.011 C 
ATOM     12  C   UNL     1     134.260 133.672 134.345  1.00  0.00     0.011 C 
BRANCH  10  13
ATOM     13  C   UNL     1     136.439 133.620 133.129  1.00  0.00     0.007 CG0
ATOM     14  G   UNL     1     137.815 133.001 132.879  1.00  0.00     0.000 G0
ENDBRANCH  10  13
ENDBRANCH   3  10
BRANCH   1  15
ATOM     15  C   UNL     1     138.891 133.581 133.801  1.00  0.00     0.011 C 
BRANCH  15  16
ATOM     16  C   UNL     1     137.820 133.008 132.877  1.00  0.00     0.001 CG0
ATOM     17  G   UNL     1     136.435 133.609 133.121  1.00  0.00     0.000 G0
ENDBRANCH  15  16
ENDBRANCH   1  15
TORSDOF 0
ENDMDL
MODEL 6
REMARK VINA RESULT:    -3.460      1.822      3.842
REMARK INTER + INTRA:          -3.260
REMARK INTER:                  -4.282
REMARK INTRA:                   1.022
REMARK UNBOUND:                 1.010
REMARK SMILES C=C1[C@@H]2CC[C@H]3[C@@H]2C(C)(C)CCC[C@@]13C
REMARK SMILES IDX 14 1 6 2 7 3 3 4 2 5 1 6 4 7 5 8 15 9 8 10 9 11 10 12 11 13
REMARK SMILES IDX 13 15 12 16
REMARK H PARENT
REMARK Flexibility Score: 80.00
ROOT
ATOM      1  C   UNL     1     137.979 138.388 136.126  1.00  0.00    -0.008 C 
ATOM      2  C   UNL     1     138.699 137.266 135.281  1.00  0.00     0.003 C 
ATOM      3  C   UNL     1     139.107 136.197 136.321  1.00  0.00     0.006 C 
ATOM      4  C   UNL     1     139.811 137.196 137.231  1.00  0.00     0.019 C 
ATOM      5  C   UNL     1     138.749 138.242 137.420  1.00  0.00    -0.068 C 
ATOM      6  C   UNL     1     138.599 138.986 138.523  1.00  0.00     0.009 C 
ATOM      7  C   UNL     1     140.852 137.791 136.256  1.00  0.00     0.008 C 
ATOM      8  C   UNL     1     140.122 137.746 134.890  1.00  0.00     0.005 C 
ATOM      9  C   UNL     1     138.162 139.821 135.560  1.00  0.00     0.016 C 
ENDROOT
BRANCH   3  10
ATOM     10  C   UNL     1     138.031 135.230 136.945  1.00  0.00    -0.032 C 
ATOM     11  C   UNL     1     137.677 134.147 135.890  1.00  0.00     0.011 C 
ATOM     12  C   UNL     1     138.664 134.486 138.147  1.00  0.00     0.011 C 
BRANCH  10  13
ATOM     13  C   UNL     1     136.732 135.909 137.462  1.00  0.00     0.007 CG0
ATOM     14  G   UNL     1     135.964 136.698 136.400  1.00  0.00     0.000 G0
ENDBRANCH  10  13
ENDBRANCH   3  10
BRANCH   1  15
ATOM     15  C   UNL     1     136.448 138.158 136.300  1.00  0.00     0.011 C 
BRANCH  15  16
ATOM     16  C   UNL     1     135.970 136.711 136.404  1.00  0.00     0.001 CG0
ATOM     17  G   UNL     1     136.730 135.905 137.458  1.00  0.00     0.000 G0
ENDBRANCH  15  16
ENDBRANCH   1  15
TORSDOF 0
ENDMDL
MODEL 7
REMARK VINA RESULT:    -3.449      1.591      3.794
REMARK INTER + INTRA:          -3.245
REMARK INTER:                  -4.255
REMARK INTRA:                   1.010
REMARK UNBOUND:                 1.010
REMARK SMILES C=C1[C@@H]2CC[C@H]3[C@@H]2C(C)(C)CCC[C@@]13C
REMARK SMILES IDX 14 1 6 2 7 3 3 4 2 5 1 6 4 7 5 8 15 9 8 10 9 11 10 12 11 13
REMARK SMILES IDX 13 15 12 16
REMARK H PARENT
REMARK Flexibility Score: 80.00
ROOT
ATOM      1  C   UNL     1     138.607 137.657 135.031  1.00  0.00    -0.008 C 
ATOM      2  C   UNL     1     139.952 136.899 135.360  1.00  0.00     0.003 C 
ATOM      3  C   UNL     1     139.561 135.865 136.440  1.00  0.00     0.006 C 
ATOM      4  C   UNL     1     138.894 136.897 137.341  1.00  0.00     0.019 C 
ATOM      5  C   UNL     1     137.946 137.570 136.388  1.00  0.00    -0.068 C 
ATOM      6  C   UNL     1     136.764 138.095 136.733  1.00  0.00     0.009 C 
ATOM      7  C   UNL     1     140.065 137.879 137.571  1.00  0.00     0.008 C 
ATOM      8  C   UNL     1     140.854 137.806 136.240  1.00  0.00     0.005 C 
ATOM      9  C   UNL     1     138.800 139.144 134.630  1.00  0.00     0.016 C 
ENDROOT
BRANCH   3  10
ATOM     10  C   UNL     1     138.761 134.563 136.056  1.00  0.00    -0.032 C 
ATOM     11  C   UNL     1     139.745 133.565 135.388  1.00  0.00     0.011 C 
ATOM     12  C   UNL     1     138.256 133.884 137.353  1.00  0.00     0.011 C 
BRANCH  10  13
ATOM     13  C   UNL     1     137.523 134.777 135.141  1.00  0.00     0.007 CG0
ATOM     14  G   UNL     1     137.831 135.461 133.808  1.00  0.00     0.000 G0
ENDBRANCH  10  13
ENDBRANCH   3  10
BRANCH   1  15
ATOM     15  C   UNL     1     137.769 136.986 133.902  1.00  0.00     0.011 C 
BRANCH  15  16
ATOM     16  C   UNL     1     137.820 135.463 133.810  1.00  0.00     0.001 CG0
ATOM     17  G   UNL     1     137.511 134.772 135.139  1.00  0.00     0.000 G0
ENDBRANCH  15  16
ENDBRANCH   1  15
TORSDOF 0
ENDMDL
MODEL 8
REMARK VINA RESULT:    -3.416      3.552      5.699
REMARK INTER + INTRA:          -3.205
REMARK INTER:                  -4.221
REMARK INTRA:                   1.016
REMARK UNBOUND:                 1.010
REMARK SMILES C=C1[C@@H]2CC[C@H]3[C@@H]2C(C)(C)CCC[C@@]13C
REMARK SMILES IDX 14 1 6 2 7 3 3 4 2 5 1 6 4 7 5 8 15 9 8 10 9 11 10 12 11 13
REMARK SMILES IDX 13 15 12 16
REMARK H PARENT
REMARK Flexibility Score: 80.00
ROOT
ATOM      1  C   UNL     1     133.949 135.297 134.841  1.00  0.00    -0.008 C 
ATOM      2  C   UNL     1     134.255 136.648 134.085  1.00  0.00     0.003 C 
ATOM      3  C   UNL     1     133.676 137.748 135.004  1.00  0.00     0.006 C 
ATOM      4  C   UNL     1     132.304 137.092 135.106  1.00  0.00     0.019 C 
ATOM      5  C   UNL     1     132.662 135.695 135.529  1.00  0.00    -0.068 C 
ATOM      6  C   UNL     1     131.897 134.912 136.300  1.00  0.00     0.009 C 
ATOM      7  C   UNL     1     131.909 137.017 133.614  1.00  0.00     0.008 C 
ATOM      8  C   UNL     1     133.267 136.812 132.898  1.00  0.00     0.005 C 
ATOM      9  C   UNL     1     133.694 134.089 133.900  1.00  0.00     0.016 C 
ENDROOT
BRANCH   3  10
ATOM     10  C   UNL     1     134.420 138.161 136.330  1.00  0.00    -0.032 C 
ATOM     11  C   UNL     1     135.636 139.048 135.951  1.00  0.00     0.011 C 
ATOM     12  C   UNL     1     133.474 139.046 137.179  1.00  0.00     0.011 C 
BRANCH  10  13
ATOM     13  C   UNL     1     134.883 136.988 137.238  1.00  0.00     0.007 CG0
ATOM     14  G   UNL     1     135.828 135.996 136.558  1.00  0.00     0.000 G0
ENDBRANCH  10  13
ENDBRANCH   3  10
BRANCH   1  15
ATOM     15  C   UNL     1     135.065 134.869 135.840  1.00  0.00     0.011 C 
BRANCH  15  16
ATOM     16  C   UNL     1     135.816 135.986 136.562  1.00  0.00     0.001 CG0
ATOM     17  G   UNL     1     134.884 136.992 137.239  1.00  0.00     0.000 G0
ENDBRANCH  15  16
ENDBRANCH   1  15
TORSDOF 0
ENDMDL
MODEL 9
REMARK VINA RESULT:    -3.394      2.434      3.779
REMARK INTER + INTRA:          -3.178
REMARK INTER:                  -4.194
REMARK INTRA:                   1.016
REMARK UNBOUND:                 1.010
REMARK SMILES C=C1[C@@H]2CC[C@H]3[C@@H]2C(C)(C)CCC[C@@]13C
REMARK SMILES IDX 14 1 6 2 7 3 3 4 2 5 1 6 4 7 5 8 15 9 8 10 9 11 10 12 11 13
REMARK SMILES IDX 13 15 12 16
REMARK H PARENT
REMARK Flexibility Score: 80.00
ROOT
ATOM      1  C   UNL     1     138.439 136.677 136.227  1.00  0.00    -0.008 C 
ATOM      2  C   UNL     1     139.793 137.115 136.909  1.00  0.00     0.003 C 
ATOM      3  C   UNL     1     139.379 138.190 137.939  1.00  0.00     0.006 C 
ATOM      4  C   UNL     1     138.601 139.018 136.925  1.00  0.00     0.019 C 
ATOM      5  C   UNL     1     137.690 137.987 136.320  1.00  0.00    -0.068 C 
ATOM      6  C   UNL     1     136.462 138.237 135.848  1.00  0.00     0.009 C 
ATOM      7  C   UNL     1     139.703 139.305 135.880  1.00  0.00     0.008 C 
ATOM      8  C   UNL     1     140.586 138.033 135.940  1.00  0.00     0.005 C 
ATOM      9  C   UNL     1     138.586 136.255 134.740  1.00  0.00     0.016 C 
ENDROOT
BRANCH   3  10
ATOM     10  C   UNL     1     138.673 137.782 139.288  1.00  0.00    -0.032 C 
ATOM     11  C   UNL     1     139.748 137.206 140.248  1.00  0.00     0.011 C 
ATOM     12  C   UNL     1     138.112 139.057 139.965  1.00  0.00     0.011 C 
BRANCH  10  13
ATOM     13  C   UNL     1     137.492 136.780 139.155  1.00  0.00     0.007 CG0
ATOM     14  G   UNL     1     137.858 135.456 138.481  1.00  0.00     0.000 G0
ENDBRANCH  10  13
ENDBRANCH   3  10
BRANCH   1  15
ATOM     15  C   UNL     1     137.715 135.509 136.962  1.00  0.00     0.011 C 
BRANCH  15  16
ATOM     16  C   UNL     1     137.846 135.458 138.482  1.00  0.00     0.001 CG0
ATOM     17  G   UNL     1     137.493 136.784 139.158  1.00  0.00     0.000 G0
ENDBRANCH  15  16
ENDBRANCH   1  15
TORSDOF 0
ENDMDL
