MODEL 1
REMARK VINA RESULT:    -5.562      0.000      0.000
REMARK INTER + INTRA:          -9.687
REMARK INTER:                  -8.489
REMARK INTRA:                  -1.198
REMARK UNBOUND:                -1.198
REMARK SMILES CCCCCCCCCCC(=O)[O-]
REMARK SMILES IDX 7 1 8 2 9 3 10 4 11 5 12 6 13 7 6 8 5 9 4 10 3 11 2 12 1 13
REMARK H PARENT
REMARK Flexibility Score: inf
ROOT
ATOM      1  C   UNL     1     -15.189 -11.288  -9.977  1.00  0.00     0.000 C 
ENDROOT
BRANCH   1   2
ATOM      2  C   UNL     1     -14.850 -12.364  -8.926  1.00  0.00     0.000 C 
BRANCH   2   3
ATOM      3  C   UNL     1     -14.369 -11.822  -7.564  1.00  0.00     0.006 C 
BRANCH   3   4
ATOM      4  C   UNL     1     -13.854 -10.376  -7.603  1.00  0.00     0.053 C 
BRANCH   4   5
ATOM      5  C   UNL     1     -12.794 -10.131  -6.574  1.00  0.00     0.041 C 
ATOM      6  O   UNL     1     -12.760 -10.820  -5.521  1.00  0.00    -0.550 OA
ATOM      7  O   UNL     1     -11.820  -9.164  -6.793  1.00  0.00    -0.550 OA
ENDBRANCH   4   5
ENDBRANCH   3   4
ENDBRANCH   2   3
ENDBRANCH   1   2
BRANCH   1   8
ATOM      8  C   UNL     1     -16.604 -11.381 -10.573  1.00  0.00     0.000 C 
BRANCH   8   9
ATOM      9  C   UNL     1     -17.477 -10.162 -10.229  1.00  0.00    -0.000 C 
BRANCH   9  10
ATOM     10  C   UNL     1     -16.635  -8.955  -9.780  1.00  0.00    -0.000 C 
BRANCH  10  11
ATOM     11  C   UNL     1     -16.968  -8.479  -8.349  1.00  0.00    -0.000 C 
BRANCH  11  12
ATOM     12  C   UNL     1     -17.808  -9.489  -7.548  1.00  0.00    -0.003 C 
ATOM     13  C   UNL     1     -17.148  -9.903  -6.235  1.00  0.00     0.004 C 
ENDBRANCH  11  12
ENDBRANCH  10  11
ENDBRANCH   9  10
ENDBRANCH   8   9
ENDBRANCH   1   8
TORSDOF 9
ENDMDL
MODEL 2
REMARK VINA RESULT:    -5.561      3.508      5.546
REMARK INTER + INTRA:          -9.684
REMARK INTER:                  -8.615
REMARK INTRA:                  -1.070
REMARK UNBOUND:                -1.198
REMARK SMILES CCCCCCCCCCC(=O)[O-]
REMARK SMILES IDX 7 1 8 2 9 3 10 4 11 5 12 6 13 7 6 8 5 9 4 10 3 11 2 12 1 13
REMARK H PARENT
REMARK Flexibility Score: inf
ROOT
ATOM      1  C   UNL     1     -16.959  -8.863  -7.294  1.00  0.00     0.000 C 
ENDROOT
BRANCH   1   2
ATOM      2  C   UNL     1     -16.637  -8.214  -8.655  1.00  0.00     0.000 C 
BRANCH   2   3
ATOM      3  C   UNL     1     -17.000  -9.066  -9.889  1.00  0.00     0.006 C 
BRANCH   3   4
ATOM      4  C   UNL     1     -18.345  -9.799  -9.782  1.00  0.00     0.053 C 
BRANCH   4   5
ATOM      5  C   UNL     1     -18.645 -10.603 -11.009  1.00  0.00     0.041 C 
ATOM      6  O   UNL     1     -18.001 -11.657 -11.250  1.00  0.00    -0.550 OA
ATOM      7  O   UNL     1     -19.661 -10.206 -11.870  1.00  0.00    -0.550 OA
ENDBRANCH   4   5
ENDBRANCH   3   4
ENDBRANCH   2   3
ENDBRANCH   1   2
BRANCH   1   8
ATOM      8  C   UNL     1     -15.732  -9.274  -6.462  1.00  0.00     0.000 C 
BRANCH   8   9
ATOM      9  C   UNL     1     -14.418  -9.194  -7.258  1.00  0.00    -0.000 C 
BRANCH   9  10
ATOM     10  C   UNL     1     -13.797 -10.583  -7.491  1.00  0.00    -0.000 C 
BRANCH  10  11
ATOM     11  C   UNL     1     -14.768 -11.743  -7.180  1.00  0.00    -0.000 C 
BRANCH  11  12
ATOM     12  C   UNL     1     -15.065 -12.636  -8.397  1.00  0.00    -0.003 C 
ATOM     13  C   UNL     1     -14.731 -11.961  -9.726  1.00  0.00     0.004 C 
ENDBRANCH  11  12
ENDBRANCH  10  11
ENDBRANCH   9  10
ENDBRANCH   8   9
ENDBRANCH   1   8
TORSDOF 9
ENDMDL
MODEL 3
REMARK VINA RESULT:    -5.476      2.109      3.846
REMARK INTER + INTRA:          -9.555
REMARK INTER:                  -8.745
REMARK INTRA:                  -0.810
REMARK UNBOUND:                -1.198
REMARK SMILES CCCCCCCCCCC(=O)[O-]
REMARK SMILES IDX 7 1 8 2 9 3 10 4 11 5 12 6 13 7 6 8 5 9 4 10 3 11 2 12 1 13
REMARK H PARENT
REMARK Flexibility Score: inf
ROOT
ATOM      1  C   UNL     1     -16.675  -8.383  -7.407  1.00  0.00     0.000 C 
ENDROOT
BRANCH   1   2
ATOM      2  C   UNL     1     -15.140  -8.375  -7.560  1.00  0.00     0.000 C 
BRANCH   2   3
ATOM      3  C   UNL     1     -14.403  -9.511  -6.823  1.00  0.00     0.006 C 
BRANCH   3   4
ATOM      4  C   UNL     1     -14.035 -10.710  -7.710  1.00  0.00     0.053 C 
BRANCH   4   5
ATOM      5  C   UNL     1     -14.991 -11.850  -7.537  1.00  0.00     0.041 C 
ATOM      6  O   UNL     1     -15.925 -11.773  -6.696  1.00  0.00    -0.550 OA
ATOM      7  O   UNL     1     -14.872 -12.984  -8.330  1.00  0.00    -0.550 OA
ENDBRANCH   4   5
ENDBRANCH   3   4
ENDBRANCH   2   3
ENDBRANCH   1   2
BRANCH   1   8
ATOM      8  C   UNL     1     -17.459  -8.536  -8.722  1.00  0.00     0.000 C 
BRANCH   8   9
ATOM      9  C   UNL     1     -16.593  -9.072  -9.874  1.00  0.00    -0.000 C 
BRANCH   9  10
ATOM     10  C   UNL     1     -17.031 -10.477 -10.322  1.00  0.00    -0.000 C 
BRANCH  10  11
ATOM     11  C   UNL     1     -18.536 -10.566 -10.661  1.00  0.00    -0.000 C 
BRANCH  11  12
ATOM     12  C   UNL     1     -18.881 -11.720 -11.617  1.00  0.00    -0.003 C 
ATOM     13  C   UNL     1     -19.659 -11.260 -12.849  1.00  0.00     0.004 C 
ENDBRANCH  11  12
ENDBRANCH  10  11
ENDBRANCH   9  10
ENDBRANCH   8   9
ENDBRANCH   1   8
TORSDOF 9
ENDMDL
MODEL 4
REMARK VINA RESULT:    -5.453      2.210      3.957
REMARK INTER + INTRA:          -9.521
REMARK INTER:                  -8.647
REMARK INTRA:                  -0.874
REMARK UNBOUND:                -1.198
REMARK SMILES CCCCCCCCCCC(=O)[O-]
REMARK SMILES IDX 7 1 8 2 9 3 10 4 11 5 12 6 13 7 6 8 5 9 4 10 3 11 2 12 1 13
REMARK H PARENT
REMARK Flexibility Score: inf
ROOT
ATOM      1  C   UNL     1     -16.312  -8.793  -7.191  1.00  0.00     0.000 C 
ENDROOT
BRANCH   1   2
ATOM      2  C   UNL     1     -17.081  -9.918  -6.470  1.00  0.00     0.000 C 
BRANCH   2   3
ATOM      3  C   UNL     1     -16.478 -11.329  -6.629  1.00  0.00     0.006 C 
BRANCH   3   4
ATOM      4  C   UNL     1     -15.028 -11.347  -7.136  1.00  0.00     0.053 C 
BRANCH   4   5
ATOM      5  C   UNL     1     -14.880 -12.168  -8.380  1.00  0.00     0.041 C 
ATOM      6  O   UNL     1     -14.397 -11.656  -9.424  1.00  0.00    -0.550 OA
ATOM      7  O   UNL     1     -15.243 -13.509  -8.377  1.00  0.00    -0.550 OA
ENDBRANCH   4   5
ENDBRANCH   3   4
ENDBRANCH   2   3
ENDBRANCH   1   2
BRANCH   1   8
ATOM      8  C   UNL     1     -17.035  -8.186  -8.407  1.00  0.00     0.000 C 
BRANCH   8   9
ATOM      9  C   UNL     1     -16.760  -8.955  -9.710  1.00  0.00    -0.000 C 
BRANCH   9  10
ATOM     10  C   UNL     1     -17.994  -9.737 -10.192  1.00  0.00    -0.000 C 
BRANCH  10  11
ATOM     11  C   UNL     1     -17.640 -11.089 -10.850  1.00  0.00    -0.000 C 
BRANCH  11  12
ATOM     12  C   UNL     1     -18.839 -11.773 -11.529  1.00  0.00    -0.003 C 
ATOM     13  C   UNL     1     -19.727 -10.793 -12.294  1.00  0.00     0.004 C 
ENDBRANCH  11  12
ENDBRANCH  10  11
ENDBRANCH   9  10
ENDBRANCH   8   9
ENDBRANCH   1   8
TORSDOF 9
ENDMDL
MODEL 5
REMARK VINA RESULT:    -5.418      0.752      2.868
REMARK INTER + INTRA:          -9.467
REMARK INTER:                  -8.317
REMARK INTRA:                  -1.151
REMARK UNBOUND:                -1.198
REMARK SMILES CCCCCCCCCCC(=O)[O-]
REMARK SMILES IDX 7 1 8 2 9 3 10 4 11 5 12 6 13 7 6 8 5 9 4 10 3 11 2 12 1 13
REMARK H PARENT
REMARK Flexibility Score: inf
ROOT
ATOM      1  C   UNL     1     -17.615  -9.441  -7.435  1.00  0.00     0.000 C 
ENDROOT
BRANCH   1   2
ATOM      2  C   UNL     1     -16.441 -10.281  -6.894  1.00  0.00     0.000 C 
BRANCH   2   3
ATOM      3  C   UNL     1     -15.196  -9.473  -6.474  1.00  0.00     0.006 C 
BRANCH   3   4
ATOM      4  C   UNL     1     -13.979  -9.660  -7.391  1.00  0.00     0.053 C 
BRANCH   4   5
ATOM      5  C   UNL     1     -12.720  -9.891  -6.612  1.00  0.00     0.041 C 
ATOM      6  O   UNL     1     -12.653 -10.834  -5.780  1.00  0.00    -0.550 OA
ATOM      7  O   UNL     1     -11.609  -9.086  -6.829  1.00  0.00    -0.550 OA
ENDBRANCH   4   5
ENDBRANCH   3   4
ENDBRANCH   2   3
ENDBRANCH   1   2
BRANCH   1   8
ATOM      8  C   UNL     1     -17.228  -8.371  -8.470  1.00  0.00     0.000 C 
BRANCH   8   9
ATOM      9  C   UNL     1     -16.736  -8.975  -9.797  1.00  0.00    -0.000 C 
BRANCH   9  10
ATOM     10  C   UNL     1     -17.673 -10.083 -10.310  1.00  0.00    -0.000 C 
BRANCH  10  11
ATOM     11  C   UNL     1     -16.923 -11.366 -10.733  1.00  0.00    -0.000 C 
BRANCH  11  12
ATOM     12  C   UNL     1     -15.419 -11.328 -10.416  1.00  0.00    -0.003 C 
ATOM     13  C   UNL     1     -14.974 -12.471  -9.505  1.00  0.00     0.004 C 
ENDBRANCH  11  12
ENDBRANCH  10  11
ENDBRANCH   9  10
ENDBRANCH   8   9
ENDBRANCH   1   8
TORSDOF 9
ENDMDL
MODEL 6
REMARK VINA RESULT:    -5.309      1.280      3.116
REMARK INTER + INTRA:          -9.301
REMARK INTER:                  -8.426
REMARK INTRA:                  -0.875
REMARK UNBOUND:                -1.198
REMARK SMILES CCCCCCCCCCC(=O)[O-]
REMARK SMILES IDX 7 1 8 2 9 3 10 4 11 5 12 6 13 7 6 8 5 9 4 10 3 11 2 12 1 13
REMARK H PARENT
REMARK Flexibility Score: inf
ROOT
ATOM      1  C   UNL     1     -17.350  -9.497  -7.239  1.00  0.00     0.000 C 
ENDROOT
BRANCH   1   2
ATOM      2  C   UNL     1     -16.278 -10.335  -6.515  1.00  0.00     0.000 C 
BRANCH   2   3
ATOM      3  C   UNL     1     -15.732 -11.534  -7.317  1.00  0.00     0.006 C 
BRANCH   3   4
ATOM      4  C   UNL     1     -14.340 -11.310  -7.926  1.00  0.00     0.053 C 
BRANCH   4   5
ATOM      5  C   UNL     1     -13.456 -10.507  -7.023  1.00  0.00     0.041 C 
ATOM      6  O   UNL     1     -12.883 -11.054  -6.044  1.00  0.00    -0.550 OA
ATOM      7  O   UNL     1     -13.236  -9.159  -7.281  1.00  0.00    -0.550 OA
ENDBRANCH   4   5
ENDBRANCH   3   4
ENDBRANCH   2   3
ENDBRANCH   1   2
BRANCH   1   8
ATOM      8  C   UNL     1     -16.805  -8.352  -8.110  1.00  0.00     0.000 C 
BRANCH   8   9
ATOM      9  C   UNL     1     -16.681  -8.739  -9.594  1.00  0.00    -0.000 C 
BRANCH   9  10
ATOM     10  C   UNL     1     -17.915  -9.509 -10.096  1.00  0.00    -0.000 C 
BRANCH  10  11
ATOM     11  C   UNL     1     -17.582 -10.934 -10.593  1.00  0.00    -0.000 C 
BRANCH  11  12
ATOM     12  C   UNL     1     -18.546 -11.443 -11.678  1.00  0.00    -0.003 C 
ATOM     13  C   UNL     1     -19.756 -10.531 -11.875  1.00  0.00     0.004 C 
ENDBRANCH  11  12
ENDBRANCH  10  11
ENDBRANCH   9  10
ENDBRANCH   8   9
ENDBRANCH   1   8
TORSDOF 9
ENDMDL
MODEL 7
REMARK VINA RESULT:    -5.205      4.502      6.183
REMARK INTER + INTRA:          -9.142
REMARK INTER:                  -8.400
REMARK INTRA:                  -0.742
REMARK UNBOUND:                -1.198
REMARK SMILES CCCCCCCCCCC(=O)[O-]
REMARK SMILES IDX 7 1 8 2 9 3 10 4 11 5 12 6 13 7 6 8 5 9 4 10 3 11 2 12 1 13
REMARK H PARENT
REMARK Flexibility Score: inf
ROOT
ATOM      1  C   UNL     1     -17.001  -8.982  -9.826  1.00  0.00     0.000 C 
ENDROOT
BRANCH   1   2
ATOM      2  C   UNL     1     -18.074 -10.069 -10.034  1.00  0.00     0.000 C 
BRANCH   2   3
ATOM      3  C   UNL     1     -17.880 -10.950 -11.285  1.00  0.00     0.006 C 
BRANCH   3   4
ATOM      4  C   UNL     1     -19.095 -11.819 -11.644  1.00  0.00     0.053 C 
BRANCH   4   5
ATOM      5  C   UNL     1     -20.004 -11.137 -12.620  1.00  0.00     0.041 C 
ATOM      6  O   UNL     1     -20.291 -11.690 -13.713  1.00  0.00    -0.550 OA
ATOM      7  O   UNL     1     -20.562  -9.904 -12.306  1.00  0.00    -0.550 OA
ENDBRANCH   4   5
ENDBRANCH   3   4
ENDBRANCH   2   3
ENDBRANCH   1   2
BRANCH   1   8
ATOM      8  C   UNL     1     -16.971  -8.356  -8.421  1.00  0.00     0.000 C 
BRANCH   8   9
ATOM      9  C   UNL     1     -15.563  -8.348  -7.802  1.00  0.00    -0.000 C 
BRANCH   9  10
ATOM     10  C   UNL     1     -15.454  -9.300  -6.598  1.00  0.00    -0.000 C 
BRANCH  10  11
ATOM     11  C   UNL     1     -15.937 -10.734  -6.911  1.00  0.00    -0.000 C 
BRANCH  11  12
ATOM     12  C   UNL     1     -14.801 -11.684  -7.327  1.00  0.00    -0.003 C 
ATOM     13  C   UNL     1     -14.768 -11.948  -8.832  1.00  0.00     0.004 C 
ENDBRANCH  11  12
ENDBRANCH  10  11
ENDBRANCH   9  10
ENDBRANCH   8   9
ENDBRANCH   1   8
TORSDOF 9
ENDMDL
MODEL 8
REMARK VINA RESULT:    -5.183      2.535      3.807
REMARK INTER + INTRA:          -9.108
REMARK INTER:                  -8.291
REMARK INTRA:                  -0.816
REMARK UNBOUND:                -1.198
REMARK SMILES CCCCCCCCCCC(=O)[O-]
REMARK SMILES IDX 7 1 8 2 9 3 10 4 11 5 12 6 13 7 6 8 5 9 4 10 3 11 2 12 1 13
REMARK H PARENT
REMARK Flexibility Score: inf
ROOT
ATOM      1  C   UNL     1     -15.095 -12.274  -8.118  1.00  0.00     0.000 C 
ENDROOT
BRANCH   1   2
ATOM      2  C   UNL     1     -14.313 -11.342  -7.171  1.00  0.00     0.000 C 
BRANCH   2   3
ATOM      3  C   UNL     1     -14.483  -9.834  -7.449  1.00  0.00     0.006 C 
BRANCH   3   4
ATOM      4  C   UNL     1     -15.460  -9.121  -6.503  1.00  0.00     0.053 C 
BRANCH   4   5
ATOM      5  C   UNL     1     -16.857  -9.109  -7.043  1.00  0.00     0.041 C 
ATOM      6  O   UNL     1     -17.676 -10.003  -6.706  1.00  0.00    -0.550 OA
ATOM      7  O   UNL     1     -17.265  -8.089  -7.894  1.00  0.00    -0.550 OA
ENDBRANCH   4   5
ENDBRANCH   3   4
ENDBRANCH   2   3
ENDBRANCH   1   2
BRANCH   1   8
ATOM      8  C   UNL     1     -14.695 -12.181  -9.601  1.00  0.00     0.000 C 
BRANCH   8   9
ATOM      9  C   UNL     1     -15.901 -11.959 -10.531  1.00  0.00    -0.000 C 
BRANCH   9  10
ATOM     10  C   UNL     1     -16.566 -10.591 -10.299  1.00  0.00    -0.000 C 
BRANCH  10  11
ATOM     11  C   UNL     1     -18.075 -10.585 -10.630  1.00  0.00    -0.000 C 
BRANCH  11  12
ATOM     12  C   UNL     1     -18.510 -11.757 -11.526  1.00  0.00    -0.003 C 
ATOM     13  C   UNL     1     -19.580 -11.363 -12.543  1.00  0.00     0.004 C 
ENDBRANCH  11  12
ENDBRANCH  10  11
ENDBRANCH   9  10
ENDBRANCH   8   9
ENDBRANCH   1   8
TORSDOF 9
ENDMDL
MODEL 9
REMARK VINA RESULT:    -5.108      1.922      4.253
REMARK INTER + INTRA:          -8.994
REMARK INTER:                  -8.070
REMARK INTRA:                  -0.924
REMARK UNBOUND:                -1.198
REMARK SMILES CCCCCCCCCCC(=O)[O-]
REMARK SMILES IDX 7 1 8 2 9 3 10 4 11 5 12 6 13 7 6 8 5 9 4 10 3 11 2 12 1 13
REMARK H PARENT
REMARK Flexibility Score: inf
ROOT
ATOM      1  C   UNL     1     -16.690 -11.399 -10.040  1.00  0.00     0.000 C 
ENDROOT
BRANCH   1   2
ATOM      2  C   UNL     1     -17.293 -10.004 -10.296  1.00  0.00     0.000 C 
BRANCH   2   3
ATOM      3  C   UNL     1     -16.611  -8.847  -9.537  1.00  0.00     0.006 C 
BRANCH   3   4
ATOM      4  C   UNL     1     -17.393  -8.340  -8.316  1.00  0.00     0.053 C 
BRANCH   4   5
ATOM      5  C   UNL     1     -17.051  -9.106  -7.074  1.00  0.00     0.041 C 
ATOM      6  O   UNL     1     -16.185  -8.663  -6.274  1.00  0.00    -0.550 OA
ATOM      7  O   UNL     1     -17.713 -10.291  -6.782  1.00  0.00    -0.550 OA
ENDBRANCH   4   5
ENDBRANCH   3   4
ENDBRANCH   2   3
ENDBRANCH   1   2
BRANCH   1   8
ATOM      8  C   UNL     1     -15.173 -11.416  -9.783  1.00  0.00     0.000 C 
BRANCH   8   9
ATOM      9  C   UNL     1     -14.764 -12.423  -8.694  1.00  0.00    -0.000 C 
BRANCH   9  10
ATOM     10  C   UNL     1     -14.364 -11.727  -7.382  1.00  0.00    -0.000 C 
BRANCH  10  11
ATOM     11  C   UNL     1     -13.605 -10.400  -7.605  1.00  0.00    -0.000 C 
BRANCH  11  12
ATOM     12  C   UNL     1     -12.587 -10.084  -6.495  1.00  0.00    -0.003 C 
ATOM     13  C   UNL     1     -11.634  -8.950  -6.869  1.00  0.00     0.004 C 
ENDBRANCH  11  12
ENDBRANCH  10  11
ENDBRANCH   9  10
ENDBRANCH   8   9
ENDBRANCH   1   8
TORSDOF 9
ENDMDL
