MODEL 1
REMARK VINA RESULT:    -3.322      0.000      0.000
REMARK INTER + INTRA:          -4.822
REMARK INTER:                  -4.682
REMARK INTRA:                  -0.141
REMARK UNBOUND:                -0.141
REMARK SMILES CC1=CCC(=C(C)C)C(=O)CC(C)=CCC1
REMARK SMILES IDX 12 1 14 2 13 3 15 4 16 5 2 6 1 7 3 8 11 10 9 11 10 12 5 13
REMARK SMILES IDX 6 14 7 15 8 16 4 17
REMARK H PARENT
REMARK Flexibility Score: 60.00
ROOT
ATOM      1  C   UNL     1     -12.249  10.550 -21.131  1.00  0.00    -0.070 C 
ATOM      2  C   UNL     1     -12.083   9.489 -21.954  1.00  0.00    -0.027 C 
ATOM      3  C   UNL     1     -11.370  11.756 -21.342  1.00  0.00     0.039 C 
ENDROOT
BRANCH   2   4
ATOM      4  C   UNL     1     -12.967   8.268 -21.980  1.00  0.00     0.032 C 
BRANCH   4   5
ATOM      5  C   UNL     1     -12.221   7.073 -21.375  1.00  0.00     0.034 C 
BRANCH   5   6
ATOM      6  C   UNL     1     -13.084   6.275 -20.420  1.00  0.00    -0.077 C 
ATOM      7  C   UNL     1     -13.936   5.160 -20.975  1.00  0.00     0.039 C 
ATOM      8  C   UNL     1     -13.192   6.551 -19.096  1.00  0.00    -0.023 CG0
ATOM      9  G   UNL     1     -12.402   7.574 -18.300  1.00  0.00     0.000 G0
ENDBRANCH   5   6
ENDBRANCH   4   5
ENDBRANCH   2   4
BRANCH   1  10
ATOM     10  C   UNL     1     -13.258  10.577 -20.000  1.00  0.00     0.111 C 
BRANCH  10  11
ATOM     11  C   UNL     1     -12.656  10.110 -18.697  1.00  0.00     0.163 C 
ATOM     12  O   UNL     1     -11.707  10.794 -18.225  1.00  0.00    -0.294 OA
BRANCH  11  13
ATOM     13  C   UNL     1     -13.108   8.884 -17.960  1.00  0.00    -0.002 C 
ATOM     14  C   UNL     1     -14.005   8.981 -16.930  1.00  0.00    -0.069 C 
ATOM     15  C   UNL     1     -14.309   7.814 -16.018  1.00  0.00     0.039 C 
ATOM     16  C   UNL     1     -14.784  10.253 -16.680  1.00  0.00     0.039 C 
BRANCH  13  17
ATOM     17  C   UNL     1     -12.406   7.567 -18.272  1.00  0.00     0.066 CG0
ATOM     18  G   UNL     1     -13.195   6.555 -19.083  1.00  0.00     0.000 G0
ENDBRANCH  13  17
ENDBRANCH  11  13
ENDBRANCH  10  11
ENDBRANCH   1  10
TORSDOF 0
ENDMDL
MODEL 2
REMARK VINA RESULT:    -3.319      9.148     10.723
REMARK INTER + INTRA:          -4.818
REMARK INTER:                  -4.708
REMARK INTRA:                  -0.110
REMARK UNBOUND:                -0.141
REMARK SMILES CC1=CCC(=C(C)C)C(=O)CC(C)=CCC1
REMARK SMILES IDX 12 1 14 2 13 3 15 4 16 5 2 6 1 7 3 8 11 10 9 11 10 12 5 13
REMARK SMILES IDX 6 14 7 15 8 16 4 17
REMARK H PARENT
REMARK Flexibility Score: 60.00
ROOT
ATOM      1  C   UNL     1      -9.043   8.051 -11.005  1.00  0.00    -0.070 C 
ATOM      2  C   UNL     1      -9.173   6.726 -11.246  1.00  0.00    -0.027 C 
ATOM      3  C   UNL     1     -10.256   8.928 -11.182  1.00  0.00     0.039 C 
ENDROOT
BRANCH   2   4
ATOM      4  C   UNL     1      -8.111   5.690 -10.979  1.00  0.00     0.032 C 
BRANCH   4   5
ATOM      5  C   UNL     1      -7.433   5.290 -12.295  1.00  0.00     0.034 C 
BRANCH   5   6
ATOM      6  C   UNL     1      -5.955   5.005 -12.122  1.00  0.00    -0.077 C 
ATOM      7  C   UNL     1      -5.535   3.638 -11.641  1.00  0.00     0.039 C 
ATOM      8  C   UNL     1      -4.985   5.934 -12.307  1.00  0.00    -0.023 CG0
ATOM      9  G   UNL     1      -5.149   7.347 -12.839  1.00  0.00     0.000 G0
ENDBRANCH   5   6
ENDBRANCH   4   5
ENDBRANCH   2   4
BRANCH   1  10
ATOM     10  C   UNL     1      -7.737   8.697 -10.588  1.00  0.00     0.111 C 
BRANCH  10  11
ATOM     11  C   UNL     1      -6.832   8.954 -11.769  1.00  0.00     0.163 C 
ATOM     12  O   UNL     1      -7.317   9.606 -12.733  1.00  0.00    -0.294 OA
BRANCH  11  13
ATOM     13  C   UNL     1      -5.417   8.460 -11.859  1.00  0.00    -0.002 C 
ATOM     14  C   UNL     1      -4.412   9.104 -11.190  1.00  0.00    -0.069 C 
ATOM     15  C   UNL     1      -2.954   8.787 -11.435  1.00  0.00     0.039 C 
ATOM     16  C   UNL     1      -4.707  10.136 -10.125  1.00  0.00     0.039 C 
BRANCH  13  17
ATOM     17  C   UNL     1      -5.115   7.346 -12.855  1.00  0.00     0.066 CG0
ATOM     18  G   UNL     1      -4.997   5.944 -12.285  1.00  0.00     0.000 G0
ENDBRANCH  13  17
ENDBRANCH  11  13
ENDBRANCH  10  11
ENDBRANCH   1  10
TORSDOF 0
ENDMDL
MODEL 3
REMARK VINA RESULT:    -3.249      6.071      8.763
REMARK INTER + INTRA:          -4.718
REMARK INTER:                  -4.555
REMARK INTRA:                  -0.164
REMARK UNBOUND:                -0.141
REMARK SMILES CC1=CCC(=C(C)C)C(=O)CC(C)=CCC1
REMARK SMILES IDX 12 1 14 2 13 3 15 4 16 5 2 6 1 7 3 8 11 10 9 11 10 12 5 13
REMARK SMILES IDX 6 14 7 15 8 16 4 17
REMARK H PARENT
REMARK Flexibility Score: 60.00
ROOT
ATOM      1  C   UNL     1     -12.633  10.603 -13.774  1.00  0.00    -0.070 C 
ATOM      2  C   UNL     1     -11.585  10.442 -12.933  1.00  0.00    -0.027 C 
ATOM      3  C   UNL     1     -12.945   9.490 -14.741  1.00  0.00     0.039 C 
ENDROOT
BRANCH   2   4
ATOM      4  C   UNL     1     -11.224  11.382 -11.812  1.00  0.00     0.032 C 
BRANCH   4   5
ATOM      5  C   UNL     1     -10.024  12.244 -12.222  1.00  0.00     0.034 C 
BRANCH   5   6
ATOM      6  C   UNL     1     -10.218  13.707 -11.882  1.00  0.00    -0.077 C 
ATOM      7  C   UNL     1      -9.897  14.172 -10.482  1.00  0.00     0.039 C 
ATOM      8  C   UNL     1     -10.734  14.617 -12.745  1.00  0.00    -0.023 CG0
ATOM      9  G   UNL     1     -11.077  14.409 -14.209  1.00  0.00     0.000 G0
ENDBRANCH   5   6
ENDBRANCH   4   5
ENDBRANCH   2   4
BRANCH   1  10
ATOM     10  C   UNL     1     -13.492  11.851 -13.805  1.00  0.00     0.111 C 
BRANCH  10  11
ATOM     11  C   UNL     1     -13.028  12.828 -14.859  1.00  0.00     0.163 C 
ATOM     12  O   UNL     1     -13.016  12.422 -16.053  1.00  0.00    -0.294 OA
BRANCH  11  13
ATOM     13  C   UNL     1     -12.569  14.225 -14.559  1.00  0.00    -0.002 C 
ATOM     14  C   UNL     1     -13.411  15.289 -14.741  1.00  0.00    -0.069 C 
ATOM     15  C   UNL     1     -12.924  16.718 -14.675  1.00  0.00     0.039 C 
ATOM     16  C   UNL     1     -14.893  15.092 -14.968  1.00  0.00     0.039 C 
BRANCH  13  17
ATOM     17  C   UNL     1     -11.096  14.433 -14.225  1.00  0.00     0.066 CG0
ATOM     18  G   UNL     1     -10.753  14.605 -12.756  1.00  0.00     0.000 G0
ENDBRANCH  13  17
ENDBRANCH  11  13
ENDBRANCH  10  11
ENDBRANCH   1  10
TORSDOF 0
ENDMDL
MODEL 4
REMARK VINA RESULT:    -3.239      4.033      5.411
REMARK INTER + INTRA:          -4.705
REMARK INTER:                  -4.538
REMARK INTRA:                  -0.167
REMARK UNBOUND:                -0.141
REMARK SMILES CC1=CCC(=C(C)C)C(=O)CC(C)=CCC1
REMARK SMILES IDX 12 1 14 2 13 3 15 4 16 5 2 6 1 7 3 8 11 10 9 11 10 12 5 13
REMARK SMILES IDX 6 14 7 15 8 16 4 17
REMARK H PARENT
REMARK Flexibility Score: 60.00
ROOT
ATOM      1  C   UNL     1     -13.931  10.532 -16.057  1.00  0.00    -0.070 C 
ATOM      2  C   UNL     1     -14.286   9.349 -16.608  1.00  0.00    -0.027 C 
ATOM      3  C   UNL     1     -14.007  11.768 -16.918  1.00  0.00     0.039 C 
ENDROOT
BRANCH   2   4
ATOM      4  C   UNL     1     -14.409   8.048 -15.857  1.00  0.00     0.032 C 
BRANCH   4   5
ATOM      5  C   UNL     1     -13.111   7.245 -15.991  1.00  0.00     0.034 C 
BRANCH   5   6
ATOM      6  C   UNL     1     -12.684   6.609 -14.683  1.00  0.00    -0.077 C 
ATOM      7  C   UNL     1     -13.430   5.392 -14.195  1.00  0.00     0.039 C 
ATOM      8  C   UNL     1     -11.712   7.115 -13.885  1.00  0.00    -0.023 CG0
ATOM      9  G   UNL     1     -10.789   8.284 -14.182  1.00  0.00     0.000 G0
ENDBRANCH   5   6
ENDBRANCH   4   5
ENDBRANCH   2   4
BRANCH   1  10
ATOM     10  C   UNL     1     -13.443  10.674 -14.629  1.00  0.00     0.111 C 
BRANCH  10  11
ATOM     11  C   UNL     1     -11.939  10.583 -14.535  1.00  0.00     0.163 C 
ATOM     12  O   UNL     1     -11.270  11.330 -15.300  1.00  0.00    -0.294 OA
BRANCH  11  13
ATOM     13  C   UNL     1     -11.215   9.650 -13.610  1.00  0.00    -0.002 C 
ATOM     14  C   UNL     1     -10.822  10.068 -12.367  1.00  0.00    -0.069 C 
ATOM     15  C   UNL     1      -9.896   9.245 -11.500  1.00  0.00     0.039 C 
ATOM     16  C   UNL     1     -11.337  11.357 -11.769  1.00  0.00     0.039 C 
BRANCH  13  17
ATOM     17  C   UNL     1     -10.776   8.298 -14.163  1.00  0.00     0.066 CG0
ATOM     18  G   UNL     1     -11.703   7.125 -13.897  1.00  0.00     0.000 G0
ENDBRANCH  13  17
ENDBRANCH  11  13
ENDBRANCH  10  11
ENDBRANCH   1  10
TORSDOF 0
ENDMDL
MODEL 5
REMARK VINA RESULT:    -3.176      3.128      5.180
REMARK INTER + INTRA:          -4.616
REMARK INTER:                  -4.914
REMARK INTRA:                   0.298
REMARK UNBOUND:                -0.141
REMARK SMILES CC1=CCC(=C(C)C)C(=O)CC(C)=CCC1
REMARK SMILES IDX 12 1 14 2 13 3 15 4 16 5 2 6 1 7 3 8 11 10 9 11 10 12 5 13
REMARK SMILES IDX 6 14 7 15 8 16 4 17
REMARK H PARENT
REMARK Flexibility Score: 60.00
ROOT
ATOM      1  C   UNL     1     -13.382   9.927 -18.272  1.00  0.00    -0.070 C 
ATOM      2  C   UNL     1     -13.394   8.857 -17.445  1.00  0.00    -0.027 C 
ATOM      3  C   UNL     1     -12.574   9.834 -19.541  1.00  0.00     0.039 C 
ENDROOT
BRANCH   2   4
ATOM      4  C   UNL     1     -14.259   8.724 -16.217  1.00  0.00     0.032 C 
BRANCH   4   5
ATOM      5  C   UNL     1     -13.384   8.410 -14.997  1.00  0.00     0.034 C 
BRANCH   5   6
ATOM      6  C   UNL     1     -12.198   9.345 -14.879  1.00  0.00    -0.077 C 
ATOM      7  C   UNL     1     -10.808   8.765 -14.978  1.00  0.00     0.039 C 
ATOM      8  C   UNL     1     -12.310  10.671 -14.617  1.00  0.00    -0.023 CG0
ATOM      9  G   UNL     1     -13.585  11.490 -14.532  1.00  0.00     0.000 G0
ENDBRANCH   5   6
ENDBRANCH   4   5
ENDBRANCH   2   4
BRANCH   1  10
ATOM     10  C   UNL     1     -14.119  11.217 -17.977  1.00  0.00     0.111 C 
BRANCH  10  11
ATOM     11  C   UNL     1     -13.336  12.115 -17.049  1.00  0.00     0.163 C 
ATOM     12  O   UNL     1     -12.221  12.535 -17.461  1.00  0.00    -0.294 OA
BRANCH  11  13
ATOM     13  C   UNL     1     -13.802  12.506 -15.676  1.00  0.00    -0.002 C 
ATOM     14  C   UNL     1     -14.256  13.774 -15.431  1.00  0.00    -0.069 C 
ATOM     15  C   UNL     1     -14.512  14.276 -14.028  1.00  0.00     0.039 C 
ATOM     16  C   UNL     1     -14.577  14.730 -16.558  1.00  0.00     0.039 C 
BRANCH  13  17
ATOM     17  C   UNL     1     -13.581  11.514 -14.541  1.00  0.00     0.066 CG0
ATOM     18  G   UNL     1     -12.315  10.678 -14.609  1.00  0.00     0.000 G0
ENDBRANCH  13  17
ENDBRANCH  11  13
ENDBRANCH  10  11
ENDBRANCH   1  10
TORSDOF 0
ENDMDL
MODEL 6
REMARK VINA RESULT:    -3.156     10.252     11.747
REMARK INTER + INTRA:          -4.588
REMARK INTER:                  -4.418
REMARK INTRA:                  -0.169
REMARK UNBOUND:                -0.141
REMARK SMILES CC1=CCC(=C(C)C)C(=O)CC(C)=CCC1
REMARK SMILES IDX 12 1 14 2 13 3 15 4 16 5 2 6 1 7 3 8 11 10 9 11 10 12 5 13
REMARK SMILES IDX 6 14 7 15 8 16 4 17
REMARK H PARENT
REMARK Flexibility Score: 60.00
ROOT
ATOM      1  C   UNL     1      -0.645   9.500 -21.712  1.00  0.00    -0.070 C 
ATOM      2  C   UNL     1      -0.189   8.227 -21.700  1.00  0.00    -0.027 C 
ATOM      3  C   UNL     1      -0.483  10.325 -20.460  1.00  0.00     0.039 C 
ENDROOT
BRANCH   2   4
ATOM      4  C   UNL     1      -0.137   7.316 -22.900  1.00  0.00     0.032 C 
BRANCH   4   5
ATOM      5  C   UNL     1      -1.336   6.362 -22.881  1.00  0.00     0.034 C 
BRANCH   5   6
ATOM      6  C   UNL     1      -1.967   6.196 -24.248  1.00  0.00    -0.077 C 
ATOM      7  C   UNL     1      -1.312   5.264 -25.238  1.00  0.00     0.039 C 
ATOM      8  C   UNL     1      -3.053   6.894 -24.663  1.00  0.00    -0.023 CG0
ATOM      9  G   UNL     1      -3.913   7.838 -23.841  1.00  0.00     0.000 G0
ENDBRANCH   5   6
ENDBRANCH   4   5
ENDBRANCH   2   4
BRANCH   1  10
ATOM     10  C   UNL     1      -1.328  10.130 -22.909  1.00  0.00     0.111 C 
BRANCH  10  11
ATOM     11  C   UNL     1      -2.828   9.966 -22.853  1.00  0.00     0.163 C 
ATOM     12  O   UNL     1      -3.412  10.378 -21.814  1.00  0.00    -0.294 OA
BRANCH  11  13
ATOM     13  C   UNL     1      -3.640   9.330 -23.943  1.00  0.00    -0.002 C 
ATOM     14  C   UNL     1      -4.239  10.099 -24.905  1.00  0.00    -0.069 C 
ATOM     15  C   UNL     1      -5.247   9.527 -25.876  1.00  0.00     0.039 C 
ATOM     16  C   UNL     1      -3.884  11.558 -25.082  1.00  0.00     0.039 C 
BRANCH  13  17
ATOM     17  C   UNL     1      -3.924   7.836 -23.838  1.00  0.00     0.066 CG0
ATOM     18  G   UNL     1      -3.042   6.920 -24.668  1.00  0.00     0.000 G0
ENDBRANCH  13  17
ENDBRANCH  11  13
ENDBRANCH  10  11
ENDBRANCH   1  10
TORSDOF 0
ENDMDL
MODEL 7
REMARK VINA RESULT:    -3.148      2.194      4.390
REMARK INTER + INTRA:          -4.577
REMARK INTER:                  -4.423
REMARK INTRA:                  -0.154
REMARK UNBOUND:                -0.141
REMARK SMILES CC1=CCC(=C(C)C)C(=O)CC(C)=CCC1
REMARK SMILES IDX 12 1 14 2 13 3 15 4 16 5 2 6 1 7 3 8 11 10 9 11 10 12 5 13
REMARK SMILES IDX 6 14 7 15 8 16 4 17
REMARK H PARENT
REMARK Flexibility Score: 60.00
ROOT
ATOM      1  C   UNL     1     -12.639   9.380 -19.951  1.00  0.00    -0.070 C 
ATOM      2  C   UNL     1     -13.329  10.534 -19.801  1.00  0.00    -0.027 C 
ATOM      3  C   UNL     1     -12.643   8.721 -21.307  1.00  0.00     0.039 C 
ENDROOT
BRANCH   2   4
ATOM      4  C   UNL     1     -13.312  11.397 -18.565  1.00  0.00     0.032 C 
BRANCH   4   5
ATOM      5  C   UNL     1     -14.492  11.029 -17.658  1.00  0.00     0.034 C 
BRANCH   5   6
ATOM      6  C   UNL     1     -14.098  10.952 -16.197  1.00  0.00    -0.077 C 
ATOM      7  C   UNL     1     -13.848  12.237 -15.448  1.00  0.00     0.039 C 
ATOM      8  C   UNL     1     -13.886   9.786 -15.538  1.00  0.00    -0.023 CG0
ATOM      9  G   UNL     1     -14.125   8.378 -16.052  1.00  0.00     0.000 G0
ENDBRANCH   5   6
ENDBRANCH   4   5
ENDBRANCH   2   4
BRANCH   1  10
ATOM     10  C   UNL     1     -11.881   8.710 -18.823  1.00  0.00     0.111 C 
BRANCH  10  11
ATOM     11  C   UNL     1     -12.724   7.678 -18.113  1.00  0.00     0.163 C 
ATOM     12  O   UNL     1     -13.307   6.820 -18.831  1.00  0.00    -0.294 OA
BRANCH  11  13
ATOM     13  C   UNL     1     -12.917   7.636 -16.625  1.00  0.00    -0.002 C 
ATOM     14  C   UNL     1     -12.126   6.838 -15.843  1.00  0.00    -0.069 C 
ATOM     15  C   UNL     1     -12.432   6.590 -14.384  1.00  0.00     0.039 C 
ATOM     16  C   UNL     1     -10.867   6.200 -16.385  1.00  0.00     0.039 C 
BRANCH  13  17
ATOM     17  C   UNL     1     -14.125   8.362 -16.044  1.00  0.00     0.066 CG0
ATOM     18  G   UNL     1     -13.886   9.770 -15.531  1.00  0.00     0.000 G0
ENDBRANCH  13  17
ENDBRANCH  11  13
ENDBRANCH  10  11
ENDBRANCH   1  10
TORSDOF 0
ENDMDL
MODEL 8
REMARK VINA RESULT:    -3.109      7.379      9.500
REMARK INTER + INTRA:          -4.522
REMARK INTER:                  -4.512
REMARK INTRA:                  -0.010
REMARK UNBOUND:                -0.141
REMARK SMILES CC1=CCC(=C(C)C)C(=O)CC(C)=CCC1
REMARK SMILES IDX 12 1 14 2 13 3 15 4 16 5 2 6 1 7 3 8 11 10 9 11 10 12 5 13
REMARK SMILES IDX 6 14 7 15 8 16 4 17
REMARK H PARENT
REMARK Flexibility Score: 60.00
ROOT
ATOM      1  C   UNL     1      -9.260  13.747 -10.007  1.00  0.00    -0.070 C 
ATOM      2  C   UNL     1      -9.451  14.758 -10.885  1.00  0.00    -0.027 C 
ATOM      3  C   UNL     1      -8.221  13.928  -8.930  1.00  0.00     0.039 C 
ENDROOT
BRANCH   2   4
ATOM      4  C   UNL     1     -10.541  14.805 -11.925  1.00  0.00     0.032 C 
BRANCH   4   5
ATOM      5  C   UNL     1     -10.053  14.146 -13.220  1.00  0.00     0.034 C 
BRANCH   5   6
ATOM      6  C   UNL     1     -11.051  13.150 -13.775  1.00  0.00    -0.077 C 
ATOM      7  C   UNL     1     -12.336  13.671 -14.369  1.00  0.00     0.039 C 
ATOM      8  C   UNL     1     -10.888  11.806 -13.705  1.00  0.00    -0.023 CG0
ATOM      9  G   UNL     1      -9.668  11.048 -13.212  1.00  0.00     0.000 G0
ENDBRANCH   5   6
ENDBRANCH   4   5
ENDBRANCH   2   4
BRANCH   1  10
ATOM     10  C   UNL     1     -10.021  12.438 -10.065  1.00  0.00     0.111 C 
BRANCH  10  11
ATOM     11  C   UNL     1      -9.206  11.338 -10.702  1.00  0.00     0.163 C 
ATOM     12  O   UNL     1      -8.033  11.170 -10.270  1.00  0.00    -0.294 OA
BRANCH  11  13
ATOM     13  C   UNL     1      -9.705  10.467 -11.817  1.00  0.00    -0.002 C 
ATOM     14  C   UNL     1     -10.034   9.159 -11.584  1.00  0.00    -0.069 C 
ATOM     15  C   UNL     1     -10.316   8.190 -12.710  1.00  0.00     0.039 C 
ATOM     16  C   UNL     1     -10.185   8.621 -10.179  1.00  0.00     0.039 C 
BRANCH  13  17
ATOM     17  C   UNL     1      -9.658  11.028 -13.234  1.00  0.00     0.066 CG0
ATOM     18  G   UNL     1     -10.879  11.805 -13.694  1.00  0.00     0.000 G0
ENDBRANCH  13  17
ENDBRANCH  11  13
ENDBRANCH  10  11
ENDBRANCH   1  10
TORSDOF 0
ENDMDL
MODEL 9
REMARK VINA RESULT:    -3.022      9.972     11.794
REMARK INTER + INTRA:          -4.399
REMARK INTER:                  -4.594
REMARK INTRA:                   0.196
REMARK UNBOUND:                -0.141
REMARK SMILES CC1=CCC(=C(C)C)C(=O)CC(C)=CCC1
REMARK SMILES IDX 12 1 14 2 13 3 15 4 16 5 2 6 1 7 3 8 11 10 9 11 10 12 5 13
REMARK SMILES IDX 6 14 7 15 8 16 4 17
REMARK H PARENT
REMARK Flexibility Score: 60.00
ROOT
ATOM      1  C   UNL     1      -2.737  15.933 -22.547  1.00  0.00    -0.070 C 
ATOM      2  C   UNL     1      -2.199  14.724 -22.265  1.00  0.00    -0.027 C 
ATOM      3  C   UNL     1      -3.120  16.826 -21.394  1.00  0.00     0.039 C 
ENDROOT
BRANCH   2   4
ATOM      4  C   UNL     1      -1.628  13.773 -23.285  1.00  0.00     0.032 C 
BRANCH   4   5
ATOM      5  C   UNL     1      -2.452  12.481 -23.310  1.00  0.00     0.034 C 
BRANCH   5   6
ATOM      6  C   UNL     1      -3.360  12.395 -24.520  1.00  0.00    -0.077 C 
ATOM      7  C   UNL     1      -2.878  11.638 -25.733  1.00  0.00     0.039 C 
ATOM      8  C   UNL     1      -4.559  13.022 -24.604  1.00  0.00    -0.023 CG0
ATOM      9  G   UNL     1      -5.279  13.787 -23.508  1.00  0.00     0.000 G0
ENDBRANCH   5   6
ENDBRANCH   4   5
ENDBRANCH   2   4
BRANCH   1  10
ATOM     10  C   UNL     1      -2.990  16.424 -23.958  1.00  0.00     0.111 C 
BRANCH  10  11
ATOM     11  C   UNL     1      -4.340  15.984 -24.474  1.00  0.00     0.163 C 
ATOM     12  O   UNL     1      -4.603  16.236 -25.681  1.00  0.00    -0.294 OA
BRANCH  11  13
ATOM     13  C   UNL     1      -5.372  15.294 -23.631  1.00  0.00    -0.002 C 
ATOM     14  C   UNL     1      -6.259  16.020 -22.883  1.00  0.00    -0.069 C 
ATOM     15  C   UNL     1      -7.154  15.374 -21.850  1.00  0.00     0.039 C 
ATOM     16  C   UNL     1      -6.431  17.508 -23.088  1.00  0.00     0.039 C 
BRANCH  13  17
ATOM     17  C   UNL     1      -5.280  13.778 -23.493  1.00  0.00     0.066 CG0
ATOM     18  G   UNL     1      -4.568  13.039 -24.612  1.00  0.00     0.000 G0
ENDBRANCH  13  17
ENDBRANCH  11  13
ENDBRANCH  10  11
ENDBRANCH   1  10
TORSDOF 0
ENDMDL
