MODEL 1
REMARK VINA RESULT:     7.475      0.000      0.000
REMARK INTER + INTRA:          12.193
REMARK INTER:                  13.156
REMARK INTRA:                  -0.963
REMARK UNBOUND:                -0.963
REMARK SMILES CCCCCCC=CCCCCCCCC(=O)[O-]
REMARK SMILES IDX 10 1 11 2 12 3 13 4 14 5 15 6 16 7 17 8 18 9 9 10 8 11 7 12
REMARK SMILES IDX 6 13 5 14 4 15 3 16 2 17 1 18
REMARK H PARENT
REMARK Flexibility Score: inf
ROOT
ATOM      1  C   UNL     1      -4.908 103.187  62.173  1.00  0.00     0.004 C 
ENDROOT
BRANCH   1   2
ATOM      2  C   UNL     1      -3.947 101.987  62.182  1.00  0.00     0.000 C 
BRANCH   2   3
ATOM      3  C   UNL     1      -3.573 101.537  63.602  1.00  0.00     0.000 C 
BRANCH   3   4
ATOM      4  C   UNL     1      -2.089 101.144  63.679  1.00  0.00     0.000 C 
BRANCH   4   5
ATOM      5  C   UNL     1      -1.246 101.795  62.570  1.00  0.00     0.006 C 
BRANCH   5   6
ATOM      6  C   UNL     1       0.143 102.226  63.058  1.00  0.00     0.053 C 
BRANCH   6   7
ATOM      7  C   UNL     1       1.036 102.522  61.894  1.00  0.00     0.041 C 
ATOM      8  O   UNL     1       1.246 101.642  61.018  1.00  0.00    -0.550 OA
ATOM      9  O   UNL     1       1.596 103.785  61.750  1.00  0.00    -0.550 OA
ENDBRANCH   6   7
ENDBRANCH   5   6
ENDBRANCH   4   5
ENDBRANCH   3   4
ENDBRANCH   2   3
ENDBRANCH   1   2
BRANCH   1  10
ATOM     10  C   UNL     1      -4.726 104.098  63.395  1.00  0.00     0.027 C 
BRANCH  10  11
ATOM     11  C   UNL     1      -3.701 105.172  63.125  1.00  0.00    -0.031 C 
ATOM     12  C   UNL     1      -3.571 106.283  63.874  1.00  0.00    -0.031 C 
BRANCH  12  13
ATOM     13  C   UNL     1      -4.404 106.600  65.093  1.00  0.00     0.027 C 
BRANCH  13  14
ATOM     14  C   UNL     1      -4.187 108.044  65.562  1.00  0.00     0.004 C 
BRANCH  14  15
ATOM     15  C   UNL     1      -5.193 108.458  66.649  1.00  0.00     0.000 C 
BRANCH  15  16
ATOM     16  C   UNL     1      -6.443 107.564  66.670  1.00  0.00    -0.000 C 
BRANCH  16  17
ATOM     17  C   UNL     1      -7.710 108.307  66.223  1.00  0.00    -0.003 C 
ATOM     18  C   UNL     1      -8.125 109.354  67.252  1.00  0.00     0.004 C 
ENDBRANCH  16  17
ENDBRANCH  15  16
ENDBRANCH  14  15
ENDBRANCH  13  14
ENDBRANCH  12  13
ENDBRANCH  10  11
ENDBRANCH   1  10
TORSDOF 13
ENDMDL
MODEL 2
REMARK VINA RESULT:     8.062      4.055      8.502
REMARK INTER + INTRA:          13.225
REMARK INTER:                  14.068
REMARK INTRA:                  -0.842
REMARK UNBOUND:                -0.963
REMARK SMILES CCCCCCC=CCCCCCCCC(=O)[O-]
REMARK SMILES IDX 10 1 11 2 12 3 13 4 14 5 15 6 16 7 17 8 18 9 9 10 8 11 7 12
REMARK SMILES IDX 6 13 5 14 4 15 3 16 2 17 1 18
REMARK H PARENT
REMARK Flexibility Score: inf
ROOT
ATOM      1  C   UNL     1      -3.540 105.276  63.254  1.00  0.00     0.004 C 
ENDROOT
BRANCH   1   2
ATOM      2  C   UNL     1      -4.148 106.623  63.675  1.00  0.00     0.000 C 
BRANCH   2   3
ATOM      3  C   UNL     1      -4.336 106.740  65.195  1.00  0.00     0.000 C 
BRANCH   3   4
ATOM      4  C   UNL     1      -4.026 108.166  65.678  1.00  0.00     0.000 C 
BRANCH   4   5
ATOM      5  C   UNL     1      -5.064 108.690  66.683  1.00  0.00     0.006 C 
BRANCH   5   6
ATOM      6  C   UNL     1      -6.317 107.807  66.755  1.00  0.00     0.053 C 
BRANCH   6   7
ATOM      7  C   UNL     1      -7.549 108.633  66.559  1.00  0.00     0.041 C 
ATOM      8  O   UNL     1      -8.047 109.268  67.527  1.00  0.00    -0.550 OA
ATOM      9  O   UNL     1      -8.119 108.744  65.297  1.00  0.00    -0.550 OA
ENDBRANCH   6   7
ENDBRANCH   5   6
ENDBRANCH   4   5
ENDBRANCH   3   4
ENDBRANCH   2   3
ENDBRANCH   1   2
BRANCH   1  10
ATOM     10  C   UNL     1      -4.431 104.083  63.627  1.00  0.00     0.027 C 
BRANCH  10  11
ATOM     11  C   UNL     1      -4.669 103.188  62.436  1.00  0.00    -0.031 C 
ATOM     12  C   UNL     1      -3.960 102.072  62.190  1.00  0.00    -0.031 C 
BRANCH  12  13
ATOM     13  C   UNL     1      -2.853 101.544  63.072  1.00  0.00     0.027 C 
BRANCH  13  14
ATOM     14  C   UNL     1      -1.575 101.272  62.268  1.00  0.00     0.004 C 
BRANCH  14  15
ATOM     15  C   UNL     1      -0.349 101.976  62.872  1.00  0.00     0.000 C 
BRANCH  15  16
ATOM     16  C   UNL     1       0.881 101.915  61.952  1.00  0.00    -0.000 C 
BRANCH  16  17
ATOM     17  C   UNL     1       1.508 103.295  61.707  1.00  0.00    -0.003 C 
ATOM     18  C   UNL     1       0.668 104.399  62.342  1.00  0.00     0.004 C 
ENDBRANCH  16  17
ENDBRANCH  15  16
ENDBRANCH  14  15
ENDBRANCH  13  14
ENDBRANCH  12  13
ENDBRANCH  10  11
ENDBRANCH   1  10
TORSDOF 13
ENDMDL
MODEL 3
REMARK VINA RESULT:     8.529      7.099      9.937
REMARK INTER + INTRA:          14.048
REMARK INTER:                  14.852
REMARK INTRA:                  -0.804
REMARK UNBOUND:                -0.963
REMARK SMILES CCCCCCC=CCCCCCCCC(=O)[O-]
REMARK SMILES IDX 10 1 11 2 12 3 13 4 14 5 15 6 16 7 17 8 18 9 9 10 8 11 7 12
REMARK SMILES IDX 6 13 5 14 4 15 3 16 2 17 1 18
REMARK H PARENT
REMARK Flexibility Score: inf
ROOT
ATOM      1  C   UNL     1      -2.847 110.726  65.169  1.00  0.00     0.004 C 
ENDROOT
BRANCH   1   2
ATOM      2  C   UNL     1      -3.131 112.234  65.090  1.00  0.00     0.000 C 
BRANCH   2   3
ATOM      3  C   UNL     1      -2.756 112.977  66.382  1.00  0.00     0.000 C 
BRANCH   3   4
ATOM      4  C   UNL     1      -3.967 113.086  67.322  1.00  0.00     0.000 C 
BRANCH   4   5
ATOM      5  C   UNL     1      -5.101 113.937  66.730  1.00  0.00     0.006 C 
BRANCH   5   6
ATOM      6  C   UNL     1      -6.182 114.285  67.763  1.00  0.00     0.053 C 
BRANCH   6   7
ATOM      7  C   UNL     1      -5.729 115.418  68.629  1.00  0.00     0.041 C 
ATOM      8  O   UNL     1      -6.466 115.837  69.561  1.00  0.00    -0.550 OA
ATOM      9  O   UNL     1      -4.472 115.978  68.441  1.00  0.00    -0.550 OA
ENDBRANCH   6   7
ENDBRANCH   5   6
ENDBRANCH   4   5
ENDBRANCH   3   4
ENDBRANCH   2   3
ENDBRANCH   1   2
BRANCH   1  10
ATOM     10  C   UNL     1      -4.020 109.934  65.765  1.00  0.00     0.027 C 
BRANCH  10  11
ATOM     11  C   UNL     1      -4.097 108.548  65.175  1.00  0.00    -0.031 C 
ATOM     12  C   UNL     1      -4.263 107.433  65.910  1.00  0.00    -0.031 C 
BRANCH  12  13
ATOM     13  C   UNL     1      -4.420 107.410  67.412  1.00  0.00     0.027 C 
BRANCH  13  14
ATOM     14  C   UNL     1      -5.893 107.285  67.822  1.00  0.00     0.004 C 
BRANCH  14  15
ATOM     15  C   UNL     1      -6.766 106.730  66.685  1.00  0.00     0.000 C 
BRANCH  15  16
ATOM     16  C   UNL     1      -8.123 107.444  66.578  1.00  0.00    -0.000 C 
BRANCH  16  17
ATOM     17  C   UNL     1      -7.981 108.963  66.407  1.00  0.00    -0.003 C 
ATOM     18  C   UNL     1      -8.125 109.682  67.745  1.00  0.00     0.004 C 
ENDBRANCH  16  17
ENDBRANCH  15  16
ENDBRANCH  14  15
ENDBRANCH  13  14
ENDBRANCH  12  13
ENDBRANCH  10  11
ENDBRANCH   1  10
TORSDOF 13
ENDMDL
MODEL 4
REMARK VINA RESULT:     8.905      3.664      5.555
REMARK INTER + INTRA:          14.709
REMARK INTER:                  15.437
REMARK INTRA:                  -0.728
REMARK UNBOUND:                -0.963
REMARK SMILES CCCCCCC=CCCCCCCCC(=O)[O-]
REMARK SMILES IDX 10 1 11 2 12 3 13 4 14 5 15 6 16 7 17 8 18 9 9 10 8 11 7 12
REMARK SMILES IDX 6 13 5 14 4 15 3 16 2 17 1 18
REMARK H PARENT
REMARK Flexibility Score: inf
ROOT
ATOM      1  C   UNL     1      -6.914 107.268  66.924  1.00  0.00     0.004 C 
ENDROOT
BRANCH   1   2
ATOM      2  C   UNL     1      -5.806 106.293  67.352  1.00  0.00     0.000 C 
BRANCH   2   3
ATOM      3  C   UNL     1      -5.867 104.956  66.597  1.00  0.00     0.000 C 
BRANCH   3   4
ATOM      4  C   UNL     1      -5.050 105.024  65.298  1.00  0.00     0.000 C 
BRANCH   4   5
ATOM      5  C   UNL     1      -4.762 103.634  64.707  1.00  0.00     0.006 C 
BRANCH   5   6
ATOM      6  C   UNL     1      -4.303 103.696  63.243  1.00  0.00     0.053 C 
BRANCH   6   7
ATOM      7  C   UNL     1      -3.949 102.329  62.750  1.00  0.00     0.041 C 
ATOM      8  O   UNL     1      -4.300 101.961  61.598  1.00  0.00    -0.550 OA
ATOM      9  O   UNL     1      -3.188 101.479  63.543  1.00  0.00    -0.550 OA
ENDBRANCH   6   7
ENDBRANCH   5   6
ENDBRANCH   4   5
ENDBRANCH   3   4
ENDBRANCH   2   3
ENDBRANCH   1   2
BRANCH   1  10
ATOM     10  C   UNL     1      -6.360 108.535  66.257  1.00  0.00     0.027 C 
BRANCH  10  11
ATOM     11  C   UNL     1      -4.852 108.549  66.282  1.00  0.00    -0.031 C 
ATOM     12  C   UNL     1      -4.120 109.662  66.472  1.00  0.00    -0.031 C 
BRANCH  12  13
ATOM     13  C   UNL     1      -4.694 111.038  66.711  1.00  0.00     0.027 C 
BRANCH  13  14
ATOM     14  C   UNL     1      -3.604 112.117  66.677  1.00  0.00     0.004 C 
BRANCH  14  15
ATOM     15  C   UNL     1      -4.006 113.374  67.465  1.00  0.00     0.000 C 
BRANCH  15  16
ATOM     16  C   UNL     1      -5.494 113.723  67.302  1.00  0.00    -0.000 C 
BRANCH  16  17
ATOM     17  C   UNL     1      -5.777 115.220  67.497  1.00  0.00    -0.003 C 
ATOM     18  C   UNL     1      -5.459 115.656  68.924  1.00  0.00     0.004 C 
ENDBRANCH  16  17
ENDBRANCH  15  16
ENDBRANCH  14  15
ENDBRANCH  13  14
ENDBRANCH  12  13
ENDBRANCH  10  11
ENDBRANCH   1  10
TORSDOF 13
ENDMDL
MODEL 5
REMARK VINA RESULT:     9.075      3.536      7.846
REMARK INTER + INTRA:          15.009
REMARK INTER:                  15.271
REMARK INTRA:                  -0.262
REMARK UNBOUND:                -0.963
REMARK SMILES CCCCCCC=CCCCCCCCC(=O)[O-]
REMARK SMILES IDX 10 1 11 2 12 3 13 4 14 5 15 6 16 7 17 8 18 9 9 10 8 11 7 12
REMARK SMILES IDX 6 13 5 14 4 15 3 16 2 17 1 18
REMARK H PARENT
REMARK Flexibility Score: inf
ROOT
ATOM      1  C   UNL     1      -4.708 103.793  62.485  1.00  0.00     0.004 C 
ENDROOT
BRANCH   1   2
ATOM      2  C   UNL     1      -3.668 104.597  63.282  1.00  0.00     0.000 C 
BRANCH   2   3
ATOM      3  C   UNL     1      -4.005 106.094  63.355  1.00  0.00     0.000 C 
BRANCH   3   4
ATOM      4  C   UNL     1      -4.360 106.506  64.792  1.00  0.00     0.000 C 
BRANCH   4   5
ATOM      5  C   UNL     1      -3.660 107.804  65.226  1.00  0.00     0.006 C 
BRANCH   5   6
ATOM      6  C   UNL     1      -4.488 108.616  66.231  1.00  0.00     0.053 C 
BRANCH   6   7
ATOM      7  C   UNL     1      -5.621 107.793  66.758  1.00  0.00     0.041 C 
ATOM      8  O   UNL     1      -5.396 106.832  67.541  1.00  0.00    -0.550 OA
ATOM      9  O   UNL     1      -6.931 108.117  66.424  1.00  0.00    -0.550 OA
ENDBRANCH   6   7
ENDBRANCH   5   6
ENDBRANCH   4   5
ENDBRANCH   3   4
ENDBRANCH   2   3
ENDBRANCH   1   2
BRANCH   1  10
ATOM     10  C   UNL     1      -4.284 102.333  62.265  1.00  0.00     0.027 C 
BRANCH  10  11
ATOM     11  C   UNL     1      -3.643 101.760  63.504  1.00  0.00    -0.031 C 
ATOM     12  C   UNL     1      -2.386 101.280  63.538  1.00  0.00    -0.031 C 
BRANCH  12  13
ATOM     13  C   UNL     1      -1.437 101.270  62.363  1.00  0.00     0.027 C 
BRANCH  13  14
ATOM     14  C   UNL     1      -0.022 101.693  62.779  1.00  0.00     0.004 C 
BRANCH  14  15
ATOM     15  C   UNL     1       0.909 101.872  61.569  1.00  0.00     0.000 C 
BRANCH  15  16
ATOM     16  C   UNL     1       1.795 103.122  61.684  1.00  0.00    -0.000 C 
BRANCH  16  17
ATOM     17  C   UNL     1       0.988 104.396  61.975  1.00  0.00    -0.003 C 
ATOM     18  C   UNL     1       0.955 104.696  63.471  1.00  0.00     0.004 C 
ENDBRANCH  16  17
ENDBRANCH  15  16
ENDBRANCH  14  15
ENDBRANCH  13  14
ENDBRANCH  12  13
ENDBRANCH  10  11
ENDBRANCH   1  10
TORSDOF 13
ENDMDL
MODEL 6
REMARK VINA RESULT:     9.128      5.813     10.039
REMARK INTER + INTRA:          15.102
REMARK INTER:                  15.378
REMARK INTRA:                  -0.276
REMARK UNBOUND:                -0.963
REMARK SMILES CCCCCCC=CCCCCCCCC(=O)[O-]
REMARK SMILES IDX 10 1 11 2 12 3 13 4 14 5 15 6 16 7 17 8 18 9 9 10 8 11 7 12
REMARK SMILES IDX 6 13 5 14 4 15 3 16 2 17 1 18
REMARK H PARENT
REMARK Flexibility Score: inf
ROOT
ATOM      1  C   UNL     1      -5.245 108.660  66.223  1.00  0.00     0.004 C 
ENDROOT
BRANCH   1   2
ATOM      2  C   UNL     1      -4.273 109.819  65.952  1.00  0.00     0.000 C 
BRANCH   2   3
ATOM      3  C   UNL     1      -4.444 110.981  66.943  1.00  0.00     0.000 C 
BRANCH   3   4
ATOM      4  C   UNL     1      -3.689 112.229  66.459  1.00  0.00     0.000 C 
BRANCH   4   5
ATOM      5  C   UNL     1      -4.041 113.486  67.271  1.00  0.00     0.006 C 
BRANCH   5   6
ATOM      6  C   UNL     1      -5.554 113.723  67.368  1.00  0.00     0.053 C 
BRANCH   6   7
ATOM      7  C   UNL     1      -5.838 115.165  67.651  1.00  0.00     0.041 C 
ATOM      8  O   UNL     1      -5.721 115.615  68.822  1.00  0.00    -0.550 OA
ATOM      9  O   UNL     1      -6.183 116.023  66.614  1.00  0.00    -0.550 OA
ENDBRANCH   6   7
ENDBRANCH   5   6
ENDBRANCH   4   5
ENDBRANCH   3   4
ENDBRANCH   2   3
ENDBRANCH   1   2
BRANCH   1  10
ATOM     10  C   UNL     1      -4.734 107.703  67.310  1.00  0.00     0.027 C 
BRANCH  10  11
ATOM     11  C   UNL     1      -5.631 106.496  67.437  1.00  0.00    -0.031 C 
ATOM     12  C   UNL     1      -5.624 105.468  66.569  1.00  0.00    -0.031 C 
BRANCH  12  13
ATOM     13  C   UNL     1      -4.711 105.361  65.370  1.00  0.00     0.027 C 
BRANCH  13  14
ATOM     14  C   UNL     1      -5.092 104.172  64.478  1.00  0.00     0.004 C 
BRANCH  14  15
ATOM     15  C   UNL     1      -4.267 104.134  63.181  1.00  0.00     0.000 C 
BRANCH  15  16
ATOM     16  C   UNL     1      -4.757 103.056  62.201  1.00  0.00    -0.000 C 
BRANCH  16  17
ATOM     17  C   UNL     1      -3.869 101.803  62.206  1.00  0.00    -0.003 C 
ATOM     18  C   UNL     1      -3.182 101.623  63.556  1.00  0.00     0.004 C 
ENDBRANCH  16  17
ENDBRANCH  15  16
ENDBRANCH  14  15
ENDBRANCH  13  14
ENDBRANCH  12  13
ENDBRANCH  10  11
ENDBRANCH   1  10
TORSDOF 13
ENDMDL
MODEL 7
REMARK VINA RESULT:     9.491      3.225      5.199
REMARK INTER + INTRA:          15.740
REMARK INTER:                  14.645
REMARK INTRA:                   1.095
REMARK UNBOUND:                -0.963
REMARK SMILES CCCCCCC=CCCCCCCCC(=O)[O-]
REMARK SMILES IDX 10 1 11 2 12 3 13 4 14 5 15 6 16 7 17 8 18 9 9 10 8 11 7 12
REMARK SMILES IDX 6 13 5 14 4 15 3 16 2 17 1 18
REMARK H PARENT
REMARK Flexibility Score: inf
ROOT
ATOM      1  C   UNL     1      -3.909 107.685  66.631  1.00  0.00     0.004 C 
ENDROOT
BRANCH   1   2
ATOM      2  C   UNL     1      -3.672 107.401  65.139  1.00  0.00     0.000 C 
BRANCH   2   3
ATOM      3  C   UNL     1      -4.285 106.067  64.685  1.00  0.00     0.000 C 
BRANCH   3   4
ATOM      4  C   UNL     1      -3.693 105.624  63.338  1.00  0.00     0.000 C 
BRANCH   4   5
ATOM      5  C   UNL     1      -4.396 104.384  62.762  1.00  0.00     0.006 C 
BRANCH   5   6
ATOM      6  C   UNL     1      -4.376 103.190  63.726  1.00  0.00     0.053 C 
BRANCH   6   7
ATOM      7  C   UNL     1      -3.738 102.004  63.074  1.00  0.00     0.041 C 
ATOM      8  O   UNL     1      -3.992 101.729  61.871  1.00  0.00    -0.550 OA
ATOM      9  O   UNL     1      -2.824 101.231  63.779  1.00  0.00    -0.550 OA
ENDBRANCH   6   7
ENDBRANCH   5   6
ENDBRANCH   4   5
ENDBRANCH   3   4
ENDBRANCH   2   3
ENDBRANCH   1   2
BRANCH   1  10
ATOM     10  C   UNL     1      -5.170 106.995  67.171  1.00  0.00     0.027 C 
BRANCH  10  11
ATOM     11  C   UNL     1      -6.377 107.891  67.043  1.00  0.00    -0.031 C 
ATOM     12  C   UNL     1      -6.314 109.175  66.646  1.00  0.00    -0.031 C 
BRANCH  12  13
ATOM     13  C   UNL     1      -5.043 109.890  66.249  1.00  0.00     0.027 C 
BRANCH  13  14
ATOM     14  C   UNL     1      -4.702 111.017  67.233  1.00  0.00     0.004 C 
BRANCH  14  15
ATOM     15  C   UNL     1      -4.032 112.212  66.535  1.00  0.00     0.000 C 
BRANCH  15  16
ATOM     16  C   UNL     1      -4.122 113.505  67.361  1.00  0.00    -0.000 C 
BRANCH  16  17
ATOM     17  C   UNL     1      -5.536 114.106  67.370  1.00  0.00    -0.003 C 
ATOM     18  C   UNL     1      -5.571 115.415  68.152  1.00  0.00     0.004 C 
ENDBRANCH  16  17
ENDBRANCH  15  16
ENDBRANCH  14  15
ENDBRANCH  13  14
ENDBRANCH  12  13
ENDBRANCH  10  11
ENDBRANCH   1  10
TORSDOF 13
ENDMDL
MODEL 8
REMARK VINA RESULT:     9.882      3.108      7.905
REMARK INTER + INTRA:          16.430
REMARK INTER:                  16.145
REMARK INTRA:                   0.284
REMARK UNBOUND:                -0.963
REMARK SMILES CCCCCCC=CCCCCCCCC(=O)[O-]
REMARK SMILES IDX 10 1 11 2 12 3 13 4 14 5 15 6 16 7 17 8 18 9 9 10 8 11 7 12
REMARK SMILES IDX 6 13 5 14 4 15 3 16 2 17 1 18
REMARK H PARENT
REMARK Flexibility Score: inf
ROOT
ATOM      1  C   UNL     1      -4.744 103.879  64.528  1.00  0.00     0.004 C 
ENDROOT
BRANCH   1   2
ATOM      2  C   UNL     1      -5.176 105.147  65.283  1.00  0.00     0.000 C 
BRANCH   2   3
ATOM      3  C   UNL     1      -5.937 104.834  66.581  1.00  0.00     0.000 C 
BRANCH   3   4
ATOM      4  C   UNL     1      -6.134 106.106  67.420  1.00  0.00     0.000 C 
BRANCH   4   5
ATOM      5  C   UNL     1      -6.807 107.239  66.628  1.00  0.00     0.006 C 
BRANCH   5   6
ATOM      6  C   UNL     1      -5.930 108.495  66.530  1.00  0.00     0.053 C 
BRANCH   6   7
ATOM      7  C   UNL     1      -4.486 108.134  66.675  1.00  0.00     0.041 C 
ATOM      8  O   UNL     1      -4.048 107.701  67.774  1.00  0.00    -0.550 OA
ATOM      9  O   UNL     1      -3.632 108.229  65.582  1.00  0.00    -0.550 OA
ENDBRANCH   6   7
ENDBRANCH   5   6
ENDBRANCH   4   5
ENDBRANCH   3   4
ENDBRANCH   2   3
ENDBRANCH   1   2
BRANCH   1  10
ATOM     10  C   UNL     1      -4.380 104.160  63.063  1.00  0.00     0.027 C 
BRANCH  10  11
ATOM     11  C   UNL     1      -4.657 102.958  62.194  1.00  0.00    -0.031 C 
ATOM     12  C   UNL     1      -3.906 101.842  62.204  1.00  0.00    -0.031 C 
BRANCH  12  13
ATOM     13  C   UNL     1      -2.707 101.621  63.096  1.00  0.00     0.027 C 
BRANCH  13  14
ATOM     14  C   UNL     1      -1.476 101.193  62.286  1.00  0.00     0.004 C 
BRANCH  14  15
ATOM     15  C   UNL     1      -0.214 101.972  62.694  1.00  0.00     0.000 C 
BRANCH  15  16
ATOM     16  C   UNL     1       0.899 101.889  61.636  1.00  0.00    -0.000 C 
BRANCH  16  17
ATOM     17  C   UNL     1       1.834 103.107  61.663  1.00  0.00    -0.003 C 
ATOM     18  C   UNL     1       1.126 104.329  62.241  1.00  0.00     0.004 C 
ENDBRANCH  16  17
ENDBRANCH  15  16
ENDBRANCH  14  15
ENDBRANCH  13  14
ENDBRANCH  12  13
ENDBRANCH  10  11
ENDBRANCH   1  10
TORSDOF 13
ENDMDL
