MODEL 1
REMARK VINA RESULT:    -3.169      0.000      0.000
REMARK INTER + INTRA:          -5.336
REMARK INTER:                  -4.836
REMARK INTRA:                  -0.499
REMARK UNBOUND:                -0.499
REMARK SMILES CC1=CCC[C@H](C)C(=O)C[C@@H](C(C)C)C(=O)C1
REMARK SMILES IDX 8 1 9 2 6 3 7 4 5 5 4 6 3 7 2 8 1 9 10 11 11 12 15 13 16 14
REMARK SMILES IDX 17 15 12 17 13 18 14 19
REMARK H PARENT
REMARK Flexibility Score: 70.00
ROOT
ATOM      1  C   UNL     1     -12.878  11.285 -14.243  1.00  0.00     0.136 C 
ATOM      2  O   UNL     1     -13.315  11.231 -13.103  1.00  0.00    -0.299 OA
ENDROOT
BRANCH   1   3
ATOM      3  C   UNL     1     -12.581   9.959 -14.961  1.00  0.00     0.053 C 
ATOM      4  C   UNL     1     -11.817   9.004 -14.042  1.00  0.00     0.016 C 
BRANCH   3   5
ATOM      5  C   UNL     1     -13.903   9.367 -15.398  1.00  0.00     0.015 C 
BRANCH   5   6
ATOM      6  C   UNL     1     -14.527   9.582 -16.754  1.00  0.00     0.028 C 
BRANCH   6   7
ATOM      7  C   UNL     1     -13.413   9.656 -17.798  1.00  0.00    -0.028 C 
ATOM      8  C   UNL     1     -13.061  10.709 -18.612  1.00  0.00    -0.070 CG0
ATOM      9  C   UNL     1     -11.965  10.441 -19.616  1.00  0.00     0.039 C 
ATOM     10  G   UNL     1     -13.663  12.130 -18.593  1.00  0.00     0.000 G0
ENDBRANCH   6   7
ENDBRANCH   5   6
ENDBRANCH   3   5
ENDBRANCH   1   3
BRANCH   1  11
ATOM     11  C   UNL     1     -12.726  12.672 -14.902  1.00  0.00     0.087 C 
BRANCH  11  12
ATOM     12  C   UNL     1     -13.697  13.148 -16.062  1.00  0.00     0.066 C 
BRANCH  12  13
ATOM     13  C   UNL     1     -13.123  13.057 -17.500  1.00  0.00     0.140 C 
ATOM     14  O   UNL     1     -12.147  13.746 -17.765  1.00  0.00    -0.299 OA
BRANCH  13  15
ATOM     15  C   UNL     1     -13.662  12.145 -18.611  1.00  0.00     0.106 CG0
ATOM     16  G   UNL     1     -13.053  10.726 -18.600  1.00  0.00     0.000 G0
ENDBRANCH  13  15
ENDBRANCH  12  13
BRANCH  12  17
ATOM     17  C   UNL     1     -14.637  14.373 -15.768  1.00  0.00    -0.006 C 
ATOM     18  C   UNL     1     -14.032  15.775 -15.966  1.00  0.00     0.008 C 
ATOM     19  C   UNL     1     -15.222  14.291 -14.345  1.00  0.00     0.008 C 
ENDBRANCH  12  17
ENDBRANCH  11  12
ENDBRANCH   1  11
TORSDOF 1
ENDMDL
MODEL 2
REMARK VINA RESULT:    -3.149     11.524     13.130
REMARK INTER + INTRA:          -5.306
REMARK INTER:                  -4.716
REMARK INTRA:                  -0.589
REMARK UNBOUND:                -0.499
REMARK SMILES CC1=CCC[C@H](C)C(=O)C[C@@H](C(C)C)C(=O)C1
REMARK SMILES IDX 8 1 9 2 6 3 7 4 5 5 4 6 3 7 2 8 1 9 10 11 11 12 15 13 16 14
REMARK SMILES IDX 17 15 12 17 13 18 14 19
REMARK H PARENT
REMARK Flexibility Score: 70.00
ROOT
ATOM      1  C   UNL     1      -1.908   7.063 -15.713  1.00  0.00     0.136 C 
ATOM      2  O   UNL     1      -3.117   7.237 -15.743  1.00  0.00    -0.299 OA
ENDROOT
BRANCH   1   3
ATOM      3  C   UNL     1      -1.378   5.834 -14.958  1.00  0.00     0.053 C 
ATOM      4  C   UNL     1       0.110   5.620 -15.244  1.00  0.00     0.016 C 
BRANCH   3   5
ATOM      5  C   UNL     1      -1.631   6.056 -13.483  1.00  0.00     0.015 C 
BRANCH   5   6
ATOM      6  C   UNL     1      -1.005   7.161 -12.669  1.00  0.00     0.028 C 
BRANCH   6   7
ATOM      7  C   UNL     1      -2.102   8.139 -12.247  1.00  0.00    -0.028 C 
ATOM      8  C   UNL     1      -2.198   9.488 -12.498  1.00  0.00    -0.070 CG0
ATOM      9  C   UNL     1      -3.365  10.206 -11.862  1.00  0.00     0.039 C 
ATOM     10  G   UNL     1      -1.244  10.335 -13.367  1.00  0.00     0.000 G0
ENDBRANCH   6   7
ENDBRANCH   5   6
ENDBRANCH   3   5
ENDBRANCH   1   3
BRANCH   1  11
ATOM     11  C   UNL     1      -1.009   8.048 -16.491  1.00  0.00     0.087 C 
BRANCH  11  12
ATOM     12  C   UNL     1      -0.446   9.365 -15.812  1.00  0.00     0.066 C 
BRANCH  12  13
ATOM     13  C   UNL     1      -1.438  10.129 -14.896  1.00  0.00     0.140 C 
ATOM     14  O   UNL     1      -2.463  10.560 -15.407  1.00  0.00    -0.299 OA
BRANCH  13  15
ATOM     15  C   UNL     1      -1.252  10.358 -13.390  1.00  0.00     0.106 CG0
ATOM     16  G   UNL     1      -2.186   9.499 -12.510  1.00  0.00     0.000 G0
ENDBRANCH  13  15
ENDBRANCH  12  13
BRANCH  12  17
ATOM     17  C   UNL     1       0.541  10.252 -16.655  1.00  0.00    -0.006 C 
ATOM     18  C   UNL     1       0.863  11.652 -16.100  1.00  0.00     0.008 C 
ATOM     19  C   UNL     1       0.045  10.406 -18.106  1.00  0.00     0.008 C 
ENDBRANCH  12  17
ENDBRANCH  11  12
ENDBRANCH   1  11
TORSDOF 1
ENDMDL
MODEL 3
REMARK VINA RESULT:    -3.065     10.226     12.089
REMARK INTER + INTRA:          -5.178
REMARK INTER:                  -4.879
REMARK INTRA:                  -0.299
REMARK UNBOUND:                -0.499
REMARK SMILES CC1=CCC[C@H](C)C(=O)C[C@@H](C(C)C)C(=O)C1
REMARK SMILES IDX 8 1 9 2 6 3 7 4 5 5 4 6 3 7 2 8 1 9 10 11 11 12 15 13 16 14
REMARK SMILES IDX 17 15 12 17 13 18 14 19
REMARK H PARENT
REMARK Flexibility Score: 70.00
ROOT
ATOM      1  C   UNL     1      -4.461  13.148 -11.874  1.00  0.00     0.136 C 
ATOM      2  O   UNL     1      -5.405  13.749 -11.382  1.00  0.00    -0.299 OA
ENDROOT
BRANCH   1   3
ATOM      3  C   UNL     1      -3.088  13.838 -11.865  1.00  0.00     0.053 C 
ATOM      4  C   UNL     1      -3.245  15.361 -11.858  1.00  0.00     0.016 C 
BRANCH   3   5
ATOM      5  C   UNL     1      -2.339  13.356 -10.642  1.00  0.00     0.015 C 
BRANCH   5   6
ATOM      6  C   UNL     1      -1.133  12.451 -10.684  1.00  0.00     0.028 C 
BRANCH   6   7
ATOM      7  C   UNL     1      -0.671  12.319 -12.135  1.00  0.00    -0.028 C 
ATOM      8  C   UNL     1      -0.720  11.219 -12.961  1.00  0.00    -0.070 CG0
ATOM      9  C   UNL     1      -0.094  11.377 -14.326  1.00  0.00     0.039 C 
ATOM     10  G   UNL     1      -1.357   9.851 -12.636  1.00  0.00     0.000 G0
ENDBRANCH   6   7
ENDBRANCH   5   6
ENDBRANCH   3   5
ENDBRANCH   1   3
BRANCH   1  11
ATOM     11  C   UNL     1      -4.701  11.718 -12.401  1.00  0.00     0.087 C 
BRANCH  11  12
ATOM     12  C   UNL     1      -3.888  10.481 -11.834  1.00  0.00     0.066 C 
BRANCH  12  13
ATOM     13  C   UNL     1      -2.882   9.827 -12.816  1.00  0.00     0.140 C 
ATOM     14  O   UNL     1      -3.337   9.275 -13.809  1.00  0.00    -0.299 OA
BRANCH  13  15
ATOM     15  C   UNL     1      -1.355   9.846 -12.660  1.00  0.00     0.106 CG0
ATOM     16  G   UNL     1      -0.715  11.217 -12.970  1.00  0.00     0.000 G0
ENDBRANCH  13  15
ENDBRANCH  12  13
BRANCH  12  17
ATOM     17  C   UNL     1      -4.640   9.502 -10.860  1.00  0.00    -0.006 C 
ATOM     18  C   UNL     1      -5.158   8.183 -11.464  1.00  0.00     0.008 C 
ATOM     19  C   UNL     1      -5.815  10.212 -10.160  1.00  0.00     0.008 C 
ENDBRANCH  12  17
ENDBRANCH  11  12
ENDBRANCH   1  11
TORSDOF 1
ENDMDL
MODEL 4
REMARK VINA RESULT:    -3.064     10.592     12.614
REMARK INTER + INTRA:          -5.176
REMARK INTER:                  -4.884
REMARK INTRA:                  -0.292
REMARK UNBOUND:                -0.499
REMARK SMILES CC1=CCC[C@H](C)C(=O)C[C@@H](C(C)C)C(=O)C1
REMARK SMILES IDX 8 1 9 2 6 3 7 4 5 5 4 6 3 7 2 8 1 9 10 11 11 12 15 13 16 14
REMARK SMILES IDX 17 15 12 17 13 18 14 19
REMARK H PARENT
REMARK Flexibility Score: 70.00
ROOT
ATOM      1  C   UNL     1      -4.004  10.568 -10.916  1.00  0.00     0.136 C 
ATOM      2  O   UNL     1      -4.304  10.434  -9.738  1.00  0.00    -0.299 OA
ENDROOT
BRANCH   1   3
ATOM      3  C   UNL     1      -3.848  11.997 -11.458  1.00  0.00     0.053 C 
ATOM      4  C   UNL     1      -5.177  12.754 -11.385  1.00  0.00     0.016 C 
BRANCH   3   5
ATOM      5  C   UNL     1      -2.776  12.685 -10.641  1.00  0.00     0.015 C 
BRANCH   5   6
ATOM      6  C   UNL     1      -1.316  12.728 -11.017  1.00  0.00     0.028 C 
BRANCH   6   7
ATOM      7  C   UNL     1      -1.201  13.123 -12.489  1.00  0.00    -0.028 C 
ATOM      8  C   UNL     1      -0.868  12.338 -13.569  1.00  0.00    -0.070 CG0
ATOM      9  C   UNL     1      -0.745  13.045 -14.898  1.00  0.00     0.039 C 
ATOM     10  G   UNL     1      -0.618  10.814 -13.560  1.00  0.00     0.000 G0
ENDBRANCH   6   7
ENDBRANCH   5   6
ENDBRANCH   3   5
ENDBRANCH   1   3
BRANCH   1  11
ATOM     11  C   UNL     1      -3.735   9.298 -11.750  1.00  0.00     0.087 C 
BRANCH  11  12
ATOM     12  C   UNL     1      -2.312   9.014 -12.388  1.00  0.00     0.066 C 
BRANCH  12  13
ATOM     13  C   UNL     1      -1.887   9.964 -13.539  1.00  0.00     0.140 C 
ATOM     14  O   UNL     1      -2.648  10.074 -14.492  1.00  0.00    -0.299 OA
BRANCH  13  15
ATOM     15  C   UNL     1      -0.603  10.804 -13.564  1.00  0.00     0.106 CG0
ATOM     16  G   UNL     1      -0.856  12.327 -13.565  1.00  0.00     0.000 G0
ENDBRANCH  13  15
ENDBRANCH  12  13
BRANCH  12  17
ATOM     17  C   UNL     1      -1.863   7.514 -12.527  1.00  0.00    -0.006 C 
ATOM     18  C   UNL     1      -0.723   7.220 -13.520  1.00  0.00     0.008 C 
ATOM     19  C   UNL     1      -3.060   6.609 -12.877  1.00  0.00     0.008 C 
ENDBRANCH  12  17
ENDBRANCH  11  12
ENDBRANCH   1  11
TORSDOF 1
ENDMDL
MODEL 5
REMARK VINA RESULT:    -3.017      4.809      7.469
REMARK INTER + INTRA:          -5.104
REMARK INTER:                  -4.522
REMARK INTRA:                  -0.581
REMARK UNBOUND:                -0.499
REMARK SMILES CC1=CCC[C@H](C)C(=O)C[C@@H](C(C)C)C(=O)C1
REMARK SMILES IDX 8 1 9 2 6 3 7 4 5 5 4 6 3 7 2 8 1 9 10 11 11 12 15 13 16 14
REMARK SMILES IDX 17 15 12 17 13 18 14 19
REMARK H PARENT
REMARK Flexibility Score: 70.00
ROOT
ATOM      1  C   UNL     1      -8.935   7.836 -10.884  1.00  0.00     0.136 C 
ATOM      2  O   UNL     1      -9.113   6.642 -10.688  1.00  0.00    -0.299 OA
ENDROOT
BRANCH   1   3
ATOM      3  C   UNL     1      -7.493   8.320 -11.099  1.00  0.00     0.053 C 
ATOM      4  C   UNL     1      -7.111   8.249 -12.579  1.00  0.00     0.016 C 
BRANCH   3   5
ATOM      5  C   UNL     1      -7.399   9.735 -10.572  1.00  0.00     0.015 C 
BRANCH   5   6
ATOM      6  C   UNL     1      -7.235  10.958 -11.439  1.00  0.00     0.028 C 
BRANCH   6   7
ATOM      7  C   UNL     1      -8.018  12.111 -10.812  1.00  0.00    -0.028 C 
ATOM      8  C   UNL     1      -9.195  12.685 -11.234  1.00  0.00    -0.070 CG0
ATOM      9  C   UNL     1      -9.677  13.881 -10.448  1.00  0.00     0.039 C 
ATOM     10  G   UNL     1     -10.074  12.224 -12.418  1.00  0.00     0.000 G0
ENDBRANCH   6   7
ENDBRANCH   5   6
ENDBRANCH   3   5
ENDBRANCH   1   3
BRANCH   1  11
ATOM     11  C   UNL     1     -10.173   8.753 -10.972  1.00  0.00     0.087 C 
BRANCH  11  12
ATOM     12  C   UNL     1     -10.521   9.546 -12.300  1.00  0.00     0.066 C 
BRANCH  12  13
ATOM     13  C   UNL     1     -10.963  11.021 -12.109  1.00  0.00     0.140 C 
ATOM     14  O   UNL     1     -12.080  11.223 -11.650  1.00  0.00    -0.299 OA
BRANCH  13  15
ATOM     15  C   UNL     1     -10.096  12.250 -12.417  1.00  0.00     0.106 CG0
ATOM     16  G   UNL     1      -9.203  12.692 -11.238  1.00  0.00     0.000 G0
ENDBRANCH  13  15
ENDBRANCH  12  13
BRANCH  12  17
ATOM     17  C   UNL     1     -11.236   8.753 -13.454  1.00  0.00    -0.006 C 
ATOM     18  C   UNL     1     -10.560   7.452 -13.924  1.00  0.00     0.008 C 
ATOM     19  C   UNL     1     -11.467   9.654 -14.682  1.00  0.00     0.008 C 
ENDBRANCH  12  17
ENDBRANCH  11  12
ENDBRANCH   1  11
TORSDOF 1
ENDMDL
MODEL 6
REMARK VINA RESULT:    -2.975     10.312     12.430
REMARK INTER + INTRA:          -5.040
REMARK INTER:                  -4.639
REMARK INTRA:                  -0.401
REMARK UNBOUND:                -0.499
REMARK SMILES CC1=CCC[C@H](C)C(=O)C[C@@H](C(C)C)C(=O)C1
REMARK SMILES IDX 8 1 9 2 6 3 7 4 5 5 4 6 3 7 2 8 1 9 10 11 11 12 15 13 16 14
REMARK SMILES IDX 17 15 12 17 13 18 14 19
REMARK H PARENT
REMARK Flexibility Score: 70.00
ROOT
ATOM      1  C   UNL     1      -4.509   9.145 -24.779  1.00  0.00     0.136 C 
ATOM      2  O   UNL     1      -3.835   8.226 -25.222  1.00  0.00    -0.299 OA
ENDROOT
BRANCH   1   3
ATOM      3  C   UNL     1      -5.675   9.658 -25.638  1.00  0.00     0.053 C 
ATOM      4  C   UNL     1      -6.401   8.495 -26.319  1.00  0.00     0.016 C 
BRANCH   3   5
ATOM      5  C   UNL     1      -6.606  10.434 -24.732  1.00  0.00     0.015 C 
BRANCH   5   6
ATOM      6  C   UNL     1      -6.775  11.932 -24.767  1.00  0.00     0.028 C 
BRANCH   6   7
ATOM      7  C   UNL     1      -6.565  12.480 -23.355  1.00  0.00    -0.028 C 
ATOM      8  C   UNL     1      -5.438  13.052 -22.810  1.00  0.00    -0.070 CG0
ATOM      9  C   UNL     1      -5.513  13.413 -21.345  1.00  0.00     0.039 C 
ATOM     10  G   UNL     1      -4.117  13.368 -23.543  1.00  0.00     0.000 G0
ENDBRANCH   6   7
ENDBRANCH   5   6
ENDBRANCH   3   5
ENDBRANCH   1   3
BRANCH   1  11
ATOM     11  C   UNL     1      -4.183   9.673 -23.367  1.00  0.00     0.087 C 
BRANCH  11  12
ATOM     12  C   UNL     1      -3.122  10.829 -23.141  1.00  0.00     0.066 C 
BRANCH  12  13
ATOM     13  C   UNL     1      -3.331  12.111 -23.989  1.00  0.00     0.140 C 
ATOM     14  O   UNL     1      -2.873  12.119 -25.124  1.00  0.00    -0.299 OA
BRANCH  13  15
ATOM     15  C   UNL     1      -4.095  13.361 -23.530  1.00  0.00     0.106 CG0
ATOM     16  G   UNL     1      -5.425  13.046 -22.811  1.00  0.00     0.000 G0
ENDBRANCH  13  15
ENDBRANCH  12  13
BRANCH  12  17
ATOM     17  C   UNL     1      -1.631  10.407 -22.880  1.00  0.00    -0.006 C 
ATOM     18  C   UNL     1      -1.392   8.963 -22.400  1.00  0.00     0.008 C 
ATOM     19  C   UNL     1      -0.949  11.368 -21.888  1.00  0.00     0.008 C 
ENDBRANCH  12  17
ENDBRANCH  11  12
ENDBRANCH   1  11
TORSDOF 1
ENDMDL
MODEL 7
REMARK VINA RESULT:    -2.925      9.138     11.774
REMARK INTER + INTRA:          -4.963
REMARK INTER:                  -4.460
REMARK INTRA:                  -0.503
REMARK UNBOUND:                -0.499
REMARK SMILES CC1=CCC[C@H](C)C(=O)C[C@@H](C(C)C)C(=O)C1
REMARK SMILES IDX 8 1 9 2 6 3 7 4 5 5 4 6 3 7 2 8 1 9 10 11 11 12 15 13 16 14
REMARK SMILES IDX 17 15 12 17 13 18 14 19
REMARK H PARENT
REMARK Flexibility Score: 70.00
ROOT
ATOM      1  C   UNL     1      -6.878  12.358 -24.155  1.00  0.00     0.136 C 
ATOM      2  O   UNL     1      -6.766  11.274 -23.601  1.00  0.00    -0.299 OA
ENDROOT
BRANCH   1   3
ATOM      3  C   UNL     1      -8.173  13.151 -23.923  1.00  0.00     0.053 C 
ATOM      4  C   UNL     1      -9.401  12.280 -24.197  1.00  0.00     0.016 C 
BRANCH   3   5
ATOM      5  C   UNL     1      -8.158  13.649 -22.495  1.00  0.00     0.015 C 
BRANCH   5   6
ATOM      6  C   UNL     1      -6.991  14.355 -21.851  1.00  0.00     0.028 C 
BRANCH   6   7
ATOM      7  C   UNL     1      -6.860  15.747 -22.467  1.00  0.00    -0.028 C 
ATOM      8  C   UNL     1      -5.731  16.384 -22.929  1.00  0.00    -0.070 CG0
ATOM      9  C   UNL     1      -5.910  17.807 -23.401  1.00  0.00     0.039 C 
ATOM     10  G   UNL     1      -4.309  15.789 -23.021  1.00  0.00     0.000 G0
ENDBRANCH   6   7
ENDBRANCH   5   6
ENDBRANCH   3   5
ENDBRANCH   1   3
BRANCH   1  11
ATOM     11  C   UNL     1      -5.686  12.879 -24.985  1.00  0.00     0.087 C 
BRANCH  11  12
ATOM     12  C   UNL     1      -4.346  13.364 -24.292  1.00  0.00     0.066 C 
BRANCH  12  13
ATOM     13  C   UNL     1      -4.117  14.898 -24.264  1.00  0.00     0.140 C 
ATOM     14  O   UNL     1      -3.783  15.440 -25.310  1.00  0.00    -0.299 OA
BRANCH  13  15
ATOM     15  C   UNL     1      -4.310  15.799 -23.036  1.00  0.00     0.106 CG0
ATOM     16  G   UNL     1      -5.732  16.388 -22.915  1.00  0.00     0.000 G0
ENDBRANCH  13  15
ENDBRANCH  12  13
BRANCH  12  17
ATOM     17  C   UNL     1      -3.063  12.477 -24.489  1.00  0.00    -0.006 C 
ATOM     18  C   UNL     1      -3.271  10.951 -24.506  1.00  0.00     0.008 C 
ATOM     19  C   UNL     1      -1.992  12.811 -23.434  1.00  0.00     0.008 C 
ENDBRANCH  12  17
ENDBRANCH  11  12
ENDBRANCH   1  11
TORSDOF 1
ENDMDL
MODEL 8
REMARK VINA RESULT:    -2.894     12.219     13.823
REMARK INTER + INTRA:          -4.916
REMARK INTER:                  -4.311
REMARK INTRA:                  -0.605
REMARK UNBOUND:                -0.499
REMARK SMILES CC1=CCC[C@H](C)C(=O)C[C@@H](C(C)C)C(=O)C1
REMARK SMILES IDX 8 1 9 2 6 3 7 4 5 5 4 6 3 7 2 8 1 9 10 11 11 12 15 13 16 14
REMARK SMILES IDX 17 15 12 17 13 18 14 19
REMARK H PARENT
REMARK Flexibility Score: 70.00
ROOT
ATOM      1  C   UNL     1       0.522   9.103 -19.417  1.00  0.00     0.136 C 
ATOM      2  O   UNL     1       0.957   8.224 -20.147  1.00  0.00    -0.299 OA
ENDROOT
BRANCH   1   3
ATOM      3  C   UNL     1      -0.838   8.866 -18.742  1.00  0.00     0.053 C 
ATOM      4  C   UNL     1      -1.681   7.877 -19.550  1.00  0.00     0.016 C 
BRANCH   3   5
ATOM      5  C   UNL     1      -0.574   8.353 -17.343  1.00  0.00     0.015 C 
BRANCH   5   6
ATOM      6  C   UNL     1      -0.331   9.235 -16.144  1.00  0.00     0.028 C 
BRANCH   6   7
ATOM      7  C   UNL     1      -1.249  10.454 -16.240  1.00  0.00    -0.028 C 
ATOM      8  C   UNL     1      -0.919  11.764 -16.498  1.00  0.00    -0.070 CG0
ATOM      9  C   UNL     1      -2.049  12.765 -16.434  1.00  0.00     0.039 C 
ATOM     10  G   UNL     1       0.481  12.310 -16.854  1.00  0.00     0.000 G0
ENDBRANCH   6   7
ENDBRANCH   5   6
ENDBRANCH   3   5
ENDBRANCH   1   3
BRANCH   1  11
ATOM     11  C   UNL     1       1.399  10.349 -19.172  1.00  0.00     0.087 C 
BRANCH  11  12
ATOM     12  C   UNL     1       0.881  11.806 -19.522  1.00  0.00     0.066 C 
BRANCH  12  13
ATOM     13  C   UNL     1       0.646  12.747 -18.312  1.00  0.00     0.140 C 
ATOM     14  O   UNL     1       0.548  13.946 -18.537  1.00  0.00    -0.299 OA
BRANCH  13  15
ATOM     15  C   UNL     1       0.493  12.291 -16.854  1.00  0.00     0.106 CG0
ATOM     16  G   UNL     1      -0.923  11.781 -16.507  1.00  0.00     0.000 G0
ENDBRANCH  13  15
ENDBRANCH  12  13
BRANCH  12  17
ATOM     17  C   UNL     1      -0.129  11.950 -20.718  1.00  0.00    -0.006 C 
ATOM     18  C   UNL     1       0.103  13.127 -21.684  1.00  0.00     0.008 C 
ATOM     19  C   UNL     1      -1.582  12.017 -20.210  1.00  0.00     0.008 C 
ENDBRANCH  12  17
ENDBRANCH  11  12
ENDBRANCH   1  11
TORSDOF 1
ENDMDL
MODEL 9
REMARK VINA RESULT:    -2.865      9.436     11.933
REMARK INTER + INTRA:          -4.872
REMARK INTER:                  -4.307
REMARK INTRA:                  -0.565
REMARK UNBOUND:                -0.499
REMARK SMILES CC1=CCC[C@H](C)C(=O)C[C@@H](C(C)C)C(=O)C1
REMARK SMILES IDX 8 1 9 2 6 3 7 4 5 5 4 6 3 7 2 8 1 9 10 11 11 12 15 13 16 14
REMARK SMILES IDX 17 15 12 17 13 18 14 19
REMARK H PARENT
REMARK Flexibility Score: 70.00
ROOT
ATOM      1  C   UNL     1      -7.549  10.837 -24.308  1.00  0.00     0.136 C 
ATOM      2  O   UNL     1      -8.137   9.983 -23.661  1.00  0.00    -0.299 OA
ENDROOT
BRANCH   1   3
ATOM      3  C   UNL     1      -8.050  12.286 -24.207  1.00  0.00     0.053 C 
ATOM      4  C   UNL     1      -9.555  12.360 -24.478  1.00  0.00     0.016 C 
BRANCH   3   5
ATOM      5  C   UNL     1      -7.713  12.793 -22.822  1.00  0.00     0.015 C 
BRANCH   5   6
ATOM      6  C   UNL     1      -6.329  13.194 -22.375  1.00  0.00     0.028 C 
BRANCH   6   7
ATOM      7  C   UNL     1      -5.693  14.053 -23.467  1.00  0.00    -0.028 C 
ATOM      8  C   UNL     1      -4.493  13.874 -24.117  1.00  0.00    -0.070 CG0
ATOM      9  C   UNL     1      -4.090  14.955 -25.091  1.00  0.00     0.039 C 
ATOM     10  G   UNL     1      -3.528  12.679 -23.958  1.00  0.00     0.000 G0
ENDBRANCH   6   7
ENDBRANCH   5   6
ENDBRANCH   3   5
ENDBRANCH   1   3
BRANCH   1  11
ATOM     11  C   UNL     1      -6.307  10.411 -25.119  1.00  0.00     0.087 C 
BRANCH  11  12
ATOM     12  C   UNL     1      -4.870  10.335 -24.452  1.00  0.00     0.066 C 
BRANCH  12  13
ATOM     13  C   UNL     1      -3.884  11.467 -24.844  1.00  0.00     0.140 C 
ATOM     14  O   UNL     1      -3.370  11.412 -25.953  1.00  0.00    -0.299 OA
BRANCH  13  15
ATOM     15  C   UNL     1      -3.527  12.672 -23.962  1.00  0.00     0.106 CG0
ATOM     16  G   UNL     1      -4.499  13.862 -24.113  1.00  0.00     0.000 G0
ENDBRANCH  13  15
ENDBRANCH  12  13
BRANCH  12  17
ATOM     17  C   UNL     1      -4.241   8.910 -24.243  1.00  0.00    -0.006 C 
ATOM     18  C   UNL     1      -5.173   7.813 -23.695  1.00  0.00     0.008 C 
ATOM     19  C   UNL     1      -2.993   8.984 -23.342  1.00  0.00     0.008 C 
ENDBRANCH  12  17
ENDBRANCH  11  12
ENDBRANCH   1  11
TORSDOF 1
ENDMDL
