MODEL 1
REMARK VINA RESULT:    -4.568      0.000      0.000
REMARK INTER + INTRA:          -4.701
REMARK INTER:                  -4.701
REMARK INTRA:                   0.000
REMARK UNBOUND:                 0.000
REMARK SMILES Oc1ccc2[nH]ccc2c1
REMARK SMILES IDX 3 1 4 2 5 3 9 4 8 5 7 6 6 7 10 8 2 9 1 11
REMARK H PARENT 6 10 1 12
REMARK Flexibility Score: inf
ROOT
ATOM      1  C   UNL     1     120.093 117.762 117.773  1.00  0.00     0.048 A 
ATOM      2  C   UNL     1     120.806 117.966 118.969  1.00  0.00     0.030 A 
ATOM      3  C   UNL     1     120.715 119.216 119.577  1.00  0.00     0.046 A 
ATOM      4  C   UNL     1     119.961 120.224 119.040  1.00  0.00     0.003 A 
ATOM      5  C   UNL     1     120.080 121.317 119.871  1.00  0.00     0.028 A 
ATOM      6  C   UNL     1     120.926 120.901 120.897  1.00  0.00     0.083 A 
ATOM      7  N   UNL     1     121.311 119.618 120.712  1.00  0.00    -0.361 N 
ATOM      8  C   UNL     1     119.241 120.056 117.860  1.00  0.00     0.056 A 
ATOM      9  C   UNL     1     119.310 118.805 117.218  1.00  0.00     0.116 A 
ATOM     10  H   UNL     1     121.942 119.059 121.328  1.00  0.00     0.166 HD
ENDROOT
BRANCH   9  11
ATOM     11  O   UNL     1     118.603 118.603 116.034  1.00  0.00    -0.508 OA
ATOM     12  H   UNL     1     119.068 118.308 115.184  1.00  0.00     0.293 HD
ENDBRANCH   9  11
TORSDOF 1
ENDMDL
MODEL 2
REMARK VINA RESULT:    -4.555      3.091      3.988
REMARK INTER + INTRA:          -4.689
REMARK INTER:                  -4.689
REMARK INTRA:                   0.000
REMARK UNBOUND:                 0.000
REMARK SMILES Oc1ccc2[nH]ccc2c1
REMARK SMILES IDX 3 1 4 2 5 3 9 4 8 5 7 6 6 7 10 8 2 9 1 11
REMARK H PARENT 6 10 1 12
REMARK Flexibility Score: inf
ROOT
ATOM      1  C   UNL     1     117.519 119.823 117.756  1.00  0.00     0.048 A 
ATOM      2  C   UNL     1     116.811 119.632 118.957  1.00  0.00     0.030 A 
ATOM      3  C   UNL     1     116.929 118.398 119.593  1.00  0.00     0.046 A 
ATOM      4  C   UNL     1     117.705 117.394 119.078  1.00  0.00     0.003 A 
ATOM      5  C   UNL     1     117.609 116.318 119.933  1.00  0.00     0.028 A 
ATOM      6  C   UNL     1     116.756 116.739 120.951  1.00  0.00     0.083 A 
ATOM      7  N   UNL     1     116.344 118.009 120.737  1.00  0.00    -0.361 N 
ATOM      8  C   UNL     1     118.418 117.550 117.892  1.00  0.00     0.056 A 
ATOM      9  C   UNL     1     118.323 118.785 117.222  1.00  0.00     0.116 A 
ATOM     10  H   UNL     1     115.702 118.569 121.342  1.00  0.00     0.166 HD
ENDROOT
BRANCH   9  11
ATOM     11  O   UNL     1     119.024 118.974 116.033  1.00  0.00    -0.508 OA
ATOM     12  H   UNL     1     119.983 118.664 115.930  1.00  0.00     0.293 HD
ENDBRANCH   9  11
TORSDOF 1
ENDMDL
MODEL 3
REMARK VINA RESULT:    -4.551      2.237      2.784
REMARK INTER + INTRA:          -4.684
REMARK INTER:                  -4.684
REMARK INTRA:                   0.000
REMARK UNBOUND:                 0.000
REMARK SMILES Oc1ccc2[nH]ccc2c1
REMARK SMILES IDX 3 1 4 2 5 3 9 4 8 5 7 6 6 7 10 8 2 9 1 11
REMARK H PARENT 6 10 1 12
REMARK Flexibility Score: inf
ROOT
ATOM      1  C   UNL     1     117.764 117.521 117.763  1.00  0.00     0.048 A 
ATOM      2  C   UNL     1     117.984 116.830 118.969  1.00  0.00     0.030 A 
ATOM      3  C   UNL     1     119.234 116.955 119.572  1.00  0.00     0.046 A 
ATOM      4  C   UNL     1     120.225 117.721 119.021  1.00  0.00     0.003 A 
ATOM      5  C   UNL     1     121.322 117.636 119.851  1.00  0.00     0.028 A 
ATOM      6  C   UNL     1     120.927 116.798 120.890  1.00  0.00     0.083 A 
ATOM      7  N   UNL     1     119.651 116.385 120.714  1.00  0.00    -0.361 N 
ATOM      8  C   UNL     1     120.041 118.419 117.830  1.00  0.00     0.056 A 
ATOM      9  C   UNL     1     118.789 118.316 117.193  1.00  0.00     0.116 A 
ATOM     10  H   UNL     1     119.106 115.752 121.341  1.00  0.00     0.166 HD
ENDROOT
BRANCH   9  11
ATOM     11  O   UNL     1     118.570 119.001 116.000  1.00  0.00    -0.508 OA
ATOM     12  H   UNL     1     119.341 119.357 115.445  1.00  0.00     0.293 HD
ENDBRANCH   9  11
TORSDOF 1
ENDMDL
MODEL 4
REMARK VINA RESULT:    -4.548      2.286      2.843
REMARK INTER + INTRA:          -4.680
REMARK INTER:                  -4.680
REMARK INTRA:                   0.000
REMARK UNBOUND:                 0.000
REMARK SMILES Oc1ccc2[nH]ccc2c1
REMARK SMILES IDX 3 1 4 2 5 3 9 4 8 5 7 6 6 7 10 8 2 9 1 11
REMARK H PARENT 6 10 1 12
REMARK Flexibility Score: inf
ROOT
ATOM      1  C   UNL     1     119.817 120.111 117.766  1.00  0.00     0.048 A 
ATOM      2  C   UNL     1     119.627 120.829 118.962  1.00  0.00     0.030 A 
ATOM      3  C   UNL     1     118.396 120.710 119.604  1.00  0.00     0.046 A 
ATOM      4  C   UNL     1     117.394 119.926 119.099  1.00  0.00     0.003 A 
ATOM      5  C   UNL     1     116.321 120.024 119.958  1.00  0.00     0.028 A 
ATOM      6  C   UNL     1     116.742 120.888 120.966  1.00  0.00     0.083 A 
ATOM      7  N   UNL     1     118.009 121.304 120.744  1.00  0.00    -0.361 N 
ATOM      8  C   UNL     1     117.548 119.202 117.919  1.00  0.00     0.056 A 
ATOM      9  C   UNL     1     118.780 119.298 117.244  1.00  0.00     0.116 A 
ATOM     10  H   UNL     1     118.568 121.954 121.341  1.00  0.00     0.166 HD
ENDROOT
BRANCH   9  11
ATOM     11  O   UNL     1     118.968 118.587 116.060  1.00  0.00    -0.508 OA
ATOM     12  H   UNL     1     119.076 117.579 116.061  1.00  0.00     0.293 HD
ENDBRANCH   9  11
TORSDOF 1
ENDMDL
MODEL 5
REMARK VINA RESULT:    -4.383      1.583      2.354
REMARK INTER + INTRA:          -4.511
REMARK INTER:                  -4.511
REMARK INTRA:                   0.000
REMARK UNBOUND:                 0.000
REMARK SMILES Oc1ccc2[nH]ccc2c1
REMARK SMILES IDX 3 1 4 2 5 3 9 4 8 5 7 6 6 7 10 8 2 9 1 11
REMARK H PARENT 6 10 1 12
REMARK Flexibility Score: inf
ROOT
ATOM      1  C   UNL     1     117.953 119.616 117.497  1.00  0.00     0.048 A 
ATOM      2  C   UNL     1     118.215 119.722 118.876  1.00  0.00     0.030 A 
ATOM      3  C   UNL     1     119.291 119.002 119.391  1.00  0.00     0.046 A 
ATOM      4  C   UNL     1     120.076 118.213 118.594  1.00  0.00     0.003 A 
ATOM      5  C   UNL     1     121.040 117.644 119.398  1.00  0.00     0.028 A 
ATOM      6  C   UNL     1     120.780 118.132 120.676  1.00  0.00     0.083 A 
ATOM      7  N   UNL     1     119.711 118.960 120.666  1.00  0.00    -0.361 N 
ATOM      8  C   UNL     1     119.845 118.087 117.227  1.00  0.00     0.056 A 
ATOM      9  C   UNL     1     118.766 118.801 116.672  1.00  0.00     0.116 A 
ATOM     10  H   UNL     1     119.300 119.463 121.484  1.00  0.00     0.166 HD
ENDROOT
BRANCH   9  11
ATOM     11  O   UNL     1     118.506 118.697 115.307  1.00  0.00    -0.508 OA
ATOM     12  H   UNL     1     117.566 118.559 114.956  1.00  0.00     0.293 HD
ENDBRANCH   9  11
TORSDOF 1
ENDMDL
MODEL 6
REMARK VINA RESULT:    -4.331      2.902      3.086
REMARK INTER + INTRA:          -4.458
REMARK INTER:                  -4.458
REMARK INTRA:                   0.000
REMARK UNBOUND:                 0.000
REMARK SMILES Oc1ccc2[nH]ccc2c1
REMARK SMILES IDX 3 1 4 2 5 3 9 4 8 5 7 6 6 7 10 8 2 9 1 11
REMARK H PARENT 6 10 1 12
REMARK Flexibility Score: inf
ROOT
ATOM      1  C   UNL     1     117.904 117.334 118.112  1.00  0.00     0.048 A 
ATOM      2  C   UNL     1     117.299 117.396 119.382  1.00  0.00     0.030 A 
ATOM      3  C   UNL     1     117.057 118.655 119.927  1.00  0.00     0.046 A 
ATOM      4  C   UNL     1     117.391 119.804 119.262  1.00  0.00     0.003 A 
ATOM      5  C   UNL     1     117.025 120.865 120.062  1.00  0.00     0.028 A 
ATOM      6  C   UNL     1     116.472 120.286 121.202  1.00  0.00     0.083 A 
ATOM      7  N   UNL     1     116.495 118.937 121.114  1.00  0.00    -0.361 N 
ATOM      8  C   UNL     1     117.989 119.779 118.005  1.00  0.00     0.056 A 
ATOM      9  C   UNL     1     118.249 118.523 117.423  1.00  0.00     0.116 A 
ATOM     10  H   UNL     1     116.146 118.257 121.826  1.00  0.00     0.166 HD
ENDROOT
BRANCH   9  11
ATOM     11  O   UNL     1     118.847 118.463 116.166  1.00  0.00    -0.508 OA
ATOM     12  H   UNL     1     119.077 117.576 115.732  1.00  0.00     0.293 HD
ENDBRANCH   9  11
TORSDOF 1
ENDMDL
MODEL 7
REMARK VINA RESULT:    -4.322      2.657      3.268
REMARK INTER + INTRA:          -4.448
REMARK INTER:                  -4.448
REMARK INTRA:                   0.000
REMARK UNBOUND:                 0.000
REMARK SMILES Oc1ccc2[nH]ccc2c1
REMARK SMILES IDX 3 1 4 2 5 3 9 4 8 5 7 6 6 7 10 8 2 9 1 11
REMARK H PARENT 6 10 1 12
REMARK Flexibility Score: inf
ROOT
ATOM      1  C   UNL     1     120.307 117.889 118.128  1.00  0.00     0.048 A 
ATOM      2  C   UNL     1     120.259 117.293 119.402  1.00  0.00     0.030 A 
ATOM      3  C   UNL     1     119.006 117.051 119.961  1.00  0.00     0.046 A 
ATOM      4  C   UNL     1     117.850 117.378 119.305  1.00  0.00     0.003 A 
ATOM      5  C   UNL     1     116.797 117.015 120.117  1.00  0.00     0.028 A 
ATOM      6  C   UNL     1     117.388 116.472 121.255  1.00  0.00     0.083 A 
ATOM      7  N   UNL     1     118.737 116.497 121.154  1.00  0.00    -0.361 N 
ATOM      8  C   UNL     1     117.861 117.969 118.044  1.00  0.00     0.056 A 
ATOM      9  C   UNL     1     119.111 118.227 117.448  1.00  0.00     0.116 A 
ATOM     10  H   UNL     1     119.424 116.154 121.863  1.00  0.00     0.166 HD
ENDROOT
BRANCH   9  11
ATOM     11  O   UNL     1     119.158 118.817 116.187  1.00  0.00    -0.508 OA
ATOM     12  H   UNL     1     118.409 118.692 115.516  1.00  0.00     0.293 HD
ENDBRANCH   9  11
TORSDOF 1
ENDMDL
MODEL 8
REMARK VINA RESULT:    -4.320      1.517      2.137
REMARK INTER + INTRA:          -4.446
REMARK INTER:                  -4.446
REMARK INTRA:                   0.000
REMARK UNBOUND:                 0.000
REMARK SMILES Oc1ccc2[nH]ccc2c1
REMARK SMILES IDX 3 1 4 2 5 3 9 4 8 5 7 6 6 7 10 8 2 9 1 11
REMARK H PARENT 6 10 1 12
REMARK Flexibility Score: inf
ROOT
ATOM      1  C   UNL     1     117.352 119.711 118.104  1.00  0.00     0.048 A 
ATOM      2  C   UNL     1     117.423 120.293 119.384  1.00  0.00     0.030 A 
ATOM      3  C   UNL     1     118.683 120.607 119.888  1.00  0.00     0.046 A 
ATOM      4  C   UNL     1     119.825 120.362 119.174  1.00  0.00     0.003 A 
ATOM      5  C   UNL     1     120.890 120.780 119.942  1.00  0.00     0.028 A 
ATOM      6  C   UNL     1     120.320 121.271 121.114  1.00  0.00     0.083 A 
ATOM      7  N   UNL     1     118.973 121.162 121.076  1.00  0.00    -0.361 N 
ATOM      8  C   UNL     1     119.792 119.788 117.905  1.00  0.00     0.056 A 
ATOM      9  C   UNL     1     118.534 119.458 117.364  1.00  0.00     0.116 A 
ATOM     10  H   UNL     1     118.300 121.452 121.820  1.00  0.00     0.166 HD
ENDROOT
BRANCH   9  11
ATOM     11  O   UNL     1     118.464 118.883 116.097  1.00  0.00    -0.508 OA
ATOM     12  H   UNL     1     118.289 119.442 115.271  1.00  0.00     0.293 HD
ENDBRANCH   9  11
TORSDOF 1
ENDMDL
MODEL 9
REMARK VINA RESULT:    -4.312      3.441      4.345
REMARK INTER + INTRA:          -4.438
REMARK INTER:                  -4.438
REMARK INTRA:                   0.000
REMARK UNBOUND:                 0.000
REMARK SMILES Oc1ccc2[nH]ccc2c1
REMARK SMILES IDX 3 1 4 2 5 3 9 4 8 5 7 6 6 7 10 8 2 9 1 11
REMARK H PARENT 6 10 1 12
REMARK Flexibility Score: inf
ROOT
ATOM      1  C   UNL     1     116.764 118.032 120.523  1.00  0.00     0.048 A 
ATOM      2  C   UNL     1     116.720 118.936 119.446  1.00  0.00     0.030 A 
ATOM      3  C   UNL     1     117.689 118.814 118.452  1.00  0.00     0.046 A 
ATOM      4  C   UNL     1     118.659 117.851 118.509  1.00  0.00     0.003 A 
ATOM      5  C   UNL     1     119.452 117.997 117.391  1.00  0.00     0.028 A 
ATOM      6  C   UNL     1     118.903 119.072 116.696  1.00  0.00     0.083 A 
ATOM      7  N   UNL     1     117.828 119.567 117.349  1.00  0.00    -0.361 N 
ATOM      8  C   UNL     1     118.732 116.939 119.559  1.00  0.00     0.056 A 
ATOM      9  C   UNL     1     117.768 117.033 120.581  1.00  0.00     0.116 A 
ATOM     10  H   UNL     1     117.230 120.371 117.052  1.00  0.00     0.166 HD
ENDROOT
BRANCH   9  11
ATOM     11  O   UNL     1     117.812 116.137 121.647  1.00  0.00    -0.508 OA
ATOM     12  H   UNL     1     117.006 115.578 121.901  1.00  0.00     0.293 HD
ENDBRANCH   9  11
TORSDOF 1
ENDMDL
