MODEL 1
REMARK VINA RESULT:    -5.156      0.000      0.000
REMARK INTER + INTRA:          -8.512
REMARK INTER:                  -7.869
REMARK INTRA:                  -0.644
REMARK UNBOUND:                -0.644
REMARK SMILES CCCCCCCCCCC(=O)[O-]
REMARK SMILES IDX 7 1 8 2 9 3 10 4 11 5 12 6 13 7 6 8 5 9 4 10 3 11 2 12 1 13
REMARK H PARENT
REMARK Flexibility Score: inf
ROOT
ATOM      1  C   UNL     1       7.225  54.378  22.811  1.00  0.00     0.000 C 
ENDROOT
BRANCH   1   2
ATOM      2  C   UNL     1       8.225  53.995  23.910  1.00  0.00     0.000 C 
BRANCH   2   3
ATOM      3  C   UNL     1       9.478  54.874  23.846  1.00  0.00     0.006 C 
BRANCH   3   4
ATOM      4  C   UNL     1      10.745  54.019  23.748  1.00  0.00     0.053 C 
BRANCH   4   5
ATOM      5  C   UNL     1      10.752  53.237  22.472  1.00  0.00     0.041 C 
ATOM      6  O   UNL     1      10.887  53.827  21.368  1.00  0.00    -0.550 OA
ATOM      7  O   UNL     1      10.659  51.852  22.507  1.00  0.00    -0.550 OA
ENDBRANCH   4   5
ENDBRANCH   3   4
ENDBRANCH   2   3
ENDBRANCH   1   2
BRANCH   1   8
ATOM      8  C   UNL     1       7.778  55.512  21.935  1.00  0.00     0.000 C 
BRANCH   8   9
ATOM      9  C   UNL     1       6.866  55.843  20.744  1.00  0.00    -0.000 C 
BRANCH   9  10
ATOM     10  C   UNL     1       7.647  56.003  19.427  1.00  0.00    -0.000 C 
BRANCH  10  11
ATOM     11  C   UNL     1       7.984  54.654  18.774  1.00  0.00    -0.000 C 
BRANCH  11  12
ATOM     12  C   UNL     1       7.015  54.285  17.641  1.00  0.00    -0.003 C 
ATOM     13  C   UNL     1       6.930  55.400  16.604  1.00  0.00     0.004 C 
ENDBRANCH  11  12
ENDBRANCH  10  11
ENDBRANCH   9  10
ENDBRANCH   8   9
ENDBRANCH   1   8
TORSDOF 9
ENDMDL
MODEL 2
REMARK VINA RESULT:    -5.116      1.738      1.883
REMARK INTER + INTRA:          -8.452
REMARK INTER:                  -7.841
REMARK INTRA:                  -0.611
REMARK UNBOUND:                -0.644
REMARK SMILES CCCCCCCCCCC(=O)[O-]
REMARK SMILES IDX 7 1 8 2 9 3 10 4 11 5 12 6 13 7 6 8 5 9 4 10 3 11 2 12 1 13
REMARK H PARENT
REMARK Flexibility Score: inf
ROOT
ATOM      1  C   UNL     1       7.349  54.746  22.233  1.00  0.00     0.000 C 
ENDROOT
BRANCH   1   2
ATOM      2  C   UNL     1       8.394  53.626  22.166  1.00  0.00     0.000 C 
BRANCH   2   3
ATOM      3  C   UNL     1       9.813  54.200  22.085  1.00  0.00     0.006 C 
BRANCH   3   4
ATOM      4  C   UNL     1      10.710  53.604  23.174  1.00  0.00     0.053 C 
BRANCH   4   5
ATOM      5  C   UNL     1      10.722  54.486  24.384  1.00  0.00     0.041 C 
ATOM      6  O   UNL     1      11.814  54.872  24.875  1.00  0.00    -0.550 OA
ATOM      7  O   UNL     1       9.524  54.920  24.938  1.00  0.00    -0.550 OA
ENDBRANCH   4   5
ENDBRANCH   3   4
ENDBRANCH   2   3
ENDBRANCH   1   2
BRANCH   1   8
ATOM      8  C   UNL     1       7.909  56.058  21.661  1.00  0.00     0.000 C 
BRANCH   8   9
ATOM      9  C   UNL     1       6.951  56.728  20.664  1.00  0.00    -0.000 C 
BRANCH   9  10
ATOM     10  C   UNL     1       7.434  56.608  19.207  1.00  0.00    -0.000 C 
BRANCH  10  11
ATOM     11  C   UNL     1       8.001  55.216  18.888  1.00  0.00    -0.000 C 
BRANCH  11  12
ATOM     12  C   UNL     1       7.102  54.412  17.936  1.00  0.00    -0.003 C 
ATOM     13  C   UNL     1       6.887  55.157  16.622  1.00  0.00     0.004 C 
ENDBRANCH  11  12
ENDBRANCH  10  11
ENDBRANCH   9  10
ENDBRANCH   8   9
ENDBRANCH   1   8
TORSDOF 9
ENDMDL
MODEL 3
REMARK VINA RESULT:    -5.071      2.250      5.144
REMARK INTER + INTRA:          -8.383
REMARK INTER:                  -7.656
REMARK INTRA:                  -0.727
REMARK UNBOUND:                -0.644
REMARK SMILES CCCCCCCCCCC(=O)[O-]
REMARK SMILES IDX 7 1 8 2 9 3 10 4 11 5 12 6 13 7 6 8 5 9 4 10 3 11 2 12 1 13
REMARK H PARENT
REMARK Flexibility Score: inf
ROOT
ATOM      1  C   UNL     1       7.784  55.357  21.910  1.00  0.00     0.000 C 
ENDROOT
BRANCH   1   2
ATOM      2  C   UNL     1       6.630  56.266  21.470  1.00  0.00     0.000 C 
BRANCH   2   3
ATOM      3  C   UNL     1       6.850  56.784  20.044  1.00  0.00     0.006 C 
BRANCH   3   4
ATOM      4  C   UNL     1       7.968  56.006  19.343  1.00  0.00     0.053 C 
BRANCH   4   5
ATOM      5  C   UNL     1       7.422  55.234  18.183  1.00  0.00     0.041 C 
ATOM      6  O   UNL     1       7.146  54.013  18.309  1.00  0.00    -0.550 OA
ATOM      7  O   UNL     1       7.172  55.877  16.978  1.00  0.00    -0.550 OA
ENDBRANCH   4   5
ENDBRANCH   3   4
ENDBRANCH   2   3
ENDBRANCH   1   2
BRANCH   1   8
ATOM      8  C   UNL     1       7.287  54.259  22.863  1.00  0.00     0.000 C 
BRANCH   8   9
ATOM      9  C   UNL     1       8.277  53.967  24.001  1.00  0.00    -0.000 C 
BRANCH   9  10
ATOM     10  C   UNL     1       9.538  54.846  23.930  1.00  0.00    -0.000 C 
BRANCH  10  11
ATOM     11  C   UNL     1      10.806  54.035  23.624  1.00  0.00    -0.000 C 
BRANCH  11  12
ATOM     12  C   UNL     1      10.527  52.806  22.745  1.00  0.00    -0.003 C 
ATOM     13  C   UNL     1      10.569  53.168  21.264  1.00  0.00     0.004 C 
ENDBRANCH  11  12
ENDBRANCH  10  11
ENDBRANCH   9  10
ENDBRANCH   8   9
ENDBRANCH   1   8
TORSDOF 9
ENDMDL
MODEL 4
REMARK VINA RESULT:    -5.014      2.391      5.608
REMARK INTER + INTRA:          -8.295
REMARK INTER:                  -7.520
REMARK INTRA:                  -0.776
REMARK UNBOUND:                -0.644
REMARK SMILES CCCCCCCCCCC(=O)[O-]
REMARK SMILES IDX 7 1 8 2 9 3 10 4 11 5 12 6 13 7 6 8 5 9 4 10 3 11 2 12 1 13
REMARK H PARENT
REMARK Flexibility Score: inf
ROOT
ATOM      1  C   UNL     1       6.910  55.317  21.789  1.00  0.00     0.000 C 
ENDROOT
BRANCH   1   2
ATOM      2  C   UNL     1       7.521  56.568  21.146  1.00  0.00     0.000 C 
BRANCH   2   3
ATOM      3  C   UNL     1       8.303  56.210  19.878  1.00  0.00     0.006 C 
BRANCH   3   4
ATOM      4  C   UNL     1       7.489  56.530  18.621  1.00  0.00     0.053 C 
BRANCH   4   5
ATOM      5  C   UNL     1       7.454  55.348  17.704  1.00  0.00     0.041 C 
ATOM      6  O   UNL     1       6.895  55.435  16.579  1.00  0.00    -0.550 OA
ATOM      7  O   UNL     1       8.084  54.166  18.071  1.00  0.00    -0.550 OA
ENDBRANCH   4   5
ENDBRANCH   3   4
ENDBRANCH   2   3
ENDBRANCH   1   2
BRANCH   1   8
ATOM      8  C   UNL     1       7.688  54.055  21.386  1.00  0.00     0.000 C 
BRANCH   8   9
ATOM      9  C   UNL     1       8.670  53.589  22.471  1.00  0.00    -0.000 C 
BRANCH   9  10
ATOM     10  C   UNL     1       8.054  53.622  23.881  1.00  0.00    -0.000 C 
BRANCH  10  11
ATOM     11  C   UNL     1       8.908  54.419  24.879  1.00  0.00    -0.000 C 
BRANCH  11  12
ATOM     12  C   UNL     1      10.086  55.141  24.209  1.00  0.00    -0.003 C 
ATOM     13  C   UNL     1      11.417  54.696  24.807  1.00  0.00     0.004 C 
ENDBRANCH  11  12
ENDBRANCH  10  11
ENDBRANCH   9  10
ENDBRANCH   8   9
ENDBRANCH   1   8
TORSDOF 9
ENDMDL
MODEL 5
REMARK VINA RESULT:    -4.880      2.716      5.725
REMARK INTER + INTRA:          -8.091
REMARK INTER:                  -7.350
REMARK INTRA:                  -0.741
REMARK UNBOUND:                -0.644
REMARK SMILES CCCCCCCCCCC(=O)[O-]
REMARK SMILES IDX 7 1 8 2 9 3 10 4 11 5 12 6 13 7 6 8 5 9 4 10 3 11 2 12 1 13
REMARK H PARENT
REMARK Flexibility Score: inf
ROOT
ATOM      1  C   UNL     1       8.619  54.203  20.840  1.00  0.00     0.000 C 
ENDROOT
BRANCH   1   2
ATOM      2  C   UNL     1       8.134  54.660  19.459  1.00  0.00     0.000 C 
BRANCH   2   3
ATOM      3  C   UNL     1       7.659  56.117  19.495  1.00  0.00     0.006 C 
BRANCH   3   4
ATOM      4  C   UNL     1       7.477  56.600  20.938  1.00  0.00     0.053 C 
BRANCH   4   5
ATOM      5  C   UNL     1       6.031  56.567  21.323  1.00  0.00     0.041 C 
ATOM      6  O   UNL     1       5.581  55.614  22.011  1.00  0.00    -0.550 OA
ATOM      7  O   UNL     1       5.193  57.614  20.963  1.00  0.00    -0.550 OA
ENDBRANCH   4   5
ENDBRANCH   3   4
ENDBRANCH   2   3
ENDBRANCH   1   2
BRANCH   1   8
ATOM      8  C   UNL     1       9.898  53.360  20.723  1.00  0.00     0.000 C 
BRANCH   8   9
ATOM      9  C   UNL     1      11.016  53.841  21.661  1.00  0.00    -0.000 C 
BRANCH   9  10
ATOM     10  C   UNL     1      10.693  53.589  23.144  1.00  0.00    -0.000 C 
BRANCH  10  11
ATOM     11  C   UNL     1      10.455  54.890  23.926  1.00  0.00    -0.000 C 
BRANCH  11  12
ATOM     12  C   UNL     1       9.360  54.751  24.993  1.00  0.00    -0.003 C 
ATOM     13  C   UNL     1       8.152  53.997  24.446  1.00  0.00     0.004 C 
ENDBRANCH  11  12
ENDBRANCH  10  11
ENDBRANCH   9  10
ENDBRANCH   8   9
ENDBRANCH   1   8
TORSDOF 9
ENDMDL
MODEL 6
REMARK VINA RESULT:    -4.833      2.521      5.644
REMARK INTER + INTRA:          -8.020
REMARK INTER:                  -7.335
REMARK INTRA:                  -0.685
REMARK UNBOUND:                -0.644
REMARK SMILES CCCCCCCCCCC(=O)[O-]
REMARK SMILES IDX 7 1 8 2 9 3 10 4 11 5 12 6 13 7 6 8 5 9 4 10 3 11 2 12 1 13
REMARK H PARENT
REMARK Flexibility Score: inf
ROOT
ATOM      1  C   UNL     1       9.377  53.883  20.983  1.00  0.00     0.000 C 
ENDROOT
BRANCH   1   2
ATOM      2  C   UNL     1       9.035  55.328  20.601  1.00  0.00     0.000 C 
BRANCH   2   3
ATOM      3  C   UNL     1       7.584  55.442  20.122  1.00  0.00     0.006 C 
BRANCH   3   4
ATOM      4  C   UNL     1       7.511  56.105  18.742  1.00  0.00     0.053 C 
BRANCH   4   5
ATOM      5  C   UNL     1       7.241  55.083  17.683  1.00  0.00     0.041 C 
ATOM      6  O   UNL     1       7.263  53.856  17.966  1.00  0.00    -0.550 OA
ATOM      7  O   UNL     1       6.915  55.487  16.395  1.00  0.00    -0.550 OA
ENDBRANCH   4   5
ENDBRANCH   3   4
ENDBRANCH   2   3
ENDBRANCH   1   2
BRANCH   1   8
ATOM      8  C   UNL     1      10.780  53.795  21.605  1.00  0.00     0.000 C 
BRANCH   8   9
ATOM      9  C   UNL     1      10.744  53.553  23.122  1.00  0.00    -0.000 C 
BRANCH   9  10
ATOM     10  C   UNL     1      10.481  54.842  23.921  1.00  0.00    -0.000 C 
BRANCH  10  11
ATOM     11  C   UNL     1       9.329  54.689  24.926  1.00  0.00    -0.000 C 
BRANCH  11  12
ATOM     12  C   UNL     1       8.321  53.606  24.512  1.00  0.00    -0.003 C 
ATOM     13  C   UNL     1       7.258  54.173  23.577  1.00  0.00     0.004 C 
ENDBRANCH  11  12
ENDBRANCH  10  11
ENDBRANCH   9  10
ENDBRANCH   8   9
ENDBRANCH   1   8
TORSDOF 9
ENDMDL
MODEL 7
REMARK VINA RESULT:    -4.665      0.974      1.238
REMARK INTER + INTRA:          -7.763
REMARK INTER:                  -7.072
REMARK INTRA:                  -0.691
REMARK UNBOUND:                -0.644
REMARK SMILES CCCCCCCCCCC(=O)[O-]
REMARK SMILES IDX 7 1 8 2 9 3 10 4 11 5 12 6 13 7 6 8 5 9 4 10 3 11 2 12 1 13
REMARK H PARENT
REMARK Flexibility Score: inf
ROOT
ATOM      1  C   UNL     1       8.199  55.471  22.427  1.00  0.00     0.000 C 
ENDROOT
BRANCH   1   2
ATOM      2  C   UNL     1       9.483  55.736  23.222  1.00  0.00     0.000 C 
BRANCH   2   3
ATOM      3  C   UNL     1       9.981  54.459  23.908  1.00  0.00     0.006 C 
BRANCH   3   4
ATOM      4  C   UNL     1       9.390  53.212  23.243  1.00  0.00     0.053 C 
BRANCH   4   5
ATOM      5  C   UNL     1      10.416  52.540  22.385  1.00  0.00     0.041 C 
ATOM      6  O   UNL     1      10.978  53.174  21.455  1.00  0.00    -0.550 OA
ATOM      7  O   UNL     1      10.786  51.227  22.646  1.00  0.00    -0.550 OA
ENDBRANCH   4   5
ENDBRANCH   3   4
ENDBRANCH   2   3
ENDBRANCH   1   2
BRANCH   1   8
ATOM      8  C   UNL     1       7.911  56.618  21.446  1.00  0.00     0.000 C 
BRANCH   8   9
ATOM      9  C   UNL     1       7.934  56.166  19.978  1.00  0.00    -0.000 C 
BRANCH   9  10
ATOM     10  C   UNL     1       8.048  54.638  19.832  1.00  0.00    -0.000 C 
BRANCH  10  11
ATOM     11  C   UNL     1       7.954  54.177  18.369  1.00  0.00    -0.000 C 
BRANCH  11  12
ATOM     12  C   UNL     1       7.287  55.220  17.459  1.00  0.00    -0.003 C 
ATOM     13  C   UNL     1       6.421  54.550  16.397  1.00  0.00     0.004 C 
ENDBRANCH  11  12
ENDBRANCH  10  11
ENDBRANCH   9  10
ENDBRANCH   8   9
ENDBRANCH   1   8
TORSDOF 9
ENDMDL
MODEL 8
REMARK VINA RESULT:    -4.574      2.159      3.244
REMARK INTER + INTRA:          -7.625
REMARK INTER:                  -7.225
REMARK INTRA:                  -0.400
REMARK UNBOUND:                -0.644
REMARK SMILES CCCCCCCCCCC(=O)[O-]
REMARK SMILES IDX 7 1 8 2 9 3 10 4 11 5 12 6 13 7 6 8 5 9 4 10 3 11 2 12 1 13
REMARK H PARENT
REMARK Flexibility Score: inf
ROOT
ATOM      1  C   UNL     1       8.496  53.648  21.210  1.00  0.00     0.000 C 
ENDROOT
BRANCH   1   2
ATOM      2  C   UNL     1       9.855  54.356  21.134  1.00  0.00     0.000 C 
BRANCH   2   3
ATOM      3  C   UNL     1      10.914  53.606  21.949  1.00  0.00     0.006 C 
BRANCH   3   4
ATOM      4  C   UNL     1      10.439  53.375  23.387  1.00  0.00     0.053 C 
BRANCH   4   5
ATOM      5  C   UNL     1      10.620  54.616  24.204  1.00  0.00     0.041 C 
ATOM      6  O   UNL     1      11.473  54.646  25.130  1.00  0.00    -0.550 OA
ATOM      7  O   UNL     1       9.881  55.754  23.911  1.00  0.00    -0.550 OA
ENDBRANCH   4   5
ENDBRANCH   3   4
ENDBRANCH   2   3
ENDBRANCH   1   2
BRANCH   1   8
ATOM      8  C   UNL     1       7.525  54.204  20.158  1.00  0.00     0.000 C 
BRANCH   8   9
ATOM      9  C   UNL     1       8.065  55.459  19.455  1.00  0.00    -0.000 C 
BRANCH   9  10
ATOM     10  C   UNL     1       7.202  56.705  19.725  1.00  0.00    -0.000 C 
BRANCH  10  11
ATOM     11  C   UNL     1       6.851  56.868  21.212  1.00  0.00    -0.000 C 
BRANCH  11  12
ATOM     12  C   UNL     1       5.356  56.658  21.496  1.00  0.00    -0.003 C 
ATOM     13  C   UNL     1       4.535  57.860  21.040  1.00  0.00     0.004 C 
ENDBRANCH  11  12
ENDBRANCH  10  11
ENDBRANCH   9  10
ENDBRANCH   8   9
ENDBRANCH   1   8
TORSDOF 9
ENDMDL
MODEL 9
REMARK VINA RESULT:    -4.183      5.619      7.144
REMARK INTER + INTRA:          -7.027
REMARK INTER:                  -6.547
REMARK INTRA:                  -0.480
REMARK UNBOUND:                -0.644
REMARK SMILES CCCCCCCCCCC(=O)[O-]
REMARK SMILES IDX 7 1 8 2 9 3 10 4 11 5 12 6 13 7 6 8 5 9 4 10 3 11 2 12 1 13
REMARK H PARENT
REMARK Flexibility Score: inf
ROOT
ATOM      1  C   UNL     1       4.646  57.752  21.622  1.00  0.00     0.000 C 
ENDROOT
BRANCH   1   2
ATOM      2  C   UNL     1       4.130  58.486  20.378  1.00  0.00     0.000 C 
BRANCH   2   3
ATOM      3  C   UNL     1       3.004  59.460  20.740  1.00  0.00     0.006 C 
BRANCH   3   4
ATOM      4  C   UNL     1       2.788  59.512  22.255  1.00  0.00     0.053 C 
BRANCH   4   5
ATOM      5  C   UNL     1       1.337  59.348  22.584  1.00  0.00     0.041 C 
ATOM      6  O   UNL     1       0.485  59.255  21.662  1.00  0.00    -0.550 OA
ATOM      7  O   UNL     1       0.933  59.249  23.909  1.00  0.00    -0.550 OA
ENDBRANCH   4   5
ENDBRANCH   3   4
ENDBRANCH   2   3
ENDBRANCH   1   2
BRANCH   1   8
ATOM      8  C   UNL     1       5.502  56.538  21.230  1.00  0.00     0.000 C 
BRANCH   8   9
ATOM      9  C   UNL     1       6.806  56.935  20.520  1.00  0.00    -0.000 C 
BRANCH   9  10
ATOM     10  C   UNL     1       7.710  55.725  20.225  1.00  0.00    -0.000 C 
BRANCH  10  11
ATOM     11  C   UNL     1       6.953  54.575  19.541  1.00  0.00    -0.000 C 
BRANCH  11  12
ATOM     12  C   UNL     1       7.545  54.205  18.173  1.00  0.00    -0.003 C 
ATOM     13  C   UNL     1       7.242  55.280  17.134  1.00  0.00     0.004 C 
ENDBRANCH  11  12
ENDBRANCH  10  11
ENDBRANCH   9  10
ENDBRANCH   8   9
ENDBRANCH   1   8
TORSDOF 9
ENDMDL
