MODEL 1
REMARK VINA RESULT:    -4.794      0.000      0.000
REMARK INTER + INTRA:          -5.166
REMARK INTER:                  -5.074
REMARK INTRA:                  -0.092
REMARK UNBOUND:                -0.092
REMARK SMILES C=C(C)[C@@H]1CC=C(C)C(=O)C1
REMARK SMILES IDX 8 1 7 2 6 3 5 4 4 5 11 6 9 7 10 8 2 9 1 10 3 11
REMARK H PARENT
REMARK Flexibility Score: inf
ROOT
ATOM      1  C   UNL     1       7.210   2.067 108.995  1.00  0.00     0.048 C 
ATOM      2  C   UNL     1       6.250   3.141 108.565  1.00  0.00    -0.012 C 
ATOM      3  C   UNL     1       5.426   3.702 109.465  1.00  0.00    -0.019 C 
ATOM      4  C   UNL     1       4.458   4.793 109.092  1.00  0.00     0.036 C 
ATOM      5  C   UNL     1       3.956   4.620 107.646  1.00  0.00     0.025 C 
ATOM      6  C   UNL     1       5.148   4.538 106.673  1.00  0.00     0.089 C 
ATOM      7  C   UNL     1       6.130   3.493 107.127  1.00  0.00     0.158 C 
ATOM      8  O   UNL     1       6.878   2.942 106.275  1.00  0.00    -0.295 OA
ENDROOT
BRANCH   5   9
ATOM      9  C   UNL     1       2.984   5.724 107.250  1.00  0.00    -0.077 C 
ATOM     10  C   UNL     1       1.987   5.498 106.378  1.00  0.00     0.008 C 
ATOM     11  C   UNL     1       3.129   7.105 107.838  1.00  0.00     0.039 C 
ENDBRANCH   5   9
TORSDOF 1
ENDMDL
MODEL 2
REMARK VINA RESULT:    -4.702      1.527      1.948
REMARK INTER + INTRA:          -5.069
REMARK INTER:                  -4.974
REMARK INTRA:                  -0.095
REMARK UNBOUND:                -0.092
REMARK SMILES C=C(C)[C@@H]1CC=C(C)C(=O)C1
REMARK SMILES IDX 8 1 7 2 6 3 5 4 4 5 11 6 9 7 10 8 2 9 1 10 3 11
REMARK H PARENT
REMARK Flexibility Score: inf
ROOT
ATOM      1  C   UNL     1       6.304   1.071 108.552  1.00  0.00     0.048 C 
ATOM      2  C   UNL     1       5.339   2.202 108.330  1.00  0.00    -0.012 C 
ATOM      3  C   UNL     1       4.364   2.081 107.412  1.00  0.00    -0.019 C 
ATOM      4  C   UNL     1       3.362   3.175 107.162  1.00  0.00     0.036 C 
ATOM      5  C   UNL     1       3.988   4.565 107.387  1.00  0.00     0.025 C 
ATOM      6  C   UNL     1       4.607   4.650 108.796  1.00  0.00     0.089 C 
ATOM      7  C   UNL     1       5.539   3.495 109.034  1.00  0.00     0.158 C 
ATOM      8  O   UNL     1       6.474   3.622 109.869  1.00  0.00    -0.295 OA
ENDROOT
BRANCH   5   9
ATOM      9  C   UNL     1       2.981   5.683 107.148  1.00  0.00    -0.077 C 
ATOM     10  C   UNL     1       1.924   5.509 106.336  1.00  0.00     0.008 C 
ATOM     11  C   UNL     1       3.158   7.017 107.825  1.00  0.00     0.039 C 
ENDBRANCH   5   9
TORSDOF 1
ENDMDL
MODEL 3
REMARK VINA RESULT:    -4.669      2.567      4.419
REMARK INTER + INTRA:          -5.034
REMARK INTER:                  -4.937
REMARK INTRA:                  -0.098
REMARK UNBOUND:                -0.092
REMARK SMILES C=C(C)[C@@H]1CC=C(C)C(=O)C1
REMARK SMILES IDX 8 1 7 2 6 3 5 4 4 5 11 6 9 7 10 8 2 9 1 10 3 11
REMARK H PARENT
REMARK Flexibility Score: inf
ROOT
ATOM      1  C   UNL     1       3.134   7.301 107.839  1.00  0.00     0.048 C 
ATOM      2  C   UNL     1       3.307   5.808 107.788  1.00  0.00    -0.012 C 
ATOM      3  C   UNL     1       4.321   5.228 108.453  1.00  0.00    -0.019 C 
ATOM      4  C   UNL     1       4.529   3.737 108.449  1.00  0.00     0.036 C 
ATOM      5  C   UNL     1       4.077   3.116 107.113  1.00  0.00     0.025 C 
ATOM      6  C   UNL     1       2.617   3.503 106.811  1.00  0.00     0.089 C 
ATOM      7  C   UNL     1       2.434   4.992 106.906  1.00  0.00     0.158 C 
ATOM      8  O   UNL     1       1.505   5.539 106.254  1.00  0.00    -0.295 OA
ENDROOT
BRANCH   5   9
ATOM      9  C   UNL     1       4.273   1.605 107.099  1.00  0.00    -0.077 C 
ATOM     10  C   UNL     1       3.666   0.831 106.185  1.00  0.00     0.008 C 
ATOM     11  C   UNL     1       5.160   0.949 108.126  1.00  0.00     0.039 C 
ENDBRANCH   5   9
TORSDOF 1
ENDMDL
MODEL 4
REMARK VINA RESULT:    -4.657      1.997      4.580
REMARK INTER + INTRA:          -5.021
REMARK INTER:                  -4.928
REMARK INTRA:                  -0.093
REMARK UNBOUND:                -0.092
REMARK SMILES C=C(C)[C@@H]1CC=C(C)C(=O)C1
REMARK SMILES IDX 8 1 7 2 6 3 5 4 4 5 11 6 9 7 10 8 2 9 1 10 3 11
REMARK H PARENT
REMARK Flexibility Score: inf
ROOT
ATOM      1  C   UNL     1       1.868   5.424 106.157  1.00  0.00     0.048 C 
ATOM      2  C   UNL     1       2.970   4.703 106.882  1.00  0.00    -0.012 C 
ATOM      3  C   UNL     1       3.025   3.361 106.851  1.00  0.00    -0.019 C 
ATOM      4  C   UNL     1       4.117   2.590 107.545  1.00  0.00     0.036 C 
ATOM      5  C   UNL     1       4.583   3.314 108.822  1.00  0.00     0.025 C 
ATOM      6  C   UNL     1       5.006   4.759 108.493  1.00  0.00     0.089 C 
ATOM      7  C   UNL     1       3.921   5.466 107.729  1.00  0.00     0.158 C 
ATOM      8  O   UNL     1       3.849   6.723 107.788  1.00  0.00    -0.295 OA
ENDROOT
BRANCH   5   9
ATOM      9  C   UNL     1       5.696   2.550 109.529  1.00  0.00    -0.077 C 
ATOM     10  C   UNL     1       6.935   2.486 109.014  1.00  0.00     0.008 C 
ATOM     11  C   UNL     1       5.418   1.845 110.832  1.00  0.00     0.039 C 
ENDBRANCH   5   9
TORSDOF 1
ENDMDL
MODEL 5
REMARK VINA RESULT:    -4.557      1.734      4.396
REMARK INTER + INTRA:          -4.915
REMARK INTER:                  -4.822
REMARK INTRA:                  -0.093
REMARK UNBOUND:                -0.092
REMARK SMILES C=C(C)[C@@H]1CC=C(C)C(=O)C1
REMARK SMILES IDX 8 1 7 2 6 3 5 4 4 5 11 6 9 7 10 8 2 9 1 10 3 11
REMARK H PARENT
REMARK Flexibility Score: inf
ROOT
ATOM      1  C   UNL     1       2.200   5.511 106.186  1.00  0.00     0.048 C 
ATOM      2  C   UNL     1       3.037   4.699 107.135  1.00  0.00    -0.012 C 
ATOM      3  C   UNL     1       3.616   5.292 108.192  1.00  0.00    -0.019 C 
ATOM      4  C   UNL     1       4.449   4.523 109.183  1.00  0.00     0.036 C 
ATOM      5  C   UNL     1       5.188   3.356 108.500  1.00  0.00     0.025 C 
ATOM      6  C   UNL     1       4.187   2.454 107.752  1.00  0.00     0.089 C 
ATOM      7  C   UNL     1       3.321   3.272 106.835  1.00  0.00     0.158 C 
ATOM      8  O   UNL     1       2.807   2.723 105.825  1.00  0.00    -0.295 OA
ENDROOT
BRANCH   5   9
ATOM      9  C   UNL     1       6.027   2.562 109.493  1.00  0.00    -0.077 C 
ATOM     10  C   UNL     1       5.496   2.083 110.630  1.00  0.00     0.008 C 
ATOM     11  C   UNL     1       7.484   2.299 109.211  1.00  0.00     0.039 C 
ENDBRANCH   5   9
TORSDOF 1
ENDMDL
MODEL 6
REMARK VINA RESULT:    -4.499      2.168      4.471
REMARK INTER + INTRA:          -4.854
REMARK INTER:                  -4.757
REMARK INTRA:                  -0.097
REMARK UNBOUND:                -0.092
REMARK SMILES C=C(C)[C@@H]1CC=C(C)C(=O)C1
REMARK SMILES IDX 8 1 7 2 6 3 5 4 4 5 11 6 9 7 10 8 2 9 1 10 3 11
REMARK H PARENT
REMARK Flexibility Score: inf
ROOT
ATOM      1  C   UNL     1       3.228   5.494 103.956  1.00  0.00     0.048 C 
ATOM      2  C   UNL     1       3.810   5.242 105.319  1.00  0.00    -0.012 C 
ATOM      3  C   UNL     1       5.083   4.831 105.438  1.00  0.00    -0.019 C 
ATOM      4  C   UNL     1       5.721   4.581 106.779  1.00  0.00     0.036 C 
ATOM      5  C   UNL     1       4.686   4.069 107.799  1.00  0.00     0.025 C 
ATOM      6  C   UNL     1       3.496   5.045 107.889  1.00  0.00     0.089 C 
ATOM      7  C   UNL     1       2.942   5.330 106.521  1.00  0.00     0.158 C 
ATOM      8  O   UNL     1       1.737   5.682 106.408  1.00  0.00    -0.295 OA
ENDROOT
BRANCH   5   9
ATOM      9  C   UNL     1       5.315   3.822 109.164  1.00  0.00    -0.077 C 
ATOM     10  C   UNL     1       4.823   4.398 110.274  1.00  0.00     0.008 C 
ATOM     11  C   UNL     1       6.514   2.918 109.291  1.00  0.00     0.039 C 
ENDBRANCH   5   9
TORSDOF 1
ENDMDL
MODEL 7
REMARK VINA RESULT:    -4.463      1.453      4.632
REMARK INTER + INTRA:          -4.816
REMARK INTER:                  -4.722
REMARK INTRA:                  -0.093
REMARK UNBOUND:                -0.092
REMARK SMILES C=C(C)[C@@H]1CC=C(C)C(=O)C1
REMARK SMILES IDX 8 1 7 2 6 3 5 4 4 5 11 6 9 7 10 8 2 9 1 10 3 11
REMARK H PARENT
REMARK Flexibility Score: inf
ROOT
ATOM      1  C   UNL     1       3.650   5.753 108.489  1.00  0.00     0.048 C 
ATOM      2  C   UNL     1       4.551   4.557 108.618  1.00  0.00    -0.012 C 
ATOM      3  C   UNL     1       4.981   4.170 109.831  1.00  0.00    -0.019 C 
ATOM      4  C   UNL     1       5.869   2.969 110.019  1.00  0.00     0.036 C 
ATOM      5  C   UNL     1       6.809   2.780 108.812  1.00  0.00     0.025 C 
ATOM      6  C   UNL     1       5.994   2.706 107.507  1.00  0.00     0.089 C 
ATOM      7  C   UNL     1       5.061   3.880 107.399  1.00  0.00     0.158 C 
ATOM      8  O   UNL     1       4.687   4.264 106.258  1.00  0.00    -0.295 OA
ENDROOT
BRANCH   5   9
ATOM      9  C   UNL     1       7.707   1.561 108.983  1.00  0.00    -0.077 C 
ATOM     10  C   UNL     1       7.217   0.387 109.415  1.00  0.00     0.008 C 
ATOM     11  C   UNL     1       9.178   1.657 108.668  1.00  0.00     0.039 C 
ENDBRANCH   5   9
TORSDOF 1
ENDMDL
MODEL 8
REMARK VINA RESULT:    -4.457      2.633      4.433
REMARK INTER + INTRA:          -4.809
REMARK INTER:                  -4.715
REMARK INTRA:                  -0.095
REMARK UNBOUND:                -0.092
REMARK SMILES C=C(C)[C@@H]1CC=C(C)C(=O)C1
REMARK SMILES IDX 8 1 7 2 6 3 5 4 4 5 11 6 9 7 10 8 2 9 1 10 3 11
REMARK H PARENT
REMARK Flexibility Score: inf
ROOT
ATOM      1  C   UNL     1       3.128   7.167 107.861  1.00  0.00     0.048 C 
ATOM      2  C   UNL     1       3.324   5.771 107.340  1.00  0.00    -0.012 C 
ATOM      3  C   UNL     1       2.829   5.429 106.138  1.00  0.00    -0.019 C 
ATOM      4  C   UNL     1       3.013   4.050 105.561  1.00  0.00     0.036 C 
ATOM      5  C   UNL     1       3.046   2.983 106.672  1.00  0.00     0.025 C 
ATOM      6  C   UNL     1       4.127   3.330 107.714  1.00  0.00     0.089 C 
ATOM      7  C   UNL     1       3.956   4.741 108.203  1.00  0.00     0.158 C 
ATOM      8  O   UNL     1       4.390   5.051 109.345  1.00  0.00    -0.295 OA
ENDROOT
BRANCH   5   9
ATOM      9  C   UNL     1       3.241   1.584 106.103  1.00  0.00    -0.077 C 
ATOM     10  C   UNL     1       2.635   1.200 104.967  1.00  0.00     0.008 C 
ATOM     11  C   UNL     1       4.127   0.595 106.817  1.00  0.00     0.039 C 
ENDBRANCH   5   9
TORSDOF 1
ENDMDL
MODEL 9
REMARK VINA RESULT:    -4.386      1.686      2.003
REMARK INTER + INTRA:          -4.735
REMARK INTER:                  -4.641
REMARK INTRA:                  -0.093
REMARK UNBOUND:                -0.092
REMARK SMILES C=C(C)[C@@H]1CC=C(C)C(=O)C1
REMARK SMILES IDX 8 1 7 2 6 3 5 4 4 5 11 6 9 7 10 8 2 9 1 10 3 11
REMARK H PARENT
REMARK Flexibility Score: inf
ROOT
ATOM      1  C   UNL     1       5.644   1.139 109.872  1.00  0.00     0.048 C 
ATOM      2  C   UNL     1       5.163   2.310 109.060  1.00  0.00    -0.012 C 
ATOM      3  C   UNL     1       5.487   3.560 109.430  1.00  0.00    -0.019 C 
ATOM      4  C   UNL     1       5.047   4.766 108.644  1.00  0.00     0.036 C 
ATOM      5  C   UNL     1       3.675   4.529 107.984  1.00  0.00     0.025 C 
ATOM      6  C   UNL     1       3.710   3.251 107.124  1.00  0.00     0.089 C 
ATOM      7  C   UNL     1       4.232   2.089 107.924  1.00  0.00     0.158 C 
ATOM      8  O   UNL     1       3.899   0.919 107.596  1.00  0.00    -0.295 OA
ENDROOT
BRANCH   5   9
ATOM      9  C   UNL     1       3.221   5.737 107.176  1.00  0.00    -0.077 C 
ATOM     10  C   UNL     1       3.172   6.964 107.721  1.00  0.00     0.008 C 
ATOM     11  C   UNL     1       2.815   5.573 105.734  1.00  0.00     0.039 C 
ENDBRANCH   5   9
TORSDOF 1
ENDMDL
