MODEL 1
REMARK VINA RESULT:    -5.610      0.000      0.000
REMARK INTER + INTRA:         -11.099
REMARK INTER:                  -9.874
REMARK INTRA:                  -1.225
REMARK UNBOUND:                -1.225
REMARK SMILES CCCCCCCCCCCCCCC(=O)[O-]
REMARK SMILES IDX 9 1 10 2 11 3 12 4 13 5 14 6 15 7 16 8 17 9 8 10 7 11 6 12
REMARK SMILES IDX 5 13 4 14 3 15 2 16 1 17
REMARK H PARENT
REMARK Flexibility Score: inf
ROOT
ATOM      1  C   UNL     1      65.002 150.178   4.063  1.00  0.00     0.000 C 
ENDROOT
BRANCH   1   2
ATOM      2  C   UNL     1      65.169 149.394   5.374  1.00  0.00     0.000 C 
BRANCH   2   3
ATOM      3  C   UNL     1      63.834 149.149   6.096  1.00  0.00     0.000 C 
BRANCH   3   4
ATOM      4  C   UNL     1      62.955 148.044   5.477  1.00  0.00     0.000 C 
BRANCH   4   5
ATOM      5  C   UNL     1      61.457 148.410   5.399  1.00  0.00     0.006 C 
BRANCH   5   6
ATOM      6  C   UNL     1      60.936 149.016   6.708  1.00  0.00     0.053 C 
BRANCH   6   7
ATOM      7  C   UNL     1      59.966 148.087   7.366  1.00  0.00     0.041 C 
ATOM      8  O   UNL     1      60.141 146.842   7.307  1.00  0.00    -0.550 OA
ATOM      9  O   UNL     1      58.842 148.595   8.004  1.00  0.00    -0.550 OA
ENDBRANCH   6   7
ENDBRANCH   5   6
ENDBRANCH   4   5
ENDBRANCH   3   4
ENDBRANCH   2   3
ENDBRANCH   1   2
BRANCH   1  10
ATOM     10  C   UNL     1      64.598 151.630   4.341  1.00  0.00     0.000 C 
BRANCH  10  11
ATOM     11  C   UNL     1      63.470 152.077   3.399  1.00  0.00    -0.000 C 
BRANCH  11  12
ATOM     12  C   UNL     1      62.087 151.563   3.835  1.00  0.00    -0.000 C 
BRANCH  12  13
ATOM     13  C   UNL     1      60.944 151.839   2.838  1.00  0.00    -0.000 C 
BRANCH  13  14
ATOM     14  C   UNL     1      61.361 152.595   1.560  1.00  0.00    -0.000 C 
BRANCH  14  15
ATOM     15  C   UNL     1      60.335 153.627   1.050  1.00  0.00    -0.000 C 
BRANCH  15  16
ATOM     16  C   UNL     1      59.069 153.762   1.915  1.00  0.00    -0.003 C 
ATOM     17  C   UNL     1      58.156 154.901   1.461  1.00  0.00     0.004 C 
ENDBRANCH  15  16
ENDBRANCH  14  15
ENDBRANCH  13  14
ENDBRANCH  12  13
ENDBRANCH  11  12
ENDBRANCH  10  11
ENDBRANCH   1  10
TORSDOF 13
ENDMDL
MODEL 2
REMARK VINA RESULT:    -5.590      1.674      3.016
REMARK INTER + INTRA:         -11.064
REMARK INTER:                  -9.267
REMARK INTRA:                  -1.797
REMARK UNBOUND:                -1.225
REMARK SMILES CCCCCCCCCCCCCCC(=O)[O-]
REMARK SMILES IDX 9 1 10 2 11 3 12 4 13 5 14 6 15 7 16 8 17 9 8 10 7 11 6 12
REMARK SMILES IDX 5 13 4 14 3 15 2 16 1 17
REMARK H PARENT
REMARK Flexibility Score: inf
ROOT
ATOM      1  C   UNL     1      62.968 151.715   3.148  1.00  0.00     0.000 C 
ENDROOT
BRANCH   1   2
ATOM      2  C   UNL     1      63.688 152.241   4.400  1.00  0.00     0.000 C 
BRANCH   2   3
ATOM      3  C   UNL     1      65.006 151.502   4.683  1.00  0.00     0.000 C 
BRANCH   3   4
ATOM      4  C   UNL     1      65.004 150.006   4.311  1.00  0.00     0.000 C 
BRANCH   4   5
ATOM      5  C   UNL     1      64.733 149.068   5.507  1.00  0.00     0.006 C 
BRANCH   5   6
ATOM      6  C   UNL     1      63.389 148.338   5.382  1.00  0.00     0.053 C 
BRANCH   6   7
ATOM      7  C   UNL     1      62.324 149.070   6.133  1.00  0.00     0.041 C 
ATOM      8  O   UNL     1      61.109 148.831   5.905  1.00  0.00    -0.550 OA
ATOM      9  O   UNL     1      62.672 150.052   7.052  1.00  0.00    -0.550 OA
ENDBRANCH   6   7
ENDBRANCH   5   6
ENDBRANCH   4   5
ENDBRANCH   3   4
ENDBRANCH   2   3
ENDBRANCH   1   2
BRANCH   1  10
ATOM     10  C   UNL     1      61.486 151.455   3.438  1.00  0.00     0.000 C 
BRANCH  10  11
ATOM     11  C   UNL     1      61.019 152.251   4.666  1.00  0.00    -0.000 C 
BRANCH  11  12
ATOM     12  C   UNL     1      59.518 152.586   4.625  1.00  0.00    -0.000 C 
BRANCH  12  13
ATOM     13  C   UNL     1      59.187 154.088   4.514  1.00  0.00    -0.000 C 
BRANCH  13  14
ATOM     14  C   UNL     1      58.603 154.530   3.157  1.00  0.00    -0.000 C 
BRANCH  14  15
ATOM     15  C   UNL     1      58.798 153.523   2.005  1.00  0.00    -0.000 C 
BRANCH  15  16
ATOM     16  C   UNL     1      59.406 154.119   0.723  1.00  0.00    -0.003 C 
ATOM     17  C   UNL     1      60.888 153.786   0.556  1.00  0.00     0.004 C 
ENDBRANCH  15  16
ENDBRANCH  14  15
ENDBRANCH  13  14
ENDBRANCH  12  13
ENDBRANCH  11  12
ENDBRANCH  10  11
ENDBRANCH   1  10
TORSDOF 13
ENDMDL
MODEL 3
REMARK VINA RESULT:    -5.582      3.615      5.986
REMARK INTER + INTRA:         -11.049
REMARK INTER:                  -9.272
REMARK INTRA:                  -1.777
REMARK UNBOUND:                -1.225
REMARK SMILES CCCCCCCCCCCCCCC(=O)[O-]
REMARK SMILES IDX 9 1 10 2 11 3 12 4 13 5 14 6 15 7 16 8 17 9 8 10 7 11 6 12
REMARK SMILES IDX 5 13 4 14 3 15 2 16 1 17
REMARK H PARENT
REMARK Flexibility Score: inf
ROOT
ATOM      1  C   UNL     1      65.007 151.287   5.285  1.00  0.00     0.000 C 
ENDROOT
BRANCH   1   2
ATOM      2  C   UNL     1      64.388 152.225   4.236  1.00  0.00     0.000 C 
BRANCH   2   3
ATOM      3  C   UNL     1      63.515 151.480   3.213  1.00  0.00     0.000 C 
BRANCH   3   4
ATOM      4  C   UNL     1      61.999 151.711   3.363  1.00  0.00     0.000 C 
BRANCH   4   5
ATOM      5  C   UNL     1      61.265 151.922   2.021  1.00  0.00     0.006 C 
BRANCH   5   6
ATOM      6  C   UNL     1      60.214 153.037   2.100  1.00  0.00     0.053 C 
BRANCH   6   7
ATOM      7  C   UNL     1      60.167 153.805   0.818  1.00  0.00     0.041 C 
ATOM      8  O   UNL     1      61.214 153.966   0.136  1.00  0.00    -0.550 OA
ATOM      9  O   UNL     1      58.977 154.386   0.399  1.00  0.00    -0.550 OA
ENDBRANCH   6   7
ENDBRANCH   5   6
ENDBRANCH   4   5
ENDBRANCH   3   4
ENDBRANCH   2   3
ENDBRANCH   1   2
BRANCH   1  10
ATOM     10  C   UNL     1      64.998 149.836   4.794  1.00  0.00     0.000 C 
BRANCH  10  11
ATOM     11  C   UNL     1      64.331 148.911   5.823  1.00  0.00    -0.000 C 
BRANCH  11  12
ATOM     12  C   UNL     1      62.902 148.504   5.426  1.00  0.00    -0.000 C 
BRANCH  12  13
ATOM     13  C   UNL     1      61.804 148.910   6.429  1.00  0.00    -0.000 C 
BRANCH  13  14
ATOM     14  C   UNL     1      62.283 149.794   7.598  1.00  0.00    -0.000 C 
BRANCH  14  15
ATOM     15  C   UNL     1      61.324 150.938   7.984  1.00  0.00    -0.000 C 
BRANCH  15  16
ATOM     16  C   UNL     1      60.927 151.868   6.823  1.00  0.00    -0.003 C 
ATOM     17  C   UNL     1      61.788 153.128   6.748  1.00  0.00     0.004 C 
ENDBRANCH  15  16
ENDBRANCH  14  15
ENDBRANCH  13  14
ENDBRANCH  12  13
ENDBRANCH  11  12
ENDBRANCH  10  11
ENDBRANCH   1  10
TORSDOF 13
ENDMDL
MODEL 4
REMARK VINA RESULT:    -5.555      2.727      6.643
REMARK INTER + INTRA:         -11.001
REMARK INTER:                  -9.678
REMARK INTRA:                  -1.323
REMARK UNBOUND:                -1.225
REMARK SMILES CCCCCCCCCCCCCCC(=O)[O-]
REMARK SMILES IDX 9 1 10 2 11 3 12 4 13 5 14 6 15 7 16 8 17 9 8 10 7 11 6 12
REMARK SMILES IDX 5 13 4 14 3 15 2 16 1 17
REMARK H PARENT
REMARK Flexibility Score: inf
ROOT
ATOM      1  C   UNL     1      61.337 152.828   1.584  1.00  0.00     0.000 C 
ENDROOT
BRANCH   1   2
ATOM      2  C   UNL     1      60.174 153.678   1.050  1.00  0.00     0.000 C 
BRANCH   2   3
ATOM      3  C   UNL     1      58.894 153.531   1.890  1.00  0.00     0.000 C 
BRANCH   3   4
ATOM      4  C   UNL     1      58.178 154.855   2.218  1.00  0.00     0.000 C 
BRANCH   4   5
ATOM      5  C   UNL     1      58.243 155.246   3.710  1.00  0.00     0.006 C 
BRANCH   5   6
ATOM      6  C   UNL     1      58.885 154.151   4.572  1.00  0.00     0.053 C 
BRANCH   6   7
ATOM      7  C   UNL     1      59.683 154.759   5.681  1.00  0.00     0.041 C 
ATOM      8  O   UNL     1      59.563 155.982   5.953  1.00  0.00    -0.550 OA
ATOM      9  O   UNL     1      60.597 153.984   6.384  1.00  0.00    -0.550 OA
ENDBRANCH   6   7
ENDBRANCH   5   6
ENDBRANCH   4   5
ENDBRANCH   3   4
ENDBRANCH   2   3
ENDBRANCH   1   2
BRANCH   1  10
ATOM     10  C   UNL     1      60.845 151.826   2.634  1.00  0.00     0.000 C 
BRANCH  10  11
ATOM     11  C   UNL     1      61.869 151.670   3.768  1.00  0.00    -0.000 C 
BRANCH  11  12
ATOM     12  C   UNL     1      63.314 151.541   3.255  1.00  0.00    -0.000 C 
BRANCH  12  13
ATOM     13  C   UNL     1      64.390 152.154   4.175  1.00  0.00    -0.000 C 
BRANCH  13  14
ATOM     14  C   UNL     1      65.005 151.180   5.199  1.00  0.00    -0.000 C 
BRANCH  14  15
ATOM     15  C   UNL     1      64.975 149.695   4.785  1.00  0.00    -0.000 C 
BRANCH  15  16
ATOM     16  C   UNL     1      64.040 148.808   5.627  1.00  0.00    -0.003 C 
ATOM     17  C   UNL     1      63.169 149.610   6.593  1.00  0.00     0.004 C 
ENDBRANCH  15  16
ENDBRANCH  14  15
ENDBRANCH  13  14
ENDBRANCH  12  13
ENDBRANCH  11  12
ENDBRANCH  10  11
ENDBRANCH   1  10
TORSDOF 13
ENDMDL
MODEL 5
REMARK VINA RESULT:    -5.528      3.408      6.425
REMARK INTER + INTRA:         -10.953
REMARK INTER:                  -9.512
REMARK INTRA:                  -1.442
REMARK UNBOUND:                -1.225
REMARK SMILES CCCCCCCCCCCCCCC(=O)[O-]
REMARK SMILES IDX 9 1 10 2 11 3 12 4 13 5 14 6 15 7 16 8 17 9 8 10 7 11 6 12
REMARK SMILES IDX 5 13 4 14 3 15 2 16 1 17
REMARK H PARENT
REMARK Flexibility Score: inf
ROOT
ATOM      1  C   UNL     1      61.035 151.409   6.415  1.00  0.00     0.000 C 
ENDROOT
BRANCH   1   2
ATOM      2  C   UNL     1      60.799 152.315   5.196  1.00  0.00     0.000 C 
BRANCH   2   3
ATOM      3  C   UNL     1      59.565 153.219   5.356  1.00  0.00     0.000 C 
BRANCH   3   4
ATOM      4  C   UNL     1      59.057 153.859   4.050  1.00  0.00     0.000 C 
BRANCH   4   5
ATOM      5  C   UNL     1      59.106 152.912   2.831  1.00  0.00     0.006 C 
BRANCH   5   6
ATOM      6  C   UNL     1      59.336 153.667   1.515  1.00  0.00     0.053 C 
BRANCH   6   7
ATOM      7  C   UNL     1      60.729 153.445   1.021  1.00  0.00     0.041 C 
ATOM      8  O   UNL     1      61.143 154.050  -0.003  1.00  0.00    -0.550 OA
ATOM      9  O   UNL     1      61.557 152.532   1.662  1.00  0.00    -0.550 OA
ENDBRANCH   6   7
ENDBRANCH   5   6
ENDBRANCH   4   5
ENDBRANCH   3   4
ENDBRANCH   2   3
ENDBRANCH   1   2
BRANCH   1  10
ATOM     10  C   UNL     1      61.507 150.018   5.977  1.00  0.00     0.000 C 
BRANCH  10  11
ATOM     11  C   UNL     1      62.825 149.642   6.671  1.00  0.00    -0.000 C 
BRANCH  11  12
ATOM     12  C   UNL     1      63.686 148.677   5.837  1.00  0.00    -0.000 C 
BRANCH  12  13
ATOM     13  C   UNL     1      65.067 149.225   5.423  1.00  0.00    -0.000 C 
BRANCH  13  14
ATOM     14  C   UNL     1      65.150 149.761   3.980  1.00  0.00    -0.000 C 
BRANCH  14  15
ATOM     15  C   UNL     1      64.436 151.106   3.741  1.00  0.00    -0.000 C 
BRANCH  15  16
ATOM     16  C   UNL     1      65.138 152.329   4.359  1.00  0.00    -0.003 C 
ATOM     17  C   UNL     1      64.459 152.824   5.635  1.00  0.00     0.004 C 
ENDBRANCH  15  16
ENDBRANCH  14  15
ENDBRANCH  13  14
ENDBRANCH  12  13
ENDBRANCH  11  12
ENDBRANCH  10  11
ENDBRANCH   1  10
TORSDOF 13
ENDMDL
MODEL 6
REMARK VINA RESULT:    -5.495      2.664      6.372
REMARK INTER + INTRA:         -10.897
REMARK INTER:                  -9.391
REMARK INTRA:                  -1.505
REMARK UNBOUND:                -1.225
REMARK SMILES CCCCCCCCCCCCCCC(=O)[O-]
REMARK SMILES IDX 9 1 10 2 11 3 12 4 13 5 14 6 15 7 16 8 17 9 8 10 7 11 6 12
REMARK SMILES IDX 5 13 4 14 3 15 2 16 1 17
REMARK H PARENT
REMARK Flexibility Score: inf
ROOT
ATOM      1  C   UNL     1      61.911 151.858   3.620  1.00  0.00     0.000 C 
ENDROOT
BRANCH   1   2
ATOM      2  C   UNL     1      61.049 151.831   2.348  1.00  0.00     0.000 C 
BRANCH   2   3
ATOM      3  C   UNL     1      61.324 153.024   1.418  1.00  0.00     0.000 C 
BRANCH   3   4
ATOM      4  C   UNL     1      60.067 153.776   0.939  1.00  0.00     0.000 C 
BRANCH   4   5
ATOM      5  C   UNL     1      58.822 153.531   1.819  1.00  0.00     0.006 C 
BRANCH   5   6
ATOM      6  C   UNL     1      58.262 154.830   2.412  1.00  0.00     0.053 C 
BRANCH   6   7
ATOM      7  C   UNL     1      58.509 154.882   3.886  1.00  0.00     0.041 C 
ATOM      8  O   UNL     1      58.973 153.878   4.487  1.00  0.00    -0.550 OA
ATOM      9  O   UNL     1      58.182 156.025   4.605  1.00  0.00    -0.550 OA
ENDBRANCH   6   7
ENDBRANCH   5   6
ENDBRANCH   4   5
ENDBRANCH   3   4
ENDBRANCH   2   3
ENDBRANCH   1   2
BRANCH   1  10
ATOM     10  C   UNL     1      63.379 151.570   3.292  1.00  0.00     0.000 C 
BRANCH  10  11
ATOM     11  C   UNL     1      64.311 152.213   4.330  1.00  0.00    -0.000 C 
BRANCH  11  12
ATOM     12  C   UNL     1      65.181 151.185   5.073  1.00  0.00    -0.000 C 
BRANCH  12  13
ATOM     13  C   UNL     1      64.925 149.714   4.687  1.00  0.00    -0.000 C 
BRANCH  13  14
ATOM     14  C   UNL     1      64.203 148.874   5.760  1.00  0.00    -0.000 C 
BRANCH  14  15
ATOM     15  C   UNL     1      62.767 148.446   5.395  1.00  0.00    -0.000 C 
BRANCH  15  16
ATOM     16  C   UNL     1      61.703 148.790   6.452  1.00  0.00    -0.003 C 
ATOM     17  C   UNL     1      61.839 150.212   6.994  1.00  0.00     0.004 C 
ENDBRANCH  15  16
ENDBRANCH  14  15
ENDBRANCH  13  14
ENDBRANCH  12  13
ENDBRANCH  11  12
ENDBRANCH  10  11
ENDBRANCH   1  10
TORSDOF 13
ENDMDL
MODEL 7
REMARK VINA RESULT:    -5.387      1.674      2.155
REMARK INTER + INTRA:         -10.707
REMARK INTER:                  -9.145
REMARK INTRA:                  -1.561
REMARK UNBOUND:                -1.225
REMARK SMILES CCCCCCCCCCCCCCC(=O)[O-]
REMARK SMILES IDX 9 1 10 2 11 3 12 4 13 5 14 6 15 7 16 8 17 9 8 10 7 11 6 12
REMARK SMILES IDX 5 13 4 14 3 15 2 16 1 17
REMARK H PARENT
REMARK Flexibility Score: inf
ROOT
ATOM      1  C   UNL     1      64.974 149.803   4.805  1.00  0.00     0.000 C 
ENDROOT
BRANCH   1   2
ATOM      2  C   UNL     1      64.335 148.876   5.851  1.00  0.00     0.000 C 
BRANCH   2   3
ATOM      3  C   UNL     1      63.001 148.275   5.379  1.00  0.00     0.000 C 
BRANCH   3   4
ATOM      4  C   UNL     1      61.744 148.988   5.913  1.00  0.00     0.000 C 
BRANCH   4   5
ATOM      5  C   UNL     1      61.994 149.823   7.187  1.00  0.00     0.006 C 
BRANCH   5   6
ATOM      6  C   UNL     1      61.676 151.310   6.982  1.00  0.00     0.053 C 
BRANCH   6   7
ATOM      7  C   UNL     1      60.302 151.625   7.481  1.00  0.00     0.041 C 
ATOM      8  O   UNL     1      59.297 151.401   6.756  1.00  0.00    -0.550 OA
ATOM      9  O   UNL     1      60.133 152.211   8.729  1.00  0.00    -0.550 OA
ENDBRANCH   6   7
ENDBRANCH   5   6
ENDBRANCH   4   5
ENDBRANCH   3   4
ENDBRANCH   2   3
ENDBRANCH   1   2
BRANCH   1  10
ATOM     10  C   UNL     1      65.020 151.249   5.312  1.00  0.00     0.000 C 
BRANCH  10  11
ATOM     11  C   UNL     1      64.409 152.212   4.283  1.00  0.00    -0.000 C 
BRANCH  11  12
ATOM     12  C   UNL     1      63.523 151.497   3.247  1.00  0.00    -0.000 C 
BRANCH  12  13
ATOM     13  C   UNL     1      62.008 151.732   3.411  1.00  0.00    -0.000 C 
BRANCH  13  14
ATOM     14  C   UNL     1      61.239 151.970   2.096  1.00  0.00    -0.000 C 
BRANCH  14  15
ATOM     15  C   UNL     1      60.099 153.005   2.186  1.00  0.00    -0.000 C 
BRANCH  15  16
ATOM     16  C   UNL     1      59.899 153.857   0.920  1.00  0.00    -0.003 C 
ATOM     17  C   UNL     1      58.603 154.666   0.945  1.00  0.00     0.004 C 
ENDBRANCH  15  16
ENDBRANCH  14  15
ENDBRANCH  13  14
ENDBRANCH  12  13
ENDBRANCH  11  12
ENDBRANCH  10  11
ENDBRANCH   1  10
TORSDOF 13
ENDMDL
MODEL 8
REMARK VINA RESULT:    -5.358      1.943      3.575
REMARK INTER + INTRA:         -10.655
REMARK INTER:                  -9.140
REMARK INTRA:                  -1.515
REMARK UNBOUND:                -1.225
REMARK SMILES CCCCCCCCCCCCCCC(=O)[O-]
REMARK SMILES IDX 9 1 10 2 11 3 12 4 13 5 14 6 15 7 16 8 17 9 8 10 7 11 6 12
REMARK SMILES IDX 5 13 4 14 3 15 2 16 1 17
REMARK H PARENT
REMARK Flexibility Score: inf
ROOT
ATOM      1  C   UNL     1      62.966 151.315   3.034  1.00  0.00     0.000 C 
ENDROOT
BRANCH   1   2
ATOM      2  C   UNL     1      63.877 152.226   3.871  1.00  0.00     0.000 C 
BRANCH   2   3
ATOM      3  C   UNL     1      65.041 151.465   4.526  1.00  0.00     0.000 C 
BRANCH   3   4
ATOM      4  C   UNL     1      65.064 149.950   4.247  1.00  0.00     0.000 C 
BRANCH   4   5
ATOM      5  C   UNL     1      64.892 149.081   5.512  1.00  0.00     0.006 C 
BRANCH   5   6
ATOM      6  C   UNL     1      63.578 149.374   6.247  1.00  0.00     0.053 C 
BRANCH   6   7
ATOM      7  C   UNL     1      62.458 148.580   5.654  1.00  0.00     0.041 C 
ATOM      8  O   UNL     1      62.645 147.387   5.297  1.00  0.00    -0.550 OA
ATOM      9  O   UNL     1      61.219 149.173   5.450  1.00  0.00    -0.550 OA
ENDBRANCH   6   7
ENDBRANCH   5   6
ENDBRANCH   4   5
ENDBRANCH   3   4
ENDBRANCH   2   3
ENDBRANCH   1   2
BRANCH   1  10
ATOM     10  C   UNL     1      61.530 151.850   3.010  1.00  0.00     0.000 C 
BRANCH  10  11
ATOM     11  C   UNL     1      61.249 152.612   1.706  1.00  0.00    -0.000 C 
BRANCH  11  12
ATOM     12  C   UNL     1      59.904 153.359   1.728  1.00  0.00    -0.000 C 
BRANCH  12  13
ATOM     13  C   UNL     1      58.990 153.023   2.924  1.00  0.00    -0.000 C 
BRANCH  13  14
ATOM     14  C   UNL     1      58.850 154.144   3.973  1.00  0.00    -0.000 C 
BRANCH  14  15
ATOM     15  C   UNL     1      58.688 153.658   5.428  1.00  0.00    -0.000 C 
BRANCH  15  16
ATOM     16  C   UNL     1      59.453 152.366   5.766  1.00  0.00    -0.003 C 
ATOM     17  C   UNL     1      60.751 152.626   6.530  1.00  0.00     0.004 C 
ENDBRANCH  15  16
ENDBRANCH  14  15
ENDBRANCH  13  14
ENDBRANCH  12  13
ENDBRANCH  11  12
ENDBRANCH  10  11
ENDBRANCH   1  10
TORSDOF 13
ENDMDL
MODEL 9
REMARK VINA RESULT:    -5.350      3.405      6.333
REMARK INTER + INTRA:         -10.641
REMARK INTER:                  -8.890
REMARK INTRA:                  -1.751
REMARK UNBOUND:                -1.225
REMARK SMILES CCCCCCCCCCCCCCC(=O)[O-]
REMARK SMILES IDX 9 1 10 2 11 3 12 4 13 5 14 6 15 7 16 8 17 9 8 10 7 11 6 12
REMARK SMILES IDX 5 13 4 14 3 15 2 16 1 17
REMARK H PARENT
REMARK Flexibility Score: inf
ROOT
ATOM      1  C   UNL     1      63.231 151.549   3.428  1.00  0.00     0.000 C 
ENDROOT
BRANCH   1   2
ATOM      2  C   UNL     1      61.703 151.473   3.574  1.00  0.00     0.000 C 
BRANCH   2   3
ATOM      3  C   UNL     1      61.188 152.198   4.828  1.00  0.00     0.000 C 
BRANCH   3   4
ATOM      4  C   UNL     1      59.698 152.589   4.786  1.00  0.00     0.000 C 
BRANCH   4   5
ATOM      5  C   UNL     1      59.365 153.666   3.730  1.00  0.00     0.006 C 
BRANCH   5   6
ATOM      6  C   UNL     1      58.916 153.056   2.396  1.00  0.00     0.053 C 
BRANCH   6   7
ATOM      7  C   UNL     1      59.561 153.768   1.251  1.00  0.00     0.041 C 
ATOM      8  O   UNL     1      60.772 153.559   0.975  1.00  0.00    -0.550 OA
ATOM      9  O   UNL     1      58.839 154.700   0.516  1.00  0.00    -0.550 OA
ENDBRANCH   6   7
ENDBRANCH   5   6
ENDBRANCH   4   5
ENDBRANCH   3   4
ENDBRANCH   2   3
ENDBRANCH   1   2
BRANCH   1  10
ATOM     10  C   UNL     1      63.863 152.228   4.648  1.00  0.00     0.000 C 
BRANCH  10  11
ATOM     11  C   UNL     1      65.032 151.395   5.196  1.00  0.00    -0.000 C 
BRANCH  11  12
ATOM     12  C   UNL     1      65.020 149.942   4.691  1.00  0.00    -0.000 C 
BRANCH  12  13
ATOM     13  C   UNL     1      64.509 148.901   5.707  1.00  0.00    -0.000 C 
BRANCH  13  14
ATOM     14  C   UNL     1      63.116 148.316   5.398  1.00  0.00    -0.000 C 
BRANCH  14  15
ATOM     15  C   UNL     1      61.976 148.836   6.298  1.00  0.00    -0.000 C 
BRANCH  15  16
ATOM     16  C   UNL     1      62.417 149.827   7.390  1.00  0.00    -0.003 C 
ATOM     17  C   UNL     1      61.563 149.739   8.654  1.00  0.00     0.004 C 
ENDBRANCH  15  16
ENDBRANCH  14  15
ENDBRANCH  13  14
ENDBRANCH  12  13
ENDBRANCH  11  12
ENDBRANCH  10  11
ENDBRANCH   1  10
TORSDOF 13
ENDMDL
