MODEL 1
REMARK VINA RESULT:    -7.612      0.000      0.000
REMARK INTER + INTRA:         -15.302
REMARK INTER:                 -14.288
REMARK INTRA:                  -1.015
REMARK UNBOUND:                -1.015
REMARK SMILES CCCCCCCCC=CCCCCCCCC(=O)[O-]
REMARK SMILES IDX 10 1 9 2 11 3 12 4 13 5 14 6 15 7 16 8 17 9 18 10 19 11
REMARK SMILES IDX 20 12 8 13 7 14 6 15 5 16 4 17 3 18 2 19 1 20
REMARK H PARENT
REMARK Flexibility Score: inf
ROOT
ATOM      1  C   UNL     1      -5.526 -12.005 -34.753  1.00  0.00    -0.031 C 
ATOM      2  C   UNL     1      -5.400 -12.584 -33.545  1.00  0.00    -0.031 C 
ENDROOT
BRANCH   1   3
ATOM      3  C   UNL     1      -6.522 -12.423 -35.806  1.00  0.00     0.027 C 
BRANCH   3   4
ATOM      4  C   UNL     1      -6.482 -11.473 -37.009  1.00  0.00     0.004 C 
BRANCH   4   5
ATOM      5  C   UNL     1      -5.074 -11.419 -37.613  1.00  0.00     0.000 C 
BRANCH   5   6
ATOM      6  C   UNL     1      -4.841 -10.107 -38.374  1.00  0.00     0.000 C 
BRANCH   6   7
ATOM      7  C   UNL     1      -3.360  -9.667 -38.328  1.00  0.00     0.000 C 
BRANCH   7   8
ATOM      8  C   UNL     1      -3.150  -8.314 -37.622  1.00  0.00     0.006 C 
BRANCH   8   9
ATOM      9  C   UNL     1      -2.131  -8.367 -36.472  1.00  0.00     0.053 C 
BRANCH   9  10
ATOM     10  C   UNL     1      -2.797  -8.331 -35.130  1.00  0.00     0.041 C 
ATOM     11  O   UNL     1      -3.569  -9.262 -34.781  1.00  0.00    -0.550 OA
ATOM     12  O   UNL     1      -2.548  -7.282 -34.255  1.00  0.00    -0.550 OA
ENDBRANCH   9  10
ENDBRANCH   8   9
ENDBRANCH   7   8
ENDBRANCH   6   7
ENDBRANCH   5   6
ENDBRANCH   4   5
ENDBRANCH   3   4
ENDBRANCH   1   3
BRANCH   2  13
ATOM     13  C   UNL     1      -6.195 -13.778 -33.076  1.00  0.00     0.027 C 
BRANCH  13  14
ATOM     14  C   UNL     1      -6.023 -14.037 -31.573  1.00  0.00     0.004 C 
BRANCH  14  15
ATOM     15  C   UNL     1      -5.032 -13.056 -30.918  1.00  0.00     0.000 C 
BRANCH  15  16
ATOM     16  C   UNL     1      -5.614 -12.404 -29.652  1.00  0.00     0.000 C 
BRANCH  16  17
ATOM     17  C   UNL     1      -4.971 -11.041 -29.351  1.00  0.00    -0.000 C 
BRANCH  17  18
ATOM     18  C   UNL     1      -4.942 -10.715 -27.849  1.00  0.00    -0.000 C 
BRANCH  18  19
ATOM     19  C   UNL     1      -3.943  -9.596 -27.480  1.00  0.00    -0.003 C 
ATOM     20  C   UNL     1      -3.415  -8.857 -28.711  1.00  0.00     0.004 C 
ENDBRANCH  18  19
ENDBRANCH  17  18
ENDBRANCH  16  17
ENDBRANCH  15  16
ENDBRANCH  14  15
ENDBRANCH  13  14
ENDBRANCH   2  13
TORSDOF 15
ENDMDL
MODEL 2
REMARK VINA RESULT:    -7.218      1.877      4.808
REMARK INTER + INTRA:         -14.562
REMARK INTER:                 -13.598
REMARK INTRA:                  -0.965
REMARK UNBOUND:                -1.015
REMARK SMILES CCCCCCCCC=CCCCCCCCC(=O)[O-]
REMARK SMILES IDX 10 1 9 2 11 3 12 4 13 5 14 6 15 7 16 8 17 9 18 10 19 11
REMARK SMILES IDX 20 12 8 13 7 14 6 15 5 16 4 17 3 18 2 19 1 20
REMARK H PARENT
REMARK Flexibility Score: inf
ROOT
ATOM      1  C   UNL     1      -2.788  -6.665 -33.127  1.00  0.00    -0.031 C 
ATOM      2  C   UNL     1      -2.969  -6.620 -31.794  1.00  0.00    -0.031 C 
ENDROOT
BRANCH   1   3
ATOM      3  C   UNL     1      -3.238  -7.796 -34.018  1.00  0.00     0.027 C 
BRANCH   3   4
ATOM      4  C   UNL     1      -2.490  -7.774 -35.355  1.00  0.00     0.004 C 
BRANCH   4   5
ATOM      5  C   UNL     1      -2.865  -8.991 -36.209  1.00  0.00     0.000 C 
BRANCH   5   6
ATOM      6  C   UNL     1      -2.959  -8.625 -37.696  1.00  0.00     0.000 C 
BRANCH   6   7
ATOM      7  C   UNL     1      -4.185  -9.275 -38.376  1.00  0.00     0.000 C 
BRANCH   7   8
ATOM      8  C   UNL     1      -4.421 -10.733 -37.938  1.00  0.00     0.006 C 
BRANCH   8   9
ATOM      9  C   UNL     1      -5.893 -11.059 -37.638  1.00  0.00     0.053 C 
BRANCH   9  10
ATOM     10  C   UNL     1      -6.076 -11.606 -36.254  1.00  0.00     0.041 C 
ATOM     11  O   UNL     1      -5.582 -11.005 -35.265  1.00  0.00    -0.550 OA
ATOM     12  O   UNL     1      -6.813 -12.766 -36.055  1.00  0.00    -0.550 OA
ENDBRANCH   9  10
ENDBRANCH   8   9
ENDBRANCH   7   8
ENDBRANCH   6   7
ENDBRANCH   5   6
ENDBRANCH   4   5
ENDBRANCH   3   4
ENDBRANCH   1   3
BRANCH   2  13
ATOM     13  C   UNL     1      -3.599  -7.719 -30.975  1.00  0.00     0.027 C 
BRANCH  13  14
ATOM     14  C   UNL     1      -3.049  -7.763 -29.542  1.00  0.00     0.004 C 
BRANCH  14  15
ATOM     15  C   UNL     1      -3.049  -9.187 -28.956  1.00  0.00     0.000 C 
BRANCH  15  16
ATOM     16  C   UNL     1      -3.632  -9.228 -27.534  1.00  0.00     0.000 C 
BRANCH  16  17
ATOM     17  C   UNL     1      -4.781 -10.241 -27.404  1.00  0.00    -0.000 C 
BRANCH  17  18
ATOM     18  C   UNL     1      -5.266 -10.770 -28.764  1.00  0.00    -0.000 C 
BRANCH  18  19
ATOM     19  C   UNL     1      -5.038 -12.286 -28.952  1.00  0.00    -0.003 C 
ATOM     20  C   UNL     1      -5.497 -12.778 -30.326  1.00  0.00     0.004 C 
ENDBRANCH  18  19
ENDBRANCH  17  18
ENDBRANCH  16  17
ENDBRANCH  15  16
ENDBRANCH  14  15
ENDBRANCH  13  14
ENDBRANCH   2  13
TORSDOF 15
ENDMDL
MODEL 3
REMARK VINA RESULT:    -7.165      1.417      6.943
REMARK INTER + INTRA:         -14.463
REMARK INTER:                 -13.437
REMARK INTRA:                  -1.026
REMARK UNBOUND:                -1.015
REMARK SMILES CCCCCCCCC=CCCCCCCCC(=O)[O-]
REMARK SMILES IDX 10 1 9 2 11 3 12 4 13 5 14 6 15 7 16 8 17 9 18 10 19 11
REMARK SMILES IDX 20 12 8 13 7 14 6 15 5 16 4 17 3 18 2 19 1 20
REMARK H PARENT
REMARK Flexibility Score: inf
ROOT
ATOM      1  C   UNL     1      -5.583 -13.337 -31.161  1.00  0.00    -0.031 C 
ATOM      2  C   UNL     1      -5.695 -13.434 -32.499  1.00  0.00    -0.031 C 
ENDROOT
BRANCH   1   3
ATOM      3  C   UNL     1      -4.936 -12.184 -30.435  1.00  0.00     0.027 C 
BRANCH   3   4
ATOM      4  C   UNL     1      -5.246 -12.235 -28.935  1.00  0.00     0.004 C 
BRANCH   4   5
ATOM      5  C   UNL     1      -4.896 -10.903 -28.261  1.00  0.00     0.000 C 
BRANCH   5   6
ATOM      6  C   UNL     1      -4.355  -9.887 -29.276  1.00  0.00     0.000 C 
BRANCH   6   7
ATOM      7  C   UNL     1      -3.374  -8.885 -28.625  1.00  0.00     0.000 C 
BRANCH   7   8
ATOM      8  C   UNL     1      -2.737  -7.914 -29.637  1.00  0.00     0.006 C 
BRANCH   8   9
ATOM      9  C   UNL     1      -3.608  -7.648 -30.875  1.00  0.00     0.053 C 
BRANCH   9  10
ATOM     10  C   UNL     1      -2.860  -6.900 -31.937  1.00  0.00     0.041 C 
ATOM     11  O   UNL     1      -3.033  -7.181 -33.151  1.00  0.00    -0.550 OA
ATOM     12  O   UNL     1      -1.990  -5.876 -31.587  1.00  0.00    -0.550 OA
ENDBRANCH   9  10
ENDBRANCH   8   9
ENDBRANCH   7   8
ENDBRANCH   6   7
ENDBRANCH   5   6
ENDBRANCH   4   5
ENDBRANCH   3   4
ENDBRANCH   1   3
BRANCH   2  13
ATOM     13  C   UNL     1      -5.140 -12.435 -33.483  1.00  0.00     0.027 C 
BRANCH  13  14
ATOM     14  C   UNL     1      -5.859 -12.492 -34.839  1.00  0.00     0.004 C 
BRANCH  14  15
ATOM     15  C   UNL     1      -5.981 -11.107 -35.498  1.00  0.00     0.000 C 
BRANCH  15  16
ATOM     16  C   UNL     1      -6.139 -11.204 -37.025  1.00  0.00     0.000 C 
BRANCH  16  17
ATOM     17  C   UNL     1      -4.785 -11.203 -37.753  1.00  0.00    -0.000 C 
BRANCH  17  18
ATOM     18  C   UNL     1      -4.471  -9.856 -38.425  1.00  0.00    -0.000 C 
BRANCH  18  19
ATOM     19  C   UNL     1      -3.092  -9.279 -38.035  1.00  0.00    -0.003 C 
ATOM     20  C   UNL     1      -3.078  -8.711 -36.615  1.00  0.00     0.004 C 
ENDBRANCH  18  19
ENDBRANCH  17  18
ENDBRANCH  16  17
ENDBRANCH  15  16
ENDBRANCH  14  15
ENDBRANCH  13  14
ENDBRANCH   2  13
TORSDOF 15
ENDMDL
MODEL 4
REMARK VINA RESULT:    -7.147      2.288      4.839
REMARK INTER + INTRA:         -14.430
REMARK INTER:                 -13.306
REMARK INTRA:                  -1.123
REMARK UNBOUND:                -1.015
REMARK SMILES CCCCCCCCC=CCCCCCCCC(=O)[O-]
REMARK SMILES IDX 10 1 9 2 11 3 12 4 13 5 14 6 15 7 16 8 17 9 18 10 19 11
REMARK SMILES IDX 20 12 8 13 7 14 6 15 5 16 4 17 3 18 2 19 1 20
REMARK H PARENT
REMARK Flexibility Score: inf
ROOT
ATOM      1  C   UNL     1      -3.108  -8.621 -34.971  1.00  0.00    -0.031 C 
ATOM      2  C   UNL     1      -3.243  -7.995 -33.787  1.00  0.00    -0.031 C 
ENDROOT
BRANCH   1   3
ATOM      3  C   UNL     1      -2.170  -8.187 -36.070  1.00  0.00     0.027 C 
BRANCH   3   4
ATOM      4  C   UNL     1      -2.876  -8.188 -37.429  1.00  0.00     0.004 C 
BRANCH   4   5
ATOM      5  C   UNL     1      -2.283  -9.260 -38.351  1.00  0.00     0.000 C 
BRANCH   5   6
ATOM      6  C   UNL     1      -3.374 -10.179 -38.917  1.00  0.00     0.000 C 
BRANCH   6   7
ATOM      7  C   UNL     1      -4.716 -10.014 -38.168  1.00  0.00     0.000 C 
BRANCH   7   8
ATOM      8  C   UNL     1      -5.267 -11.339 -37.608  1.00  0.00     0.006 C 
BRANCH   8   9
ATOM      9  C   UNL     1      -6.242 -11.158 -36.434  1.00  0.00     0.053 C 
BRANCH   9  10
ATOM     10  C   UNL     1      -6.311 -12.379 -35.568  1.00  0.00     0.041 C 
ATOM     11  O   UNL     1      -6.946 -13.395 -35.954  1.00  0.00    -0.550 OA
ATOM     12  O   UNL     1      -5.653 -12.404 -34.345  1.00  0.00    -0.550 OA
ENDBRANCH   9  10
ENDBRANCH   8   9
ENDBRANCH   7   8
ENDBRANCH   6   7
ENDBRANCH   5   6
ENDBRANCH   4   5
ENDBRANCH   3   4
ENDBRANCH   1   3
BRANCH   2  13
ATOM     13  C   UNL     1      -2.520  -6.731 -33.395  1.00  0.00     0.027 C 
BRANCH  13  14
ATOM     14  C   UNL     1      -2.708  -6.391 -31.910  1.00  0.00     0.004 C 
BRANCH  14  15
ATOM     15  C   UNL     1      -3.540  -7.451 -31.166  1.00  0.00     0.000 C 
BRANCH  15  16
ATOM     16  C   UNL     1      -2.883  -7.880 -29.843  1.00  0.00     0.000 C 
BRANCH  16  17
ATOM     17  C   UNL     1      -3.574  -9.103 -29.218  1.00  0.00    -0.000 C 
BRANCH  17  18
ATOM     18  C   UNL     1      -3.646  -9.028 -27.684  1.00  0.00    -0.000 C 
BRANCH  18  19
ATOM     19  C   UNL     1      -4.519 -10.135 -27.053  1.00  0.00    -0.003 C 
ATOM     20  C   UNL     1      -5.198 -11.012 -28.106  1.00  0.00     0.004 C 
ENDBRANCH  18  19
ENDBRANCH  17  18
ENDBRANCH  16  17
ENDBRANCH  15  16
ENDBRANCH  14  15
ENDBRANCH  13  14
ENDBRANCH   2  13
TORSDOF 15
ENDMDL
MODEL 5
REMARK VINA RESULT:    -7.144      0.963      1.846
REMARK INTER + INTRA:         -14.423
REMARK INTER:                 -13.451
REMARK INTRA:                  -0.972
REMARK UNBOUND:                -1.015
REMARK SMILES CCCCCCCCC=CCCCCCCCC(=O)[O-]
REMARK SMILES IDX 10 1 9 2 11 3 12 4 13 5 14 6 15 7 16 8 17 9 18 10 19 11
REMARK SMILES IDX 20 12 8 13 7 14 6 15 5 16 4 17 3 18 2 19 1 20
REMARK H PARENT
REMARK Flexibility Score: inf
ROOT
ATOM      1  C   UNL     1      -5.851 -13.001 -33.721  1.00  0.00    -0.031 C 
ATOM      2  C   UNL     1      -5.872 -13.422 -32.443  1.00  0.00    -0.031 C 
ENDROOT
BRANCH   1   3
ATOM      3  C   UNL     1      -5.038 -11.837 -34.229  1.00  0.00     0.027 C 
BRANCH   3   4
ATOM      4  C   UNL     1      -5.781 -11.090 -35.342  1.00  0.00     0.004 C 
BRANCH   4   5
ATOM      5  C   UNL     1      -5.572 -11.779 -36.695  1.00  0.00     0.000 C 
BRANCH   5   6
ATOM      6  C   UNL     1      -5.615 -10.770 -37.851  1.00  0.00     0.000 C 
BRANCH   6   7
ATOM      7  C   UNL     1      -4.202 -10.427 -38.373  1.00  0.00     0.000 C 
BRANCH   7   8
ATOM      8  C   UNL     1      -3.759  -8.992 -38.031  1.00  0.00     0.006 C 
BRANCH   8   9
ATOM      9  C   UNL     1      -2.359  -8.909 -37.400  1.00  0.00     0.053 C 
BRANCH   9  10
ATOM     10  C   UNL     1      -2.381  -8.210 -36.075  1.00  0.00     0.041 C 
ATOM     11  O   UNL     1      -1.804  -7.101 -35.934  1.00  0.00    -0.550 OA
ATOM     12  O   UNL     1      -3.060  -8.772 -35.001  1.00  0.00    -0.550 OA
ENDBRANCH   9  10
ENDBRANCH   8   9
ENDBRANCH   7   8
ENDBRANCH   6   7
ENDBRANCH   5   6
ENDBRANCH   4   5
ENDBRANCH   3   4
ENDBRANCH   1   3
BRANCH   2  13
ATOM     13  C   UNL     1      -5.130 -12.761 -31.308  1.00  0.00     0.027 C 
BRANCH  13  14
ATOM     14  C   UNL     1      -5.920 -12.811 -29.992  1.00  0.00     0.004 C 
BRANCH  14  15
ATOM     15  C   UNL     1      -5.112 -12.260 -28.802  1.00  0.00     0.000 C 
BRANCH  15  16
ATOM     16  C   UNL     1      -5.167 -10.725 -28.726  1.00  0.00     0.000 C 
BRANCH  16  17
ATOM     17  C   UNL     1      -4.393 -10.173 -27.518  1.00  0.00    -0.000 C 
BRANCH  17  18
ATOM     18  C   UNL     1      -3.531  -8.949 -27.871  1.00  0.00    -0.000 C 
BRANCH  18  19
ATOM     19  C   UNL     1      -3.577  -8.575 -29.369  1.00  0.00    -0.003 C 
ATOM     20  C   UNL     1      -2.386  -7.713 -29.791  1.00  0.00     0.004 C 
ENDBRANCH  18  19
ENDBRANCH  17  18
ENDBRANCH  16  17
ENDBRANCH  15  16
ENDBRANCH  14  15
ENDBRANCH  13  14
ENDBRANCH   2  13
TORSDOF 15
ENDMDL
MODEL 6
REMARK VINA RESULT:    -7.093      1.954      7.225
REMARK INTER + INTRA:         -14.328
REMARK INTER:                 -13.280
REMARK INTRA:                  -1.049
REMARK UNBOUND:                -1.015
REMARK SMILES CCCCCCCCC=CCCCCCCCC(=O)[O-]
REMARK SMILES IDX 10 1 9 2 11 3 12 4 13 5 14 6 15 7 16 8 17 9 18 10 19 11
REMARK SMILES IDX 20 12 8 13 7 14 6 15 5 16 4 17 3 18 2 19 1 20
REMARK H PARENT
REMARK Flexibility Score: inf
ROOT
ATOM      1  C   UNL     1      -5.397 -12.616 -33.544  1.00  0.00    -0.031 C 
ATOM      2  C   UNL     1      -5.511 -12.030 -34.751  1.00  0.00    -0.031 C 
ENDROOT
BRANCH   1   3
ATOM      3  C   UNL     1      -6.230 -13.782 -33.073  1.00  0.00     0.027 C 
BRANCH   3   4
ATOM      4  C   UNL     1      -5.762 -14.272 -31.698  1.00  0.00     0.004 C 
BRANCH   4   5
ATOM      5  C   UNL     1      -4.982 -13.174 -30.965  1.00  0.00     0.000 C 
BRANCH   5   6
ATOM      6  C   UNL     1      -5.867 -12.444 -29.946  1.00  0.00     0.000 C 
BRANCH   6   7
ATOM      7  C   UNL     1      -5.144 -12.234 -28.597  1.00  0.00     0.000 C 
BRANCH   7   8
ATOM      8  C   UNL     1      -4.969 -10.749 -28.225  1.00  0.00     0.006 C 
BRANCH   8   9
ATOM      9  C   UNL     1      -4.315  -9.906 -29.332  1.00  0.00     0.053 C 
BRANCH   9  10
ATOM     10  C   UNL     1      -3.385  -8.872 -28.773  1.00  0.00     0.041 C 
ATOM     11  O   UNL     1      -2.766  -8.093 -29.544  1.00  0.00    -0.550 OA
ATOM     12  O   UNL     1      -3.220  -8.752 -27.399  1.00  0.00    -0.550 OA
ENDBRANCH   9  10
ENDBRANCH   8   9
ENDBRANCH   7   8
ENDBRANCH   6   7
ENDBRANCH   5   6
ENDBRANCH   4   5
ENDBRANCH   3   4
ENDBRANCH   1   3
BRANCH   2  13
ATOM     13  C   UNL     1      -6.528 -12.410 -35.798  1.00  0.00     0.027 C 
BRANCH  13  14
ATOM     14  C   UNL     1      -6.466 -11.492 -37.027  1.00  0.00     0.004 C 
BRANCH  14  15
ATOM     15  C   UNL     1      -5.063 -11.449 -37.658  1.00  0.00     0.000 C 
BRANCH  15  16
ATOM     16  C   UNL     1      -4.803 -10.130 -38.406  1.00  0.00     0.000 C 
BRANCH  16  17
ATOM     17  C   UNL     1      -3.333  -9.691 -38.320  1.00  0.00    -0.000 C 
BRANCH  17  18
ATOM     18  C   UNL     1      -3.152  -8.353 -37.586  1.00  0.00    -0.000 C 
BRANCH  18  19
ATOM     19  C   UNL     1      -2.189  -8.436 -36.381  1.00  0.00    -0.003 C 
ATOM     20  C   UNL     1      -2.906  -8.825 -35.087  1.00  0.00     0.004 C 
ENDBRANCH  18  19
ENDBRANCH  17  18
ENDBRANCH  16  17
ENDBRANCH  15  16
ENDBRANCH  14  15
ENDBRANCH  13  14
ENDBRANCH   2  13
TORSDOF 15
ENDMDL
MODEL 7
REMARK VINA RESULT:    -7.076      2.525      8.185
REMARK INTER + INTRA:         -14.295
REMARK INTER:                 -13.052
REMARK INTRA:                  -1.244
REMARK UNBOUND:                -1.015
REMARK SMILES CCCCCCCCC=CCCCCCCCC(=O)[O-]
REMARK SMILES IDX 10 1 9 2 11 3 12 4 13 5 14 6 15 7 16 8 17 9 18 10 19 11
REMARK SMILES IDX 20 12 8 13 7 14 6 15 5 16 4 17 3 18 2 19 1 20
REMARK H PARENT
REMARK Flexibility Score: inf
ROOT
ATOM      1  C   UNL     1      -3.238  -7.974 -33.806  1.00  0.00    -0.031 C 
ATOM      2  C   UNL     1      -3.111  -8.531 -35.025  1.00  0.00    -0.031 C 
ENDROOT
BRANCH   1   3
ATOM      3  C   UNL     1      -2.484  -6.755 -33.337  1.00  0.00     0.027 C 
BRANCH   3   4
ATOM      4  C   UNL     1      -2.975  -6.301 -31.958  1.00  0.00     0.004 C 
BRANCH   4   5
ATOM      5  C   UNL     1      -3.595  -7.473 -31.188  1.00  0.00     0.000 C 
BRANCH   5   6
ATOM      6  C   UNL     1      -2.734  -7.869 -29.981  1.00  0.00     0.000 C 
BRANCH   6   7
ATOM      7  C   UNL     1      -3.575  -8.012 -28.692  1.00  0.00     0.000 C 
BRANCH   7   8
ATOM      8  C   UNL     1      -3.282  -9.310 -27.916  1.00  0.00     0.006 C 
BRANCH   8   9
ATOM      9  C   UNL     1      -4.545 -10.084 -27.503  1.00  0.00     0.053 C 
BRANCH   9  10
ATOM     10  C   UNL     1      -4.861 -11.194 -28.460  1.00  0.00     0.041 C 
ATOM     11  O   UNL     1      -5.266 -12.305 -28.029  1.00  0.00    -0.550 OA
ATOM     12  O   UNL     1      -4.731 -10.993 -29.828  1.00  0.00    -0.550 OA
ENDBRANCH   9  10
ENDBRANCH   8   9
ENDBRANCH   7   8
ENDBRANCH   6   7
ENDBRANCH   5   6
ENDBRANCH   4   5
ENDBRANCH   3   4
ENDBRANCH   1   3
BRANCH   2  13
ATOM     13  C   UNL     1      -2.154  -8.059 -36.091  1.00  0.00     0.027 C 
BRANCH  13  14
ATOM     14  C   UNL     1      -2.292  -8.862 -37.393  1.00  0.00     0.004 C 
BRANCH  14  15
ATOM     15  C   UNL     1      -3.689  -8.719 -38.025  1.00  0.00     0.000 C 
BRANCH  15  16
ATOM     16  C   UNL     1      -4.128 -10.001 -38.754  1.00  0.00     0.000 C 
BRANCH  16  17
ATOM     17  C   UNL     1      -4.673 -11.064 -37.786  1.00  0.00    -0.000 C 
BRANCH  17  18
ATOM     18  C   UNL     1      -6.201 -11.003 -37.633  1.00  0.00    -0.000 C 
BRANCH  18  19
ATOM     19  C   UNL     1      -6.693 -11.363 -36.214  1.00  0.00    -0.003 C 
ATOM     20  C   UNL     1      -5.564 -11.341 -35.182  1.00  0.00     0.004 C 
ENDBRANCH  18  19
ENDBRANCH  17  18
ENDBRANCH  16  17
ENDBRANCH  15  16
ENDBRANCH  14  15
ENDBRANCH  13  14
ENDBRANCH   2  13
TORSDOF 15
ENDMDL
MODEL 8
REMARK VINA RESULT:    -7.070      2.461      8.444
REMARK INTER + INTRA:         -14.285
REMARK INTER:                 -13.324
REMARK INTRA:                  -0.961
REMARK UNBOUND:                -1.015
REMARK SMILES CCCCCCCCC=CCCCCCCCC(=O)[O-]
REMARK SMILES IDX 10 1 9 2 11 3 12 4 13 5 14 6 15 7 16 8 17 9 18 10 19 11
REMARK SMILES IDX 20 12 8 13 7 14 6 15 5 16 4 17 3 18 2 19 1 20
REMARK H PARENT
REMARK Flexibility Score: inf
ROOT
ATOM      1  C   UNL     1      -2.875  -6.779 -31.348  1.00  0.00    -0.031 C 
ATOM      2  C   UNL     1      -2.782  -6.646 -32.685  1.00  0.00    -0.031 C 
ENDROOT
BRANCH   1   3
ATOM      3  C   UNL     1      -3.398  -8.005 -30.642  1.00  0.00     0.027 C 
BRANCH   3   4
ATOM      4  C   UNL     1      -2.775  -8.145 -29.249  1.00  0.00     0.004 C 
BRANCH   4   5
ATOM      5  C   UNL     1      -3.544  -9.170 -28.408  1.00  0.00     0.000 C 
BRANCH   5   6
ATOM      6  C   UNL     1      -4.320 -10.153 -29.295  1.00  0.00     0.000 C 
BRANCH   6   7
ATOM      7  C   UNL     1      -5.056 -11.227 -28.463  1.00  0.00     0.000 C 
BRANCH   7   8
ATOM      8  C   UNL     1      -5.458 -12.465 -29.286  1.00  0.00     0.006 C 
BRANCH   8   9
ATOM      9  C   UNL     1      -5.125 -12.349 -30.783  1.00  0.00     0.053 C 
BRANCH   9  10
ATOM     10  C   UNL     1      -5.286 -13.658 -31.496  1.00  0.00     0.041 C 
ATOM     11  O   UNL     1      -4.471 -14.595 -31.292  1.00  0.00    -0.550 OA
ATOM     12  O   UNL     1      -6.351 -13.851 -32.367  1.00  0.00    -0.550 OA
ENDBRANCH   9  10
ENDBRANCH   8   9
ENDBRANCH   7   8
ENDBRANCH   6   7
ENDBRANCH   5   6
ENDBRANCH   4   5
ENDBRANCH   3   4
ENDBRANCH   1   3
BRANCH   2  13
ATOM     13  C   UNL     1      -3.242  -7.677 -33.685  1.00  0.00     0.027 C 
BRANCH  13  14
ATOM     14  C   UNL     1      -2.468  -7.588 -35.009  1.00  0.00     0.004 C 
BRANCH  14  15
ATOM     15  C   UNL     1      -2.573  -8.881 -35.839  1.00  0.00     0.000 C 
BRANCH  15  16
ATOM     16  C   UNL     1      -2.521  -8.604 -37.351  1.00  0.00     0.000 C 
BRANCH  16  17
ATOM     17  C   UNL     1      -3.840  -8.960 -38.054  1.00  0.00    -0.000 C 
BRANCH  17  18
ATOM     18  C   UNL     1      -3.957 -10.458 -38.379  1.00  0.00    -0.000 C 
BRANCH  18  19
ATOM     19  C   UNL     1      -5.304 -11.079 -37.947  1.00  0.00    -0.003 C 
ATOM     20  C   UNL     1      -5.469 -11.115 -36.427  1.00  0.00     0.004 C 
ENDBRANCH  18  19
ENDBRANCH  17  18
ENDBRANCH  16  17
ENDBRANCH  15  16
ENDBRANCH  14  15
ENDBRANCH  13  14
ENDBRANCH   2  13
TORSDOF 15
ENDMDL
MODEL 9
REMARK VINA RESULT:    -7.069      1.394      2.943
REMARK INTER + INTRA:         -14.283
REMARK INTER:                 -12.938
REMARK INTRA:                  -1.345
REMARK UNBOUND:                -1.015
REMARK SMILES CCCCCCCCC=CCCCCCCCC(=O)[O-]
REMARK SMILES IDX 10 1 9 2 11 3 12 4 13 5 14 6 15 7 16 8 17 9 18 10 19 11
REMARK SMILES IDX 20 12 8 13 7 14 6 15 5 16 4 17 3 18 2 19 1 20
REMARK H PARENT
REMARK Flexibility Score: inf
ROOT
ATOM      1  C   UNL     1      -6.170 -11.164 -37.446  1.00  0.00    -0.031 C 
ATOM      2  C   UNL     1      -6.596 -11.228 -36.171  1.00  0.00    -0.031 C 
ENDROOT
BRANCH   1   3
ATOM      3  C   UNL     1      -4.722 -11.128 -37.868  1.00  0.00     0.027 C 
BRANCH   3   4
ATOM      4  C   UNL     1      -4.386  -9.808 -38.570  1.00  0.00     0.004 C 
BRANCH   4   5
ATOM      5  C   UNL     1      -3.040  -9.260 -38.083  1.00  0.00     0.000 C 
BRANCH   5   6
ATOM      6  C   UNL     1      -3.217  -8.334 -36.872  1.00  0.00     0.000 C 
BRANCH   6   7
ATOM      7  C   UNL     1      -2.743  -8.999 -35.560  1.00  0.00     0.000 C 
BRANCH   7   8
ATOM      8  C   UNL     1      -3.302  -8.319 -34.296  1.00  0.00     0.006 C 
BRANCH   8   9
ATOM      9  C   UNL     1      -2.541  -7.047 -33.889  1.00  0.00     0.053 C 
BRANCH   9  10
ATOM     10  C   UNL     1      -2.798  -6.673 -32.461  1.00  0.00     0.041 C 
ATOM     11  O   UNL     1      -3.409  -7.466 -31.698  1.00  0.00    -0.550 OA
ATOM     12  O   UNL     1      -2.342  -5.458 -31.965  1.00  0.00    -0.550 OA
ENDBRANCH   9  10
ENDBRANCH   8   9
ENDBRANCH   7   8
ENDBRANCH   6   7
ENDBRANCH   5   6
ENDBRANCH   4   5
ENDBRANCH   3   4
ENDBRANCH   1   3
BRANCH   2  13
ATOM     13  C   UNL     1      -5.694 -11.216 -34.962  1.00  0.00     0.027 C 
BRANCH  13  14
ATOM     14  C   UNL     1      -5.515 -12.616 -34.356  1.00  0.00     0.004 C 
BRANCH  14  15
ATOM     15  C   UNL     1      -5.021 -12.567 -32.899  1.00  0.00     0.000 C 
BRANCH  15  16
ATOM     16  C   UNL     1      -5.646 -13.677 -32.038  1.00  0.00     0.000 C 
BRANCH  16  17
ATOM     17  C   UNL     1      -6.041 -13.177 -30.639  1.00  0.00    -0.000 C 
BRANCH  17  18
ATOM     18  C   UNL     1      -5.085 -12.101 -30.099  1.00  0.00    -0.000 C 
BRANCH  18  19
ATOM     19  C   UNL     1      -5.128 -11.953 -28.562  1.00  0.00    -0.003 C 
ATOM     20  C   UNL     1      -4.798 -10.532 -28.103  1.00  0.00     0.004 C 
ENDBRANCH  18  19
ENDBRANCH  17  18
ENDBRANCH  16  17
ENDBRANCH  15  16
ENDBRANCH  14  15
ENDBRANCH  13  14
ENDBRANCH   2  13
TORSDOF 15
ENDMDL
