MODEL 1
REMARK VINA RESULT:    -6.782      0.000      0.000
REMARK INTER + INTRA:          -9.023
REMARK INTER:                  -8.566
REMARK INTRA:                  -0.457
REMARK UNBOUND:                -0.457
REMARK SMILES O=C(C=Cc1ccc(O)cc1)c1ccc(O)cc1O
REMARK SMILES IDX 4 1 3 2 5 3 6 4 7 5 8 6 11 7 10 8 9 9 2 11 1 12 12 13 18 14
REMARK SMILES IDX 13 15 17 16 14 17 15 18 19 19 16 21
REMARK H PARENT 9 10 19 20 16 22
REMARK Flexibility Score: inf
ROOT
ATOM      1  C   UNL     1       9.817  -1.159  18.734  1.00  0.00     0.012 C 
ATOM      2  C   UNL     1      10.202  -1.802  19.846  1.00  0.00     0.053 C 
ENDROOT
BRANCH   1   3
ATOM      3  C   UNL     1       9.304   0.233  18.723  1.00  0.00    -0.025 A 
ATOM      4  C   UNL     1      10.130   1.260  19.210  1.00  0.00     0.012 A 
ATOM      5  C   UNL     1       9.685   2.585  19.227  1.00  0.00     0.047 A 
ATOM      6  C   UNL     1       8.404   2.902  18.767  1.00  0.00     0.115 A 
ATOM      7  C   UNL     1       8.006   0.559  18.277  1.00  0.00     0.012 A 
ATOM      8  C   UNL     1       7.565   1.886  18.297  1.00  0.00     0.047 A 
BRANCH   6   9
ATOM      9  O   UNL     1       7.975   4.227  18.788  1.00  0.00    -0.508 OA
ATOM     10  H   UNL     1       8.565   4.969  19.146  1.00  0.00     0.293 HD
ENDBRANCH   6   9
ENDBRANCH   1   3
BRANCH   2  11
ATOM     11  C   UNL     1      10.702  -3.194  19.817  1.00  0.00     0.189 C 
ATOM     12  O   UNL     1      11.942  -3.420  19.769  1.00  0.00    -0.289 OA
BRANCH  11  13
ATOM     13  C   UNL     1       9.754  -4.330  19.818  1.00  0.00     0.064 A 
ATOM     14  C   UNL     1      10.196  -5.674  19.781  1.00  0.00     0.130 A 
ATOM     15  C   UNL     1       8.372  -4.066  19.817  1.00  0.00     0.020 A 
ATOM     16  C   UNL     1       9.258  -6.712  19.708  1.00  0.00     0.093 A 
ATOM     17  C   UNL     1       7.448  -5.111  19.759  1.00  0.00     0.047 A 
ATOM     18  C   UNL     1       7.889  -6.437  19.700  1.00  0.00     0.119 A 
BRANCH  14  19
ATOM     19  O   UNL     1      11.548  -6.018  19.843  1.00  0.00    -0.507 OA
ATOM     20  H   UNL     1      12.289  -5.338  19.957  1.00  0.00     0.293 HD
ENDBRANCH  14  19
BRANCH  18  21
ATOM     21  O   UNL     1       6.976  -7.487  19.636  1.00  0.00    -0.508 OA
ATOM     22  H   UNL     1       6.553  -7.873  20.472  1.00  0.00     0.293 HD
ENDBRANCH  18  21
ENDBRANCH  11  13
ENDBRANCH   2  11
TORSDOF 6
ENDMDL
MODEL 2
REMARK VINA RESULT:    -4.048      5.264      7.590
REMARK INTER + INTRA:          -5.570
REMARK INTER:                  -5.032
REMARK INTRA:                  -0.538
REMARK UNBOUND:                -0.457
REMARK SMILES O=C(C=Cc1ccc(O)cc1)c1ccc(O)cc1O
REMARK SMILES IDX 4 1 3 2 5 3 6 4 7 5 8 6 11 7 10 8 9 9 2 11 1 12 12 13 18 14
REMARK SMILES IDX 13 15 17 16 14 17 15 18 19 19 16 21
REMARK H PARENT 9 10 19 20 16 22
REMARK Flexibility Score: inf
ROOT
ATOM      1  C   UNL     1      15.590  -1.758  20.028  1.00  0.00     0.012 C 
ATOM      2  C   UNL     1      14.518  -1.869  19.229  1.00  0.00     0.053 C 
ENDROOT
BRANCH   1   3
ATOM      3  C   UNL     1      16.948  -2.224  19.653  1.00  0.00    -0.025 A 
ATOM      4  C   UNL     1      17.385  -3.474  20.125  1.00  0.00     0.012 A 
ATOM      5  C   UNL     1      18.660  -3.949  19.804  1.00  0.00     0.047 A 
ATOM      6  C   UNL     1      19.520  -3.179  19.018  1.00  0.00     0.115 A 
ATOM      7  C   UNL     1      17.828  -1.445  18.874  1.00  0.00     0.012 A 
ATOM      8  C   UNL     1      19.103  -1.925  18.557  1.00  0.00     0.047 A 
BRANCH   6   9
ATOM      9  O   UNL     1      20.787  -3.667  18.705  1.00  0.00    -0.508 OA
ATOM     10  H   UNL     1      21.365  -4.124  19.401  1.00  0.00     0.293 HD
ENDBRANCH   6   9
ENDBRANCH   1   3
BRANCH   2  11
ATOM     11  C   UNL     1      13.177  -1.399  19.641  1.00  0.00     0.189 C 
ATOM     12  O   UNL     1      13.015  -0.210  20.030  1.00  0.00    -0.289 OA
BRANCH  11  13
ATOM     13  C   UNL     1      12.023  -2.324  19.627  1.00  0.00     0.064 A 
ATOM     14  C   UNL     1      10.706  -1.884  19.906  1.00  0.00     0.130 A 
ATOM     15  C   UNL     1      12.245  -3.689  19.367  1.00  0.00     0.020 A 
ATOM     16  C   UNL     1       9.659  -2.813  19.953  1.00  0.00     0.093 A 
ATOM     17  C   UNL     1      11.189  -4.602  19.402  1.00  0.00     0.047 A 
ATOM     18  C   UNL     1       9.893  -4.166  19.700  1.00  0.00     0.119 A 
BRANCH  14  19
ATOM     19  O   UNL     1      10.397  -0.538  20.113  1.00  0.00    -0.507 OA
ATOM     20  H   UNL     1       9.772  -0.218  20.841  1.00  0.00     0.293 HD
ENDBRANCH  14  19
BRANCH  18  21
ATOM     21  O   UNL     1       8.833  -5.068  19.744  1.00  0.00    -0.508 OA
ATOM     22  H   UNL     1       8.138  -5.034  20.480  1.00  0.00     0.293 HD
ENDBRANCH  18  21
ENDBRANCH  11  13
ENDBRANCH   2  11
TORSDOF 6
ENDMDL
MODEL 3
REMARK VINA RESULT:    -3.826      2.741      4.437
REMARK INTER + INTRA:          -5.290
REMARK INTER:                  -4.852
REMARK INTRA:                  -0.438
REMARK UNBOUND:                -0.457
REMARK SMILES O=C(C=Cc1ccc(O)cc1)c1ccc(O)cc1O
REMARK SMILES IDX 4 1 3 2 5 3 6 4 7 5 8 6 11 7 10 8 9 9 2 11 1 12 12 13 18 14
REMARK SMILES IDX 13 15 17 16 14 17 15 18 19 19 16 21
REMARK H PARENT 9 10 19 20 16 22
REMARK Flexibility Score: inf
ROOT
ATOM      1  C   UNL     1       8.944   0.238  19.011  1.00  0.00     0.012 C 
ATOM      2  C   UNL     1       9.301  -0.660  19.940  1.00  0.00     0.053 C 
ENDROOT
BRANCH   1   3
ATOM      3  C   UNL     1       8.146   1.454  19.305  1.00  0.00    -0.025 A 
ATOM      4  C   UNL     1       8.730   2.713  19.084  1.00  0.00     0.012 A 
ATOM      5  C   UNL     1       8.019   3.886  19.355  1.00  0.00     0.047 A 
ATOM      6  C   UNL     1       6.718   3.818  19.861  1.00  0.00     0.115 A 
ATOM      7  C   UNL     1       6.839   1.394  19.832  1.00  0.00     0.012 A 
ATOM      8  C   UNL     1       6.132   2.570  20.103  1.00  0.00     0.047 A 
BRANCH   6   9
ATOM      9  O   UNL     1       6.021   4.995  20.125  1.00  0.00    -0.508 OA
ATOM     10  H   UNL     1       5.961   5.739  19.440  1.00  0.00     0.293 HD
ENDBRANCH   6   9
ENDBRANCH   1   3
BRANCH   2  11
ATOM     11  C   UNL     1      10.091  -1.866  19.606  1.00  0.00     0.189 C 
ATOM     12  O   UNL     1       9.515  -2.974  19.435  1.00  0.00    -0.289 OA
BRANCH  11  13
ATOM     13  C   UNL     1      11.565  -1.787  19.496  1.00  0.00     0.064 A 
ATOM     14  C   UNL     1      12.361  -2.934  19.263  1.00  0.00     0.130 A 
ATOM     15  C   UNL     1      12.197  -0.542  19.668  1.00  0.00     0.020 A 
ATOM     16  C   UNL     1      13.757  -2.819  19.241  1.00  0.00     0.093 A 
ATOM     17  C   UNL     1      13.589  -0.439  19.629  1.00  0.00     0.047 A 
ATOM     18  C   UNL     1      14.373  -1.578  19.420  1.00  0.00     0.119 A 
BRANCH  14  19
ATOM     19  O   UNL     1      11.805  -4.193  19.022  1.00  0.00    -0.507 OA
ATOM     20  H   UNL     1      11.370  -4.754  19.743  1.00  0.00     0.293 HD
ENDBRANCH  14  19
BRANCH  18  21
ATOM     21  O   UNL     1      15.763  -1.488  19.385  1.00  0.00    -0.508 OA
ATOM     22  H   UNL     1      16.256  -0.732  19.845  1.00  0.00     0.293 HD
ENDBRANCH  18  21
ENDBRANCH  11  13
ENDBRANCH   2  11
TORSDOF 6
ENDMDL
