MODEL 1
REMARK VINA RESULT:    -5.164      0.000      0.000
REMARK INTER + INTRA:          -5.556
REMARK INTER:                  -5.466
REMARK INTRA:                  -0.091
REMARK UNBOUND:                -0.091
REMARK SMILES C=C(C)[C@@H]1CC=C(C)C(=O)C1
REMARK SMILES IDX 8 1 7 2 6 3 5 4 4 5 11 6 9 7 10 8 2 9 1 10 3 11
REMARK H PARENT
REMARK Flexibility Score: inf
ROOT
ATOM      1  C   UNL     1      51.479  25.245  21.152  1.00  0.00     0.048 C 
ATOM      2  C   UNL     1      50.387  24.235  20.933  1.00  0.00    -0.012 C 
ATOM      3  C   UNL     1      49.383  24.133  21.821  1.00  0.00    -0.019 C 
ATOM      4  C   UNL     1      48.255  23.152  21.641  1.00  0.00     0.036 C 
ATOM      5  C   UNL     1      48.740  21.874  20.931  1.00  0.00     0.025 C 
ATOM      6  C   UNL     1      49.422  22.228  19.598  1.00  0.00     0.089 C 
ATOM      7  C   UNL     1      50.486  23.271  19.809  1.00  0.00     0.158 C 
ATOM      8  O   UNL     1      51.446  23.342  18.996  1.00  0.00    -0.295 OA
ENDROOT
BRANCH   5   9
ATOM      9  C   UNL     1      47.602  20.883  20.728  1.00  0.00    -0.077 C 
ATOM     10  C   UNL     1      47.854  19.564  20.703  1.00  0.00     0.008 C 
ATOM     11  C   UNL     1      46.177  21.347  20.549  1.00  0.00     0.039 C 
ENDBRANCH   5   9
TORSDOF 1
ENDMDL
MODEL 2
REMARK VINA RESULT:    -5.041      3.429      5.196
REMARK INTER + INTRA:          -5.426
REMARK INTER:                  -5.333
REMARK INTRA:                  -0.094
REMARK UNBOUND:                -0.091
REMARK SMILES C=C(C)[C@@H]1CC=C(C)C(=O)C1
REMARK SMILES IDX 8 1 7 2 6 3 5 4 4 5 11 6 9 7 10 8 2 9 1 10 3 11
REMARK H PARENT
REMARK Flexibility Score: inf
ROOT
ATOM      1  C   UNL     1      42.831  24.339  21.142  1.00  0.00     0.048 C 
ATOM      2  C   UNL     1      44.096  23.527  21.159  1.00  0.00    -0.012 C 
ATOM      3  C   UNL     1      45.286  24.147  21.249  1.00  0.00    -0.019 C 
ATOM      4  C   UNL     1      46.582  23.382  21.288  1.00  0.00     0.036 C 
ATOM      5  C   UNL     1      46.489  22.088  20.459  1.00  0.00     0.025 C 
ATOM      6  C   UNL     1      45.296  21.237  20.928  1.00  0.00     0.089 C 
ATOM      7  C   UNL     1      44.036  22.059  20.953  1.00  0.00     0.158 C 
ATOM      8  O   UNL     1      42.923  21.481  20.833  1.00  0.00    -0.295 OA
ENDROOT
BRANCH   5   9
ATOM      9  C   UNL     1      47.789  21.298  20.508  1.00  0.00    -0.077 C 
ATOM     10  C   UNL     1      48.950  21.891  20.190  1.00  0.00     0.008 C 
ATOM     11  C   UNL     1      47.810  19.844  20.910  1.00  0.00     0.039 C 
ENDBRANCH   5   9
TORSDOF 1
ENDMDL
MODEL 3
REMARK VINA RESULT:    -4.987      2.293      4.785
REMARK INTER + INTRA:          -5.369
REMARK INTER:                  -5.274
REMARK INTRA:                  -0.095
REMARK UNBOUND:                -0.091
REMARK SMILES C=C(C)[C@@H]1CC=C(C)C(=O)C1
REMARK SMILES IDX 8 1 7 2 6 3 5 4 4 5 11 6 9 7 10 8 2 9 1 10 3 11
REMARK H PARENT
REMARK Flexibility Score: inf
ROOT
ATOM      1  C   UNL     1      44.739  21.495  20.905  1.00  0.00     0.048 C 
ATOM      2  C   UNL     1      46.098  22.120  20.754  1.00  0.00    -0.012 C 
ATOM      3  C   UNL     1      47.094  21.422  20.181  1.00  0.00    -0.019 C 
ATOM      4  C   UNL     1      48.469  22.005  19.988  1.00  0.00     0.036 C 
ATOM      5  C   UNL     1      48.818  22.988  21.120  1.00  0.00     0.025 C 
ATOM      6  C   UNL     1      47.735  24.076  21.238  1.00  0.00     0.089 C 
ATOM      7  C   UNL     1      46.370  23.453  21.347  1.00  0.00     0.158 C 
ATOM      8  O   UNL     1      45.446  24.093  21.915  1.00  0.00    -0.295 OA
ENDROOT
BRANCH   5   9
ATOM      9  C   UNL     1      50.199  23.598  20.924  1.00  0.00    -0.077 C 
ATOM     10  C   UNL     1      50.702  24.438  21.843  1.00  0.00     0.008 C 
ATOM     11  C   UNL     1      51.033  23.281  19.706  1.00  0.00     0.039 C 
ENDBRANCH   5   9
TORSDOF 1
ENDMDL
MODEL 4
REMARK VINA RESULT:    -4.946      2.055      4.505
REMARK INTER + INTRA:          -5.326
REMARK INTER:                  -5.228
REMARK INTRA:                  -0.098
REMARK UNBOUND:                -0.091
REMARK SMILES C=C(C)[C@@H]1CC=C(C)C(=O)C1
REMARK SMILES IDX 8 1 7 2 6 3 5 4 4 5 11 6 9 7 10 8 2 9 1 10 3 11
REMARK H PARENT
REMARK Flexibility Score: inf
ROOT
ATOM      1  C   UNL     1      44.696  21.486  21.001  1.00  0.00     0.048 C 
ATOM      2  C   UNL     1      46.120  21.963  21.076  1.00  0.00    -0.012 C 
ATOM      3  C   UNL     1      46.379  23.273  21.233  1.00  0.00    -0.019 C 
ATOM      4  C   UNL     1      47.785  23.802  21.332  1.00  0.00     0.036 C 
ATOM      5  C   UNL     1      48.755  22.959  20.485  1.00  0.00     0.025 C 
ATOM      6  C   UNL     1      48.663  21.475  20.883  1.00  0.00     0.089 C 
ATOM      7  C   UNL     1      47.233  21.007  20.850  1.00  0.00     0.158 C 
ATOM      8  O   UNL     1      46.990  19.784  20.667  1.00  0.00    -0.295 OA
ENDROOT
BRANCH   5   9
ATOM      9  C   UNL     1      50.184  23.475  20.594  1.00  0.00    -0.077 C 
ATOM     10  C   UNL     1      50.576  24.147  21.688  1.00  0.00     0.008 C 
ATOM     11  C   UNL     1      51.187  23.249  19.489  1.00  0.00     0.039 C 
ENDBRANCH   5   9
TORSDOF 1
ENDMDL
MODEL 5
REMARK VINA RESULT:    -4.889      2.105      2.537
REMARK INTER + INTRA:          -5.265
REMARK INTER:                  -5.168
REMARK INTRA:                  -0.097
REMARK UNBOUND:                -0.091
REMARK SMILES C=C(C)[C@@H]1CC=C(C)C(=O)C1
REMARK SMILES IDX 8 1 7 2 6 3 5 4 4 5 11 6 9 7 10 8 2 9 1 10 3 11
REMARK H PARENT
REMARK Flexibility Score: inf
ROOT
ATOM      1  C   UNL     1      49.963  26.112  21.648  1.00  0.00     0.048 C 
ATOM      2  C   UNL     1      49.156  24.844  21.612  1.00  0.00    -0.012 C 
ATOM      3  C   UNL     1      49.777  23.661  21.463  1.00  0.00    -0.019 C 
ATOM      4  C   UNL     1      49.019  22.360  21.438  1.00  0.00     0.036 C 
ATOM      5  C   UNL     1      47.625  22.542  20.810  1.00  0.00     0.025 C 
ATOM      6  C   UNL     1      46.850  23.653  21.539  1.00  0.00     0.089 C 
ATOM      7  C   UNL     1      47.673  24.911  21.614  1.00  0.00     0.158 C 
ATOM      8  O   UNL     1      47.089  26.022  21.718  1.00  0.00    -0.295 OA
ENDROOT
BRANCH   5   9
ATOM      9  C   UNL     1      46.843  21.236  20.797  1.00  0.00    -0.077 C 
ATOM     10  C   UNL     1      47.494  20.061  20.801  1.00  0.00     0.008 C 
ATOM     11  C   UNL     1      45.334  21.223  20.780  1.00  0.00     0.039 C 
ENDBRANCH   5   9
TORSDOF 1
ENDMDL
MODEL 6
REMARK VINA RESULT:    -4.818      2.684      4.705
REMARK INTER + INTRA:          -5.191
REMARK INTER:                  -5.093
REMARK INTRA:                  -0.098
REMARK UNBOUND:                -0.091
REMARK SMILES C=C(C)[C@@H]1CC=C(C)C(=O)C1
REMARK SMILES IDX 8 1 7 2 6 3 5 4 4 5 11 6 9 7 10 8 2 9 1 10 3 11
REMARK H PARENT
REMARK Flexibility Score: inf
ROOT
ATOM      1  C   UNL     1      47.987  19.868  20.437  1.00  0.00     0.048 C 
ATOM      2  C   UNL     1      47.759  21.324  20.733  1.00  0.00    -0.012 C 
ATOM      3  C   UNL     1      48.796  22.106  21.082  1.00  0.00    -0.019 C 
ATOM      4  C   UNL     1      48.627  23.574  21.370  1.00  0.00     0.036 C 
ATOM      5  C   UNL     1      47.249  23.862  21.992  1.00  0.00     0.025 C 
ATOM      6  C   UNL     1      46.129  23.313  21.090  1.00  0.00     0.089 C 
ATOM      7  C   UNL     1      46.378  21.867  20.759  1.00  0.00     0.158 C 
ATOM      8  O   UNL     1      45.401  21.126  20.466  1.00  0.00    -0.295 OA
ENDROOT
BRANCH   5   9
ATOM      9  C   UNL     1      47.061  25.347  22.270  1.00  0.00    -0.077 C 
ATOM     10  C   UNL     1      47.716  26.258  21.534  1.00  0.00     0.008 C 
ATOM     11  C   UNL     1      46.144  25.831  23.367  1.00  0.00     0.039 C 
ENDBRANCH   5   9
TORSDOF 1
ENDMDL
MODEL 7
REMARK VINA RESULT:    -4.756      3.060      5.187
REMARK INTER + INTRA:          -5.125
REMARK INTER:                  -5.026
REMARK INTRA:                  -0.099
REMARK UNBOUND:                -0.091
REMARK SMILES C=C(C)[C@@H]1CC=C(C)C(=O)C1
REMARK SMILES IDX 8 1 7 2 6 3 5 4 4 5 11 6 9 7 10 8 2 9 1 10 3 11
REMARK H PARENT
REMARK Flexibility Score: inf
ROOT
ATOM      1  C   UNL     1      42.464  23.653  21.607  1.00  0.00     0.048 C 
ATOM      2  C   UNL     1      43.801  23.102  21.194  1.00  0.00    -0.012 C 
ATOM      3  C   UNL     1      43.918  21.800  20.880  1.00  0.00    -0.019 C 
ATOM      4  C   UNL     1      45.228  21.199  20.443  1.00  0.00     0.036 C 
ATOM      5  C   UNL     1      46.415  21.899  21.129  1.00  0.00     0.025 C 
ATOM      6  C   UNL     1      46.359  23.417  20.880  1.00  0.00     0.089 C 
ATOM      7  C   UNL     1      45.007  23.964  21.253  1.00  0.00     0.158 C 
ATOM      8  O   UNL     1      44.904  25.176  21.581  1.00  0.00    -0.295 OA
ENDROOT
BRANCH   5   9
ATOM      9  C   UNL     1      47.746  21.312  20.679  1.00  0.00    -0.077 C 
ATOM     10  C   UNL     1      48.739  22.122  20.278  1.00  0.00     0.008 C 
ATOM     11  C   UNL     1      47.984  19.822  20.668  1.00  0.00     0.039 C 
ENDBRANCH   5   9
TORSDOF 1
ENDMDL
MODEL 8
REMARK VINA RESULT:    -4.742      2.397      4.457
REMARK INTER + INTRA:          -5.110
REMARK INTER:                  -5.014
REMARK INTRA:                  -0.096
REMARK UNBOUND:                -0.091
REMARK SMILES C=C(C)[C@@H]1CC=C(C)C(=O)C1
REMARK SMILES IDX 8 1 7 2 6 3 5 4 4 5 11 6 9 7 10 8 2 9 1 10 3 11
REMARK H PARENT
REMARK Flexibility Score: inf
ROOT
ATOM      1  C   UNL     1      48.372  19.882  20.363  1.00  0.00     0.048 C 
ATOM      2  C   UNL     1      47.419  20.979  20.750  1.00  0.00    -0.012 C 
ATOM      3  C   UNL     1      46.093  20.772  20.672  1.00  0.00    -0.019 C 
ATOM      4  C   UNL     1      45.096  21.829  21.064  1.00  0.00     0.036 C 
ATOM      5  C   UNL     1      45.636  23.239  20.767  1.00  0.00     0.025 C 
ATOM      6  C   UNL     1      47.001  23.445  21.449  1.00  0.00     0.089 C 
ATOM      7  C   UNL     1      47.942  22.325  21.097  1.00  0.00     0.158 C 
ATOM      8  O   UNL     1      49.184  22.531  21.136  1.00  0.00    -0.295 OA
ENDROOT
BRANCH   5   9
ATOM      9  C   UNL     1      44.642  24.316  21.178  1.00  0.00    -0.077 C 
ATOM     10  C   UNL     1      43.323  24.083  21.095  1.00  0.00     0.008 C 
ATOM     11  C   UNL     1      45.104  25.661  21.683  1.00  0.00     0.039 C 
ENDBRANCH   5   9
TORSDOF 1
ENDMDL
MODEL 9
REMARK VINA RESULT:    -4.587      2.736      3.858
REMARK INTER + INTRA:          -4.946
REMARK INTER:                  -4.852
REMARK INTRA:                  -0.093
REMARK UNBOUND:                -0.091
REMARK SMILES C=C(C)[C@@H]1CC=C(C)C(=O)C1
REMARK SMILES IDX 8 1 7 2 6 3 5 4 4 5 11 6 9 7 10 8 2 9 1 10 3 11
REMARK H PARENT
REMARK Flexibility Score: inf
ROOT
ATOM      1  C   UNL     1      49.477  23.013  21.680  1.00  0.00     0.048 C 
ATOM      2  C   UNL     1      48.015  23.199  21.379  1.00  0.00    -0.012 C 
ATOM      3  C   UNL     1      47.354  24.247  21.900  1.00  0.00    -0.019 C 
ATOM      4  C   UNL     1      45.896  24.491  21.616  1.00  0.00     0.036 C 
ATOM      5  C   UNL     1      45.138  23.164  21.430  1.00  0.00     0.025 C 
ATOM      6  C   UNL     1      45.808  22.313  20.338  1.00  0.00     0.089 C 
ATOM      7  C   UNL     1      47.280  22.161  20.614  1.00  0.00     0.158 C 
ATOM      8  O   UNL     1      47.891  21.159  20.156  1.00  0.00    -0.295 OA
ENDROOT
BRANCH   5   9
ATOM      9  C   UNL     1      43.665  23.401  21.125  1.00  0.00    -0.077 C 
ATOM     10  C   UNL     1      42.795  22.379  21.168  1.00  0.00     0.008 C 
ATOM     11  C   UNL     1      43.147  24.772  20.768  1.00  0.00     0.039 C 
ENDBRANCH   5   9
TORSDOF 1
ENDMDL
