MODEL 1
REMARK VINA RESULT:    -4.343      0.000      0.000
REMARK INTER + INTRA:         -10.488
REMARK INTER:                  -7.897
REMARK INTRA:                  -2.590
REMARK UNBOUND:                -2.590
REMARK SMILES CCCCCC=CCC=CCCCCCCCC(=O)[O-]
REMARK SMILES IDX 11 1 12 2 13 3 14 4 15 5 16 6 17 7 18 8 19 9 20 10 10 11
REMARK SMILES IDX 9 12 8 13 7 14 6 15 5 16 4 17 3 18 2 19 1 20
REMARK H PARENT
REMARK Flexibility Score: inf
ROOT
ATOM      1  C   UNL     1      31.093   7.354  32.985  1.00  0.00     0.027 C 
ENDROOT
BRANCH   1   2
ATOM      2  C   UNL     1      32.079   8.424  33.486  1.00  0.00     0.004 C 
BRANCH   2   3
ATOM      3  C   UNL     1      31.838   9.831  32.908  1.00  0.00     0.000 C 
BRANCH   3   4
ATOM      4  C   UNL     1      30.404  10.334  33.147  1.00  0.00     0.000 C 
BRANCH   4   5
ATOM      5  C   UNL     1      29.771  10.929  31.878  1.00  0.00     0.000 C 
BRANCH   5   6
ATOM      6  C   UNL     1      30.816  11.248  30.793  1.00  0.00     0.006 C 
BRANCH   6   7
ATOM      7  C   UNL     1      30.257  12.179  29.708  1.00  0.00     0.053 C 
BRANCH   7   8
ATOM      8  C   UNL     1      28.761  12.144  29.657  1.00  0.00     0.041 C 
ATOM      9  O   UNL     1      28.085  13.030  30.245  1.00  0.00    -0.550 OA
ATOM     10  O   UNL     1      28.111  11.149  28.938  1.00  0.00    -0.550 OA
ENDBRANCH   7   8
ENDBRANCH   6   7
ENDBRANCH   5   6
ENDBRANCH   4   5
ENDBRANCH   3   4
ENDBRANCH   2   3
ENDBRANCH   1   2
BRANCH   1  11
ATOM     11  C   UNL     1      31.223   7.095  31.507  1.00  0.00    -0.031 C 
ATOM     12  C   UNL     1      30.205   7.316  30.662  1.00  0.00    -0.027 C 
BRANCH  12  13
ATOM     13  C   UNL     1      30.338   7.060  29.187  1.00  0.00     0.054 C 
BRANCH  13  14
ATOM     14  C   UNL     1      30.429   8.350  28.412  1.00  0.00    -0.027 C 
ATOM     15  C   UNL     1      31.581   8.980  28.111  1.00  0.00    -0.031 C 
BRANCH  15  16
ATOM     16  C   UNL     1      32.954   8.453  28.442  1.00  0.00     0.027 C 
BRANCH  16  17
ATOM     17  C   UNL     1      33.505   9.127  29.704  1.00  0.00     0.004 C 
BRANCH  17  18
ATOM     18  C   UNL     1      34.907   8.598  30.040  1.00  0.00     0.000 C 
BRANCH  18  19
ATOM     19  C   UNL     1      34.996   8.031  31.465  1.00  0.00    -0.003 C 
ATOM     20  C   UNL     1      36.091   6.975  31.615  1.00  0.00     0.004 C 
ENDBRANCH  18  19
ENDBRANCH  17  18
ENDBRANCH  16  17
ENDBRANCH  15  16
ENDBRANCH  13  14
ENDBRANCH  12  13
ENDBRANCH   1  11
TORSDOF 14
ENDMDL
MODEL 2
REMARK VINA RESULT:    -4.291      2.388      4.551
REMARK INTER + INTRA:         -10.394
REMARK INTER:                  -7.894
REMARK INTRA:                  -2.500
REMARK UNBOUND:                -2.590
REMARK SMILES CCCCCC=CCC=CCCCCCCCC(=O)[O-]
REMARK SMILES IDX 11 1 12 2 13 3 14 4 15 5 16 6 17 7 18 8 19 9 20 10 10 11
REMARK SMILES IDX 9 12 8 13 7 14 6 15 5 16 4 17 3 18 2 19 1 20
REMARK H PARENT
REMARK Flexibility Score: inf
ROOT
ATOM      1  C   UNL     1      29.568  10.280  27.435  1.00  0.00     0.027 C 
ENDROOT
BRANCH   1   2
ATOM      2  C   UNL     1      28.475  10.935  28.299  1.00  0.00     0.004 C 
BRANCH   2   3
ATOM      3  C   UNL     1      28.675  10.759  29.816  1.00  0.00     0.000 C 
BRANCH   3   4
ATOM      4  C   UNL     1      28.594  12.088  30.585  1.00  0.00     0.000 C 
BRANCH   4   5
ATOM      5  C   UNL     1      29.816  12.988  30.333  1.00  0.00     0.000 C 
BRANCH   5   6
ATOM      6  C   UNL     1      31.145  12.280  30.654  1.00  0.00     0.006 C 
BRANCH   6   7
ATOM      7  C   UNL     1      31.377  12.144  32.165  1.00  0.00     0.053 C 
BRANCH   7   8
ATOM      8  C   UNL     1      32.181  13.282  32.713  1.00  0.00     0.041 C 
ATOM      9  O   UNL     1      32.331  13.412  33.957  1.00  0.00    -0.550 OA
ATOM     10  O   UNL     1      32.788  14.185  31.849  1.00  0.00    -0.550 OA
ENDBRANCH   7   8
ENDBRANCH   6   7
ENDBRANCH   5   6
ENDBRANCH   4   5
ENDBRANCH   3   4
ENDBRANCH   2   3
ENDBRANCH   1   2
BRANCH   1  11
ATOM     11  C   UNL     1      30.658   9.651  28.260  1.00  0.00    -0.031 C 
ATOM     12  C   UNL     1      31.694   9.017  27.691  1.00  0.00    -0.027 C 
BRANCH  12  13
ATOM     13  C   UNL     1      32.784   8.393  28.518  1.00  0.00     0.054 C 
BRANCH  13  14
ATOM     14  C   UNL     1      33.360   9.380  29.501  1.00  0.00    -0.027 C 
ATOM     15  C   UNL     1      33.353   9.218  30.838  1.00  0.00    -0.031 C 
BRANCH  15  16
ATOM     16  C   UNL     1      32.830   7.995  31.547  1.00  0.00     0.027 C 
BRANCH  16  17
ATOM     17  C   UNL     1      31.301   8.038  31.650  1.00  0.00     0.004 C 
BRANCH  17  18
ATOM     18  C   UNL     1      30.697   6.645  31.422  1.00  0.00     0.000 C 
BRANCH  18  19
ATOM     19  C   UNL     1      29.925   6.547  30.097  1.00  0.00    -0.003 C 
ATOM     20  C   UNL     1      29.521   5.114  29.752  1.00  0.00     0.004 C 
ENDBRANCH  18  19
ENDBRANCH  17  18
ENDBRANCH  16  17
ENDBRANCH  15  16
ENDBRANCH  13  14
ENDBRANCH  12  13
ENDBRANCH   1  11
TORSDOF 14
ENDMDL
MODEL 3
REMARK VINA RESULT:    -4.263      1.507      3.767
REMARK INTER + INTRA:         -10.342
REMARK INTER:                  -7.822
REMARK INTRA:                  -2.520
REMARK UNBOUND:                -2.590
REMARK SMILES CCCCCC=CCC=CCCCCCCCC(=O)[O-]
REMARK SMILES IDX 11 1 12 2 13 3 14 4 15 5 16 6 17 7 18 8 19 9 20 10 10 11
REMARK SMILES IDX 9 12 8 13 7 14 6 15 5 16 4 17 3 18 2 19 1 20
REMARK H PARENT
REMARK Flexibility Score: inf
ROOT
ATOM      1  C   UNL     1      30.289   6.578  30.382  1.00  0.00     0.027 C 
ENDROOT
BRANCH   1   2
ATOM      2  C   UNL     1      30.071   7.896  29.617  1.00  0.00     0.004 C 
BRANCH   2   3
ATOM      3  C   UNL     1      31.022   8.102  28.424  1.00  0.00     0.000 C 
BRANCH   3   4
ATOM      4  C   UNL     1      31.010   9.547  27.896  1.00  0.00     0.000 C 
BRANCH   4   5
ATOM      5  C   UNL     1      29.600  10.018  27.504  1.00  0.00     0.000 C 
BRANCH   5   6
ATOM      6  C   UNL     1      29.221  11.356  28.165  1.00  0.00     0.006 C 
BRANCH   6   7
ATOM      7  C   UNL     1      28.096  11.194  29.197  1.00  0.00     0.053 C 
BRANCH   7   8
ATOM      8  C   UNL     1      28.301  12.074  30.391  1.00  0.00     0.041 C 
ATOM      9  O   UNL     1      27.346  12.308  31.178  1.00  0.00    -0.550 OA
ATOM     10  O   UNL     1      29.555  12.614  30.651  1.00  0.00    -0.550 OA
ENDBRANCH   7   8
ENDBRANCH   6   7
ENDBRANCH   5   6
ENDBRANCH   4   5
ENDBRANCH   3   4
ENDBRANCH   2   3
ENDBRANCH   1   2
BRANCH   1  11
ATOM     11  C   UNL     1      31.147   6.755  31.606  1.00  0.00    -0.031 C 
ATOM     12  C   UNL     1      31.237   7.935  32.237  1.00  0.00    -0.027 C 
BRANCH  12  13
ATOM     13  C   UNL     1      32.093   8.108  33.461  1.00  0.00     0.054 C 
BRANCH  13  14
ATOM     14  C   UNL     1      33.090   6.985  33.597  1.00  0.00    -0.027 C 
ATOM     15  C   UNL     1      34.350   7.022  33.123  1.00  0.00    -0.031 C 
BRANCH  15  16
ATOM     16  C   UNL     1      34.974   8.218  32.449  1.00  0.00     0.027 C 
BRANCH  16  17
ATOM     17  C   UNL     1      35.110   7.982  30.941  1.00  0.00     0.004 C 
BRANCH  17  18
ATOM     18  C   UNL     1      34.194   8.930  30.153  1.00  0.00     0.000 C 
BRANCH  18  19
ATOM     19  C   UNL     1      34.091  10.321  30.798  1.00  0.00    -0.003 C 
ATOM     20  C   UNL     1      32.653  10.833  30.872  1.00  0.00     0.004 C 
ENDBRANCH  18  19
ENDBRANCH  17  18
ENDBRANCH  16  17
ENDBRANCH  15  16
ENDBRANCH  13  14
ENDBRANCH  12  13
ENDBRANCH   1  11
TORSDOF 14
ENDMDL
MODEL 4
REMARK VINA RESULT:    -4.253      3.081      5.296
REMARK INTER + INTRA:         -10.325
REMARK INTER:                  -7.569
REMARK INTRA:                  -2.756
REMARK UNBOUND:                -2.590
REMARK SMILES CCCCCC=CCC=CCCCCCCCC(=O)[O-]
REMARK SMILES IDX 11 1 12 2 13 3 14 4 15 5 16 6 17 7 18 8 19 9 20 10 10 11
REMARK SMILES IDX 9 12 8 13 7 14 6 15 5 16 4 17 3 18 2 19 1 20
REMARK H PARENT
REMARK Flexibility Score: inf
ROOT
ATOM      1  C   UNL     1      29.871   6.747  30.354  1.00  0.00     0.027 C 
ENDROOT
BRANCH   1   2
ATOM      2  C   UNL     1      31.101   6.622  31.271  1.00  0.00     0.004 C 
BRANCH   2   3
ATOM      3  C   UNL     1      31.016   7.453  32.565  1.00  0.00     0.000 C 
BRANCH   3   4
ATOM      4  C   UNL     1      32.312   8.225  32.863  1.00  0.00     0.000 C 
BRANCH   4   5
ATOM      5  C   UNL     1      33.407   7.962  31.815  1.00  0.00     0.000 C 
BRANCH   5   6
ATOM      6  C   UNL     1      33.815   9.239  31.057  1.00  0.00     0.006 C 
BRANCH   6   7
ATOM      7  C   UNL     1      34.829   8.950  29.941  1.00  0.00     0.053 C 
BRANCH   7   8
ATOM      8  C   UNL     1      36.192   9.475  30.273  1.00  0.00     0.041 C 
ATOM      9  O   UNL     1      36.341  10.675  30.624  1.00  0.00    -0.550 OA
ATOM     10  O   UNL     1      37.295   8.632  30.219  1.00  0.00    -0.550 OA
ENDBRANCH   7   8
ENDBRANCH   6   7
ENDBRANCH   5   6
ENDBRANCH   4   5
ENDBRANCH   3   4
ENDBRANCH   2   3
ENDBRANCH   1   2
BRANCH   1  11
ATOM     11  C   UNL     1      29.885   8.011  29.537  1.00  0.00    -0.031 C 
ATOM     12  C   UNL     1      31.023   8.508  29.029  1.00  0.00    -0.027 C 
BRANCH  12  13
ATOM     13  C   UNL     1      31.034   9.768  28.210  1.00  0.00     0.054 C 
BRANCH  13  14
ATOM     14  C   UNL     1      29.755   9.924  27.426  1.00  0.00    -0.027 C 
ATOM     15  C   UNL     1      28.800  10.834  27.698  1.00  0.00    -0.031 C 
BRANCH  15  16
ATOM     16  C   UNL     1      28.897  11.877  28.782  1.00  0.00     0.027 C 
BRANCH  16  17
ATOM     17  C   UNL     1      27.974  11.531  29.955  1.00  0.00     0.004 C 
BRANCH  17  18
ATOM     18  C   UNL     1      28.644  11.863  31.296  1.00  0.00     0.000 C 
BRANCH  18  19
ATOM     19  C   UNL     1      29.818  10.924  31.617  1.00  0.00    -0.003 C 
ATOM     20  C   UNL     1      31.148  11.666  31.751  1.00  0.00     0.004 C 
ENDBRANCH  18  19
ENDBRANCH  17  18
ENDBRANCH  16  17
ENDBRANCH  15  16
ENDBRANCH  13  14
ENDBRANCH  12  13
ENDBRANCH   1  11
TORSDOF 14
ENDMDL
MODEL 5
REMARK VINA RESULT:    -4.204      2.258      3.878
REMARK INTER + INTRA:         -10.236
REMARK INTER:                  -7.887
REMARK INTRA:                  -2.348
REMARK UNBOUND:                -2.590
REMARK SMILES CCCCCC=CCC=CCCCCCCCC(=O)[O-]
REMARK SMILES IDX 11 1 12 2 13 3 14 4 15 5 16 6 17 7 18 8 19 9 20 10 10 11
REMARK SMILES IDX 9 12 8 13 7 14 6 15 5 16 4 17 3 18 2 19 1 20
REMARK H PARENT
REMARK Flexibility Score: inf
ROOT
ATOM      1  C   UNL     1      29.249  10.783  27.398  1.00  0.00     0.027 C 
ENDROOT
BRANCH   1   2
ATOM      2  C   UNL     1      28.409  11.311  28.575  1.00  0.00     0.004 C 
BRANCH   2   3
ATOM      3  C   UNL     1      29.206  12.130  29.607  1.00  0.00     0.000 C 
BRANCH   3   4
ATOM      4  C   UNL     1      29.132  11.535  31.024  1.00  0.00     0.000 C 
BRANCH   4   5
ATOM      5  C   UNL     1      30.470  10.926  31.476  1.00  0.00     0.000 C 
BRANCH   5   6
ATOM      6  C   UNL     1      31.684  11.701  30.931  1.00  0.00     0.006 C 
BRANCH   6   7
ATOM      7  C   UNL     1      32.404  12.496  32.030  1.00  0.00     0.053 C 
BRANCH   7   8
ATOM      8  C   UNL     1      32.571  13.937  31.661  1.00  0.00     0.041 C 
ATOM      9  O   UNL     1      31.693  14.521  30.971  1.00  0.00    -0.550 OA
ATOM     10  O   UNL     1      33.683  14.644  32.100  1.00  0.00    -0.550 OA
ENDBRANCH   7   8
ENDBRANCH   6   7
ENDBRANCH   5   6
ENDBRANCH   4   5
ENDBRANCH   3   4
ENDBRANCH   2   3
ENDBRANCH   1   2
BRANCH   1  11
ATOM     11  C   UNL     1      30.416   9.947  27.850  1.00  0.00    -0.031 C 
ATOM     12  C   UNL     1      30.242   8.750  28.429  1.00  0.00    -0.027 C 
BRANCH  12  13
ATOM     13  C   UNL     1      31.411   7.916  28.876  1.00  0.00     0.054 C 
BRANCH  13  14
ATOM     14  C   UNL     1      32.712   8.660  28.708  1.00  0.00    -0.027 C 
ATOM     15  C   UNL     1      33.588   8.898  29.703  1.00  0.00    -0.031 C 
BRANCH  15  16
ATOM     16  C   UNL     1      33.433   8.397  31.116  1.00  0.00     0.027 C 
BRANCH  16  17
ATOM     17  C   UNL     1      34.801   8.236  31.789  1.00  0.00     0.004 C 
BRANCH  17  18
ATOM     18  C   UNL     1      35.841   7.700  30.794  1.00  0.00     0.000 C 
BRANCH  18  19
ATOM     19  C   UNL     1      37.254   8.235  31.074  1.00  0.00    -0.003 C 
ATOM     20  C   UNL     1      37.692   9.303  30.071  1.00  0.00     0.004 C 
ENDBRANCH  18  19
ENDBRANCH  17  18
ENDBRANCH  16  17
ENDBRANCH  15  16
ENDBRANCH  13  14
ENDBRANCH  12  13
ENDBRANCH   1  11
TORSDOF 14
ENDMDL
MODEL 6
REMARK VINA RESULT:    -4.203      1.266      3.488
REMARK INTER + INTRA:         -10.232
REMARK INTER:                  -7.325
REMARK INTRA:                  -2.908
REMARK UNBOUND:                -2.590
REMARK SMILES CCCCCC=CCC=CCCCCCCCC(=O)[O-]
REMARK SMILES IDX 11 1 12 2 13 3 14 4 15 5 16 6 17 7 18 8 19 9 20 10 10 11
REMARK SMILES IDX 9 12 8 13 7 14 6 15 5 16 4 17 3 18 2 19 1 20
REMARK H PARENT
REMARK Flexibility Score: inf
ROOT
ATOM      1  C   UNL     1      29.968   7.135  30.098  1.00  0.00     0.027 C 
ENDROOT
BRANCH   1   2
ATOM      2  C   UNL     1      30.539   7.777  28.821  1.00  0.00     0.004 C 
BRANCH   2   3
ATOM      3  C   UNL     1      31.877   8.511  29.024  1.00  0.00     0.000 C 
BRANCH   3   4
ATOM      4  C   UNL     1      31.695  10.007  29.333  1.00  0.00     0.000 C 
BRANCH   4   5
ATOM      5  C   UNL     1      32.190  10.381  30.740  1.00  0.00     0.000 C 
BRANCH   5   6
ATOM      6  C   UNL     1      31.130  11.147  31.553  1.00  0.00     0.006 C 
BRANCH   6   7
ATOM      7  C   UNL     1      29.702  10.713  31.196  1.00  0.00     0.053 C 
BRANCH   7   8
ATOM      8  C   UNL     1      28.825  11.883  30.874  1.00  0.00     0.041 C 
ATOM      9  O   UNL     1      29.131  12.667  29.936  1.00  0.00    -0.550 OA
ATOM     10  O   UNL     1      27.654  12.095  31.592  1.00  0.00    -0.550 OA
ENDBRANCH   7   8
ENDBRANCH   6   7
ENDBRANCH   5   6
ENDBRANCH   4   5
ENDBRANCH   3   4
ENDBRANCH   2   3
ENDBRANCH   1   2
BRANCH   1  11
ATOM     11  C   UNL     1      31.035   6.810  31.109  1.00  0.00    -0.031 C 
ATOM     12  C   UNL     1      30.983   7.284  32.363  1.00  0.00    -0.027 C 
BRANCH  12  13
ATOM     13  C   UNL     1      32.049   6.955  33.372  1.00  0.00     0.054 C 
BRANCH  13  14
ATOM     14  C   UNL     1      32.969   8.128  33.599  1.00  0.00    -0.027 C 
ATOM     15  C   UNL     1      34.304   8.096  33.423  1.00  0.00    -0.031 C 
BRANCH  15  16
ATOM     16  C   UNL     1      35.069   6.904  32.905  1.00  0.00     0.027 C 
BRANCH  16  17
ATOM     17  C   UNL     1      35.955   7.300  31.719  1.00  0.00     0.004 C 
BRANCH  17  18
ATOM     18  C   UNL     1      35.154   8.097  30.679  1.00  0.00     0.000 C 
BRANCH  18  19
ATOM     19  C   UNL     1      35.929   9.308  30.138  1.00  0.00    -0.003 C 
ATOM     20  C   UNL     1      35.868  10.515  31.074  1.00  0.00     0.004 C 
ENDBRANCH  18  19
ENDBRANCH  17  18
ENDBRANCH  16  17
ENDBRANCH  15  16
ENDBRANCH  13  14
ENDBRANCH  12  13
ENDBRANCH   1  11
TORSDOF 14
ENDMDL
MODEL 7
REMARK VINA RESULT:    -4.201      3.224      5.351
REMARK INTER + INTRA:         -10.229
REMARK INTER:                  -7.458
REMARK INTRA:                  -2.771
REMARK UNBOUND:                -2.590
REMARK SMILES CCCCCC=CCC=CCCCCCCCC(=O)[O-]
REMARK SMILES IDX 11 1 12 2 13 3 14 4 15 5 16 6 17 7 18 8 19 9 20 10 10 11
REMARK SMILES IDX 9 12 8 13 7 14 6 15 5 16 4 17 3 18 2 19 1 20
REMARK H PARENT
REMARK Flexibility Score: inf
ROOT
ATOM      1  C   UNL     1      31.442   7.142  32.575  1.00  0.00     0.027 C 
ENDROOT
BRANCH   1   2
ATOM      2  C   UNL     1      32.349   8.151  33.302  1.00  0.00     0.004 C 
BRANCH   2   3
ATOM      3  C   UNL     1      32.276   9.585  32.748  1.00  0.00     0.000 C 
BRANCH   3   4
ATOM      4  C   UNL     1      33.641  10.111  32.275  1.00  0.00     0.000 C 
BRANCH   4   5
ATOM      5  C   UNL     1      33.739  10.198  30.742  1.00  0.00     0.000 C 
BRANCH   5   6
ATOM      6  C   UNL     1      34.502   9.008  30.133  1.00  0.00     0.006 C 
BRANCH   6   7
ATOM      7  C   UNL     1      35.976   8.985  30.560  1.00  0.00     0.053 C 
BRANCH   7   8
ATOM      8  C   UNL     1      36.316   7.748  31.334  1.00  0.00     0.041 C 
ATOM      9  O   UNL     1      37.519   7.447  31.552  1.00  0.00    -0.550 OA
ATOM     10  O   UNL     1      35.302   6.942  31.838  1.00  0.00    -0.550 OA
ENDBRANCH   7   8
ENDBRANCH   6   7
ENDBRANCH   5   6
ENDBRANCH   4   5
ENDBRANCH   3   4
ENDBRANCH   2   3
ENDBRANCH   1   2
BRANCH   1  11
ATOM     11  C   UNL     1      31.327   7.425  31.101  1.00  0.00    -0.031 C 
ATOM     12  C   UNL     1      30.261   7.029  30.390  1.00  0.00    -0.027 C 
BRANCH  12  13
ATOM     13  C   UNL     1      30.148   7.316  28.918  1.00  0.00     0.054 C 
BRANCH  13  14
ATOM     14  C   UNL     1      31.391   7.990  28.394  1.00  0.00    -0.027 C 
ATOM     15  C   UNL     1      31.444   9.266  27.968  1.00  0.00    -0.031 C 
BRANCH  15  16
ATOM     16  C   UNL     1      30.288  10.233  28.016  1.00  0.00     0.027 C 
BRANCH  16  17
ATOM     17  C   UNL     1      30.622  11.436  28.904  1.00  0.00     0.004 C 
BRANCH  17  18
ATOM     18  C   UNL     1      30.137  11.207  30.343  1.00  0.00     0.000 C 
BRANCH  18  19
ATOM     19  C   UNL     1      28.639  10.875  30.414  1.00  0.00    -0.003 C 
ATOM     20  C   UNL     1      27.788  12.072  30.838  1.00  0.00     0.004 C 
ENDBRANCH  18  19
ENDBRANCH  17  18
ENDBRANCH  16  17
ENDBRANCH  15  16
ENDBRANCH  13  14
ENDBRANCH  12  13
ENDBRANCH   1  11
TORSDOF 14
ENDMDL
MODEL 8
REMARK VINA RESULT:    -4.197      1.457      4.782
REMARK INTER + INTRA:         -10.223
REMARK INTER:                  -7.942
REMARK INTRA:                  -2.281
REMARK UNBOUND:                -2.590
REMARK SMILES CCCCCC=CCC=CCCCCCCCC(=O)[O-]
REMARK SMILES IDX 11 1 12 2 13 3 14 4 15 5 16 6 17 7 18 8 19 9 20 10 10 11
REMARK SMILES IDX 9 12 8 13 7 14 6 15 5 16 4 17 3 18 2 19 1 20
REMARK H PARENT
REMARK Flexibility Score: inf
ROOT
ATOM      1  C   UNL     1      35.796   7.897  30.766  1.00  0.00     0.027 C 
ENDROOT
BRANCH   1   2
ATOM      2  C   UNL     1      35.228   9.196  30.166  1.00  0.00     0.004 C 
BRANCH   2   3
ATOM      3  C   UNL     1      33.700   9.194  29.980  1.00  0.00     0.000 C 
BRANCH   3   4
ATOM      4  C   UNL     1      33.260   8.495  28.682  1.00  0.00     0.000 C 
BRANCH   4   5
ATOM      5  C   UNL     1      31.951   9.072  28.119  1.00  0.00     0.000 C 
BRANCH   5   6
ATOM      6  C   UNL     1      31.228   9.986  29.126  1.00  0.00     0.006 C 
BRANCH   6   7
ATOM      7  C   UNL     1      29.708   9.995  28.912  1.00  0.00     0.053 C 
BRANCH   7   8
ATOM      8  C   UNL     1      29.048  11.129  29.632  1.00  0.00     0.041 C 
ATOM      9  O   UNL     1      29.187  11.257  30.878  1.00  0.00    -0.550 OA
ATOM     10  O   UNL     1      28.301  12.063  28.924  1.00  0.00    -0.550 OA
ENDBRANCH   7   8
ENDBRANCH   6   7
ENDBRANCH   5   6
ENDBRANCH   4   5
ENDBRANCH   3   4
ENDBRANCH   2   3
ENDBRANCH   1   2
BRANCH   1  11
ATOM     11  C   UNL     1      34.892   7.299  31.810  1.00  0.00    -0.031 C 
ATOM     12  C   UNL     1      35.284   7.163  33.086  1.00  0.00    -0.027 C 
BRANCH  12  13
ATOM     13  C   UNL     1      34.377   6.568  34.128  1.00  0.00     0.054 C 
BRANCH  13  14
ATOM     14  C   UNL     1      33.499   7.621  34.756  1.00  0.00    -0.027 C 
ATOM     15  C   UNL     1      32.189   7.779  34.489  1.00  0.00    -0.031 C 
BRANCH  15  16
ATOM     16  C   UNL     1      31.388   6.886  33.576  1.00  0.00     0.027 C 
BRANCH  16  17
ATOM     17  C   UNL     1      30.988   7.632  32.299  1.00  0.00     0.004 C 
BRANCH  17  18
ATOM     18  C   UNL     1      31.108   6.719  31.070  1.00  0.00     0.000 C 
BRANCH  18  19
ATOM     19  C   UNL     1      29.806   6.650  30.257  1.00  0.00    -0.003 C 
ATOM     20  C   UNL     1      29.450   5.227  29.829  1.00  0.00     0.004 C 
ENDBRANCH  18  19
ENDBRANCH  17  18
ENDBRANCH  16  17
ENDBRANCH  15  16
ENDBRANCH  13  14
ENDBRANCH  12  13
ENDBRANCH   1  11
TORSDOF 14
ENDMDL
MODEL 9
REMARK VINA RESULT:    -4.078      1.022      3.033
REMARK INTER + INTRA:         -10.005
REMARK INTER:                  -7.492
REMARK INTRA:                  -2.513
REMARK UNBOUND:                -2.590
REMARK SMILES CCCCCC=CCC=CCCCCCCCC(=O)[O-]
REMARK SMILES IDX 11 1 12 2 13 3 14 4 15 5 16 6 17 7 18 8 19 9 20 10 10 11
REMARK SMILES IDX 9 12 8 13 7 14 6 15 5 16 4 17 3 18 2 19 1 20
REMARK H PARENT
REMARK Flexibility Score: inf
ROOT
ATOM      1  C   UNL     1      31.745   7.629  33.992  1.00  0.00     0.027 C 
ENDROOT
BRANCH   1   2
ATOM      2  C   UNL     1      30.758   8.787  34.227  1.00  0.00     0.004 C 
BRANCH   2   3
ATOM      3  C   UNL     1      31.131  10.096  33.508  1.00  0.00     0.000 C 
BRANCH   3   4
ATOM      4  C   UNL     1      30.236  10.383  32.290  1.00  0.00     0.000 C 
BRANCH   4   5
ATOM      5  C   UNL     1      31.034  10.904  31.084  1.00  0.00     0.000 C 
BRANCH   5   6
ATOM      6  C   UNL     1      30.360  12.113  30.409  1.00  0.00     0.006 C 
BRANCH   6   7
ATOM      7  C   UNL     1      30.172  11.903  28.900  1.00  0.00     0.053 C 
BRANCH   7   8
ATOM      8  C   UNL     1      28.832  11.316  28.579  1.00  0.00     0.041 C 
ATOM      9  O   UNL     1      27.920  11.305  29.448  1.00  0.00    -0.550 OA
ATOM     10  O   UNL     1      28.582  10.804  27.312  1.00  0.00    -0.550 OA
ENDBRANCH   7   8
ENDBRANCH   6   7
ENDBRANCH   5   6
ENDBRANCH   4   5
ENDBRANCH   3   4
ENDBRANCH   2   3
ENDBRANCH   1   2
BRANCH   1  11
ATOM     11  C   UNL     1      32.591   7.831  32.763  1.00  0.00    -0.031 C 
ATOM     12  C   UNL     1      33.882   7.469  32.731  1.00  0.00    -0.027 C 
BRANCH  12  13
ATOM     13  C   UNL     1      34.724   7.669  31.501  1.00  0.00     0.054 C 
BRANCH  13  14
ATOM     14  C   UNL     1      34.511   9.039  30.908  1.00  0.00    -0.027 C 
ATOM     15  C   UNL     1      33.876   9.276  29.744  1.00  0.00    -0.031 C 
BRANCH  15  16
ATOM     16  C   UNL     1      33.222   8.215  28.896  1.00  0.00     0.027 C 
BRANCH  16  17
ATOM     17  C   UNL     1      32.058   8.802  28.091  1.00  0.00     0.004 C 
BRANCH  17  18
ATOM     18  C   UNL     1      30.734   8.117  28.462  1.00  0.00     0.000 C 
BRANCH  18  19
ATOM     19  C   UNL     1      30.770   7.484  29.861  1.00  0.00    -0.003 C 
ATOM     20  C   UNL     1      29.894   6.236  29.969  1.00  0.00     0.004 C 
ENDBRANCH  18  19
ENDBRANCH  17  18
ENDBRANCH  16  17
ENDBRANCH  15  16
ENDBRANCH  13  14
ENDBRANCH  12  13
ENDBRANCH   1  11
TORSDOF 14
ENDMDL
