MODEL 1
REMARK VINA RESULT:    -1.801      0.000      0.000
REMARK INTER + INTRA:          -2.476
REMARK INTER:                  -2.170
REMARK INTRA:                  -0.306
REMARK UNBOUND:                -0.306
REMARK SMILES O=c1c(O)c(-c2ccc(O)c(O)c2)oc2cc(O)cc(O)c12
REMARK SMILES IDX 5 1 3 2 2 3 1 4 22 5 20 6 19 7 17 8 16 9 15 10 14 11 6 12
REMARK SMILES IDX 7 13 8 14 9 15 13 16 11 17 10 18 12 20 4 22 21 24 18 26
REMARK H PARENT 10 19 12 21 4 23 21 25 18 27
REMARK Flexibility Score: inf
ROOT
ATOM      1  C   UNL     1     -14.869 -21.222  80.485  1.00  0.00     0.180 A 
ATOM      2  C   UNL     1     -15.899 -20.302  80.220  1.00  0.00     0.208 A 
ATOM      3  C   UNL     1     -16.244 -20.031  78.886  1.00  0.00     0.238 A 
ATOM      4  O   UNL     1     -17.129 -19.166  78.654  1.00  0.00    -0.285 OA
ATOM      5  C   UNL     1     -15.569 -20.697  77.835  1.00  0.00     0.111 A 
ATOM      6  C   UNL     1     -15.863 -20.530  76.448  1.00  0.00     0.134 A 
ATOM      7  C   UNL     1     -15.044 -21.139  75.490  1.00  0.00     0.093 A 
ATOM      8  C   UNL     1     -13.981 -21.961  75.869  1.00  0.00     0.123 A 
ATOM      9  C   UNL     1     -13.722 -22.177  77.220  1.00  0.00     0.094 A 
ATOM     10  C   UNL     1     -14.499 -21.555  78.200  1.00  0.00     0.146 A 
ATOM     11  O   UNL     1     -14.211 -21.779  79.476  1.00  0.00    -0.452 OA
ENDROOT
BRANCH   1  12
ATOM     12  C   UNL     1     -14.466 -21.577  81.865  1.00  0.00     0.025 A 
ATOM     13  C   UNL     1     -13.382 -20.942  82.496  1.00  0.00     0.016 A 
ATOM     14  C   UNL     1     -13.034 -21.276  83.808  1.00  0.00     0.051 A 
ATOM     15  C   UNL     1     -13.772 -22.238  84.511  1.00  0.00     0.157 A 
ATOM     16  C   UNL     1     -15.214 -22.525  82.581  1.00  0.00     0.062 A 
ATOM     17  C   UNL     1     -14.866 -22.861  83.897  1.00  0.00     0.158 A 
BRANCH  15  18
ATOM     18  O   UNL     1     -13.427 -22.575  85.819  1.00  0.00    -0.504 OA
ATOM     19  H   UNL     1     -12.800 -21.998  86.367  1.00  0.00     0.293 HD
ENDBRANCH  15  18
BRANCH  17  20
ATOM     20  O   UNL     1     -15.601 -23.813  84.600  1.00  0.00    -0.504 OA
ATOM     21  H   UNL     1     -15.282 -24.180  85.490  1.00  0.00     0.293 HD
ENDBRANCH  17  20
ENDBRANCH   1  12
BRANCH   2  22
ATOM     22  O   UNL     1     -16.538 -19.640  81.272  1.00  0.00    -0.502 OA
ATOM     23  H   UNL     1     -16.154 -19.605  82.208  1.00  0.00     0.293 HD
ENDBRANCH   2  22
BRANCH   6  24
ATOM     24  O   UNL     1     -16.957 -19.805  75.965  1.00  0.00    -0.507 OA
ATOM     25  H   UNL     1     -17.122 -19.593  74.992  1.00  0.00     0.293 HD
ENDBRANCH   6  24
BRANCH   8  26
ATOM     26  O   UNL     1     -13.180 -22.576  74.909  1.00  0.00    -0.508 OA
ATOM     27  H   UNL     1     -13.107 -22.210  73.967  1.00  0.00     0.293 HD
ENDBRANCH   8  26
TORSDOF 6
ENDMDL
MODEL 2
REMARK VINA RESULT:    -1.655      1.692      6.962
REMARK INTER + INTRA:          -2.300
REMARK INTER:                  -1.966
REMARK INTRA:                  -0.334
REMARK UNBOUND:                -0.306
REMARK SMILES O=c1c(O)c(-c2ccc(O)c(O)c2)oc2cc(O)cc(O)c12
REMARK SMILES IDX 5 1 3 2 2 3 1 4 22 5 20 6 19 7 17 8 16 9 15 10 14 11 6 12
REMARK SMILES IDX 7 13 8 14 9 15 13 16 11 17 10 18 12 20 4 22 21 24 18 26
REMARK H PARENT 10 19 12 21 4 23 21 25 18 27
REMARK Flexibility Score: inf
ROOT
ATOM      1  C   UNL     1     -14.730 -21.445  80.987  1.00  0.00     0.180 A 
ATOM      2  C   UNL     1     -13.871 -20.789  81.886  1.00  0.00     0.208 A 
ATOM      3  C   UNL     1     -13.601 -21.387  83.128  1.00  0.00     0.238 A 
ATOM      4  O   UNL     1     -12.876 -20.770  83.951  1.00  0.00    -0.285 OA
ATOM      5  C   UNL     1     -14.178 -22.640  83.447  1.00  0.00     0.111 A 
ATOM      6  C   UNL     1     -13.941 -23.356  84.660  1.00  0.00     0.134 A 
ATOM      7  C   UNL     1     -14.667 -24.523  84.925  1.00  0.00     0.093 A 
ATOM      8  C   UNL     1     -15.573 -25.035  83.993  1.00  0.00     0.123 A 
ATOM      9  C   UNL     1     -15.768 -24.375  82.783  1.00  0.00     0.094 A 
ATOM     10  C   UNL     1     -15.085 -23.188  82.504  1.00  0.00     0.146 A 
ATOM     11  O   UNL     1     -15.307 -22.586  81.342  1.00  0.00    -0.452 OA
ENDROOT
BRANCH   1  12
ATOM     12  C   UNL     1     -15.043 -20.889  79.650  1.00  0.00     0.025 A 
ATOM     13  C   UNL     1     -14.229 -21.160  78.537  1.00  0.00     0.016 A 
ATOM     14  C   UNL     1     -14.556 -20.645  77.279  1.00  0.00     0.051 A 
ATOM     15  C   UNL     1     -15.709 -19.865  77.115  1.00  0.00     0.157 A 
ATOM     16  C   UNL     1     -16.207 -20.125  79.475  1.00  0.00     0.062 A 
ATOM     17  C   UNL     1     -16.537 -19.607  78.214  1.00  0.00     0.158 A 
BRANCH  15  18
ATOM     18  O   UNL     1     -16.038 -19.348  75.863  1.00  0.00    -0.504 OA
ATOM     19  H   UNL     1     -15.386 -19.381  75.088  1.00  0.00     0.293 HD
ENDBRANCH  15  18
BRANCH  17  20
ATOM     20  O   UNL     1     -17.686 -18.836  78.046  1.00  0.00    -0.504 OA
ATOM     21  H   UNL     1     -17.675 -17.977  77.508  1.00  0.00     0.293 HD
ENDBRANCH  17  20
ENDBRANCH   1  12
BRANCH   2  22
ATOM     22  O   UNL     1     -13.329 -19.543  81.561  1.00  0.00    -0.502 OA
ATOM     23  H   UNL     1     -12.333 -19.360  81.579  1.00  0.00     0.293 HD
ENDBRANCH   2  22
BRANCH   6  24
ATOM     24  O   UNL     1     -12.991 -22.981  85.615  1.00  0.00    -0.507 OA
ATOM     25  H   UNL     1     -13.163 -22.932  86.608  1.00  0.00     0.293 HD
ENDBRANCH   6  24
BRANCH   8  26
ATOM     26  O   UNL     1     -16.280 -26.206  84.258  1.00  0.00    -0.508 OA
ATOM     27  H   UNL     1     -16.943 -26.263  85.023  1.00  0.00     0.293 HD
ENDBRANCH   8  26
TORSDOF 6
ENDMDL
MODEL 3
REMARK VINA RESULT:    -1.581      3.805      7.032
REMARK INTER + INTRA:          -2.210
REMARK INTER:                  -1.887
REMARK INTRA:                  -0.323
REMARK UNBOUND:                -0.306
REMARK SMILES O=c1c(O)c(-c2ccc(O)c(O)c2)oc2cc(O)cc(O)c12
REMARK SMILES IDX 5 1 3 2 2 3 1 4 22 5 20 6 19 7 17 8 16 9 15 10 14 11 6 12
REMARK SMILES IDX 7 13 8 14 9 15 13 16 11 17 10 18 12 20 4 22 21 24 18 26
REMARK H PARENT 10 19 12 21 4 23 21 25 18 27
REMARK Flexibility Score: inf
ROOT
ATOM      1  C   UNL     1     -15.554 -24.605  81.535  1.00  0.00     0.180 A 
ATOM      2  C   UNL     1     -15.145 -25.190  82.745  1.00  0.00     0.208 A 
ATOM      3  C   UNL     1     -14.365 -24.436  83.638  1.00  0.00     0.238 A 
ATOM      4  O   UNL     1     -13.956 -24.984  84.695  1.00  0.00    -0.285 OA
ATOM      5  C   UNL     1     -14.021 -23.101  83.317  1.00  0.00     0.111 A 
ATOM      6  C   UNL     1     -13.269 -22.232  84.165  1.00  0.00     0.134 A 
ATOM      7  C   UNL     1     -12.875 -20.975  83.690  1.00  0.00     0.093 A 
ATOM      8  C   UNL     1     -13.260 -20.531  82.423  1.00  0.00     0.123 A 
ATOM      9  C   UNL     1     -14.043 -21.349  81.611  1.00  0.00     0.094 A 
ATOM     10  C   UNL     1     -14.422 -22.623  82.043  1.00  0.00     0.146 A 
ATOM     11  O   UNL     1     -15.159 -23.373  81.234  1.00  0.00    -0.452 OA
ENDROOT
BRANCH   1  12
ATOM     12  C   UNL     1     -16.397 -25.328  80.556  1.00  0.00     0.025 A 
ATOM     13  C   UNL     1     -15.827 -26.129  79.550  1.00  0.00     0.016 A 
ATOM     14  C   UNL     1     -16.643 -26.821  78.651  1.00  0.00     0.051 A 
ATOM     15  C   UNL     1     -18.037 -26.734  78.753  1.00  0.00     0.157 A 
ATOM     16  C   UNL     1     -17.795 -25.261  80.665  1.00  0.00     0.062 A 
ATOM     17  C   UNL     1     -18.615 -25.955  79.763  1.00  0.00     0.158 A 
BRANCH  15  18
ATOM     18  O   UNL     1     -18.855 -27.422  77.857  1.00  0.00    -0.504 OA
ATOM     19  H   UNL     1     -18.483 -27.833  77.009  1.00  0.00     0.293 HD
ENDBRANCH  15  18
BRANCH  17  20
ATOM     20  O   UNL     1     -20.002 -25.875  79.865  1.00  0.00    -0.504 OA
ATOM     21  H   UNL     1     -20.524 -26.476  80.493  1.00  0.00     0.293 HD
ENDBRANCH  17  20
ENDBRANCH   1  12
BRANCH   2  22
ATOM     22  O   UNL     1     -15.477 -26.517  83.033  1.00  0.00    -0.502 OA
ATOM     23  H   UNL     1     -15.268 -27.280  82.401  1.00  0.00     0.293 HD
ENDBRANCH   2  22
BRANCH   6  24
ATOM     24  O   UNL     1     -12.913 -22.542  85.481  1.00  0.00    -0.507 OA
ATOM     25  H   UNL     1     -12.875 -23.475  85.861  1.00  0.00     0.293 HD
ENDBRANCH   6  24
BRANCH   8  26
ATOM     26  O   UNL     1     -12.877 -19.273  81.963  1.00  0.00    -0.508 OA
ATOM     27  H   UNL     1     -12.444 -19.150  81.056  1.00  0.00     0.293 HD
ENDBRANCH   8  26
TORSDOF 6
ENDMDL
MODEL 4
REMARK VINA RESULT:    -1.559      1.429      3.257
REMARK INTER + INTRA:          -2.184
REMARK INTER:                  -1.858
REMARK INTRA:                  -0.326
REMARK UNBOUND:                -0.306
REMARK SMILES O=c1c(O)c(-c2ccc(O)c(O)c2)oc2cc(O)cc(O)c12
REMARK SMILES IDX 5 1 3 2 2 3 1 4 22 5 20 6 19 7 17 8 16 9 15 10 14 11 6 12
REMARK SMILES IDX 7 13 8 14 9 15 13 16 11 17 10 18 12 20 4 22 21 24 18 26
REMARK H PARENT 10 19 12 21 4 23 21 25 18 27
REMARK Flexibility Score: inf
ROOT
ATOM      1  C   UNL     1     -15.010 -20.943  80.737  1.00  0.00     0.180 A 
ATOM      2  C   UNL     1     -14.628 -21.539  79.523  1.00  0.00     0.208 A 
ATOM      3  C   UNL     1     -15.151 -21.035  78.321  1.00  0.00     0.238 A 
ATOM      4  O   UNL     1     -14.848 -21.608  77.242  1.00  0.00    -0.285 OA
ATOM      5  C   UNL     1     -16.035 -19.930  78.347  1.00  0.00     0.111 A 
ATOM      6  C   UNL     1     -16.594 -19.312  77.188  1.00  0.00     0.134 A 
ATOM      7  C   UNL     1     -17.560 -18.309  77.338  1.00  0.00     0.093 A 
ATOM      8  C   UNL     1     -17.938 -17.857  78.604  1.00  0.00     0.123 A 
ATOM      9  C   UNL     1     -17.355 -18.414  79.739  1.00  0.00     0.094 A 
ATOM     10  C   UNL     1     -16.415 -19.441  79.624  1.00  0.00     0.146 A 
ATOM     11  O   UNL     1     -15.892 -19.950  80.732  1.00  0.00    -0.452 OA
ENDROOT
BRANCH   1  12
ATOM     12  C   UNL     1     -14.482 -21.402  82.042  1.00  0.00     0.025 A 
ATOM     13  C   UNL     1     -13.350 -20.806  82.624  1.00  0.00     0.016 A 
ATOM     14  C   UNL     1     -12.883 -21.240  83.868  1.00  0.00     0.051 A 
ATOM     15  C   UNL     1     -13.549 -22.265  84.552  1.00  0.00     0.157 A 
ATOM     16  C   UNL     1     -15.156 -22.415  82.742  1.00  0.00     0.062 A 
ATOM     17  C   UNL     1     -14.689 -22.852  83.990  1.00  0.00     0.158 A 
BRANCH  15  18
ATOM     18  O   UNL     1     -13.085 -22.702  85.793  1.00  0.00    -0.504 OA
ATOM     19  H   UNL     1     -12.646 -23.608  85.905  1.00  0.00     0.293 HD
ENDBRANCH  15  18
BRANCH  17  20
ATOM     20  O   UNL     1     -15.352 -23.868  84.675  1.00  0.00    -0.504 OA
ATOM     21  H   UNL     1     -15.161 -24.061  85.652  1.00  0.00     0.293 HD
ENDBRANCH  17  20
ENDBRANCH   1  12
BRANCH   2  22
ATOM     22  O   UNL     1     -13.770 -22.643  79.521  1.00  0.00    -0.502 OA
ATOM     23  H   UNL     1     -14.094 -23.584  79.334  1.00  0.00     0.293 HD
ENDBRANCH   2  22
BRANCH   6  24
ATOM     24  O   UNL     1     -16.217 -19.624  75.878  1.00  0.00    -0.507 OA
ATOM     25  H   UNL     1     -15.977 -18.945  75.171  1.00  0.00     0.293 HD
ENDBRANCH   6  24
BRANCH   8  26
ATOM     26  O   UNL     1     -18.888 -16.848  78.744  1.00  0.00    -0.508 OA
ATOM     27  H   UNL     1     -19.583 -16.873  79.481  1.00  0.00     0.293 HD
ENDBRANCH   8  26
TORSDOF 6
ENDMDL
MODEL 5
REMARK VINA RESULT:    -1.557      4.925      7.140
REMARK INTER + INTRA:          -2.182
REMARK INTER:                  -1.851
REMARK INTRA:                  -0.331
REMARK UNBOUND:                -0.306
REMARK SMILES O=c1c(O)c(-c2ccc(O)c(O)c2)oc2cc(O)cc(O)c12
REMARK SMILES IDX 5 1 3 2 2 3 1 4 22 5 20 6 19 7 17 8 16 9 15 10 14 11 6 12
REMARK SMILES IDX 7 13 8 14 9 15 13 16 11 17 10 18 12 20 4 22 21 24 18 26
REMARK H PARENT 10 19 12 21 4 23 21 25 18 27
REMARK Flexibility Score: inf
ROOT
ATOM      1  C   UNL     1     -18.377 -22.997  83.851  1.00  0.00     0.180 A 
ATOM      2  C   UNL     1     -19.192 -21.914  83.479  1.00  0.00     0.208 A 
ATOM      3  C   UNL     1     -20.542 -22.152  83.172  1.00  0.00     0.238 A 
ATOM      4  O   UNL     1     -21.254 -21.188  82.786  1.00  0.00    -0.285 OA
ATOM      5  C   UNL     1     -21.063 -23.466  83.258  1.00  0.00     0.111 A 
ATOM      6  C   UNL     1     -22.425 -23.815  83.009  1.00  0.00     0.134 A 
ATOM      7  C   UNL     1     -22.800 -25.164  82.996  1.00  0.00     0.093 A 
ATOM      8  C   UNL     1     -21.877 -26.171  83.287  1.00  0.00     0.123 A 
ATOM      9  C   UNL     1     -20.559 -25.835  83.590  1.00  0.00     0.094 A 
ATOM     10  C   UNL     1     -20.146 -24.501  83.575  1.00  0.00     0.146 A 
ATOM     11  O   UNL     1     -18.879 -24.225  83.859  1.00  0.00    -0.452 OA
ENDROOT
BRANCH   1  12
ATOM     12  C   UNL     1     -16.952 -22.821  84.213  1.00  0.00     0.025 A 
ATOM     13  C   UNL     1     -16.558 -22.579  85.541  1.00  0.00     0.016 A 
ATOM     14  C   UNL     1     -15.205 -22.441  85.864  1.00  0.00     0.051 A 
ATOM     15  C   UNL     1     -14.228 -22.556  84.867  1.00  0.00     0.157 A 
ATOM     16  C   UNL     1     -15.966 -22.956  83.223  1.00  0.00     0.062 A 
ATOM     17  C   UNL     1     -14.608 -22.817  83.545  1.00  0.00     0.158 A 
BRANCH  15  18
ATOM     18  O   UNL     1     -12.877 -22.417  85.184  1.00  0.00    -0.504 OA
ATOM     19  H   UNL     1     -12.430 -21.508  85.211  1.00  0.00     0.293 HD
ENDBRANCH  15  18
BRANCH  17  20
ATOM     20  O   UNL     1     -13.633 -22.936  82.557  1.00  0.00    -0.504 OA
ATOM     21  H   UNL     1     -13.488 -23.806  82.056  1.00  0.00     0.293 HD
ENDBRANCH  17  20
ENDBRANCH   1  12
BRANCH   2  22
ATOM     22  O   UNL     1     -18.653 -20.629  83.379  1.00  0.00    -0.502 OA
ATOM     23  H   UNL     1     -19.063 -19.910  82.795  1.00  0.00     0.293 HD
ENDBRANCH   2  22
BRANCH   6  24
ATOM     24  O   UNL     1     -23.444 -22.882  82.798  1.00  0.00    -0.507 OA
ATOM     25  H   UNL     1     -24.430 -23.099  82.790  1.00  0.00     0.293 HD
ENDBRANCH   6  24
BRANCH   8  26
ATOM     26  O   UNL     1     -22.261 -27.510  83.288  1.00  0.00    -0.508 OA
ATOM     27  H   UNL     1     -21.956 -28.148  84.013  1.00  0.00     0.293 HD
ENDBRANCH   8  26
TORSDOF 6
ENDMDL
MODEL 6
REMARK VINA RESULT:    -1.517      6.545      7.889
REMARK INTER + INTRA:          -2.134
REMARK INTER:                  -1.803
REMARK INTRA:                  -0.331
REMARK UNBOUND:                -0.306
REMARK SMILES O=c1c(O)c(-c2ccc(O)c(O)c2)oc2cc(O)cc(O)c12
REMARK SMILES IDX 5 1 3 2 2 3 1 4 22 5 20 6 19 7 17 8 16 9 15 10 14 11 6 12
REMARK SMILES IDX 7 13 8 14 9 15 13 16 11 17 10 18 12 20 4 22 21 24 18 26
REMARK H PARENT 10 19 12 21 4 23 21 25 18 27
REMARK Flexibility Score: inf
ROOT
ATOM      1  C   UNL     1     -15.758 -14.417  80.640  1.00  0.00     0.180 A 
ATOM      2  C   UNL     1     -16.386 -15.545  80.085  1.00  0.00     0.208 A 
ATOM      3  C   UNL     1     -17.072 -15.412  78.866  1.00  0.00     0.238 A 
ATOM      4  O   UNL     1     -17.679 -16.413  78.402  1.00  0.00    -0.285 OA
ATOM      5  C   UNL     1     -17.104 -14.159  78.209  1.00  0.00     0.111 A 
ATOM      6  C   UNL     1     -17.734 -13.919  76.951  1.00  0.00     0.134 A 
ATOM      7  C   UNL     1     -17.817 -12.611  76.458  1.00  0.00     0.093 A 
ATOM      8  C   UNL     1     -17.237 -11.544  77.147  1.00  0.00     0.123 A 
ATOM      9  C   UNL     1     -16.568 -11.777  78.347  1.00  0.00     0.094 A 
ATOM     10  C   UNL     1     -16.499 -13.065  78.883  1.00  0.00     0.146 A 
ATOM     11  O   UNL     1     -15.862 -13.241  80.033  1.00  0.00    -0.452 OA
ENDROOT
BRANCH   1  12
ATOM     12  C   UNL     1     -14.996 -14.484  81.908  1.00  0.00     0.025 A 
ATOM     13  C   UNL     1     -13.624 -14.789  81.923  1.00  0.00     0.016 A 
ATOM     14  C   UNL     1     -12.920 -14.823  83.130  1.00  0.00     0.051 A 
ATOM     15  C   UNL     1     -13.574 -14.540  84.336  1.00  0.00     0.157 A 
ATOM     16  C   UNL     1     -15.641 -14.181  83.119  1.00  0.00     0.062 A 
ATOM     17  C   UNL     1     -14.936 -14.215  84.330  1.00  0.00     0.158 A 
BRANCH  15  18
ATOM     18  O   UNL     1     -12.875 -14.574  85.542  1.00  0.00    -0.504 OA
ATOM     19  H   UNL     1     -13.052 -15.291  86.236  1.00  0.00     0.293 HD
ENDBRANCH  15  18
BRANCH  17  20
ATOM     20  O   UNL     1     -15.582 -13.928  85.531  1.00  0.00    -0.504 OA
ATOM     21  H   UNL     1     -15.065 -13.665  86.362  1.00  0.00     0.293 HD
ENDBRANCH  17  20
ENDBRANCH   1  12
BRANCH   2  22
ATOM     22  O   UNL     1     -16.360 -16.769  80.760  1.00  0.00    -0.502 OA
ATOM     23  H   UNL     1     -15.813 -16.916  81.600  1.00  0.00     0.293 HD
ENDBRANCH   2  22
BRANCH   6  24
ATOM     24  O   UNL     1     -18.264 -14.927  76.140  1.00  0.00    -0.507 OA
ATOM     25  H   UNL     1     -17.718 -15.629  75.664  1.00  0.00     0.293 HD
ENDBRANCH   6  24
BRANCH   8  26
ATOM     26  O   UNL     1     -17.310 -10.248  76.642  1.00  0.00    -0.508 OA
ATOM     27  H   UNL     1     -16.976 -10.022  75.712  1.00  0.00     0.293 HD
ENDBRANCH   8  26
TORSDOF 6
ENDMDL
MODEL 7
REMARK VINA RESULT:    -1.491      3.397      6.845
REMARK INTER + INTRA:          -2.102
REMARK INTER:                  -1.779
REMARK INTRA:                  -0.323
REMARK UNBOUND:                -0.306
REMARK SMILES O=c1c(O)c(-c2ccc(O)c(O)c2)oc2cc(O)cc(O)c12
REMARK SMILES IDX 5 1 3 2 2 3 1 4 22 5 20 6 19 7 17 8 16 9 15 10 14 11 6 12
REMARK SMILES IDX 7 13 8 14 9 15 13 16 11 17 10 18 12 20 4 22 21 24 18 26
REMARK H PARENT 10 19 12 21 4 23 21 25 18 27
REMARK Flexibility Score: inf
ROOT
ATOM      1  C   UNL     1     -15.371 -23.740  80.626  1.00  0.00     0.180 A 
ATOM      2  C   UNL     1     -15.252 -22.381  80.292  1.00  0.00     0.208 A 
ATOM      3  C   UNL     1     -14.608 -21.512  81.188  1.00  0.00     0.238 A 
ATOM      4  O   UNL     1     -14.552 -20.286  80.908  1.00  0.00    -0.285 OA
ATOM      5  C   UNL     1     -14.076 -22.018  82.399  1.00  0.00     0.111 A 
ATOM      6  C   UNL     1     -13.368 -21.236  83.362  1.00  0.00     0.134 A 
ATOM      7  C   UNL     1     -13.001 -21.813  84.584  1.00  0.00     0.093 A 
ATOM      8  C   UNL     1     -13.259 -23.160  84.850  1.00  0.00     0.123 A 
ATOM      9  C   UNL     1     -13.896 -23.945  83.893  1.00  0.00     0.094 A 
ATOM     10  C   UNL     1     -14.307 -23.390  82.678  1.00  0.00     0.146 A 
ATOM     11  O   UNL     1     -14.920 -24.171  81.798  1.00  0.00    -0.452 OA
ENDROOT
BRANCH   1  12
ATOM     12  C   UNL     1     -16.015 -24.721  79.722  1.00  0.00     0.025 A 
ATOM     13  C   UNL     1     -17.397 -24.974  79.782  1.00  0.00     0.016 A 
ATOM     14  C   UNL     1     -17.987 -25.886  78.902  1.00  0.00     0.051 A 
ATOM     15  C   UNL     1     -17.208 -26.546  77.943  1.00  0.00     0.157 A 
ATOM     16  C   UNL     1     -15.243 -25.370  78.745  1.00  0.00     0.062 A 
ATOM     17  C   UNL     1     -15.834 -26.286  77.863  1.00  0.00     0.158 A 
BRANCH  15  18
ATOM     18  O   UNL     1     -17.792 -27.458  77.065  1.00  0.00    -0.504 OA
ATOM     19  H   UNL     1     -18.420 -27.157  76.329  1.00  0.00     0.293 HD
ENDBRANCH  15  18
BRANCH  17  20
ATOM     20  O   UNL     1     -15.063 -26.940  76.904  1.00  0.00    -0.504 OA
ATOM     21  H   UNL     1     -14.781 -27.907  77.019  1.00  0.00     0.293 HD
ENDBRANCH  17  20
ENDBRANCH   1  12
BRANCH   2  22
ATOM     22  O   UNL     1     -15.803 -21.898  79.101  1.00  0.00    -0.502 OA
ATOM     23  H   UNL     1     -15.302 -21.918  78.221  1.00  0.00     0.293 HD
ENDBRANCH   2  22
BRANCH   6  24
ATOM     24  O   UNL     1     -12.980 -19.909  83.156  1.00  0.00    -0.507 OA
ATOM     25  H   UNL     1     -12.031 -19.572  83.213  1.00  0.00     0.293 HD
ENDBRANCH   6  24
BRANCH   8  26
ATOM     26  O   UNL     1     -12.876 -23.730  86.062  1.00  0.00    -0.508 OA
ATOM     27  H   UNL     1     -13.128 -23.309  86.949  1.00  0.00     0.293 HD
ENDBRANCH   8  26
TORSDOF 6
ENDMDL
MODEL 8
REMARK VINA RESULT:    -1.442      3.914      7.206
REMARK INTER + INTRA:          -2.043
REMARK INTER:                  -1.709
REMARK INTRA:                  -0.335
REMARK UNBOUND:                -0.306
REMARK SMILES O=c1c(O)c(-c2ccc(O)c(O)c2)oc2cc(O)cc(O)c12
REMARK SMILES IDX 5 1 3 2 2 3 1 4 22 5 20 6 19 7 17 8 16 9 15 10 14 11 6 12
REMARK SMILES IDX 7 13 8 14 9 15 13 16 11 17 10 18 12 20 4 22 21 24 18 26
REMARK H PARENT 10 19 12 21 4 23 21 25 18 27
REMARK Flexibility Score: inf
ROOT
ATOM      1  C   UNL     1     -17.451 -23.849  82.993  1.00  0.00     0.180 A 
ATOM      2  C   UNL     1     -16.990 -24.343  84.225  1.00  0.00     0.208 A 
ATOM      3  C   UNL     1     -15.773 -23.866  84.738  1.00  0.00     0.238 A 
ATOM      4  O   UNL     1     -15.338 -24.352  85.814  1.00  0.00    -0.285 OA
ATOM      5  C   UNL     1     -15.042 -22.887  84.021  1.00  0.00     0.111 A 
ATOM      6  C   UNL     1     -13.817 -22.304  84.466  1.00  0.00     0.134 A 
ATOM      7  C   UNL     1     -13.114 -21.442  83.615  1.00  0.00     0.093 A 
ATOM      8  C   UNL     1     -13.624 -21.093  82.362  1.00  0.00     0.123 A 
ATOM      9  C   UNL     1     -14.846 -21.612  81.944  1.00  0.00     0.094 A 
ATOM     10  C   UNL     1     -15.555 -22.502  82.755  1.00  0.00     0.146 A 
ATOM     11  O   UNL     1     -16.711 -22.981  82.314  1.00  0.00    -0.452 OA
ENDROOT
BRANCH   1  12
ATOM     12  C   UNL     1     -18.736 -24.286  82.400  1.00  0.00     0.025 A 
ATOM     13  C   UNL     1     -19.942 -23.629  82.702  1.00  0.00     0.016 A 
ATOM     14  C   UNL     1     -21.140 -24.043  82.113  1.00  0.00     0.051 A 
ATOM     15  C   UNL     1     -21.147 -25.109  81.204  1.00  0.00     0.157 A 
ATOM     16  C   UNL     1     -18.747 -25.340  81.473  1.00  0.00     0.062 A 
ATOM     17  C   UNL     1     -19.948 -25.757  80.881  1.00  0.00     0.158 A 
BRANCH  15  18
ATOM     18  O   UNL     1     -22.340 -25.526  80.615  1.00  0.00    -0.504 OA
ATOM     19  H   UNL     1     -23.168 -25.711  81.168  1.00  0.00     0.293 HD
ENDBRANCH  15  18
BRANCH  17  20
ATOM     20  O   UNL     1     -19.957 -26.813  79.972  1.00  0.00    -0.504 OA
ATOM     21  H   UNL     1     -19.959 -27.779  80.281  1.00  0.00     0.293 HD
ENDBRANCH  17  20
ENDBRANCH   1  12
BRANCH   2  22
ATOM     22  O   UNL     1     -17.716 -25.324  84.906  1.00  0.00    -0.502 OA
ATOM     23  H   UNL     1     -18.659 -25.169  85.243  1.00  0.00     0.293 HD
ENDBRANCH   2  22
BRANCH   6  24
ATOM     24  O   UNL     1     -13.269 -22.513  85.735  1.00  0.00    -0.507 OA
ATOM     25  H   UNL     1     -12.635 -21.880  86.199  1.00  0.00     0.293 HD
ENDBRANCH   6  24
BRANCH   8  26
ATOM     26  O   UNL     1     -12.925 -20.223  81.528  1.00  0.00    -0.508 OA
ATOM     27  H   UNL     1     -13.233 -19.269  81.382  1.00  0.00     0.293 HD
ENDBRANCH   8  26
TORSDOF 6
ENDMDL
MODEL 9
REMARK VINA RESULT:     0.970      3.885      6.754
REMARK INTER + INTRA:           0.862
REMARK INTER:                   1.193
REMARK INTRA:                  -0.331
REMARK UNBOUND:                -0.306
REMARK SMILES O=c1c(O)c(-c2ccc(O)c(O)c2)oc2cc(O)cc(O)c12
REMARK SMILES IDX 5 1 3 2 2 3 1 4 22 5 20 6 19 7 17 8 16 9 15 10 14 11 6 12
REMARK SMILES IDX 7 13 8 14 9 15 13 16 11 17 10 18 12 20 4 22 21 24 18 26
REMARK H PARENT 10 19 12 21 4 23 21 25 18 27
REMARK Flexibility Score: inf
ROOT
ATOM      1  C   UNL     1     -16.345 -24.051  81.210  1.00  0.00     0.180 A 
ATOM      2  C   UNL     1     -16.178 -22.787  80.620  1.00  0.00     0.208 A 
ATOM      3  C   UNL     1     -15.306 -21.864  81.221  1.00  0.00     0.238 A 
ATOM      4  O   UNL     1     -15.202 -20.715  80.718  1.00  0.00    -0.285 OA
ATOM      5  C   UNL     1     -14.598 -22.224  82.393  1.00  0.00     0.111 A 
ATOM      6  C   UNL     1     -13.659 -21.384  83.063  1.00  0.00     0.134 A 
ATOM      7  C   UNL     1     -13.117 -21.793  84.288  1.00  0.00     0.093 A 
ATOM      8  C   UNL     1     -13.431 -23.039  84.833  1.00  0.00     0.123 A 
ATOM      9  C   UNL     1     -14.301 -23.891  84.157  1.00  0.00     0.094 A 
ATOM     10  C   UNL     1     -14.886 -23.497  82.951  1.00  0.00     0.146 A 
ATOM     11  O   UNL     1     -15.718 -24.335  82.346  1.00  0.00    -0.452 OA
ENDROOT
BRANCH   1  12
ATOM     12  C   UNL     1     -17.227 -25.085  80.622  1.00  0.00     0.025 A 
ATOM     13  C   UNL     1     -16.742 -26.016  79.688  1.00  0.00     0.016 A 
ATOM     14  C   UNL     1     -17.587 -26.999  79.163  1.00  0.00     0.051 A 
ATOM     15  C   UNL     1     -18.924 -27.072  79.576  1.00  0.00     0.157 A 
ATOM     16  C   UNL     1     -18.563 -25.177  81.047  1.00  0.00     0.062 A 
ATOM     17  C   UNL     1     -19.412 -26.161  80.522  1.00  0.00     0.158 A 
BRANCH  15  18
ATOM     18  O   UNL     1     -19.771 -28.049  79.054  1.00  0.00    -0.504 OA
ATOM     19  H   UNL     1     -19.609 -29.035  79.222  1.00  0.00     0.293 HD
ENDBRANCH  15  18
BRANCH  17  20
ATOM     20  O   UNL     1     -20.740 -26.241  80.934  1.00  0.00    -0.504 OA
ATOM     21  H   UNL     1     -21.459 -25.655  80.524  1.00  0.00     0.293 HD
ENDBRANCH  17  20
ENDBRANCH   1  12
BRANCH   2  22
ATOM     22  O   UNL     1     -16.902 -22.444  79.474  1.00  0.00    -0.502 OA
ATOM     23  H   UNL     1     -17.543 -23.085  79.023  1.00  0.00     0.293 HD
ENDBRANCH   2  22
BRANCH   6  24
ATOM     24  O   UNL     1     -13.207 -20.161  82.558  1.00  0.00    -0.507 OA
ATOM     25  H   UNL     1     -13.792 -19.475  82.105  1.00  0.00     0.293 HD
ENDBRANCH   6  24
BRANCH   8  26
ATOM     26  O   UNL     1     -12.875 -23.446  86.044  1.00  0.00    -0.508 OA
ATOM     27  H   UNL     1     -12.181 -22.884  86.523  1.00  0.00     0.293 HD
ENDBRANCH   8  26
TORSDOF 6
ENDMDL
