MODEL 1
REMARK VINA RESULT:    -5.077      0.000      0.000
REMARK INTER + INTRA:          -5.077
REMARK INTER:                  -5.077
REMARK INTRA:                   0.000
REMARK UNBOUND:                 0.000
REMARK SMILES CC1=CC[C@@H]2C[C@H]1C2(C)C
REMARK SMILES IDX 1 1 2 2 3 3 4 4 5 5 6 6 7 7 8 8 9 9 10 10
REMARK H PARENT
REMARK Flexibility Score: inf
ROOT
ATOM      1  C   UNL     1     140.841 146.571 160.974  1.00  0.00     0.039 C 
ATOM      2  C   UNL     1     140.749 146.562 162.470  1.00  0.00    -0.074 C 
ATOM      3  C   UNL     1     139.848 145.771 163.122  1.00  0.00    -0.027 C 
ATOM      4  C   UNL     1     139.826 145.789 164.664  1.00  0.00     0.031 C 
ATOM      5  C   UNL     1     140.885 146.810 165.205  1.00  0.00    -0.000 C 
ATOM      6  C   UNL     1     140.693 148.092 164.370  1.00  0.00     0.013 C 
ATOM      7  C   UNL     1     141.646 147.453 163.342  1.00  0.00     0.021 C 
ATOM      8  C   UNL     1     142.250 146.604 164.492  1.00  0.00    -0.026 C 
ATOM      9  C   UNL     1     143.406 147.335 165.219  1.00  0.00     0.012 C 
ATOM     10  C   UNL     1     142.713 145.154 164.175  1.00  0.00     0.012 C 
ENDROOT
TORSDOF 0
ENDMDL
MODEL 2
REMARK VINA RESULT:    -5.066      7.034      9.011
REMARK INTER + INTRA:          -5.066
REMARK INTER:                  -5.066
REMARK INTRA:                   0.000
REMARK UNBOUND:                 0.000
REMARK SMILES CC1=CC[C@@H]2C[C@H]1C2(C)C
REMARK SMILES IDX 1 1 2 2 3 3 4 4 5 5 6 6 7 7 8 8 9 9 10 10
REMARK H PARENT
REMARK Flexibility Score: inf
ROOT
ATOM      1  C   UNL     1     149.954 144.188 160.974  1.00  0.00     0.039 C 
ATOM      2  C   UNL     1     150.031 144.194 162.471  1.00  0.00    -0.074 C 
ATOM      3  C   UNL     1     150.923 144.986 163.134  1.00  0.00    -0.027 C 
ATOM      4  C   UNL     1     150.930 144.965 164.676  1.00  0.00     0.031 C 
ATOM      5  C   UNL     1     149.866 143.940 165.204  1.00  0.00    -0.000 C 
ATOM      6  C   UNL     1     150.069 142.660 164.368  1.00  0.00     0.013 C 
ATOM      7  C   UNL     1     149.126 143.300 163.331  1.00  0.00     0.021 C 
ATOM      8  C   UNL     1     148.509 144.146 164.477  1.00  0.00    -0.026 C 
ATOM      9  C   UNL     1     147.346 143.412 165.190  1.00  0.00     0.012 C 
ATOM     10  C   UNL     1     148.047 145.596 164.159  1.00  0.00     0.012 C 
ENDROOT
TORSDOF 0
ENDMDL
MODEL 3
REMARK VINA RESULT:    -5.063      4.558      6.374
REMARK INTER + INTRA:          -5.063
REMARK INTER:                  -5.063
REMARK INTRA:                   0.000
REMARK UNBOUND:                 0.000
REMARK SMILES CC1=CC[C@@H]2C[C@H]1C2(C)C
REMARK SMILES IDX 1 1 2 2 3 3 4 4 5 5 6 6 7 7 8 8 9 9 10 10
REMARK H PARENT
REMARK Flexibility Score: inf
ROOT
ATOM      1  C   UNL     1     144.187 140.788 160.983  1.00  0.00     0.039 C 
ATOM      2  C   UNL     1     144.201 140.722 162.480  1.00  0.00    -0.074 C 
ATOM      3  C   UNL     1     145.002 139.840 163.145  1.00  0.00    -0.027 C 
ATOM      4  C   UNL     1     144.989 139.845 164.688  1.00  0.00     0.031 C 
ATOM      5  C   UNL     1     143.960 140.905 165.213  1.00  0.00    -0.000 C 
ATOM      6  C   UNL     1     142.677 140.688 164.386  1.00  0.00     0.013 C 
ATOM      7  C   UNL     1     143.306 141.628 163.339  1.00  0.00     0.021 C 
ATOM      8  C   UNL     1     144.154 142.259 164.475  1.00  0.00    -0.026 C 
ATOM      9  C   UNL     1     143.415 143.422 165.184  1.00  0.00     0.012 C 
ATOM     10  C   UNL     1     145.599 142.728 164.146  1.00  0.00     0.012 C 
ENDROOT
TORSDOF 0
ENDMDL
MODEL 4
REMARK VINA RESULT:    -5.053      4.558      6.364
REMARK INTER + INTRA:          -5.053
REMARK INTER:                  -5.053
REMARK INTRA:                   0.000
REMARK UNBOUND:                 0.000
REMARK SMILES CC1=CC[C@@H]2C[C@H]1C2(C)C
REMARK SMILES IDX 1 1 2 2 3 3 4 4 5 5 6 6 7 7 8 8 9 9 10 10
REMARK H PARENT
REMARK Flexibility Score: inf
ROOT
ATOM      1  C   UNL     1     146.564 149.984 160.984  1.00  0.00     0.039 C 
ATOM      2  C   UNL     1     146.555 150.042 162.481  1.00  0.00    -0.074 C 
ATOM      3  C   UNL     1     145.753 150.918 163.154  1.00  0.00    -0.027 C 
ATOM      4  C   UNL     1     145.771 150.906 164.697  1.00  0.00     0.031 C 
ATOM      5  C   UNL     1     146.806 149.846 165.213  1.00  0.00    -0.000 C 
ATOM      6  C   UNL     1     148.085 150.072 164.383  1.00  0.00     0.013 C 
ATOM      7  C   UNL     1     147.456 149.135 163.333  1.00  0.00     0.021 C 
ATOM      8  C   UNL     1     146.614 148.496 164.469  1.00  0.00    -0.026 C 
ATOM      9  C   UNL     1     147.359 147.332 165.169  1.00  0.00     0.012 C 
ATOM     10  C   UNL     1     145.170 148.024 164.143  1.00  0.00     0.012 C 
ENDROOT
TORSDOF 0
ENDMDL
MODEL 5
REMARK VINA RESULT:    -4.955      6.693      8.689
REMARK INTER + INTRA:          -4.955
REMARK INTER:                  -4.955
REMARK INTRA:                   0.000
REMARK UNBOUND:                 0.000
REMARK SMILES CC1=CC[C@@H]2C[C@H]1C2(C)C
REMARK SMILES IDX 1 1 2 2 3 3 4 4 5 5 6 6 7 7 8 8 9 9 10 10
REMARK H PARENT
REMARK Flexibility Score: inf
ROOT
ATOM      1  C   UNL     1     147.576 146.733 164.881  1.00  0.00     0.039 C 
ATOM      2  C   UNL     1     148.376 145.747 164.085  1.00  0.00    -0.074 C 
ATOM      3  C   UNL     1     148.986 146.105 162.918  1.00  0.00    -0.027 C 
ATOM      4  C   UNL     1     149.819 145.049 162.162  1.00  0.00     0.031 C 
ATOM      5  C   UNL     1     149.758 143.676 162.917  1.00  0.00    -0.000 C 
ATOM      6  C   UNL     1     148.271 143.453 163.259  1.00  0.00     0.013 C 
ATOM      7  C   UNL     1     148.535 144.286 164.529  1.00  0.00     0.021 C 
ATOM      8  C   UNL     1     150.030 143.880 164.433  1.00  0.00    -0.026 C 
ATOM      9  C   UNL     1     150.325 142.543 165.160  1.00  0.00     0.012 C 
ATOM     10  C   UNL     1     151.106 144.916 164.864  1.00  0.00     0.012 C 
ENDROOT
TORSDOF 0
ENDMDL
MODEL 6
REMARK VINA RESULT:    -4.954      5.110      6.799
REMARK INTER + INTRA:          -4.954
REMARK INTER:                  -4.954
REMARK INTRA:                   0.000
REMARK UNBOUND:                 0.000
REMARK SMILES CC1=CC[C@@H]2C[C@H]1C2(C)C
REMARK SMILES IDX 1 1 2 2 3 3 4 4 5 5 6 6 7 7 8 8 9 9 10 10
REMARK H PARENT
REMARK Flexibility Score: inf
ROOT
ATOM      1  C   UNL     1     146.574 143.321 164.918  1.00  0.00     0.039 C 
ATOM      2  C   UNL     1     145.665 142.434 164.123  1.00  0.00    -0.074 C 
ATOM      3  C   UNL     1     146.105 141.780 163.008  1.00  0.00    -0.027 C 
ATOM      4  C   UNL     1     145.125 140.860 162.252  1.00  0.00     0.031 C 
ATOM      5  C   UNL     1     143.716 140.896 162.939  1.00  0.00    -0.000 C 
ATOM      6  C   UNL     1     143.411 142.386 163.188  1.00  0.00     0.013 C 
ATOM      7  C   UNL     1     144.192 142.229 164.507  1.00  0.00     0.021 C 
ATOM      8  C   UNL     1     143.859 140.714 164.476  1.00  0.00    -0.026 C 
ATOM      9  C   UNL     1     142.503 140.395 165.156  1.00  0.00     0.012 C 
ATOM     10  C   UNL     1     144.920 139.713 165.012  1.00  0.00     0.012 C 
ENDROOT
TORSDOF 0
ENDMDL
MODEL 7
REMARK VINA RESULT:    -4.939      4.056      6.110
REMARK INTER + INTRA:          -4.939
REMARK INTER:                  -4.939
REMARK INTRA:                   0.000
REMARK UNBOUND:                 0.000
REMARK SMILES CC1=CC[C@@H]2C[C@H]1C2(C)C
REMARK SMILES IDX 1 1 2 2 3 3 4 4 5 5 6 6 7 7 8 8 9 9 10 10
REMARK H PARENT
REMARK Flexibility Score: inf
ROOT
ATOM      1  C   UNL     1     143.924 147.676 164.815  1.00  0.00     0.039 C 
ATOM      2  C   UNL     1     144.951 148.432 164.028  1.00  0.00    -0.074 C 
ATOM      3  C   UNL     1     144.636 149.044 162.850  1.00  0.00    -0.027 C 
ATOM      4  C   UNL     1     145.734 149.830 162.104  1.00  0.00     0.031 C 
ATOM      5  C   UNL     1     147.091 149.726 162.883  1.00  0.00    -0.000 C 
ATOM      6  C   UNL     1     147.254 148.235 163.241  1.00  0.00     0.013 C 
ATOM      7  C   UNL     1     146.410 148.541 164.495  1.00  0.00     0.021 C 
ATOM      8  C   UNL     1     146.873 150.019 164.393  1.00  0.00    -0.026 C 
ATOM      9  C   UNL     1     148.207 150.271 165.139  1.00  0.00     0.012 C 
ATOM     10  C   UNL     1     145.870 151.136 164.798  1.00  0.00     0.012 C 
ENDROOT
TORSDOF 0
ENDMDL
MODEL 8
REMARK VINA RESULT:    -4.927      0.994      2.888
REMARK INTER + INTRA:          -4.927
REMARK INTER:                  -4.927
REMARK INTRA:                   0.000
REMARK UNBOUND:                 0.000
REMARK SMILES CC1=CC[C@@H]2C[C@H]1C2(C)C
REMARK SMILES IDX 1 1 2 2 3 3 4 4 5 5 6 6 7 7 8 8 9 9 10 10
REMARK H PARENT
REMARK Flexibility Score: inf
ROOT
ATOM      1  C   UNL     1     143.206 143.947 164.874  1.00  0.00     0.039 C 
ATOM      2  C   UNL     1     142.413 144.947 164.089  1.00  0.00    -0.074 C 
ATOM      3  C   UNL     1     141.807 144.608 162.914  1.00  0.00    -0.027 C 
ATOM      4  C   UNL     1     140.981 145.678 162.170  1.00  0.00     0.031 C 
ATOM      5  C   UNL     1     141.043 147.040 162.946  1.00  0.00    -0.000 C 
ATOM      6  C   UNL     1     142.529 147.252 163.297  1.00  0.00     0.013 C 
ATOM      7  C   UNL     1     142.257 146.402 164.553  1.00  0.00     0.021 C 
ATOM      8  C   UNL     1     140.764 146.814 164.457  1.00  0.00    -0.026 C 
ATOM      9  C   UNL     1     140.471 148.141 165.202  1.00  0.00     0.012 C 
ATOM     10  C   UNL     1     139.683 145.776 164.869  1.00  0.00     0.012 C 
ENDROOT
TORSDOF 0
ENDMDL
MODEL 9
REMARK VINA RESULT:    -4.720      4.598      6.332
REMARK INTER + INTRA:          -4.720
REMARK INTER:                  -4.720
REMARK INTRA:                   0.000
REMARK UNBOUND:                 0.000
REMARK SMILES CC1=CC[C@@H]2C[C@H]1C2(C)C
REMARK SMILES IDX 1 1 2 2 3 3 4 4 5 5 6 6 7 7 8 8 9 9 10 10
REMARK H PARENT
REMARK Flexibility Score: inf
ROOT
ATOM      1  C   UNL     1     143.231 140.775 160.608  1.00  0.00     0.039 C 
ATOM      2  C   UNL     1     143.693 141.384 161.897  1.00  0.00    -0.074 C 
ATOM      3  C   UNL     1     143.231 142.597 162.317  1.00  0.00    -0.027 C 
ATOM      4  C   UNL     1     143.726 143.153 163.668  1.00  0.00     0.031 C 
ATOM      5  C   UNL     1     144.760 142.164 164.309  1.00  0.00    -0.000 C 
ATOM      6  C   UNL     1     145.734 141.785 163.175  1.00  0.00     0.013 C 
ATOM      7  C   UNL     1     144.721 140.686 162.800  1.00  0.00     0.021 C 
ATOM      8  C   UNL     1     144.215 140.710 164.267  1.00  0.00    -0.026 C 
ATOM      9  C   UNL     1     145.023 139.756 165.183  1.00  0.00     0.012 C 
ATOM     10  C   UNL     1     142.702 140.473 164.531  1.00  0.00     0.012 C 
ENDROOT
TORSDOF 0
ENDMDL
