MODEL 1
REMARK VINA RESULT:    -3.370      0.000      0.000
REMARK INTER + INTRA:          -5.475
REMARK INTER:                  -5.143
REMARK INTRA:                  -0.332
REMARK UNBOUND:                -0.332
REMARK SMILES CC1=CCC[C@@H](C)C(=O)C[C@H](C(C)C)C(=O)C1
REMARK SMILES IDX 8 1 9 2 6 3 7 4 5 5 4 6 3 7 2 8 1 9 10 11 11 12 15 13 16 14
REMARK SMILES IDX 17 15 12 17 13 18 14 19
REMARK H PARENT
REMARK Flexibility Score: 70.00
ROOT
ATOM      1  C   UNL     1     -28.371  21.700  25.427  1.00  0.00     0.136 C 
ATOM      2  O   UNL     1     -28.370  22.894  25.690  1.00  0.00    -0.299 OA
ENDROOT
BRANCH   1   3
ATOM      3  C   UNL     1     -28.313  21.251  23.984  1.00  0.00     0.053 C 
ATOM      4  C   UNL     1     -27.282  22.084  23.214  1.00  0.00     0.016 C 
BRANCH   3   5
ATOM      5  C   UNL     1     -29.697  21.337  23.310  1.00  0.00     0.015 C 
BRANCH   5   6
ATOM      6  C   UNL     1     -30.280  19.952  22.958  1.00  0.00     0.028 C 
BRANCH   6   7
ATOM      7  C   UNL     1     -31.526  19.655  23.762  1.00  0.00    -0.028 C 
ATOM      8  C   UNL     1     -31.619  18.913  24.892  1.00  0.00    -0.070 CG0
ATOM      9  C   UNL     1     -32.997  18.710  25.474  1.00  0.00     0.039 C 
ATOM     10  G   UNL     1     -30.441  18.285  25.616  1.00  0.00     0.000 G0
ENDBRANCH   6   7
ENDBRANCH   5   6
ENDBRANCH   3   5
ENDBRANCH   1   3
BRANCH   1  11
ATOM     11  C   UNL     1     -28.348  20.672  26.534  1.00  0.00     0.087 C 
BRANCH  11  12
ATOM     12  C   UNL     1     -29.748  20.365  27.125  1.00  0.00     0.066 C 
BRANCH  12  13
ATOM     13  C   UNL     1     -30.175  18.912  26.965  1.00  0.00     0.140 C 
ATOM     14  O   UNL     1     -30.231  18.218  27.970  1.00  0.00    -0.299 OA
BRANCH  13  15
ATOM     15  C   UNL     1     -30.447  18.264  25.624  1.00  0.00     0.106 CG0
ATOM     16  G   UNL     1     -31.618  18.928  24.920  1.00  0.00     0.000 G0
ENDBRANCH  13  15
ENDBRANCH  12  13
BRANCH  12  17
ATOM     17  C   UNL     1     -29.935  20.842  28.599  1.00  0.00    -0.006 C 
ATOM     18  C   UNL     1     -31.046  21.898  28.726  1.00  0.00     0.008 C 
ATOM     19  C   UNL     1     -28.645  21.354  29.261  1.00  0.00     0.008 C 
ENDBRANCH  12  17
ENDBRANCH  11  12
ENDBRANCH   1  11
TORSDOF 1
ENDMDL
MODEL 2
REMARK VINA RESULT:    -3.166      4.143      7.220
REMARK INTER + INTRA:          -5.164
REMARK INTER:                  -5.090
REMARK INTRA:                  -0.074
REMARK UNBOUND:                -0.332
REMARK SMILES CC1=CCC[C@@H](C)C(=O)C[C@H](C(C)C)C(=O)C1
REMARK SMILES IDX 8 1 9 2 6 3 7 4 5 5 4 6 3 7 2 8 1 9 10 11 11 12 15 13 16 14
REMARK SMILES IDX 17 15 12 17 13 18 14 19
REMARK H PARENT
REMARK Flexibility Score: 70.00
ROOT
ATOM      1  C   UNL     1     -31.820  23.999  29.915  1.00  0.00     0.136 C 
ATOM      2  O   UNL     1     -31.197  24.980  29.533  1.00  0.00    -0.299 OA
ENDROOT
BRANCH   1   3
ATOM      3  C   UNL     1     -32.952  24.168  30.902  1.00  0.00     0.053 C 
ATOM      4  C   UNL     1     -33.894  25.285  30.437  1.00  0.00     0.016 C 
BRANCH   3   5
ATOM      5  C   UNL     1     -32.426  24.454  32.322  1.00  0.00     0.015 C 
BRANCH   5   6
ATOM      6  C   UNL     1     -32.419  23.201  33.223  1.00  0.00     0.028 C 
BRANCH   6   7
ATOM      7  C   UNL     1     -31.012  22.800  33.604  1.00  0.00    -0.028 C 
ATOM      8  C   UNL     1     -30.230  21.869  33.005  1.00  0.00    -0.070 CG0
ATOM      9  C   UNL     1     -28.876  21.604  33.618  1.00  0.00     0.039 C 
ATOM     10  G   UNL     1     -30.614  21.085  31.762  1.00  0.00     0.000 G0
ENDBRANCH   6   7
ENDBRANCH   5   6
ENDBRANCH   3   5
ENDBRANCH   1   3
BRANCH   1  11
ATOM     11  C   UNL     1     -31.517  22.632  29.347  1.00  0.00     0.087 C 
BRANCH  11  12
ATOM     12  C   UNL     1     -30.014  22.255  29.404  1.00  0.00     0.066 C 
BRANCH  12  13
ATOM     13  C   UNL     1     -29.645  21.384  30.597  1.00  0.00     0.140 C 
ATOM     14  O   UNL     1     -28.551  20.839  30.592  1.00  0.00    -0.299 OA
BRANCH  13  15
ATOM     15  C   UNL     1     -30.592  21.088  31.741  1.00  0.00     0.106 CG0
ATOM     16  G   UNL     1     -30.210  21.870  32.986  1.00  0.00     0.000 G0
ENDBRANCH  13  15
ENDBRANCH  12  13
BRANCH  12  17
ATOM     17  C   UNL     1     -29.459  21.649  28.078  1.00  0.00    -0.006 C 
ATOM     18  C   UNL     1     -29.297  22.713  26.980  1.00  0.00     0.008 C 
ATOM     19  C   UNL     1     -30.275  20.461  27.542  1.00  0.00     0.008 C 
ENDBRANCH  12  17
ENDBRANCH  11  12
ENDBRANCH   1  11
TORSDOF 1
ENDMDL
MODEL 3
REMARK VINA RESULT:    -3.040      1.680      2.752
REMARK INTER + INTRA:          -4.972
REMARK INTER:                  -4.603
REMARK INTRA:                  -0.369
REMARK UNBOUND:                -0.332
REMARK SMILES CC1=CCC[C@@H](C)C(=O)C[C@H](C(C)C)C(=O)C1
REMARK SMILES IDX 8 1 9 2 6 3 7 4 5 5 4 6 3 7 2 8 1 9 10 11 11 12 15 13 16 14
REMARK SMILES IDX 17 15 12 17 13 18 14 19
REMARK H PARENT
REMARK Flexibility Score: 70.00
ROOT
ATOM      1  C   UNL     1     -29.563  20.248  23.918  1.00  0.00     0.136 C 
ATOM      2  O   UNL     1     -29.553  21.272  23.247  1.00  0.00    -0.299 OA
ENDROOT
BRANCH   1   3
ATOM      3  C   UNL     1     -30.570  19.163  23.612  1.00  0.00     0.053 C 
ATOM      4  C   UNL     1     -30.507  18.790  22.125  1.00  0.00     0.016 C 
BRANCH   3   5
ATOM      5  C   UNL     1     -31.997  19.588  24.008  1.00  0.00     0.015 C 
BRANCH   5   6
ATOM      6  C   UNL     1     -32.363  19.186  25.452  1.00  0.00     0.028 C 
BRANCH   6   7
ATOM      7  C   UNL     1     -31.818  17.820  25.803  1.00  0.00    -0.028 C 
ATOM      8  C   UNL     1     -30.947  17.511  26.794  1.00  0.00    -0.070 CG0
ATOM      9  C   UNL     1     -30.504  16.071  26.900  1.00  0.00     0.039 C 
ATOM     10  G   UNL     1     -30.398  18.501  27.806  1.00  0.00     0.000 G0
ENDBRANCH   6   7
ENDBRANCH   5   6
ENDBRANCH   3   5
ENDBRANCH   1   3
BRANCH   1  11
ATOM     11  C   UNL     1     -28.525  20.029  24.994  1.00  0.00     0.087 C 
BRANCH  11  12
ATOM     12  C   UNL     1     -29.038  20.345  26.423  1.00  0.00     0.066 C 
BRANCH  12  13
ATOM     13  C   UNL     1     -29.089  19.129  27.338  1.00  0.00     0.140 C 
ATOM     14  O   UNL     1     -28.031  18.600  27.647  1.00  0.00    -0.299 OA
BRANCH  13  15
ATOM     15  C   UNL     1     -30.378  18.492  27.811  1.00  0.00     0.106 CG0
ATOM     16  G   UNL     1     -30.921  17.520  26.777  1.00  0.00     0.000 G0
ENDBRANCH  13  15
ENDBRANCH  12  13
BRANCH  12  17
ATOM     17  C   UNL     1     -28.300  21.533  27.115  1.00  0.00    -0.006 C 
ATOM     18  C   UNL     1     -28.859  21.820  28.518  1.00  0.00     0.008 C 
ATOM     19  C   UNL     1     -28.278  22.826  26.283  1.00  0.00     0.008 C 
ENDBRANCH  12  17
ENDBRANCH  11  12
ENDBRANCH   1  11
TORSDOF 1
ENDMDL
MODEL 4
REMARK VINA RESULT:    -3.030      2.733      4.821
REMARK INTER + INTRA:          -4.957
REMARK INTER:                  -4.626
REMARK INTRA:                  -0.331
REMARK UNBOUND:                -0.332
REMARK SMILES CC1=CCC[C@@H](C)C(=O)C[C@H](C(C)C)C(=O)C1
REMARK SMILES IDX 8 1 9 2 6 3 7 4 5 5 4 6 3 7 2 8 1 9 10 11 11 12 15 13 16 14
REMARK SMILES IDX 17 15 12 17 13 18 14 19
REMARK H PARENT
REMARK Flexibility Score: 70.00
ROOT
ATOM      1  C   UNL     1     -31.919  19.246  24.094  1.00  0.00     0.136 C 
ATOM      2  O   UNL     1     -32.721  20.126  24.375  1.00  0.00    -0.299 OA
ENDROOT
BRANCH   1   3
ATOM      3  C   UNL     1     -32.154  17.834  24.584  1.00  0.00     0.053 C 
ATOM      4  C   UNL     1     -33.620  17.441  24.371  1.00  0.00     0.016 C 
BRANCH   3   5
ATOM      5  C   UNL     1     -31.756  17.677  26.064  1.00  0.00     0.015 C 
BRANCH   5   6
ATOM      6  C   UNL     1     -30.499  16.803  26.258  1.00  0.00     0.028 C 
BRANCH   6   7
ATOM      7  C   UNL     1     -30.185  16.001  25.015  1.00  0.00    -0.028 C 
ATOM      8  C   UNL     1     -29.170  16.203  24.140  1.00  0.00    -0.070 CG0
ATOM      9  C   UNL     1     -29.107  15.299  22.933  1.00  0.00     0.039 C 
ATOM     10  G   UNL     1     -28.092  17.263  24.292  1.00  0.00     0.000 G0
ENDBRANCH   6   7
ENDBRANCH   5   6
ENDBRANCH   3   5
ENDBRANCH   1   3
BRANCH   1  11
ATOM     11  C   UNL     1     -30.741  19.542  23.196  1.00  0.00     0.087 C 
BRANCH  11  12
ATOM     12  C   UNL     1     -29.383  19.575  23.944  1.00  0.00     0.066 C 
BRANCH  12  13
ATOM     13  C   UNL     1     -28.401  18.510  23.477  1.00  0.00     0.140 C 
ATOM     14  O   UNL     1     -27.905  18.635  22.366  1.00  0.00    -0.299 OA
BRANCH  13  15
ATOM     15  C   UNL     1     -28.074  17.266  24.275  1.00  0.00     0.106 CG0
ATOM     16  G   UNL     1     -29.175  16.226  24.146  1.00  0.00     0.000 G0
ENDBRANCH  13  15
ENDBRANCH  12  13
BRANCH  12  17
ATOM     17  C   UNL     1     -28.708  20.981  23.976  1.00  0.00    -0.006 C 
ATOM     18  C   UNL     1     -28.920  21.693  25.323  1.00  0.00     0.008 C 
ATOM     19  C   UNL     1     -29.129  21.905  22.821  1.00  0.00     0.008 C 
ENDBRANCH  12  17
ENDBRANCH  11  12
ENDBRANCH   1  11
TORSDOF 1
ENDMDL
MODEL 5
REMARK VINA RESULT:    -2.999      3.116      6.251
REMARK INTER + INTRA:          -4.910
REMARK INTER:                  -4.804
REMARK INTRA:                  -0.105
REMARK UNBOUND:                -0.332
REMARK SMILES CC1=CCC[C@@H](C)C(=O)C[C@H](C(C)C)C(=O)C1
REMARK SMILES IDX 8 1 9 2 6 3 7 4 5 5 4 6 3 7 2 8 1 9 10 11 11 12 15 13 16 14
REMARK SMILES IDX 17 15 12 17 13 18 14 19
REMARK H PARENT
REMARK Flexibility Score: 70.00
ROOT
ATOM      1  C   UNL     1     -32.612  16.303  24.137  1.00  0.00     0.136 C 
ATOM      2  O   UNL     1     -33.389  15.447  23.735  1.00  0.00    -0.299 OA
ENDROOT
BRANCH   1   3
ATOM      3  C   UNL     1     -33.084  17.335  25.136  1.00  0.00     0.053 C 
ATOM      4  C   UNL     1     -33.919  16.662  26.232  1.00  0.00     0.016 C 
BRANCH   3   5
ATOM      5  C   UNL     1     -33.887  18.458  24.451  1.00  0.00     0.015 C 
BRANCH   5   6
ATOM      6  C   UNL     1     -33.216  19.841  24.584  1.00  0.00     0.028 C 
BRANCH   6   7
ATOM      7  C   UNL     1     -31.865  19.740  25.256  1.00  0.00    -0.028 C 
ATOM      8  C   UNL     1     -30.656  19.614  24.657  1.00  0.00    -0.070 CG0
ATOM      9  C   UNL     1     -29.452  19.467  25.555  1.00  0.00     0.039 C 
ATOM     10  G   UNL     1     -30.427  19.622  23.155  1.00  0.00     0.000 G0
ENDBRANCH   6   7
ENDBRANCH   5   6
ENDBRANCH   3   5
ENDBRANCH   1   3
BRANCH   1  11
ATOM     11  C   UNL     1     -31.165  16.286  23.702  1.00  0.00     0.087 C 
BRANCH  11  12
ATOM     12  C   UNL     1     -30.894  17.106  22.414  1.00  0.00     0.066 C 
BRANCH  12  13
ATOM     13  C   UNL     1     -29.970  18.297  22.628  1.00  0.00     0.140 C 
ATOM     14  O   UNL     1     -28.774  18.137  22.428  1.00  0.00    -0.299 OA
BRANCH  13  15
ATOM     15  C   UNL     1     -30.440  19.635  23.156  1.00  0.00     0.106 CG0
ATOM     16  G   UNL     1     -30.648  19.589  24.660  1.00  0.00     0.000 G0
ENDBRANCH  13  15
ENDBRANCH  12  13
BRANCH  12  17
ATOM     17  C   UNL     1     -30.424  16.245  21.200  1.00  0.00    -0.006 C 
ATOM     18  C   UNL     1     -30.642  16.969  19.861  1.00  0.00     0.008 C 
ATOM     19  C   UNL     1     -31.049  14.842  21.147  1.00  0.00     0.008 C 
ENDBRANCH  12  17
ENDBRANCH  11  12
ENDBRANCH   1  11
TORSDOF 1
ENDMDL
MODEL 6
REMARK VINA RESULT:    -2.995      1.726      3.791
REMARK INTER + INTRA:          -4.903
REMARK INTER:                  -4.926
REMARK INTRA:                   0.022
REMARK UNBOUND:                -0.332
REMARK SMILES CC1=CCC[C@@H](C)C(=O)C[C@H](C(C)C)C(=O)C1
REMARK SMILES IDX 8 1 9 2 6 3 7 4 5 5 4 6 3 7 2 8 1 9 10 11 11 12 15 13 16 14
REMARK SMILES IDX 17 15 12 17 13 18 14 19
REMARK H PARENT
REMARK Flexibility Score: 70.00
ROOT
ATOM      1  C   UNL     1     -31.421  19.202  26.113  1.00  0.00     0.136 C 
ATOM      2  O   UNL     1     -31.067  18.174  26.674  1.00  0.00    -0.299 OA
ENDROOT
BRANCH   1   3
ATOM      3  C   UNL     1     -32.435  19.134  24.993  1.00  0.00     0.053 C 
ATOM      4  C   UNL     1     -33.507  18.087  25.317  1.00  0.00     0.016 C 
BRANCH   3   5
ATOM      5  C   UNL     1     -31.762  18.825  23.641  1.00  0.00     0.015 C 
BRANCH   5   6
ATOM      6  C   UNL     1     -30.816  19.950  23.171  1.00  0.00     0.028 C 
BRANCH   6   7
ATOM      7  C   UNL     1     -29.383  19.473  23.094  1.00  0.00    -0.028 C 
ATOM      8  C   UNL     1     -28.325  19.926  23.810  1.00  0.00    -0.070 CG0
ATOM      9  C   UNL     1     -26.974  19.328  23.501  1.00  0.00     0.039 C 
ATOM     10  G   UNL     1     -28.405  20.979  24.902  1.00  0.00     0.000 G0
ENDBRANCH   6   7
ENDBRANCH   5   6
ENDBRANCH   3   5
ENDBRANCH   1   3
BRANCH   1  11
ATOM     11  C   UNL     1     -30.914  20.545  26.585  1.00  0.00     0.087 C 
BRANCH  11  12
ATOM     12  C   UNL     1     -29.524  20.477  27.270  1.00  0.00     0.066 C 
BRANCH  12  13
ATOM     13  C   UNL     1     -28.362  20.391  26.291  1.00  0.00     0.140 C 
ATOM     14  O   UNL     1     -27.328  19.864  26.674  1.00  0.00    -0.299 OA
BRANCH  13  15
ATOM     15  C   UNL     1     -28.390  20.999  24.905  1.00  0.00     0.106 CG0
ATOM     16  G   UNL     1     -28.331  19.925  23.833  1.00  0.00     0.000 G0
ENDBRANCH  13  15
ENDBRANCH  12  13
BRANCH  12  17
ATOM     17  C   UNL     1     -29.281  21.598  28.328  1.00  0.00    -0.006 C 
ATOM     18  C   UNL     1     -28.932  21.020  29.710  1.00  0.00     0.008 C 
ATOM     19  C   UNL     1     -30.440  22.601  28.455  1.00  0.00     0.008 C 
ENDBRANCH  12  17
ENDBRANCH  11  12
ENDBRANCH   1  11
TORSDOF 1
ENDMDL
MODEL 7
REMARK VINA RESULT:    -2.977      2.836      4.546
REMARK INTER + INTRA:          -4.875
REMARK INTER:                  -4.506
REMARK INTRA:                  -0.369
REMARK UNBOUND:                -0.332
REMARK SMILES CC1=CCC[C@@H](C)C(=O)C[C@H](C(C)C)C(=O)C1
REMARK SMILES IDX 8 1 9 2 6 3 7 4 5 5 4 6 3 7 2 8 1 9 10 11 11 12 15 13 16 14
REMARK SMILES IDX 17 15 12 17 13 18 14 19
REMARK H PARENT
REMARK Flexibility Score: 70.00
ROOT
ATOM      1  C   UNL     1     -32.210  19.687  24.606  1.00  0.00     0.136 C 
ATOM      2  O   UNL     1     -33.305  20.126  24.282  1.00  0.00    -0.299 OA
ENDROOT
BRANCH   1   3
ATOM      3  C   UNL     1     -30.966  20.189  23.908  1.00  0.00     0.053 C 
ATOM      4  C   UNL     1     -30.615  19.270  22.731  1.00  0.00     0.016 C 
BRANCH   3   5
ATOM      5  C   UNL     1     -29.778  20.303  24.884  1.00  0.00     0.015 C 
BRANCH   5   6
ATOM      6  C   UNL     1     -28.636  19.319  24.557  1.00  0.00     0.028 C 
BRANCH   6   7
ATOM      7  C   UNL     1     -28.112  18.643  25.803  1.00  0.00    -0.028 C 
ATOM      8  C   UNL     1     -28.426  17.408  26.265  1.00  0.00    -0.070 CG0
ATOM      9  C   UNL     1     -27.814  16.984  27.578  1.00  0.00     0.039 C 
ATOM     10  G   UNL     1     -29.338  16.423  25.553  1.00  0.00     0.000 G0
ENDBRANCH   6   7
ENDBRANCH   5   6
ENDBRANCH   3   5
ENDBRANCH   1   3
BRANCH   1  11
ATOM     11  C   UNL     1     -32.085  18.709  25.750  1.00  0.00     0.087 C 
BRANCH  11  12
ATOM     12  C   UNL     1     -31.884  17.241  25.293  1.00  0.00     0.066 C 
BRANCH  12  13
ATOM     13  C   UNL     1     -30.781  16.511  26.046  1.00  0.00     0.140 C 
ATOM     14  O   UNL     1     -31.048  16.046  27.145  1.00  0.00    -0.299 OA
BRANCH  13  15
ATOM     15  C   UNL     1     -29.355  16.407  25.547  1.00  0.00     0.106 CG0
ATOM     16  G   UNL     1     -28.452  17.403  26.254  1.00  0.00     0.000 G0
ENDBRANCH  13  15
ENDBRANCH  12  13
BRANCH  12  17
ATOM     17  C   UNL     1     -33.196  16.396  25.270  1.00  0.00    -0.006 C 
ATOM     18  C   UNL     1     -33.804  16.316  23.860  1.00  0.00     0.008 C 
ATOM     19  C   UNL     1     -34.261  16.864  26.276  1.00  0.00     0.008 C 
ENDBRANCH  12  17
ENDBRANCH  11  12
ENDBRANCH   1  11
TORSDOF 1
ENDMDL
MODEL 8
REMARK VINA RESULT:    -2.915      3.089      5.106
REMARK INTER + INTRA:          -4.781
REMARK INTER:                  -4.660
REMARK INTRA:                  -0.121
REMARK UNBOUND:                -0.332
REMARK SMILES CC1=CCC[C@@H](C)C(=O)C[C@H](C(C)C)C(=O)C1
REMARK SMILES IDX 8 1 9 2 6 3 7 4 5 5 4 6 3 7 2 8 1 9 10 11 11 12 15 13 16 14
REMARK SMILES IDX 17 15 12 17 13 18 14 19
REMARK H PARENT
REMARK Flexibility Score: 70.00
ROOT
ATOM      1  C   UNL     1     -29.583  18.945  22.964  1.00  0.00     0.136 C 
ATOM      2  O   UNL     1     -28.388  18.757  23.147  1.00  0.00    -0.299 OA
ENDROOT
BRANCH   1   3
ATOM      3  C   UNL     1     -30.193  20.284  23.316  1.00  0.00     0.053 C 
ATOM      4  C   UNL     1     -29.091  21.337  23.481  1.00  0.00     0.016 C 
BRANCH   3   5
ATOM      5  C   UNL     1     -31.058  20.194  24.588  1.00  0.00     0.015 C 
BRANCH   5   6
ATOM      6  C   UNL     1     -32.507  19.751  24.298  1.00  0.00     0.028 C 
BRANCH   6   7
ATOM      7  C   UNL     1     -32.958  18.669  25.253  1.00  0.00    -0.028 C 
ATOM      8  C   UNL     1     -33.131  17.352  24.983  1.00  0.00    -0.070 CG0
ATOM      9  C   UNL     1     -33.655  16.481  26.099  1.00  0.00     0.039 C 
ATOM     10  G   UNL     1     -32.828  16.694  23.648  1.00  0.00     0.000 G0
ENDBRANCH   6   7
ENDBRANCH   5   6
ENDBRANCH   3   5
ENDBRANCH   1   3
BRANCH   1  11
ATOM     11  C   UNL     1     -30.435  17.879  22.317  1.00  0.00     0.087 C 
BRANCH  11  12
ATOM     12  C   UNL     1     -30.255  16.473  22.947  1.00  0.00     0.066 C 
BRANCH  12  13
ATOM     13  C   UNL     1     -31.496  15.960  23.664  1.00  0.00     0.140 C 
ATOM     14  O   UNL     1     -31.425  14.878  24.229  1.00  0.00    -0.299 OA
BRANCH  13  15
ATOM     15  C   UNL     1     -32.831  16.674  23.639  1.00  0.00     0.106 CG0
ATOM     16  G   UNL     1     -33.126  17.332  24.976  1.00  0.00     0.000 G0
ENDBRANCH  13  15
ENDBRANCH  12  13
BRANCH  12  17
ATOM     17  C   UNL     1     -29.697  15.401  21.961  1.00  0.00    -0.006 C 
ATOM     18  C   UNL     1     -28.211  15.098  22.219  1.00  0.00     0.008 C 
ATOM     19  C   UNL     1     -29.914  15.740  20.477  1.00  0.00     0.008 C 
ENDBRANCH  12  17
ENDBRANCH  11  12
ENDBRANCH   1  11
TORSDOF 1
ENDMDL
MODEL 9
REMARK VINA RESULT:    -2.797      2.894      4.915
REMARK INTER + INTRA:          -4.601
REMARK INTER:                  -4.298
REMARK INTRA:                  -0.303
REMARK UNBOUND:                -0.332
REMARK SMILES CC1=CCC[C@@H](C)C(=O)C[C@H](C(C)C)C(=O)C1
REMARK SMILES IDX 8 1 9 2 6 3 7 4 5 5 4 6 3 7 2 8 1 9 10 11 11 12 15 13 16 14
REMARK SMILES IDX 17 15 12 17 13 18 14 19
REMARK H PARENT
REMARK Flexibility Score: 70.00
ROOT
ATOM      1  C   UNL     1     -30.366  17.342  22.504  1.00  0.00     0.136 C 
ATOM      2  O   UNL     1     -30.645  16.334  23.139  1.00  0.00    -0.299 OA
ENDROOT
BRANCH   1   3
ATOM      3  C   UNL     1     -29.556  17.226  21.233  1.00  0.00     0.053 C 
ATOM      4  C   UNL     1     -30.158  16.149  20.322  1.00  0.00     0.016 C 
BRANCH   3   5
ATOM      5  C   UNL     1     -28.075  16.921  21.532  1.00  0.00     0.015 C 
BRANCH   5   6
ATOM      6  C   UNL     1     -27.284  18.170  21.977  1.00  0.00     0.028 C 
BRANCH   6   7
ATOM      7  C   UNL     1     -26.994  18.143  23.460  1.00  0.00    -0.028 C 
ATOM      8  C   UNL     1     -27.472  18.985  24.408  1.00  0.00    -0.070 CG0
ATOM      9  C   UNL     1     -26.978  18.788  25.821  1.00  0.00     0.039 C 
ATOM     10  G   UNL     1     -28.472  20.100  24.152  1.00  0.00     0.000 G0
ENDBRANCH   6   7
ENDBRANCH   5   6
ENDBRANCH   3   5
ENDBRANCH   1   3
BRANCH   1  11
ATOM     11  C   UNL     1     -30.892  18.690  22.939  1.00  0.00     0.087 C 
BRANCH  11  12
ATOM     12  C   UNL     1     -30.849  18.907  24.474  1.00  0.00     0.066 C 
BRANCH  12  13
ATOM     13  C   UNL     1     -29.761  19.873  24.925  1.00  0.00     0.140 C 
ATOM     14  O   UNL     1     -29.972  20.547  25.923  1.00  0.00    -0.299 OA
BRANCH  13  15
ATOM     15  C   UNL     1     -28.477  20.103  24.158  1.00  0.00     0.106 CG0
ATOM     16  G   UNL     1     -27.482  18.982  24.404  1.00  0.00     0.000 G0
ENDBRANCH  13  15
ENDBRANCH  12  13
BRANCH  12  17
ATOM     17  C   UNL     1     -32.226  19.286  25.101  1.00  0.00    -0.006 C 
ATOM     18  C   UNL     1     -32.932  18.068  25.720  1.00  0.00     0.008 C 
ATOM     19  C   UNL     1     -33.178  20.010  24.135  1.00  0.00     0.008 C 
ENDBRANCH  12  17
ENDBRANCH  11  12
ENDBRANCH   1  11
TORSDOF 1
ENDMDL
