MODEL 1
REMARK VINA RESULT:    -2.616      0.000      0.000
REMARK INTER + INTRA:          -2.986
REMARK INTER:                  -2.922
REMARK INTRA:                  -0.064
REMARK UNBOUND:                -0.064
REMARK SMILES CCCC(=O)[O-]
REMARK SMILES IDX 3 1 4 2 5 3 6 4 2 5 1 6
REMARK H PARENT
REMARK Flexibility Score: inf
ROOT
ATOM      1  C   UNL     1       1.586   3.253 -11.025  1.00  0.00     0.052 C 
ENDROOT
BRANCH   1   2
ATOM      2  C   UNL     1       0.641   4.257 -11.605  1.00  0.00     0.041 C 
ATOM      3  O   UNL     1       1.029   5.432 -11.840  1.00  0.00    -0.550 OA
ATOM      4  O   UNL     1      -0.657   3.884 -11.931  1.00  0.00    -0.550 OA
ENDBRANCH   1   2
BRANCH   1   5
ATOM      5  C   UNL     1       1.477   1.921 -11.772  1.00  0.00     0.003 C 
ATOM      6  C   UNL     1       2.192   1.985 -13.118  1.00  0.00     0.004 C 
ENDBRANCH   1   5
TORSDOF 2
ENDMDL
MODEL 2
REMARK VINA RESULT:    -2.573      2.144      3.116
REMARK INTER + INTRA:          -2.938
REMARK INTER:                  -2.932
REMARK INTRA:                  -0.006
REMARK UNBOUND:                -0.064
REMARK SMILES CCCC(=O)[O-]
REMARK SMILES IDX 3 1 4 2 5 3 6 4 2 5 1 6
REMARK H PARENT
REMARK Flexibility Score: inf
ROOT
ATOM      1  C   UNL     1       0.862   4.944 -11.585  1.00  0.00     0.052 C 
ENDROOT
BRANCH   1   2
ATOM      2  C   UNL     1       1.393   3.679 -10.988  1.00  0.00     0.041 C 
ATOM      3  O   UNL     1       2.187   3.724 -10.011  1.00  0.00    -0.550 OA
ATOM      4  O   UNL     1       0.975   2.449 -11.479  1.00  0.00    -0.550 OA
ENDBRANCH   1   2
BRANCH   1   5
ATOM      5  C   UNL     1       1.966   5.680 -12.350  1.00  0.00     0.003 C 
ATOM      6  C   UNL     1       1.475   7.031 -12.860  1.00  0.00     0.004 C 
ENDBRANCH   1   5
TORSDOF 2
ENDMDL
MODEL 3
REMARK VINA RESULT:    -2.546      1.869      2.305
REMARK INTER + INTRA:          -2.908
REMARK INTER:                  -2.882
REMARK INTRA:                  -0.026
REMARK UNBOUND:                -0.064
REMARK SMILES CCCC(=O)[O-]
REMARK SMILES IDX 3 1 4 2 5 3 6 4 2 5 1 6
REMARK H PARENT
REMARK Flexibility Score: inf
ROOT
ATOM      1  C   UNL     1       0.865   4.863 -11.238  1.00  0.00     0.052 C 
ENDROOT
BRANCH   1   2
ATOM      2  C   UNL     1       1.653   5.597 -12.276  1.00  0.00     0.041 C 
ATOM      3  O   UNL     1       1.240   6.700 -12.723  1.00  0.00    -0.550 OA
ATOM      4  O   UNL     1       2.869   5.089 -12.716  1.00  0.00    -0.550 OA
ENDBRANCH   1   2
BRANCH   1   5
ATOM      5  C   UNL     1       0.177   3.642 -11.853  1.00  0.00     0.003 C 
ATOM      6  C   UNL     1       0.988   2.373 -11.613  1.00  0.00     0.004 C 
ENDBRANCH   1   5
TORSDOF 2
ENDMDL
MODEL 4
REMARK VINA RESULT:    -2.516      2.555      3.030
REMARK INTER + INTRA:          -2.874
REMARK INTER:                  -2.803
REMARK INTRA:                  -0.071
REMARK UNBOUND:                -0.064
REMARK SMILES CCCC(=O)[O-]
REMARK SMILES IDX 3 1 4 2 5 3 6 4 2 5 1 6
REMARK H PARENT
REMARK Flexibility Score: inf
ROOT
ATOM      1  C   UNL     1       2.025   4.809 -11.726  1.00  0.00     0.052 C 
ENDROOT
BRANCH   1   2
ATOM      2  C   UNL     1       2.547   3.626 -10.974  1.00  0.00     0.041 C 
ATOM      3  O   UNL     1       2.547   3.626  -9.714  1.00  0.00    -0.550 OA
ATOM      4  O   UNL     1       2.990   2.503 -11.661  1.00  0.00    -0.550 OA
ENDBRANCH   1   2
BRANCH   1   5
ATOM      5  C   UNL     1       0.549   5.045 -11.395  1.00  0.00     0.003 C 
ATOM      6  C   UNL     1      -0.311   3.869 -11.843  1.00  0.00     0.004 C 
ENDBRANCH   1   5
TORSDOF 2
ENDMDL
MODEL 5
REMARK VINA RESULT:    -2.456     15.315     15.838
REMARK INTER + INTRA:          -2.808
REMARK INTER:                  -2.779
REMARK INTRA:                  -0.029
REMARK UNBOUND:                -0.064
REMARK SMILES CCCC(=O)[O-]
REMARK SMILES IDX 3 1 4 2 5 3 6 4 2 5 1 6
REMARK H PARENT
REMARK Flexibility Score: inf
ROOT
ATOM      1  C   UNL     1       1.590  12.242   0.740  1.00  0.00     0.052 C 
ENDROOT
BRANCH   1   2
ATOM      2  C   UNL     1       1.694  10.959   1.501  1.00  0.00     0.041 C 
ATOM      3  O   UNL     1       0.736  10.141   1.498  1.00  0.00    -0.550 OA
ATOM      4  O   UNL     1       2.866  10.642   2.175  1.00  0.00    -0.550 OA
ENDBRANCH   1   2
BRANCH   1   5
ATOM      5  C   UNL     1       2.983  12.767   0.382  1.00  0.00     0.003 C 
ATOM      6  C   UNL     1       3.125  14.242   0.744  1.00  0.00     0.004 C 
ENDBRANCH   1   5
TORSDOF 2
ENDMDL
MODEL 6
REMARK VINA RESULT:    -2.417     17.777     18.791
REMARK INTER + INTRA:          -2.764
REMARK INTER:                  -2.747
REMARK INTRA:                  -0.017
REMARK UNBOUND:                -0.064
REMARK SMILES CCCC(=O)[O-]
REMARK SMILES IDX 3 1 4 2 5 3 6 4 2 5 1 6
REMARK H PARENT
REMARK Flexibility Score: inf
ROOT
ATOM      1  C   UNL     1     -15.136  13.457  -9.752  1.00  0.00     0.052 C 
ENDROOT
BRANCH   1   2
ATOM      2  C   UNL     1     -15.031  13.513  -8.261  1.00  0.00     0.041 C 
ATOM      3  O   UNL     1     -15.892  14.139  -7.587  1.00  0.00    -0.550 OA
ATOM      4  O   UNL     1     -14.009  12.835  -7.609  1.00  0.00    -0.550 OA
ENDBRANCH   1   2
BRANCH   1   5
ATOM      5  C   UNL     1     -14.538  12.152 -10.282  1.00  0.00     0.003 C 
ATOM      6  C   UNL     1     -13.961  12.339 -11.681  1.00  0.00     0.004 C 
ENDBRANCH   1   5
TORSDOF 2
ENDMDL
MODEL 7
REMARK VINA RESULT:    -2.413     14.683     15.208
REMARK INTER + INTRA:          -2.759
REMARK INTER:                  -2.749
REMARK INTRA:                  -0.010
REMARK UNBOUND:                -0.064
REMARK SMILES CCCC(=O)[O-]
REMARK SMILES IDX 3 1 4 2 5 3 6 4 2 5 1 6
REMARK H PARENT
REMARK Flexibility Score: inf
ROOT
ATOM      1  C   UNL     1       1.084  11.098   0.791  1.00  0.00     0.052 C 
ENDROOT
BRANCH   1   2
ATOM      2  C   UNL     1       2.432  11.561   1.242  1.00  0.00     0.041 C 
ATOM      3  O   UNL     1       3.125  10.843   2.011  1.00  0.00    -0.550 OA
ATOM      4  O   UNL     1       2.947  12.765   0.776  1.00  0.00    -0.550 OA
ENDBRANCH   1   2
BRANCH   1   5
ATOM      5  C   UNL     1       0.558  11.993  -0.334  1.00  0.00     0.003 C 
ATOM      6  C   UNL     1      -0.830  11.552  -0.786  1.00  0.00     0.004 C 
ENDBRANCH   1   5
TORSDOF 2
ENDMDL
MODEL 8
REMARK VINA RESULT:    -2.392     23.605     24.100
REMARK INTER + INTRA:          -2.736
REMARK INTER:                  -2.701
REMARK INTRA:                  -0.035
REMARK UNBOUND:                -0.064
REMARK SMILES CCCC(=O)[O-]
REMARK SMILES IDX 3 1 4 2 5 3 6 4 2 5 1 6
REMARK H PARENT
REMARK Flexibility Score: inf
ROOT
ATOM      1  C   UNL     1       1.621  20.449   4.321  1.00  0.00     0.052 C 
ENDROOT
BRANCH   1   2
ATOM      2  C   UNL     1       1.423  21.597   3.382  1.00  0.00     0.041 C 
ATOM      3  O   UNL     1       2.403  22.076   2.751  1.00  0.00    -0.550 OA
ATOM      4  O   UNL     1       0.150  22.110   3.168  1.00  0.00    -0.550 OA
ENDBRANCH   1   2
BRANCH   1   5
ATOM      5  C   UNL     1       3.027  20.489   4.926  1.00  0.00     0.003 C 
ATOM      6  C   UNL     1       3.085  21.436   6.120  1.00  0.00     0.004 C 
ENDBRANCH   1   5
TORSDOF 2
ENDMDL
MODEL 9
REMARK VINA RESULT:    -2.334     18.022     18.753
REMARK INTER + INTRA:          -2.671
REMARK INTER:                  -2.655
REMARK INTRA:                  -0.016
REMARK UNBOUND:                -0.064
REMARK SMILES CCCC(=O)[O-]
REMARK SMILES IDX 3 1 4 2 5 3 6 4 2 5 1 6
REMARK H PARENT
REMARK Flexibility Score: inf
ROOT
ATOM      1  C   UNL     1     -15.159  13.464  -9.497  1.00  0.00     0.052 C 
ENDROOT
BRANCH   1   2
ATOM      2  C   UNL     1     -14.592  12.656 -10.620  1.00  0.00     0.041 C 
ATOM      3  O   UNL     1     -14.296  11.444 -10.444  1.00  0.00    -0.550 OA
ATOM      4  O   UNL     1     -14.432  13.227 -11.877  1.00  0.00    -0.550 OA
ENDBRANCH   1   2
BRANCH   1   5
ATOM      5  C   UNL     1     -14.485  13.089  -8.174  1.00  0.00     0.003 C 
ATOM      6  C   UNL     1     -15.386  13.411  -6.986  1.00  0.00     0.004 C 
ENDBRANCH   1   5
TORSDOF 2
ENDMDL
