MODEL 1
REMARK VINA RESULT:    29.570      0.000      0.000
REMARK INTER + INTRA:          35.295
REMARK INTER:                  34.756
REMARK INTRA:                   0.539
REMARK UNBOUND:                 0.539
REMARK SMILES O=c1c(O)c(-c2ccc(O)c(O)c2)oc2cc(O)ccc12
REMARK SMILES IDX 5 1 3 2 2 3 1 4 21 5 15 6 14 7 16 8 17 9 19 10 20 11 6 12
REMARK SMILES IDX 7 13 8 14 9 15 13 16 11 17 10 18 12 20 4 22 18 24
REMARK H PARENT 10 19 12 21 4 23 18 25
REMARK Flexibility Score: inf
ROOT
ATOM      1  C   UNL     1      11.556  12.824  28.987  1.00  0.00     0.180 A 
ATOM      2  C   UNL     1      12.918  13.181  29.079  1.00  0.00     0.208 A 
ATOM      3  C   UNL     1      13.468  14.008  28.088  1.00  0.00     0.235 A 
ATOM      4  O   UNL     1      14.681  14.349  28.155  1.00  0.00    -0.285 OA
ATOM      5  C   UNL     1      12.662  14.442  27.025  1.00  0.00     0.069 A 
ATOM      6  C   UNL     1      11.315  14.021  26.992  1.00  0.00     0.142 A 
ATOM      7  O   UNL     1      10.829  13.245  27.954  1.00  0.00    -0.452 OA
ATOM      8  C   UNL     1      10.481  14.426  25.943  1.00  0.00     0.094 A 
ATOM      9  C   UNL     1      10.978  15.249  24.923  1.00  0.00     0.119 A 
ATOM     10  C   UNL     1      12.312  15.668  24.955  1.00  0.00     0.047 A 
ATOM     11  C   UNL     1      13.153  15.268  25.998  1.00  0.00     0.020 A 
ENDROOT
BRANCH   1  12
ATOM     12  C   UNL     1      10.896  11.970  30.001  1.00  0.00     0.025 A 
ATOM     13  C   UNL     1      11.615  11.567  31.139  1.00  0.00     0.016 A 
ATOM     14  C   UNL     1      11.018  10.745  32.098  1.00  0.00     0.051 A 
ATOM     15  C   UNL     1       9.701  10.302  31.927  1.00  0.00     0.157 A 
ATOM     16  C   UNL     1       9.580  11.506  29.824  1.00  0.00     0.062 A 
ATOM     17  C   UNL     1       8.982  10.679  30.786  1.00  0.00     0.158 A 
BRANCH  15  18
ATOM     18  O   UNL     1       9.102   9.483  32.882  1.00  0.00    -0.504 OA
ATOM     19  H   UNL     1       8.170   9.107  32.749  1.00  0.00     0.293 HD
ENDBRANCH  15  18
BRANCH  17  20
ATOM     20  O   UNL     1       7.676  10.224  30.611  1.00  0.00    -0.504 OA
ATOM     21  H   UNL     1       7.203  10.301  29.719  1.00  0.00     0.293 HD
ENDBRANCH  17  20
ENDBRANCH   1  12
BRANCH   2  22
ATOM     22  O   UNL     1      13.708  12.692  30.122  1.00  0.00    -0.502 OA
ATOM     23  H   UNL     1      13.542  11.790  30.551  1.00  0.00     0.293 HD
ENDBRANCH   2  22
BRANCH   9  24
ATOM     24  O   UNL     1      10.155  15.656  23.875  1.00  0.00    -0.508 OA
ATOM     25  H   UNL     1      10.006  16.637  23.669  1.00  0.00     0.293 HD
ENDBRANCH   9  24
TORSDOF 5
ENDMDL
