MODEL 1
REMARK VINA RESULT:     8.958      0.000      0.000
REMARK INTER + INTRA:           9.527
REMARK INTER:                   9.744
REMARK INTRA:                  -0.217
REMARK UNBOUND:                -0.217
REMARK SMILES CC1=CCC[C@@]2(C)CC[C@@H](C(C)(C)O)C[C@@H]12
REMARK SMILES IDX 11 1 12 2 13 3 10 4 1 5 2 6 3 7 16 8 4 9 6 10 15 11 5 12
REMARK SMILES IDX 7 13 8 14 9 15 14 16
REMARK H PARENT 14 17
REMARK Flexibility Score: inf
ROOT
ATOM      1  C   UNL     1     -36.668  25.509   7.256  1.00  0.00     0.062 C 
ATOM      2  C   UNL     1     -36.662  27.051   7.233  1.00  0.00     0.042 C 
ATOM      3  C   UNL     1     -36.247  25.007   5.851  1.00  0.00     0.042 C 
ENDROOT
BRANCH   1   4
ATOM      4  C   UNL     1     -38.080  24.975   7.703  1.00  0.00     0.021 C 
ATOM      5  C   UNL     1     -42.119  26.695   6.115  1.00  0.00     0.039 C 
ATOM      6  C   UNL     1     -41.658  25.264   6.219  1.00  0.00    -0.074 C 
ATOM      7  C   UNL     1     -42.125  24.366   5.326  1.00  0.00    -0.028 C 
ATOM      8  C   UNL     1     -40.604  24.895   7.253  1.00  0.00     0.021 C 
ATOM      9  C   UNL     1     -41.831  22.887   5.394  1.00  0.00     0.028 C 
ATOM     10  C   UNL     1     -40.659  23.382   7.629  1.00  0.00    -0.026 C 
ATOM     11  C   UNL     1     -39.219  25.330   6.720  1.00  0.00     0.015 C 
ATOM     12  C   UNL     1     -40.670  22.525   6.333  1.00  0.00     0.011 C 
ATOM     13  C   UNL     1     -41.943  23.093   8.452  1.00  0.00     0.012 C 
ATOM     14  C   UNL     1     -39.447  22.998   8.524  1.00  0.00     0.008 C 
ATOM     15  C   UNL     1     -38.092  23.453   7.966  1.00  0.00     0.007 C 
ENDBRANCH   1   4
BRANCH   1  16
ATOM     16  O   UNL     1     -35.702  25.128   8.212  1.00  0.00    -0.390 OA
ATOM     17  H   UNL     1     -35.469  25.917   8.769  1.00  0.00     0.211 HD
ENDBRANCH   1  16
TORSDOF 2
ENDMDL
MODEL 2
REMARK VINA RESULT:     8.996     13.208     16.732
REMARK INTER + INTRA:           9.568
REMARK INTER:                   9.789
REMARK INTRA:                  -0.221
REMARK UNBOUND:                -0.217
REMARK SMILES CC1=CCC[C@@]2(C)CC[C@@H](C(C)(C)O)C[C@@H]12
REMARK SMILES IDX 11 1 12 2 13 3 10 4 1 5 2 6 3 7 16 8 4 9 6 10 15 11 5 12
REMARK SMILES IDX 7 13 8 14 9 15 14 16
REMARK H PARENT 14 17
REMARK Flexibility Score: inf
ROOT
ATOM      1  C   UNL     1     -25.868  28.419   5.033  1.00  0.00     0.062 C 
ATOM      2  C   UNL     1     -25.666  29.148   3.689  1.00  0.00     0.042 C 
ATOM      3  C   UNL     1     -27.242  27.702   4.986  1.00  0.00     0.042 C 
ENDROOT
BRANCH   1   4
ATOM      4  C   UNL     1     -25.745  29.436   6.229  1.00  0.00     0.021 C 
ATOM      5  C   UNL     1     -22.083  29.594   9.122  1.00  0.00     0.039 C 
ATOM      6  C   UNL     1     -22.769  30.710   8.378  1.00  0.00    -0.074 C 
ATOM      7  C   UNL     1     -22.043  31.786   8.007  1.00  0.00    -0.028 C 
ATOM      8  C   UNL     1     -24.228  30.549   7.974  1.00  0.00     0.021 C 
ATOM      9  C   UNL     1     -22.636  33.015   7.363  1.00  0.00     0.028 C 
ATOM     10  C   UNL     1     -24.930  31.925   7.758  1.00  0.00    -0.026 C 
ATOM     11  C   UNL     1     -24.294  29.641   6.723  1.00  0.00     0.015 C 
ATOM     12  C   UNL     1     -24.061  32.812   6.826  1.00  0.00     0.011 C 
ATOM     13  C   UNL     1     -25.118  32.637   9.125  1.00  0.00     0.012 C 
ATOM     14  C   UNL     1     -26.348  31.724   7.151  1.00  0.00     0.008 C 
ATOM     15  C   UNL     1     -26.373  30.812   5.918  1.00  0.00     0.007 C 
ENDBRANCH   1   4
BRANCH   1  16
ATOM     16  O   UNL     1     -24.831  27.467   5.122  1.00  0.00    -0.390 OA
ATOM     17  H   UNL     1     -25.184  26.643   5.550  1.00  0.00     0.211 HD
ENDBRANCH   1  16
TORSDOF 2
ENDMDL
MODEL 3
REMARK VINA RESULT:     9.195      0.738      1.054
REMARK INTER + INTRA:           9.785
REMARK INTER:                   9.974
REMARK INTRA:                  -0.189
REMARK UNBOUND:                -0.217
REMARK SMILES CC1=CCC[C@@]2(C)CC[C@@H](C(C)(C)O)C[C@@H]12
REMARK SMILES IDX 11 1 12 2 13 3 10 4 1 5 2 6 3 7 16 8 4 9 6 10 15 11 5 12
REMARK SMILES IDX 7 13 8 14 9 15 14 16
REMARK H PARENT 14 17
REMARK Flexibility Score: inf
ROOT
ATOM      1  C   UNL     1     -36.631  25.498   7.090  1.00  0.00     0.062 C 
ATOM      2  C   UNL     1     -35.510  25.063   8.057  1.00  0.00     0.042 C 
ATOM      3  C   UNL     1     -36.554  27.037   6.929  1.00  0.00     0.042 C 
ENDROOT
BRANCH   1   4
ATOM      4  C   UNL     1     -38.029  25.002   7.618  1.00  0.00     0.021 C 
ATOM      5  C   UNL     1     -42.113  26.555   5.972  1.00  0.00     0.039 C 
ATOM      6  C   UNL     1     -41.642  25.142   6.197  1.00  0.00    -0.074 C 
ATOM      7  C   UNL     1     -42.125  24.163   5.402  1.00  0.00    -0.028 C 
ATOM      8  C   UNL     1     -40.563  24.873   7.235  1.00  0.00     0.021 C 
ATOM      9  C   UNL     1     -41.821  22.699   5.599  1.00  0.00     0.028 C 
ATOM     10  C   UNL     1     -40.601  23.401   7.751  1.00  0.00    -0.026 C 
ATOM     11  C   UNL     1     -39.192  25.261   6.633  1.00  0.00     0.015 C 
ATOM     12  C   UNL     1     -40.637  22.428   6.541  1.00  0.00     0.011 C 
ATOM     13  C   UNL     1     -41.864  23.186   8.627  1.00  0.00     0.012 C 
ATOM     14  C   UNL     1     -39.367  23.106   8.649  1.00  0.00     0.008 C 
ATOM     15  C   UNL     1     -38.027  23.511   8.020  1.00  0.00     0.007 C 
ENDBRANCH   1   4
BRANCH   1  16
ATOM     16  O   UNL     1     -36.350  24.870   5.857  1.00  0.00    -0.390 OA
ATOM     17  H   UNL     1     -35.422  25.094   5.584  1.00  0.00     0.211 HD
ENDBRANCH   1  16
TORSDOF 2
ENDMDL
