MODEL 1
REMARK VINA RESULT:    -4.846      0.000      0.000
REMARK INTER + INTRA:          -6.707
REMARK INTER:                  -6.546
REMARK INTRA:                  -0.161
REMARK UNBOUND:                -0.161
REMARK SMILES O=C[C@@H](O)[C@@H](O)[C@H](O)CO
REMARK SMILES IDX 7 1 9 2 10 3 5 5 3 6 2 7 1 8 4 9 6 11 8 13
REMARK H PARENT 10 4 4 10 6 12 8 14
REMARK Flexibility Score: inf
ROOT
ATOM      1  C   UNL     1      23.804  -6.702   3.823  1.00  0.00     0.171 C 
ENDROOT
BRANCH   1   2
ATOM      2  C   UNL     1      23.151  -6.926   2.444  1.00  0.00     0.190 C 
BRANCH   2   3
ATOM      3  O   UNL     1      22.520  -5.753   2.002  1.00  0.00    -0.394 OA
ATOM      4  H   UNL     1      22.422  -5.838   1.018  1.00  0.00     0.210 HD
ENDBRANCH   2   3
ENDBRANCH   1   2
BRANCH   1   5
ATOM      5  C   UNL     1      22.938  -7.252   4.995  1.00  0.00     0.181 C 
BRANCH   5   6
ATOM      6  C   UNL     1      23.630  -8.353   5.843  1.00  0.00     0.209 C 
BRANCH   6   7
ATOM      7  C   UNL     1      23.759  -9.661   5.110  1.00  0.00     0.258 C 
ATOM      8  O   UNL     1      24.842 -10.044   4.696  1.00  0.00    -0.300 OA
ENDBRANCH   6   7
BRANCH   6   9
ATOM      9  O   UNL     1      24.908  -7.926   6.241  1.00  0.00    -0.383 OA
ATOM     10  H   UNL     1      25.416  -7.728   5.412  1.00  0.00     0.211 HD
ENDBRANCH   6   9
ENDBRANCH   5   6
BRANCH   5  11
ATOM     11  O   UNL     1      22.487  -6.203   5.819  1.00  0.00    -0.387 OA
ATOM     12  H   UNL     1      21.649  -6.501   6.261  1.00  0.00     0.211 HD
ENDBRANCH   5  11
ENDBRANCH   1   5
BRANCH   1  13
ATOM     13  O   UNL     1      24.062  -5.333   4.016  1.00  0.00    -0.388 OA
ATOM     14  H   UNL     1      24.429  -5.223   4.932  1.00  0.00     0.211 HD
ENDBRANCH   1  13
TORSDOF 8
ENDMDL
MODEL 2
REMARK VINA RESULT:    -4.805      1.542      3.981
REMARK INTER + INTRA:          -6.652
REMARK INTER:                  -5.979
REMARK INTRA:                  -0.673
REMARK UNBOUND:                -0.161
REMARK SMILES O=C[C@@H](O)[C@@H](O)[C@H](O)CO
REMARK SMILES IDX 7 1 9 2 10 3 5 5 3 6 2 7 1 8 4 9 6 11 8 13
REMARK H PARENT 10 4 4 10 6 12 8 14
REMARK Flexibility Score: inf
ROOT
ATOM      1  C   UNL     1      22.999  -7.336   4.428  1.00  0.00     0.171 C 
ENDROOT
BRANCH   1   2
ATOM      2  C   UNL     1      23.408  -8.309   5.552  1.00  0.00     0.190 C 
BRANCH   2   3
ATOM      3  O   UNL     1      24.662  -7.961   6.073  1.00  0.00    -0.394 OA
ATOM      4  H   UNL     1      24.530  -7.130   6.600  1.00  0.00     0.210 HD
ENDBRANCH   2   3
ENDBRANCH   1   2
BRANCH   1   5
ATOM      5  C   UNL     1      23.334  -7.881   3.009  1.00  0.00     0.181 C 
BRANCH   5   6
ATOM      6  C   UNL     1      23.639  -6.783   1.954  1.00  0.00     0.209 C 
BRANCH   6   7
ATOM      7  C   UNL     1      23.979  -7.349   0.602  1.00  0.00     0.258 C 
ATOM      8  O   UNL     1      23.640  -8.479   0.291  1.00  0.00    -0.300 OA
ENDBRANCH   6   7
BRANCH   6   9
ATOM      9  O   UNL     1      22.539  -5.920   1.822  1.00  0.00    -0.383 OA
ATOM     10  H   UNL     1      22.882  -5.071   1.438  1.00  0.00     0.211 HD
ENDBRANCH   6   9
ENDBRANCH   5   6
BRANCH   5  11
ATOM     11  O   UNL     1      24.384  -8.817   3.066  1.00  0.00    -0.387 OA
ATOM     12  H   UNL     1      24.884  -8.664   3.909  1.00  0.00     0.211 HD
ENDBRANCH   5  11
ENDBRANCH   1   5
BRANCH   1  13
ATOM     13  O   UNL     1      23.619  -6.089   4.624  1.00  0.00    -0.388 OA
ATOM     14  H   UNL     1      22.901  -5.416   4.764  1.00  0.00     0.211 HD
ENDBRANCH   1  13
TORSDOF 8
ENDMDL
MODEL 3
REMARK VINA RESULT:    -4.789      1.121      3.451
REMARK INTER + INTRA:          -6.630
REMARK INTER:                  -6.253
REMARK INTRA:                  -0.377
REMARK UNBOUND:                -0.161
REMARK SMILES O=C[C@@H](O)[C@@H](O)[C@H](O)CO
REMARK SMILES IDX 7 1 9 2 10 3 5 5 3 6 2 7 1 8 4 9 6 11 8 13
REMARK H PARENT 10 4 4 10 6 12 8 14
REMARK Flexibility Score: inf
ROOT
ATOM      1  C   UNL     1      22.954  -7.229   4.874  1.00  0.00     0.171 C 
ENDROOT
BRANCH   1   2
ATOM      2  C   UNL     1      23.642  -8.354   5.671  1.00  0.00     0.190 C 
BRANCH   2   3
ATOM      3  O   UNL     1      24.559  -9.041   4.861  1.00  0.00    -0.394 OA
ATOM      4  H   UNL     1      25.322  -9.292   5.445  1.00  0.00     0.210 HD
ENDBRANCH   2   3
ENDBRANCH   1   2
BRANCH   1   5
ATOM      5  C   UNL     1      23.890  -6.589   3.805  1.00  0.00     0.181 C 
BRANCH   5   6
ATOM      6  C   UNL     1      23.406  -6.765   2.340  1.00  0.00     0.209 C 
BRANCH   6   7
ATOM      7  C   UNL     1      22.752  -8.098   2.096  1.00  0.00     0.258 C 
ATOM      8  O   UNL     1      23.405  -9.129   2.108  1.00  0.00    -0.300 OA
ENDBRANCH   6   7
BRANCH   6   9
ATOM      9  O   UNL     1      22.501  -5.746   2.004  1.00  0.00    -0.383 OA
ATOM     10  H   UNL     1      21.591  -6.137   2.064  1.00  0.00     0.211 HD
ENDBRANCH   6   9
ENDBRANCH   5   6
BRANCH   5  11
ATOM     11  O   UNL     1      24.120  -5.230   4.091  1.00  0.00    -0.387 OA
ATOM     12  H   UNL     1      23.344  -4.890   4.608  1.00  0.00     0.211 HD
ENDBRANCH   5  11
ENDBRANCH   1   5
BRANCH   1  13
ATOM     13  O   UNL     1      22.479  -6.239   5.752  1.00  0.00    -0.388 OA
ATOM     14  H   UNL     1      21.524  -6.437   5.939  1.00  0.00     0.211 HD
ENDBRANCH   1  13
TORSDOF 8
ENDMDL
MODEL 4
REMARK VINA RESULT:    -4.670      2.000      3.400
REMARK INTER + INTRA:          -6.470
REMARK INTER:                  -6.150
REMARK INTRA:                  -0.320
REMARK UNBOUND:                -0.161
REMARK SMILES O=C[C@@H](O)[C@@H](O)[C@H](O)CO
REMARK SMILES IDX 7 1 9 2 10 3 5 5 3 6 2 7 1 8 4 9 6 11 8 13
REMARK H PARENT 10 4 4 10 6 12 8 14
REMARK Flexibility Score: inf
ROOT
ATOM      1  C   UNL     1      22.985  -7.434   4.453  1.00  0.00     0.171 C 
ENDROOT
BRANCH   1   2
ATOM      2  C   UNL     1      22.715  -7.318   5.966  1.00  0.00     0.190 C 
BRANCH   2   3
ATOM      3  O   UNL     1      22.084  -6.100   6.262  1.00  0.00    -0.394 OA
ATOM      4  H   UNL     1      21.653  -6.211   7.149  1.00  0.00     0.210 HD
ENDBRANCH   2   3
ENDBRANCH   1   2
BRANCH   1   5
ATOM      5  C   UNL     1      23.533  -8.834   4.046  1.00  0.00     0.181 C 
BRANCH   5   6
ATOM      6  C   UNL     1      23.713  -9.033   2.516  1.00  0.00     0.209 C 
BRANCH   6   7
ATOM      7  C   UNL     1      22.459  -8.743   1.738  1.00  0.00     0.258 C 
ATOM      8  O   UNL     1      21.476  -9.461   1.838  1.00  0.00    -0.300 OA
ENDBRANCH   6   7
BRANCH   6   9
ATOM      9  O   UNL     1      24.746  -8.211   2.039  1.00  0.00    -0.383 OA
ATOM     10  H   UNL     1      24.886  -7.501   2.718  1.00  0.00     0.211 HD
ENDBRANCH   6   9
ENDBRANCH   5   6
BRANCH   5  11
ATOM     11  O   UNL     1      24.732  -9.119   4.726  1.00  0.00    -0.387 OA
ATOM     12  H   UNL     1      24.520  -9.219   5.691  1.00  0.00     0.211 HD
ENDBRANCH   5  11
ENDBRANCH   1   5
BRANCH   1  13
ATOM     13  O   UNL     1      23.880  -6.429   4.046  1.00  0.00    -0.388 OA
ATOM     14  H   UNL     1      23.754  -6.292   3.070  1.00  0.00     0.211 HD
ENDBRANCH   1  13
TORSDOF 8
ENDMDL
MODEL 5
REMARK VINA RESULT:    -4.629      1.303      1.676
REMARK INTER + INTRA:          -6.414
REMARK INTER:                  -5.873
REMARK INTRA:                  -0.541
REMARK UNBOUND:                -0.161
REMARK SMILES O=C[C@@H](O)[C@@H](O)[C@H](O)CO
REMARK SMILES IDX 7 1 9 2 10 3 5 5 3 6 2 7 1 8 4 9 6 11 8 13
REMARK H PARENT 10 4 4 10 6 12 8 14
REMARK Flexibility Score: inf
ROOT
ATOM      1  C   UNL     1      23.449  -7.908   2.577  1.00  0.00     0.171 C 
ENDROOT
BRANCH   1   2
ATOM      2  C   UNL     1      23.443  -6.794   1.511  1.00  0.00     0.190 C 
BRANCH   2   3
ATOM      3  O   UNL     1      22.505  -5.804   1.839  1.00  0.00    -0.394 OA
ATOM      4  H   UNL     1      21.912  -5.702   1.049  1.00  0.00     0.210 HD
ENDBRANCH   2   3
ENDBRANCH   1   2
BRANCH   1   5
ATOM      5  C   UNL     1      23.074  -7.386   3.995  1.00  0.00     0.181 C 
BRANCH   5   6
ATOM      6  C   UNL     1      23.171  -8.453   5.119  1.00  0.00     0.209 C 
BRANCH   6   7
ATOM      7  C   UNL     1      22.604  -9.785   4.711  1.00  0.00     0.258 C 
ATOM      8  O   UNL     1      23.335 -10.741   4.502  1.00  0.00    -0.300 OA
ENDBRANCH   6   7
BRANCH   6   9
ATOM      9  O   UNL     1      24.509  -8.626   5.507  1.00  0.00    -0.383 OA
ATOM     10  H   UNL     1      24.500  -8.889   6.465  1.00  0.00     0.211 HD
ENDBRANCH   6   9
ENDBRANCH   5   6
BRANCH   5  11
ATOM     11  O   UNL     1      23.833  -6.247   4.327  1.00  0.00    -0.387 OA
ATOM     12  H   UNL     1      23.202  -5.509   4.533  1.00  0.00     0.211 HD
ENDBRANCH   5  11
ENDBRANCH   1   5
BRANCH   1  13
ATOM     13  O   UNL     1      24.709  -8.533   2.612  1.00  0.00    -0.388 OA
ATOM     14  H   UNL     1      24.957  -8.759   1.677  1.00  0.00     0.211 HD
ENDBRANCH   1  13
TORSDOF 8
ENDMDL
MODEL 6
REMARK VINA RESULT:    -4.574      1.729      3.848
REMARK INTER + INTRA:          -6.340
REMARK INTER:                  -6.004
REMARK INTRA:                  -0.336
REMARK UNBOUND:                -0.161
REMARK SMILES O=C[C@@H](O)[C@@H](O)[C@H](O)CO
REMARK SMILES IDX 7 1 9 2 10 3 5 5 3 6 2 7 1 8 4 9 6 11 8 13
REMARK H PARENT 10 4 4 10 6 12 8 14
REMARK Flexibility Score: inf
ROOT
ATOM      1  C   UNL     1      23.572  -7.611   4.554  1.00  0.00     0.171 C 
ENDROOT
BRANCH   1   2
ATOM      2  C   UNL     1      22.682  -7.445   5.802  1.00  0.00     0.190 C 
BRANCH   2   3
ATOM      3  O   UNL     1      22.298  -6.105   5.958  1.00  0.00    -0.394 OA
ATOM      4  H   UNL     1      22.114  -5.973   6.924  1.00  0.00     0.210 HD
ENDBRANCH   2   3
ENDBRANCH   1   2
BRANCH   1   5
ATOM      5  C   UNL     1      22.766  -7.524   3.224  1.00  0.00     0.181 C 
BRANCH   5   6
ATOM      6  C   UNL     1      23.414  -6.623   2.138  1.00  0.00     0.209 C 
BRANCH   6   7
ATOM      7  C   UNL     1      23.914  -7.404   0.953  1.00  0.00     0.258 C 
ATOM      8  O   UNL     1      24.698  -8.329   1.096  1.00  0.00    -0.300 OA
ENDBRANCH   6   7
BRANCH   6   9
ATOM      9  O   UNL     1      22.491  -5.662   1.694  1.00  0.00    -0.383 OA
ATOM     10  H   UNL     1      22.250  -5.109   2.482  1.00  0.00     0.211 HD
ENDBRANCH   6   9
ENDBRANCH   5   6
BRANCH   5  11
ATOM     11  O   UNL     1      22.506  -8.809   2.711  1.00  0.00    -0.387 OA
ATOM     12  H   UNL     1      22.558  -8.759   1.722  1.00  0.00     0.211 HD
ENDBRANCH   5  11
ENDBRANCH   1   5
BRANCH   1  13
ATOM     13  O   UNL     1      24.266  -8.833   4.617  1.00  0.00    -0.388 OA
ATOM     14  H   UNL     1      24.606  -8.936   5.545  1.00  0.00     0.211 HD
ENDBRANCH   1  13
TORSDOF 8
ENDMDL
MODEL 7
REMARK VINA RESULT:    -4.565      1.364      2.432
REMARK INTER + INTRA:          -6.327
REMARK INTER:                  -5.812
REMARK INTRA:                  -0.516
REMARK UNBOUND:                -0.161
REMARK SMILES O=C[C@@H](O)[C@@H](O)[C@H](O)CO
REMARK SMILES IDX 7 1 9 2 10 3 5 5 3 6 2 7 1 8 4 9 6 11 8 13
REMARK H PARENT 10 4 4 10 6 12 8 14
REMARK Flexibility Score: inf
ROOT
ATOM      1  C   UNL     1      22.670  -7.487   2.866  1.00  0.00     0.171 C 
ENDROOT
BRANCH   1   2
ATOM      2  C   UNL     1      23.607  -6.527   2.105  1.00  0.00     0.190 C 
BRANCH   2   3
ATOM      3  O   UNL     1      24.068  -5.512   2.957  1.00  0.00    -0.394 OA
ATOM      4  H   UNL     1      23.851  -5.798   3.883  1.00  0.00     0.210 HD
ENDBRANCH   2   3
ENDBRANCH   1   2
BRANCH   1   5
ATOM      5  C   UNL     1      23.413  -8.313   3.958  1.00  0.00     0.181 C 
BRANCH   5   6
ATOM      6  C   UNL     1      23.033  -7.937   5.416  1.00  0.00     0.209 C 
BRANCH   6   7
ATOM      7  C   UNL     1      24.149  -8.188   6.393  1.00  0.00     0.258 C 
ATOM      8  O   UNL     1      24.806  -9.216   6.346  1.00  0.00    -0.300 OA
ENDBRANCH   6   7
BRANCH   6   9
ATOM      9  O   UNL     1      22.662  -6.585   5.486  1.00  0.00    -0.383 OA
ATOM     10  H   UNL     1      22.285  -6.436   6.392  1.00  0.00     0.211 HD
ENDBRANCH   6   9
ENDBRANCH   5   6
BRANCH   5  11
ATOM     11  O   UNL     1      23.245  -9.694   3.742  1.00  0.00    -0.387 OA
ATOM     12  H   UNL     1      23.770  -9.944   2.939  1.00  0.00     0.211 HD
ENDBRANCH   5  11
ENDBRANCH   1   5
BRANCH   1  13
ATOM     13  O   UNL     1      22.031  -8.352   1.960  1.00  0.00    -0.388 OA
ATOM     14  H   UNL     1      21.406  -8.923   2.481  1.00  0.00     0.211 HD
ENDBRANCH   1  13
TORSDOF 8
ENDMDL
MODEL 8
REMARK VINA RESULT:    -4.483      1.682      2.436
REMARK INTER + INTRA:          -6.217
REMARK INTER:                  -5.949
REMARK INTRA:                  -0.268
REMARK UNBOUND:                -0.161
REMARK SMILES O=C[C@@H](O)[C@@H](O)[C@H](O)CO
REMARK SMILES IDX 7 1 9 2 10 3 5 5 3 6 2 7 1 8 4 9 6 11 8 13
REMARK H PARENT 10 4 4 10 6 12 8 14
REMARK Flexibility Score: inf
ROOT
ATOM      1  C   UNL     1      23.534  -6.966   2.163  1.00  0.00     0.171 C 
ENDROOT
BRANCH   1   2
ATOM      2  C   UNL     1      23.797  -7.526   0.751  1.00  0.00     0.190 C 
BRANCH   2   3
ATOM      3  O   UNL     1      25.059  -7.125   0.289  1.00  0.00    -0.394 OA
ATOM      4  H   UNL     1      25.300  -7.741  -0.451  1.00  0.00     0.210 HD
ENDBRANCH   2   3
ENDBRANCH   1   2
BRANCH   1   5
ATOM      5  C   UNL     1      23.011  -8.048   3.153  1.00  0.00     0.181 C 
BRANCH   5   6
ATOM      6  C   UNL     1      23.056  -7.628   4.647  1.00  0.00     0.209 C 
BRANCH   6   7
ATOM      7  C   UNL     1      23.816  -8.602   5.506  1.00  0.00     0.258 C 
ATOM      8  O   UNL     1      24.415  -8.226   6.501  1.00  0.00    -0.300 OA
ENDBRANCH   6   7
BRANCH   6   9
ATOM      9  O   UNL     1      23.639  -6.357   4.775  1.00  0.00    -0.383 OA
ATOM     10  H   UNL     1      23.823  -6.030   3.856  1.00  0.00     0.211 HD
ENDBRANCH   6   9
ENDBRANCH   5   6
BRANCH   5  11
ATOM     11  O   UNL     1      21.717  -8.470   2.796  1.00  0.00    -0.387 OA
ATOM     12  H   UNL     1      21.798  -9.080   2.017  1.00  0.00     0.211 HD
ENDBRANCH   5  11
ENDBRANCH   1   5
BRANCH   1  13
ATOM     13  O   UNL     1      22.623  -5.896   2.094  1.00  0.00    -0.388 OA
ATOM     14  H   UNL     1      21.735  -6.274   1.859  1.00  0.00     0.211 HD
ENDBRANCH   1  13
TORSDOF 8
ENDMDL
MODEL 9
REMARK VINA RESULT:    -4.225      1.586      2.671
REMARK INTER + INTRA:          -5.869
REMARK INTER:                  -5.554
REMARK INTRA:                  -0.315
REMARK UNBOUND:                -0.161
REMARK SMILES O=C[C@@H](O)[C@@H](O)[C@H](O)CO
REMARK SMILES IDX 7 1 9 2 10 3 5 5 3 6 2 7 1 8 4 9 6 11 8 13
REMARK H PARENT 10 4 4 10 6 12 8 14
REMARK Flexibility Score: inf
ROOT
ATOM      1  C   UNL     1      22.940  -7.048   4.209  1.00  0.00     0.171 C 
ENDROOT
BRANCH   1   2
ATOM      2  C   UNL     1      22.659  -7.338   5.697  1.00  0.00     0.190 C 
BRANCH   2   3
ATOM      3  O   UNL     1      22.055  -6.229   6.309  1.00  0.00    -0.394 OA
ATOM      4  H   UNL     1      22.037  -5.505   5.630  1.00  0.00     0.210 HD
ENDBRANCH   2   3
ENDBRANCH   1   2
BRANCH   1   5
ATOM      5  C   UNL     1      23.381  -8.317   3.422  1.00  0.00     0.181 C 
BRANCH   5   6
ATOM      6  C   UNL     1      23.771  -9.525   4.317  1.00  0.00     0.209 C 
BRANCH   6   7
ATOM      7  C   UNL     1      23.491 -10.851   3.664  1.00  0.00     0.258 C 
ATOM      8  O   UNL     1      23.962 -11.124   2.571  1.00  0.00    -0.300 OA
ENDBRANCH   6   7
BRANCH   6   9
ATOM      9  O   UNL     1      25.133  -9.460   4.651  1.00  0.00    -0.383 OA
ATOM     10  H   UNL     1      25.458  -8.567   4.366  1.00  0.00     0.211 HD
ENDBRANCH   6   9
ENDBRANCH   5   6
BRANCH   5  11
ATOM     11  O   UNL     1      22.400  -8.692   2.485  1.00  0.00    -0.387 OA
ATOM     12  H   UNL     1      22.844  -8.799   1.604  1.00  0.00     0.211 HD
ENDBRANCH   5  11
ENDBRANCH   1   5
BRANCH   1  13
ATOM     13  O   UNL     1      23.917  -6.044   4.091  1.00  0.00    -0.388 OA
ATOM     14  H   UNL     1      23.672  -5.312   4.717  1.00  0.00     0.211 HD
ENDBRANCH   1  13
TORSDOF 8
ENDMDL
