MODEL 1
REMARK VINA RESULT:    -4.385      0.000      0.000
REMARK INTER + INTRA:          -5.846
REMARK INTER:                  -5.667
REMARK INTRA:                  -0.179
REMARK UNBOUND:                -0.179
REMARK SMILES CCO[C@H]1O[C@H](CO)[C@H](O)[C@H](O)[C@@H]1O
REMARK SMILES IDX 4 1 13 2 11 3 9 4 6 5 5 6 3 7 2 8 1 9 14 10 12 12 7 14 8 15
REMARK SMILES IDX 10 17
REMARK H PARENT 14 11 12 13 8 16 10 18
REMARK Flexibility Score: inf
ROOT
ATOM      1  C   UNL     1      35.662 -50.979   3.869  1.00  0.00     0.281 C 
ATOM      2  C   UNL     1      36.407 -49.844   4.612  1.00  0.00     0.202 C 
ATOM      3  C   UNL     1      37.867 -49.761   4.137  1.00  0.00     0.179 C 
ATOM      4  C   UNL     1      38.538 -51.145   4.184  1.00  0.00     0.177 C 
ATOM      5  C   UNL     1      37.648 -52.165   3.435  1.00  0.00     0.178 C 
ATOM      6  O   UNL     1      36.349 -52.215   4.008  1.00  0.00    -0.341 OA
ENDROOT
BRANCH   1   7
ATOM      7  O   UNL     1      35.495 -50.662   2.492  1.00  0.00    -0.350 OA
BRANCH   7   8
ATOM      8  C   UNL     1      34.238 -50.061   2.236  1.00  0.00     0.160 C 
ATOM      9  C   UNL     1      33.140 -51.119   2.216  1.00  0.00     0.035 C 
ENDBRANCH   7   8
ENDBRANCH   1   7
BRANCH   2  10
ATOM     10  O   UNL     1      36.368 -50.075   5.997  1.00  0.00    -0.385 OA
ATOM     11  H   UNL     1      37.303 -50.013   6.326  1.00  0.00     0.211 HD
ENDBRANCH   2  10
BRANCH   3  12
ATOM     12  O   UNL     1      38.573 -48.842   4.933  1.00  0.00    -0.387 OA
ATOM     13  H   UNL     1      38.081 -47.982   4.880  1.00  0.00     0.211 HD
ENDBRANCH   3  12
BRANCH   5  14
ATOM     14  C   UNL     1      38.247 -53.577   3.465  1.00  0.00     0.191 C 
BRANCH  14  15
ATOM     15  O   UNL     1      37.610 -54.395   2.522  1.00  0.00    -0.394 OA
ATOM     16  H   UNL     1      38.333 -54.814   1.988  1.00  0.00     0.210 HD
ENDBRANCH  14  15
ENDBRANCH   5  14
BRANCH   4  17
ATOM     17  O   UNL     1      38.722 -51.538   5.523  1.00  0.00    -0.387 OA
ATOM     18  H   UNL     1      37.833 -51.808   5.874  1.00  0.00     0.211 HD
ENDBRANCH   4  17
TORSDOF 7
ENDMDL
MODEL 2
REMARK VINA RESULT:    -4.333      1.853      3.035
REMARK INTER + INTRA:          -5.779
REMARK INTER:                  -5.369
REMARK INTRA:                  -0.411
REMARK UNBOUND:                -0.179
REMARK SMILES CCO[C@H]1O[C@H](CO)[C@H](O)[C@H](O)[C@@H]1O
REMARK SMILES IDX 4 1 13 2 11 3 9 4 6 5 5 6 3 7 2 8 1 9 14 10 12 12 7 14 8 15
REMARK SMILES IDX 10 17
REMARK H PARENT 14 11 12 13 8 16 10 18
REMARK Flexibility Score: inf
ROOT
ATOM      1  C   UNL     1      36.103 -50.734   3.452  1.00  0.00     0.281 C 
ATOM      2  C   UNL     1      35.524 -52.033   4.063  1.00  0.00     0.202 C 
ATOM      3  C   UNL     1      36.560 -52.698   4.985  1.00  0.00     0.179 C 
ATOM      4  C   UNL     1      37.916 -52.839   4.273  1.00  0.00     0.177 C 
ATOM      5  C   UNL     1      38.327 -51.468   3.685  1.00  0.00     0.178 C 
ATOM      6  O   UNL     1      37.334 -50.988   2.789  1.00  0.00    -0.341 OA
ENDROOT
BRANCH   1   7
ATOM      7  O   UNL     1      36.277 -49.735   4.449  1.00  0.00    -0.350 OA
BRANCH   7   8
ATOM      8  C   UNL     1      36.061 -48.432   3.937  1.00  0.00     0.160 C 
ATOM      9  C   UNL     1      34.952 -48.452   2.890  1.00  0.00     0.035 C 
ENDBRANCH   7   8
ENDBRANCH   1   7
BRANCH   2  10
ATOM     10  O   UNL     1      35.157 -52.921   3.039  1.00  0.00    -0.385 OA
ATOM     11  H   UNL     1      34.686 -53.680   3.471  1.00  0.00     0.211 HD
ENDBRANCH   2  10
BRANCH   3  12
ATOM     12  O   UNL     1      36.087 -53.954   5.402  1.00  0.00    -0.387 OA
ATOM     13  H   UNL     1      35.767 -54.423   4.588  1.00  0.00     0.211 HD
ENDBRANCH   3  12
BRANCH   5  14
ATOM     14  C   UNL     1      39.663 -51.543   2.936  1.00  0.00     0.191 C 
BRANCH  14  15
ATOM     15  O   UNL     1      39.461 -52.005   1.628  1.00  0.00    -0.394 OA
ATOM     16  H   UNL     1      39.744 -51.266   1.029  1.00  0.00     0.210 HD
ENDBRANCH  14  15
ENDBRANCH   5  14
BRANCH   4  17
ATOM     17  O   UNL     1      37.818 -53.805   3.253  1.00  0.00    -0.387 OA
ATOM     18  H   UNL     1      36.976 -54.308   3.406  1.00  0.00     0.211 HD
ENDBRANCH   4  17
TORSDOF 7
ENDMDL
MODEL 3
REMARK VINA RESULT:    -4.308      1.707      3.131
REMARK INTER + INTRA:          -5.746
REMARK INTER:                  -5.366
REMARK INTRA:                  -0.380
REMARK UNBOUND:                -0.179
REMARK SMILES CCO[C@H]1O[C@H](CO)[C@H](O)[C@H](O)[C@@H]1O
REMARK SMILES IDX 4 1 13 2 11 3 9 4 6 5 5 6 3 7 2 8 1 9 14 10 12 12 7 14 8 15
REMARK SMILES IDX 10 17
REMARK H PARENT 14 11 12 13 8 16 10 18
REMARK Flexibility Score: inf
ROOT
ATOM      1  C   UNL     1      36.019 -50.757   2.832  1.00  0.00     0.281 C 
ATOM      2  C   UNL     1      35.723 -52.129   3.484  1.00  0.00     0.202 C 
ATOM      3  C   UNL     1      36.003 -52.074   4.995  1.00  0.00     0.179 C 
ATOM      4  C   UNL     1      37.398 -51.487   5.273  1.00  0.00     0.177 C 
ATOM      5  C   UNL     1      37.543 -50.145   4.517  1.00  0.00     0.178 C 
ATOM      6  O   UNL     1      37.342 -50.330   3.123  1.00  0.00    -0.341 OA
ENDROOT
BRANCH   1   7
ATOM      7  O   UNL     1      35.080 -49.777   3.258  1.00  0.00    -0.350 OA
BRANCH   7   8
ATOM      8  C   UNL     1      34.529 -49.062   2.168  1.00  0.00     0.160 C 
ATOM      9  C   UNL     1      33.550 -49.941   1.398  1.00  0.00     0.035 C 
ENDBRANCH   7   8
ENDBRANCH   1   7
BRANCH   2  10
ATOM     10  O   UNL     1      36.516 -53.123   2.888  1.00  0.00    -0.385 OA
ATOM     11  H   UNL     1      36.588 -52.894   1.924  1.00  0.00     0.211 HD
ENDBRANCH   2  10
BRANCH   3  12
ATOM     12  O   UNL     1      35.890 -53.363   5.546  1.00  0.00    -0.387 OA
ATOM     13  H   UNL     1      35.765 -53.988   4.785  1.00  0.00     0.211 HD
ENDBRANCH   3  12
BRANCH   5  14
ATOM     14  C   UNL     1      38.926 -49.515   4.730  1.00  0.00     0.191 C 
BRANCH  14  15
ATOM     15  O   UNL     1      39.493 -49.980   5.925  1.00  0.00    -0.394 OA
ATOM     16  H   UNL     1      39.364 -49.255   6.590  1.00  0.00     0.210 HD
ENDBRANCH  14  15
ENDBRANCH   5  14
BRANCH   4  17
ATOM     17  O   UNL     1      38.388 -52.399   4.858  1.00  0.00    -0.387 OA
ATOM     18  H   UNL     1      37.923 -53.147   4.400  1.00  0.00     0.211 HD
ENDBRANCH   4  17
TORSDOF 7
ENDMDL
MODEL 4
REMARK VINA RESULT:    -4.307      1.738      2.081
REMARK INTER + INTRA:          -5.746
REMARK INTER:                  -5.358
REMARK INTRA:                  -0.388
REMARK UNBOUND:                -0.179
REMARK SMILES CCO[C@H]1O[C@H](CO)[C@H](O)[C@H](O)[C@@H]1O
REMARK SMILES IDX 4 1 13 2 11 3 9 4 6 5 5 6 3 7 2 8 1 9 14 10 12 12 7 14 8 15
REMARK SMILES IDX 10 17
REMARK H PARENT 14 11 12 13 8 16 10 18
REMARK Flexibility Score: inf
ROOT
ATOM      1  C   UNL     1      35.144 -49.478   2.816  1.00  0.00     0.281 C 
ATOM      2  C   UNL     1      35.977 -48.258   3.278  1.00  0.00     0.202 C 
ATOM      3  C   UNL     1      37.470 -48.621   3.339  1.00  0.00     0.179 C 
ATOM      4  C   UNL     1      37.686 -49.920   4.135  1.00  0.00     0.177 C 
ATOM      5  C   UNL     1      36.753 -51.020   3.575  1.00  0.00     0.178 C 
ATOM      6  O   UNL     1      35.394 -50.608   3.641  1.00  0.00    -0.341 OA
ENDROOT
BRANCH   1   7
ATOM      7  O   UNL     1      35.415 -49.794   1.456  1.00  0.00    -0.350 OA
BRANCH   7   8
ATOM      8  C   UNL     1      34.383 -49.350   0.594  1.00  0.00     0.160 C 
ATOM      9  C   UNL     1      33.041 -49.924   1.035  1.00  0.00     0.035 C 
ENDBRANCH   7   8
ENDBRANCH   1   7
BRANCH   2  10
ATOM     10  O   UNL     1      35.537 -47.832   4.543  1.00  0.00    -0.385 OA
ATOM     11  H   UNL     1      34.586 -48.105   4.625  1.00  0.00     0.211 HD
ENDBRANCH   2  10
BRANCH   3  12
ATOM     12  O   UNL     1      38.192 -47.562   3.915  1.00  0.00    -0.387 OA
ATOM     13  H   UNL     1      37.690 -47.281   4.724  1.00  0.00     0.211 HD
ENDBRANCH   3  12
BRANCH   5  14
ATOM     14  C   UNL     1      36.898 -52.340   4.343  1.00  0.00     0.191 C 
BRANCH  14  15
ATOM     15  O   UNL     1      35.916 -52.433   5.339  1.00  0.00    -0.394 OA
ATOM     16  H   UNL     1      35.066 -52.630   4.868  1.00  0.00     0.210 HD
ENDBRANCH  14  15
ENDBRANCH   5  14
BRANCH   4  17
ATOM     17  O   UNL     1      37.418 -49.691   5.499  1.00  0.00    -0.387 OA
ATOM     18  H   UNL     1      38.150 -50.118   6.017  1.00  0.00     0.211 HD
ENDBRANCH   4  17
TORSDOF 7
ENDMDL
MODEL 5
REMARK VINA RESULT:    -4.230      1.714      3.764
REMARK INTER + INTRA:          -5.645
REMARK INTER:                  -5.255
REMARK INTRA:                  -0.391
REMARK UNBOUND:                -0.179
REMARK SMILES CCO[C@H]1O[C@H](CO)[C@H](O)[C@H](O)[C@@H]1O
REMARK SMILES IDX 4 1 13 2 11 3 9 4 6 5 5 6 3 7 2 8 1 9 14 10 12 12 7 14 8 15
REMARK SMILES IDX 10 17
REMARK H PARENT 14 11 12 13 8 16 10 18
REMARK Flexibility Score: inf
ROOT
ATOM      1  C   UNL     1      37.424 -50.220   3.816  1.00  0.00     0.281 C 
ATOM      2  C   UNL     1      36.156 -51.032   4.175  1.00  0.00     0.202 C 
ATOM      3  C   UNL     1      36.536 -52.300   4.958  1.00  0.00     0.179 C 
ATOM      4  C   UNL     1      37.647 -53.079   4.232  1.00  0.00     0.177 C 
ATOM      5  C   UNL     1      38.815 -52.116   3.911  1.00  0.00     0.178 C 
ATOM      6  O   UNL     1      38.364 -51.026   3.119  1.00  0.00    -0.341 OA
ENDROOT
BRANCH   1   7
ATOM      7  O   UNL     1      38.020 -49.665   4.981  1.00  0.00    -0.350 OA
BRANCH   7   8
ATOM      8  C   UNL     1      38.804 -48.524   4.683  1.00  0.00     0.160 C 
ATOM      9  C   UNL     1      40.113 -48.561   5.463  1.00  0.00     0.035 C 
ENDBRANCH   7   8
ENDBRANCH   1   7
BRANCH   2  10
ATOM     10  O   UNL     1      35.466 -51.384   3.003  1.00  0.00    -0.385 OA
ATOM     11  H   UNL     1      35.870 -50.860   2.262  1.00  0.00     0.211 HD
ENDBRANCH   2  10
BRANCH   3  12
ATOM     12  O   UNL     1      35.400 -53.107   5.133  1.00  0.00    -0.387 OA
ATOM     13  H   UNL     1      34.677 -52.708   4.582  1.00  0.00     0.211 HD
ENDBRANCH   3  12
BRANCH   5  14
ATOM     14  C   UNL     1      39.951 -52.824   3.161  1.00  0.00     0.191 C 
BRANCH  14  15
ATOM     15  O   UNL     1      39.641 -52.932   1.799  1.00  0.00    -0.394 OA
ATOM     16  H   UNL     1      39.788 -53.883   1.557  1.00  0.00     0.210 HD
ENDBRANCH  14  15
ENDBRANCH   5  14
BRANCH   4  17
ATOM     17  O   UNL     1      37.134 -53.647   3.051  1.00  0.00    -0.387 OA
ATOM     18  H   UNL     1      37.082 -54.628   3.196  1.00  0.00     0.211 HD
ENDBRANCH   4  17
TORSDOF 7
ENDMDL
MODEL 6
REMARK VINA RESULT:    -4.180     10.475     12.166
REMARK INTER + INTRA:          -5.580
REMARK INTER:                  -5.401
REMARK INTRA:                  -0.179
REMARK UNBOUND:                -0.179
REMARK SMILES CCO[C@H]1O[C@H](CO)[C@H](O)[C@H](O)[C@@H]1O
REMARK SMILES IDX 4 1 13 2 11 3 9 4 6 5 5 6 3 7 2 8 1 9 14 10 12 12 7 14 8 15
REMARK SMILES IDX 10 17
REMARK H PARENT 14 11 12 13 8 16 10 18
REMARK Flexibility Score: inf
ROOT
ATOM      1  C   UNL     1      30.106 -44.034  -3.344  1.00  0.00     0.281 C 
ATOM      2  C   UNL     1      30.037 -45.562  -3.580  1.00  0.00     0.202 C 
ATOM      3  C   UNL     1      31.430 -46.192  -3.418  1.00  0.00     0.179 C 
ATOM      4  C   UNL     1      32.476 -45.432  -4.253  1.00  0.00     0.177 C 
ATOM      5  C   UNL     1      32.383 -43.922  -3.930  1.00  0.00     0.178 C 
ATOM      6  O   UNL     1      31.075 -43.431  -4.191  1.00  0.00    -0.341 OA
ENDROOT
BRANCH   1   7
ATOM      7  O   UNL     1      30.393 -43.741  -1.982  1.00  0.00    -0.350 OA
BRANCH   7   8
ATOM      8  C   UNL     1      29.234 -43.346  -1.270  1.00  0.00     0.160 C 
ATOM      9  C   UNL     1      29.127 -41.825  -1.235  1.00  0.00     0.035 C 
ENDBRANCH   7   8
ENDBRANCH   1   7
BRANCH   2  10
ATOM     10  O   UNL     1      29.541 -45.825  -4.868  1.00  0.00    -0.385 OA
ATOM     11  H   UNL     1      28.602 -45.503  -4.886  1.00  0.00     0.211 HD
ENDBRANCH   2  10
BRANCH   3  12
ATOM     12  O   UNL     1      31.386 -47.545  -3.794  1.00  0.00    -0.387 OA
ATOM     13  H   UNL     1      30.427 -47.799  -3.835  1.00  0.00     0.211 HD
ENDBRANCH   3  12
BRANCH   5  14
ATOM     14  C   UNL     1      33.384 -43.098  -4.750  1.00  0.00     0.191 C 
BRANCH  14  15
ATOM     15  O   UNL     1      32.914 -41.789  -4.918  1.00  0.00    -0.394 OA
ATOM     16  H   UNL     1      32.354 -41.801  -5.737  1.00  0.00     0.210 HD
ENDBRANCH  14  15
ENDBRANCH   5  14
BRANCH   4  17
ATOM     17  O   UNL     1      32.245 -45.660  -5.623  1.00  0.00    -0.387 OA
ATOM     18  H   UNL     1      33.100 -45.486  -6.097  1.00  0.00     0.211 HD
ENDBRANCH   4  17
TORSDOF 7
ENDMDL
MODEL 7
REMARK VINA RESULT:    -4.151      1.983      2.447
REMARK INTER + INTRA:          -5.543
REMARK INTER:                  -5.387
REMARK INTRA:                  -0.156
REMARK UNBOUND:                -0.179
REMARK SMILES CCO[C@H]1O[C@H](CO)[C@H](O)[C@H](O)[C@@H]1O
REMARK SMILES IDX 4 1 13 2 11 3 9 4 6 5 5 6 3 7 2 8 1 9 14 10 12 12 7 14 8 15
REMARK SMILES IDX 10 17
REMARK H PARENT 14 11 12 13 8 16 10 18
REMARK Flexibility Score: inf
ROOT
ATOM      1  C   UNL     1      36.654 -49.281   4.935  1.00  0.00     0.281 C 
ATOM      2  C   UNL     1      38.102 -49.117   4.411  1.00  0.00     0.202 C 
ATOM      3  C   UNL     1      38.441 -50.237   3.415  1.00  0.00     0.179 C 
ATOM      4  C   UNL     1      38.094 -51.617   4.002  1.00  0.00     0.177 C 
ATOM      5  C   UNL     1      36.634 -51.597   4.514  1.00  0.00     0.178 C 
ATOM      6  O   UNL     1      36.457 -50.576   5.486  1.00  0.00    -0.341 OA
ENDROOT
BRANCH   1   7
ATOM      7  O   UNL     1      35.709 -49.037   3.901  1.00  0.00    -0.350 OA
BRANCH   7   8
ATOM      8  C   UNL     1      35.546 -47.653   3.648  1.00  0.00     0.160 C 
ATOM      9  C   UNL     1      34.567 -47.437   2.499  1.00  0.00     0.035 C 
ENDBRANCH   7   8
ENDBRANCH   1   7
BRANCH   2  10
ATOM     10  O   UNL     1      39.005 -49.145   5.487  1.00  0.00    -0.385 OA
ATOM     11  H   UNL     1      38.591 -48.624   6.224  1.00  0.00     0.211 HD
ENDBRANCH   2  10
BRANCH   3  12
ATOM     12  O   UNL     1      39.803 -50.174   3.075  1.00  0.00    -0.387 OA
ATOM     13  H   UNL     1      40.313 -50.438   3.885  1.00  0.00     0.211 HD
ENDBRANCH   3  12
BRANCH   5  14
ATOM     14  C   UNL     1      36.228 -52.938   5.138  1.00  0.00     0.191 C 
BRANCH  14  15
ATOM     15  O   UNL     1      34.894 -53.234   4.829  1.00  0.00    -0.394 OA
ATOM     16  H   UNL     1      34.689 -52.741   3.993  1.00  0.00     0.210 HD
ENDBRANCH  14  15
ENDBRANCH   5  14
BRANCH   4  17
ATOM     17  O   UNL     1      38.982 -51.923   5.050  1.00  0.00    -0.387 OA
ATOM     18  H   UNL     1      39.893 -51.972   4.658  1.00  0.00     0.211 HD
ENDBRANCH   4  17
TORSDOF 7
ENDMDL
MODEL 8
REMARK VINA RESULT:    -4.146      9.930     12.349
REMARK INTER + INTRA:          -5.537
REMARK INTER:                  -5.131
REMARK INTRA:                  -0.406
REMARK UNBOUND:                -0.179
REMARK SMILES CCO[C@H]1O[C@H](CO)[C@H](O)[C@H](O)[C@@H]1O
REMARK SMILES IDX 4 1 13 2 11 3 9 4 6 5 5 6 3 7 2 8 1 9 14 10 12 12 7 14 8 15
REMARK SMILES IDX 10 17
REMARK H PARENT 14 11 12 13 8 16 10 18
REMARK Flexibility Score: inf
ROOT
ATOM      1  C   UNL     1      31.834 -45.177  -3.096  1.00  0.00     0.281 C 
ATOM      2  C   UNL     1      32.118 -44.879  -4.589  1.00  0.00     0.202 C 
ATOM      3  C   UNL     1      31.335 -43.637  -5.045  1.00  0.00     0.179 C 
ATOM      4  C   UNL     1      29.851 -43.751  -4.655  1.00  0.00     0.177 C 
ATOM      5  C   UNL     1      29.746 -44.091  -3.149  1.00  0.00     0.178 C 
ATOM      6  O   UNL     1      30.438 -45.298  -2.858  1.00  0.00    -0.341 OA
ENDROOT
BRANCH   1   7
ATOM      7  O   UNL     1      32.390 -44.169  -2.261  1.00  0.00    -0.350 OA
BRANCH   7   8
ATOM      8  C   UNL     1      32.758 -44.676  -0.992  1.00  0.00     0.160 C 
ATOM      9  C   UNL     1      32.196 -43.791   0.115  1.00  0.00     0.035 C 
ENDBRANCH   7   8
ENDBRANCH   1   7
BRANCH   2  10
ATOM     10  O   UNL     1      31.756 -45.987  -5.374  1.00  0.00    -0.385 OA
ATOM     11  H   UNL     1      31.760 -46.778  -4.774  1.00  0.00     0.211 HD
ENDBRANCH   2  10
BRANCH   3  12
ATOM     12  O   UNL     1      31.470 -43.475  -6.435  1.00  0.00    -0.387 OA
ATOM     13  H   UNL     1      32.353 -43.049  -6.588  1.00  0.00     0.211 HD
ENDBRANCH   3  12
BRANCH   5  14
ATOM     14  C   UNL     1      28.289 -44.246  -2.697  1.00  0.00     0.191 C 
BRANCH  14  15
ATOM     15  O   UNL     1      27.808 -45.519  -3.032  1.00  0.00    -0.394 OA
ATOM     16  H   UNL     1      26.839 -45.409  -3.211  1.00  0.00     0.210 HD
ENDBRANCH  14  15
ENDBRANCH   5  14
BRANCH   4  17
ATOM     17  O   UNL     1      29.231 -44.749  -5.432  1.00  0.00    -0.387 OA
ATOM     18  H   UNL     1      28.915 -45.453  -4.807  1.00  0.00     0.211 HD
ENDBRANCH   4  17
TORSDOF 7
ENDMDL
MODEL 9
REMARK VINA RESULT:    -4.084     10.228     12.456
REMARK INTER + INTRA:          -5.457
REMARK INTER:                  -5.106
REMARK INTRA:                  -0.351
REMARK UNBOUND:                -0.179
REMARK SMILES CCO[C@H]1O[C@H](CO)[C@H](O)[C@H](O)[C@@H]1O
REMARK SMILES IDX 4 1 13 2 11 3 9 4 6 5 5 6 3 7 2 8 1 9 14 10 12 12 7 14 8 15
REMARK SMILES IDX 10 17
REMARK H PARENT 14 11 12 13 8 16 10 18
REMARK Flexibility Score: inf
ROOT
ATOM      1  C   UNL     1      30.218 -43.187  -2.478  1.00  0.00     0.281 C 
ATOM      2  C   UNL     1      29.813 -42.734  -3.902  1.00  0.00     0.202 C 
ATOM      3  C   UNL     1      29.309 -43.933  -4.722  1.00  0.00     0.179 C 
ATOM      4  C   UNL     1      30.306 -45.104  -4.650  1.00  0.00     0.177 C 
ATOM      5  C   UNL     1      30.635 -45.399  -3.167  1.00  0.00     0.178 C 
ATOM      6  O   UNL     1      31.166 -44.244  -2.532  1.00  0.00    -0.341 OA
ENDROOT
BRANCH   1   7
ATOM      7  O   UNL     1      29.078 -43.586  -1.727  1.00  0.00    -0.350 OA
BRANCH   7   8
ATOM      8  C   UNL     1      29.047 -42.977  -0.449  1.00  0.00     0.160 C 
ATOM      9  C   UNL     1      28.655 -41.509  -0.572  1.00  0.00     0.035 C 
ENDBRANCH   7   8
ENDBRANCH   1   7
BRANCH   2  10
ATOM     10  O   UNL     1      30.912 -42.143  -4.546  1.00  0.00    -0.385 OA
ATOM     11  H   UNL     1      31.499 -42.883  -4.852  1.00  0.00     0.211 HD
ENDBRANCH   2  10
BRANCH   3  12
ATOM     12  O   UNL     1      29.102 -43.542  -6.056  1.00  0.00    -0.387 OA
ATOM     13  H   UNL     1      28.222 -43.084  -6.085  1.00  0.00     0.211 HD
ENDBRANCH   3  12
BRANCH   5  14
ATOM     14  C   UNL     1      31.647 -46.542  -3.023  1.00  0.00     0.191 C 
BRANCH  14  15
ATOM     15  O   UNL     1      31.364 -47.561  -3.943  1.00  0.00    -0.394 OA
ATOM     16  H   UNL     1      30.437 -47.857  -3.749  1.00  0.00     0.210 HD
ENDBRANCH  14  15
ENDBRANCH   5  14
BRANCH   4  17
ATOM     17  O   UNL     1      31.476 -44.775  -5.361  1.00  0.00    -0.387 OA
ATOM     18  H   UNL     1      31.201 -44.550  -6.289  1.00  0.00     0.211 HD
ENDBRANCH   4  17
TORSDOF 7
ENDMDL
