MODEL 1
REMARK VINA RESULT:    -3.645      0.000      0.000
REMARK INTER + INTRA:          -4.315
REMARK INTER:                  -4.285
REMARK INTRA:                  -0.030
REMARK UNBOUND:                -0.030
REMARK SMILES O=C([O-])CCC(=O)[O-]
REMARK SMILES IDX 4 1 2 2 1 3 3 4 5 5 6 6 7 7 8 8
REMARK H PARENT
REMARK Flexibility Score: inf
ROOT
ATOM      1  C   UNL     1     -32.824  -6.703  31.971  1.00  0.00     0.059 C 
ENDROOT
BRANCH   1   2
ATOM      2  C   UNL     1     -34.008  -7.621  32.010  1.00  0.00     0.042 C 
ATOM      3  O   UNL     1     -35.175  -7.150  32.042  1.00  0.00    -0.550 OA
ATOM      4  O   UNL     1     -33.820  -8.997  32.052  1.00  0.00    -0.550 OA
ENDBRANCH   1   2
BRANCH   1   5
ATOM      5  C   UNL     1     -32.308  -6.391  33.379  1.00  0.00     0.059 C 
BRANCH   5   6
ATOM      6  C   UNL     1     -31.744  -7.610  34.042  1.00  0.00     0.042 C 
ATOM      7  O   UNL     1     -32.307  -8.098  35.058  1.00  0.00    -0.550 OA
ATOM      8  O   UNL     1     -30.574  -8.186  33.562  1.00  0.00    -0.550 OA
ENDBRANCH   5   6
ENDBRANCH   1   5
TORSDOF 3
ENDMDL
MODEL 2
REMARK VINA RESULT:    -3.623      0.157      3.283
REMARK INTER + INTRA:          -4.288
REMARK INTER:                  -4.306
REMARK INTRA:                   0.018
REMARK UNBOUND:                -0.030
REMARK SMILES O=C([O-])CCC(=O)[O-]
REMARK SMILES IDX 4 1 2 2 1 3 3 4 5 5 6 6 7 7 8 8
REMARK H PARENT
REMARK Flexibility Score: inf
ROOT
ATOM      1  C   UNL     1     -32.224  -6.472  33.527  1.00  0.00     0.059 C 
ENDROOT
BRANCH   1   2
ATOM      2  C   UNL     1     -31.724  -7.747  34.136  1.00  0.00     0.042 C 
ATOM      3  O   UNL     1     -32.345  -8.279  35.092  1.00  0.00    -0.550 OA
ATOM      4  O   UNL     1     -30.549  -8.325  33.670  1.00  0.00    -0.550 OA
ENDBRANCH   1   2
BRANCH   1   5
ATOM      5  C   UNL     1     -32.706  -6.687  32.089  1.00  0.00     0.059 C 
BRANCH   5   6
ATOM      6  C   UNL     1     -33.899  -7.592  32.037  1.00  0.00     0.042 C 
ATOM      7  O   UNL     1     -35.062  -7.108  32.010  1.00  0.00    -0.550 OA
ATOM      8  O   UNL     1     -33.729  -8.971  32.059  1.00  0.00    -0.550 OA
ENDBRANCH   5   6
ENDBRANCH   1   5
TORSDOF 3
ENDMDL
MODEL 3
REMARK VINA RESULT:    -3.485      1.501      2.056
REMARK INTER + INTRA:          -4.126
REMARK INTER:                  -4.125
REMARK INTRA:                  -0.001
REMARK UNBOUND:                -0.030
REMARK SMILES O=C([O-])CCC(=O)[O-]
REMARK SMILES IDX 4 1 2 2 1 3 3 4 5 5 6 6 7 7 8 8
REMARK H PARENT
REMARK Flexibility Score: inf
ROOT
ATOM      1  C   UNL     1     -33.127  -7.558  33.871  1.00  0.00     0.059 C 
ENDROOT
BRANCH   1   2
ATOM      2  C   UNL     1     -33.947  -8.053  32.719  1.00  0.00     0.042 C 
ATOM      3  O   UNL     1     -33.790  -9.224  32.284  1.00  0.00    -0.550 OA
ATOM      4  O   UNL     1     -34.859  -7.206  32.100  1.00  0.00    -0.550 OA
ENDBRANCH   1   2
BRANCH   1   5
ATOM      5  C   UNL     1     -32.085  -8.594  34.306  1.00  0.00     0.059 C 
BRANCH   5   6
ATOM      6  C   UNL     1     -30.762  -8.356  33.644  1.00  0.00     0.042 C 
ATOM      7  O   UNL     1     -30.690  -7.640  32.610  1.00  0.00    -0.550 OA
ATOM      8  O   UNL     1     -29.615  -8.957  34.146  1.00  0.00    -0.550 OA
ENDBRANCH   5   6
ENDBRANCH   1   5
TORSDOF 3
ENDMDL
MODEL 4
REMARK VINA RESULT:    -3.452      2.798      4.999
REMARK INTER + INTRA:          -4.088
REMARK INTER:                  -4.060
REMARK INTRA:                  -0.028
REMARK UNBOUND:                -0.030
REMARK SMILES O=C([O-])CCC(=O)[O-]
REMARK SMILES IDX 4 1 2 2 1 3 3 4 5 5 6 6 7 7 8 8
REMARK H PARENT
REMARK Flexibility Score: inf
ROOT
ATOM      1  C   UNL     1     -29.033  -8.672  33.702  1.00  0.00     0.059 C 
ENDROOT
BRANCH   1   2
ATOM      2  C   UNL     1     -28.307  -9.830  34.316  1.00  0.00     0.042 C 
ATOM      3  O   UNL     1     -28.140  -9.885  35.562  1.00  0.00    -0.550 OA
ATOM      4  O   UNL     1     -27.782 -10.830  33.506  1.00  0.00    -0.550 OA
ENDBRANCH   1   2
BRANCH   1   5
ATOM      5  C   UNL     1     -30.548  -8.788  33.902  1.00  0.00     0.059 C 
BRANCH   5   6
ATOM      6  C   UNL     1     -31.272  -7.610  33.324  1.00  0.00     0.042 C 
ATOM      7  O   UNL     1     -31.237  -7.390  32.084  1.00  0.00    -0.550 OA
ATOM      8  O   UNL     1     -31.952  -6.732  34.159  1.00  0.00    -0.550 OA
ENDBRANCH   5   6
ENDBRANCH   1   5
TORSDOF 3
ENDMDL
MODEL 5
REMARK VINA RESULT:    -3.433      3.671      4.995
REMARK INTER + INTRA:          -4.065
REMARK INTER:                  -4.004
REMARK INTRA:                  -0.061
REMARK UNBOUND:                -0.030
REMARK SMILES O=C([O-])CCC(=O)[O-]
REMARK SMILES IDX 4 1 2 2 1 3 3 4 5 5 6 6 7 7 8 8
REMARK H PARENT
REMARK Flexibility Score: inf
ROOT
ATOM      1  C   UNL     1     -28.901  -8.910  33.779  1.00  0.00     0.059 C 
ENDROOT
BRANCH   1   2
ATOM      2  C   UNL     1     -30.355  -8.550  33.735  1.00  0.00     0.042 C 
ATOM      3  O   UNL     1     -31.152  -9.026  34.585  1.00  0.00    -0.550 OA
ATOM      4  O   UNL     1     -30.835  -7.719  32.731  1.00  0.00    -0.550 OA
ENDBRANCH   1   2
BRANCH   1   5
ATOM      5  C   UNL     1     -28.612  -9.952  34.865  1.00  0.00     0.059 C 
BRANCH   5   6
ATOM      6  C   UNL     1     -27.653 -10.997  34.383  1.00  0.00     0.042 C 
ATOM      7  O   UNL     1     -27.635 -11.331  33.169  1.00  0.00    -0.550 OA
ATOM      8  O   UNL     1     -26.805 -11.631  35.283  1.00  0.00    -0.550 OA
ENDBRANCH   5   6
ENDBRANCH   1   5
TORSDOF 3
ENDMDL
MODEL 6
REMARK VINA RESULT:    -3.390      2.743      3.913
REMARK INTER + INTRA:          -4.015
REMARK INTER:                  -3.986
REMARK INTRA:                  -0.029
REMARK UNBOUND:                -0.030
REMARK SMILES O=C([O-])CCC(=O)[O-]
REMARK SMILES IDX 4 1 2 2 1 3 3 4 5 5 6 6 7 7 8 8
REMARK H PARENT
REMARK Flexibility Score: inf
ROOT
ATOM      1  C   UNL     1     -30.582  -8.664  34.043  1.00  0.00     0.059 C 
ENDROOT
BRANCH   1   2
ATOM      2  C   UNL     1     -31.364  -7.582  33.363  1.00  0.00     0.042 C 
ATOM      3  O   UNL     1     -31.395  -7.516  32.106  1.00  0.00    -0.550 OA
ATOM      4  O   UNL     1     -32.027  -6.623  34.119  1.00  0.00    -0.550 OA
ENDBRANCH   1   2
BRANCH   1   5
ATOM      5  C   UNL     1     -29.123  -8.682  33.575  1.00  0.00     0.059 C 
BRANCH   5   6
ATOM      6  C   UNL     1     -28.337  -9.755  34.265  1.00  0.00     0.042 C 
ATOM      7  O   UNL     1     -27.842 -10.705  33.602  1.00  0.00    -0.550 OA
ATOM      8  O   UNL     1     -28.184  -9.726  35.646  1.00  0.00    -0.550 OA
ENDBRANCH   5   6
ENDBRANCH   1   5
TORSDOF 3
ENDMDL
MODEL 7
REMARK VINA RESULT:    -3.188      1.655      3.750
REMARK INTER + INTRA:          -3.777
REMARK INTER:                  -3.771
REMARK INTRA:                  -0.006
REMARK UNBOUND:                -0.030
REMARK SMILES O=C([O-])CCC(=O)[O-]
REMARK SMILES IDX 4 1 2 2 1 3 3 4 5 5 6 6 7 7 8 8
REMARK H PARENT
REMARK Flexibility Score: inf
ROOT
ATOM      1  C   UNL     1     -32.139  -9.057  33.665  1.00  0.00     0.059 C 
ENDROOT
BRANCH   1   2
ATOM      2  C   UNL     1     -30.888  -8.333  33.273  1.00  0.00     0.042 C 
ATOM      3  O   UNL     1     -29.791  -8.619  33.821  1.00  0.00    -0.550 OA
ATOM      4  O   UNL     1     -30.941  -7.316  32.328  1.00  0.00    -0.550 OA
ENDBRANCH   1   2
BRANCH   1   5
ATOM      5  C   UNL     1     -33.224  -8.929  32.591  1.00  0.00     0.059 C 
BRANCH   5   6
ATOM      6  C   UNL     1     -34.103  -7.740  32.835  1.00  0.00     0.042 C 
ATOM      7  O   UNL     1     -34.702  -7.186  31.875  1.00  0.00    -0.550 OA
ATOM      8  O   UNL     1     -34.229  -7.219  34.117  1.00  0.00    -0.550 OA
ENDBRANCH   5   6
ENDBRANCH   1   5
TORSDOF 3
ENDMDL
MODEL 8
REMARK VINA RESULT:    -3.051     18.116     19.382
REMARK INTER + INTRA:          -3.616
REMARK INTER:                  -3.583
REMARK INTRA:                  -0.033
REMARK UNBOUND:                -0.030
REMARK SMILES O=C([O-])CCC(=O)[O-]
REMARK SMILES IDX 4 1 2 2 1 3 3 4 5 5 6 6 7 7 8 8
REMARK H PARENT
REMARK Flexibility Score: inf
ROOT
ATOM      1  C   UNL     1     -35.541  -0.786  50.248  1.00  0.00     0.059 C 
ENDROOT
BRANCH   1   2
ATOM      2  C   UNL     1     -34.718  -2.031  50.381  1.00  0.00     0.042 C 
ATOM      3  O   UNL     1     -33.793  -2.271  49.561  1.00  0.00    -0.550 OA
ATOM      4  O   UNL     1     -34.998  -2.945  51.389  1.00  0.00    -0.550 OA
ENDBRANCH   1   2
BRANCH   1   5
ATOM      5  C   UNL     1     -34.749   0.459  50.661  1.00  0.00     0.059 C 
BRANCH   5   6
ATOM      6  C   UNL     1     -35.595   1.694  50.604  1.00  0.00     0.042 C 
ATOM      7  O   UNL     1     -36.845   1.602  50.482  1.00  0.00    -0.550 OA
ATOM      8  O   UNL     1     -34.999   2.949  50.645  1.00  0.00    -0.550 OA
ENDBRANCH   5   6
ENDBRANCH   1   5
TORSDOF 3
ENDMDL
