MODEL 1
REMARK VINA RESULT:    -4.561      0.000      0.000
REMARK INTER + INTRA:          -7.405
REMARK INTER:                  -6.960
REMARK INTRA:                  -0.445
REMARK UNBOUND:                -0.445
REMARK SMILES CCCCCCCCCC=CC(=O)[O-]
REMARK SMILES IDX 7 1 8 2 9 3 10 4 11 5 12 6 13 7 14 8 6 9 5 10 4 11 3 12 2 13
REMARK SMILES IDX 1 14
REMARK H PARENT
REMARK Flexibility Score: inf
ROOT
ATOM      1  C   UNL     1       5.860  -7.573  19.459  1.00  0.00     0.000 C 
ENDROOT
BRANCH   1   2
ATOM      2  C   UNL     1       7.059  -7.205  18.570  1.00  0.00     0.004 C 
BRANCH   2   3
ATOM      3  C   UNL     1       6.637  -6.791  17.154  1.00  0.00     0.027 C 
BRANCH   3   4
ATOM      4  C   UNL     1       6.914  -7.877  16.146  1.00  0.00    -0.025 C 
ATOM      5  C   UNL     1       6.509  -7.918  14.863  1.00  0.00     0.020 C 
BRANCH   5   6
ATOM      6  C   UNL     1       5.675  -6.928  14.150  1.00  0.00     0.064 C 
ATOM      7  O   UNL     1       6.130  -5.826  13.751  1.00  0.00    -0.545 OA
ATOM      8  O   UNL     1       4.339  -7.227  13.914  1.00  0.00    -0.545 OA
ENDBRANCH   5   6
ENDBRANCH   3   4
ENDBRANCH   2   3
ENDBRANCH   1   2
BRANCH   1   9
ATOM      9  C   UNL     1       6.233  -7.653  20.948  1.00  0.00     0.000 C 
BRANCH   9  10
ATOM     10  C   UNL     1       7.147  -6.496  21.391  1.00  0.00     0.000 C 
BRANCH  10  11
ATOM     11  C   UNL     1       6.413  -5.461  22.260  1.00  0.00    -0.000 C 
BRANCH  11  12
ATOM     12  C   UNL     1       7.351  -4.359  22.781  1.00  0.00    -0.000 C 
BRANCH  12  13
ATOM     13  C   UNL     1       7.144  -4.069  24.276  1.00  0.00    -0.003 C 
ATOM     14  C   UNL     1       6.108  -4.989  24.922  1.00  0.00     0.004 C 
ENDBRANCH  12  13
ENDBRANCH  11  12
ENDBRANCH  10  11
ENDBRANCH   9  10
ENDBRANCH   1   9
TORSDOF 9
ENDMDL
MODEL 2
REMARK VINA RESULT:    -4.516      1.850      2.074
REMARK INTER + INTRA:          -7.337
REMARK INTER:                  -6.874
REMARK INTRA:                  -0.463
REMARK UNBOUND:                -0.445
REMARK SMILES CCCCCCCCCC=CC(=O)[O-]
REMARK SMILES IDX 7 1 8 2 9 3 10 4 11 5 12 6 13 7 14 8 6 9 5 10 4 11 3 12 2 13
REMARK SMILES IDX 1 14
REMARK H PARENT
REMARK Flexibility Score: inf
ROOT
ATOM      1  C   UNL     1       7.465  -7.261  19.880  1.00  0.00     0.000 C 
ENDROOT
BRANCH   1   2
ATOM      2  C   UNL     1       6.519  -7.250  18.669  1.00  0.00     0.004 C 
BRANCH   2   3
ATOM      3  C   UNL     1       7.242  -6.905  17.359  1.00  0.00     0.027 C 
BRANCH   3   4
ATOM      4  C   UNL     1       6.286  -6.818  16.197  1.00  0.00    -0.025 C 
ATOM      5  C   UNL     1       5.590  -5.739  15.797  1.00  0.00     0.020 C 
BRANCH   5   6
ATOM      6  C   UNL     1       5.574  -4.397  16.415  1.00  0.00     0.064 C 
ATOM      7  O   UNL     1       6.428  -3.516  16.137  1.00  0.00    -0.545 OA
ATOM      8  O   UNL     1       4.581  -4.099  17.339  1.00  0.00    -0.545 OA
ENDBRANCH   5   6
ENDBRANCH   3   4
ENDBRANCH   2   3
ENDBRANCH   1   2
BRANCH   1   9
ATOM      9  C   UNL     1       6.723  -7.064  21.211  1.00  0.00     0.000 C 
BRANCH   9  10
ATOM     10  C   UNL     1       6.252  -5.612  21.415  1.00  0.00     0.000 C 
BRANCH  10  11
ATOM     11  C   UNL     1       6.335  -5.162  22.883  1.00  0.00    -0.000 C 
BRANCH  11  12
ATOM     12  C   UNL     1       7.535  -4.239  23.149  1.00  0.00    -0.000 C 
BRANCH  12  13
ATOM     13  C   UNL     1       7.462  -3.561  24.527  1.00  0.00    -0.003 C 
ATOM     14  C   UNL     1       6.664  -4.373  25.547  1.00  0.00     0.004 C 
ENDBRANCH  12  13
ENDBRANCH  11  12
ENDBRANCH  10  11
ENDBRANCH   9  10
ENDBRANCH   1   9
TORSDOF 9
ENDMDL
MODEL 3
REMARK VINA RESULT:    -4.414     12.126     13.176
REMARK INTER + INTRA:          -7.181
REMARK INTER:                  -5.938
REMARK INTRA:                  -1.243
REMARK UNBOUND:                -0.445
REMARK SMILES CCCCCCCCCC=CC(=O)[O-]
REMARK SMILES IDX 7 1 8 2 9 3 10 4 11 5 12 6 13 7 14 8 6 9 5 10 4 11 3 12 2 13
REMARK SMILES IDX 1 14
REMARK H PARENT
REMARK Flexibility Score: inf
ROOT
ATOM      1  C   UNL     1       0.092   4.268  16.705  1.00  0.00     0.000 C 
ENDROOT
BRANCH   1   2
ATOM      2  C   UNL     1       1.240   3.821  17.624  1.00  0.00     0.004 C 
BRANCH   2   3
ATOM      3  C   UNL     1       1.812   2.452  17.231  1.00  0.00     0.027 C 
BRANCH   3   4
ATOM      4  C   UNL     1       0.804   1.619  16.481  1.00  0.00    -0.025 C 
ATOM      5  C   UNL     1       0.022   0.645  16.982  1.00  0.00     0.020 C 
BRANCH   5   6
ATOM      6  C   UNL     1      -0.013   0.143  18.372  1.00  0.00     0.064 C 
ATOM      7  O   UNL     1      -0.508   0.809  19.317  1.00  0.00    -0.545 OA
ATOM      8  O   UNL     1       0.523  -1.109  18.643  1.00  0.00    -0.545 OA
ENDBRANCH   5   6
ENDBRANCH   3   4
ENDBRANCH   2   3
ENDBRANCH   1   2
BRANCH   1   9
ATOM      9  C   UNL     1      -1.162   4.687  17.488  1.00  0.00     0.000 C 
BRANCH   9  10
ATOM     10  C   UNL     1      -2.166   3.532  17.658  1.00  0.00     0.000 C 
BRANCH  10  11
ATOM     11  C   UNL     1      -2.767   3.067  16.321  1.00  0.00    -0.000 C 
BRANCH  11  12
ATOM     12  C   UNL     1      -3.446   4.211  15.550  1.00  0.00    -0.000 C 
BRANCH  12  13
ATOM     13  C   UNL     1      -2.796   4.465  14.181  1.00  0.00    -0.003 C 
ATOM     14  C   UNL     1      -2.524   5.946  13.919  1.00  0.00     0.004 C 
ENDBRANCH  12  13
ENDBRANCH  11  12
ENDBRANCH  10  11
ENDBRANCH   9  10
ENDBRANCH   1   9
TORSDOF 9
ENDMDL
MODEL 4
REMARK VINA RESULT:    -4.390      3.349      7.567
REMARK INTER + INTRA:          -7.144
REMARK INTER:                  -6.560
REMARK INTRA:                  -0.585
REMARK UNBOUND:                -0.445
REMARK SMILES CCCCCCCCCC=CC(=O)[O-]
REMARK SMILES IDX 7 1 8 2 9 3 10 4 11 5 12 6 13 7 14 8 6 9 5 10 4 11 3 12 2 13
REMARK SMILES IDX 1 14
REMARK H PARENT
REMARK Flexibility Score: inf
ROOT
ATOM      1  C   UNL     1       5.900  -8.101  18.298  1.00  0.00     0.000 C 
ENDROOT
BRANCH   1   2
ATOM      2  C   UNL     1       7.002  -7.095  18.669  1.00  0.00     0.004 C 
BRANCH   2   3
ATOM      3  C   UNL     1       7.642  -7.398  20.031  1.00  0.00     0.027 C 
BRANCH   3   4
ATOM      4  C   UNL     1       6.614  -7.458  21.132  1.00  0.00    -0.025 C 
ATOM      5  C   UNL     1       6.196  -6.441  21.908  1.00  0.00     0.020 C 
BRANCH   5   6
ATOM      6  C   UNL     1       6.663  -5.039  21.885  1.00  0.00     0.064 C 
ATOM      7  O   UNL     1       7.611  -4.633  22.604  1.00  0.00    -0.545 OA
ATOM      8  O   UNL     1       6.029  -4.138  21.040  1.00  0.00    -0.545 OA
ENDBRANCH   5   6
ENDBRANCH   3   4
ENDBRANCH   2   3
ENDBRANCH   1   2
BRANCH   1   9
ATOM      9  C   UNL     1       6.048  -8.637  16.866  1.00  0.00     0.000 C 
BRANCH   9  10
ATOM     10  C   UNL     1       6.970  -7.761  16.000  1.00  0.00     0.000 C 
BRANCH  10  11
ATOM     11  C   UNL     1       6.515  -7.691  14.532  1.00  0.00    -0.000 C 
BRANCH  11  12
ATOM     12  C   UNL     1       5.876  -6.338  14.177  1.00  0.00    -0.000 C 
BRANCH  12  13
ATOM     13  C   UNL     1       5.727  -6.137  12.661  1.00  0.00    -0.003 C 
ATOM     14  C   UNL     1       7.053  -5.817  11.972  1.00  0.00     0.004 C 
ENDBRANCH  12  13
ENDBRANCH  11  12
ENDBRANCH  10  11
ENDBRANCH   9  10
ENDBRANCH   1   9
TORSDOF 9
ENDMDL
MODEL 5
REMARK VINA RESULT:    -4.374      2.677      4.261
REMARK INTER + INTRA:          -7.120
REMARK INTER:                  -6.476
REMARK INTRA:                  -0.644
REMARK UNBOUND:                -0.445
REMARK SMILES CCCCCCCCCC=CC(=O)[O-]
REMARK SMILES IDX 7 1 8 2 9 3 10 4 11 5 12 6 13 7 14 8 6 9 5 10 4 11 3 12 2 13
REMARK SMILES IDX 1 14
REMARK H PARENT
REMARK Flexibility Score: inf
ROOT
ATOM      1  C   UNL     1       5.966  -8.758  15.230  1.00  0.00     0.000 C 
ENDROOT
BRANCH   1   2
ATOM      2  C   UNL     1       6.577  -7.629  14.383  1.00  0.00     0.004 C 
BRANCH   2   3
ATOM      3  C   UNL     1       5.514  -6.816  13.631  1.00  0.00     0.027 C 
BRANCH   3   4
ATOM      4  C   UNL     1       5.850  -5.346  13.602  1.00  0.00    -0.025 C 
ATOM      5  C   UNL     1       6.391  -4.657  12.581  1.00  0.00     0.020 C 
BRANCH   5   6
ATOM      6  C   UNL     1       6.808  -5.179  11.263  1.00  0.00     0.064 C 
ATOM      7  O   UNL     1       7.795  -5.946  11.123  1.00  0.00    -0.545 OA
ATOM      8  O   UNL     1       6.084  -4.808  10.138  1.00  0.00    -0.545 OA
ENDBRANCH   5   6
ENDBRANCH   3   4
ENDBRANCH   2   3
ENDBRANCH   1   2
BRANCH   1   9
ATOM      9  C   UNL     1       6.163  -8.537  16.738  1.00  0.00     0.000 C 
BRANCH   9  10
ATOM     10  C   UNL     1       6.993  -7.279  17.047  1.00  0.00     0.000 C 
BRANCH  10  11
ATOM     11  C   UNL     1       7.167  -7.038  18.556  1.00  0.00    -0.000 C 
BRANCH  11  12
ATOM     12  C   UNL     1       5.978  -7.565  19.377  1.00  0.00    -0.000 C 
BRANCH  12  13
ATOM     13  C   UNL     1       6.326  -7.753  20.862  1.00  0.00    -0.003 C 
ATOM     14  C   UNL     1       7.807  -7.516  21.160  1.00  0.00     0.004 C 
ENDBRANCH  12  13
ENDBRANCH  11  12
ENDBRANCH  10  11
ENDBRANCH   9  10
ENDBRANCH   1   9
TORSDOF 9
ENDMDL
MODEL 6
REMARK VINA RESULT:    -4.336      3.912      5.387
REMARK INTER + INTRA:          -7.063
REMARK INTER:                  -5.717
REMARK INTRA:                  -1.346
REMARK UNBOUND:                -0.445
REMARK SMILES CCCCCCCCCC=CC(=O)[O-]
REMARK SMILES IDX 7 1 8 2 9 3 10 4 11 5 12 6 13 7 14 8 6 9 5 10 4 11 3 12 2 13
REMARK SMILES IDX 1 14
REMARK H PARENT
REMARK Flexibility Score: inf
ROOT
ATOM      1  C   UNL     1       6.707  -7.772  14.813  1.00  0.00     0.000 C 
ENDROOT
BRANCH   1   2
ATOM      2  C   UNL     1       5.311  -7.695  14.174  1.00  0.00     0.004 C 
BRANCH   2   3
ATOM      3  C   UNL     1       5.171  -6.512  13.205  1.00  0.00     0.027 C 
BRANCH   3   4
ATOM      4  C   UNL     1       6.510  -6.047  12.692  1.00  0.00    -0.025 C 
ATOM      5  C   UNL     1       6.742  -5.070  11.796  1.00  0.00     0.020 C 
BRANCH   5   6
ATOM      6  C   UNL     1       5.744  -4.245  11.085  1.00  0.00     0.064 C 
ATOM      7  O   UNL     1       5.187  -3.251  11.619  1.00  0.00    -0.545 OA
ATOM      8  O   UNL     1       5.408  -4.580   9.780  1.00  0.00    -0.545 OA
ENDBRANCH   5   6
ENDBRANCH   3   4
ENDBRANCH   2   3
ENDBRANCH   1   2
BRANCH   1   9
ATOM      9  C   UNL     1       6.652  -8.111  16.311  1.00  0.00     0.000 C 
BRANCH   9  10
ATOM     10  C   UNL     1       7.118  -6.944  17.199  1.00  0.00     0.000 C 
BRANCH  10  11
ATOM     11  C   UNL     1       5.950  -6.212  17.879  1.00  0.00    -0.000 C 
BRANCH  11  12
ATOM     12  C   UNL     1       5.294  -5.167  16.962  1.00  0.00    -0.000 C 
BRANCH  12  13
ATOM     13  C   UNL     1       6.283  -4.083  16.505  1.00  0.00    -0.003 C 
ATOM     14  C   UNL     1       5.858  -3.403  15.203  1.00  0.00     0.004 C 
ENDBRANCH  12  13
ENDBRANCH  11  12
ENDBRANCH  10  11
ENDBRANCH   9  10
ENDBRANCH   1   9
TORSDOF 9
ENDMDL
MODEL 7
REMARK VINA RESULT:    -4.325      0.596      1.104
REMARK INTER + INTRA:          -7.045
REMARK INTER:                  -6.625
REMARK INTRA:                  -0.421
REMARK UNBOUND:                -0.445
REMARK SMILES CCCCCCCCCC=CC(=O)[O-]
REMARK SMILES IDX 7 1 8 2 9 3 10 4 11 5 12 6 13 7 14 8 6 9 5 10 4 11 3 12 2 13
REMARK SMILES IDX 1 14
REMARK H PARENT
REMARK Flexibility Score: inf
ROOT
ATOM      1  C   UNL     1       5.743  -7.101  19.150  1.00  0.00     0.000 C 
ENDROOT
BRANCH   1   2
ATOM      2  C   UNL     1       6.982  -7.302  18.262  1.00  0.00     0.004 C 
BRANCH   2   3
ATOM      3  C   UNL     1       6.783  -6.759  16.840  1.00  0.00     0.027 C 
BRANCH   3   4
ATOM      4  C   UNL     1       6.921  -7.843  15.801  1.00  0.00    -0.025 C 
ATOM      5  C   UNL     1       6.412  -7.843  14.556  1.00  0.00     0.020 C 
BRANCH   5   6
ATOM      6  C   UNL     1       5.577  -6.801  13.924  1.00  0.00     0.064 C 
ATOM      7  O   UNL     1       4.320  -6.843  13.938  1.00  0.00    -0.545 OA
ATOM      8  O   UNL     1       6.204  -5.737  13.289  1.00  0.00    -0.545 OA
ENDBRANCH   5   6
ENDBRANCH   3   4
ENDBRANCH   2   3
ENDBRANCH   1   2
BRANCH   1   9
ATOM      9  C   UNL     1       5.924  -7.691  20.556  1.00  0.00     0.000 C 
BRANCH   9  10
ATOM     10  C   UNL     1       6.922  -6.888  21.410  1.00  0.00     0.000 C 
BRANCH  10  11
ATOM     11  C   UNL     1       6.227  -5.910  22.373  1.00  0.00    -0.000 C 
BRANCH  11  12
ATOM     12  C   UNL     1       6.643  -4.450  22.131  1.00  0.00    -0.000 C 
BRANCH  12  13
ATOM     13  C   UNL     1       7.706  -3.968  23.131  1.00  0.00    -0.003 C 
ATOM     14  C   UNL     1       7.179  -3.883  24.563  1.00  0.00     0.004 C 
ENDBRANCH  12  13
ENDBRANCH  11  12
ENDBRANCH  10  11
ENDBRANCH   9  10
ENDBRANCH   1   9
TORSDOF 9
ENDMDL
MODEL 8
REMARK VINA RESULT:    -4.291     12.623     14.105
REMARK INTER + INTRA:          -6.994
REMARK INTER:                  -5.639
REMARK INTRA:                  -1.355
REMARK UNBOUND:                -0.445
REMARK SMILES CCCCCCCCCC=CC(=O)[O-]
REMARK SMILES IDX 7 1 8 2 9 3 10 4 11 5 12 6 13 7 14 8 6 9 5 10 4 11 3 12 2 13
REMARK SMILES IDX 1 14
REMARK H PARENT
REMARK Flexibility Score: inf
ROOT
ATOM      1  C   UNL     1      -2.899   0.961  16.572  1.00  0.00     0.000 C 
ENDROOT
BRANCH   1   2
ATOM      2  C   UNL     1      -3.187   2.293  17.284  1.00  0.00     0.004 C 
BRANCH   2   3
ATOM      3  C   UNL     1      -1.972   2.820  18.060  1.00  0.00     0.027 C 
BRANCH   3   4
ATOM      4  C   UNL     1      -1.466   4.122  17.492  1.00  0.00    -0.025 C 
ATOM      5  C   UNL     1      -0.217   4.396  17.076  1.00  0.00     0.020 C 
BRANCH   5   6
ATOM      6  C   UNL     1       0.959   3.500  17.104  1.00  0.00     0.064 C 
ATOM      7  O   UNL     1       1.239   2.726  16.154  1.00  0.00    -0.545 OA
ATOM      8  O   UNL     1       1.782   3.515  18.222  1.00  0.00    -0.545 OA
ENDBRANCH   5   6
ENDBRANCH   3   4
ENDBRANCH   2   3
ENDBRANCH   1   2
BRANCH   1   9
ATOM      9  C   UNL     1      -2.128   1.150  15.256  1.00  0.00     0.000 C 
BRANCH   9  10
ATOM     10  C   UNL     1      -3.011   0.919  14.016  1.00  0.00     0.000 C 
BRANCH  10  11
ATOM     11  C   UNL     1      -3.242   2.205  13.205  1.00  0.00    -0.000 C 
BRANCH  11  12
ATOM     12  C   UNL     1      -2.482   3.410  13.781  1.00  0.00    -0.000 C 
BRANCH  12  13
ATOM     13  C   UNL     1      -3.425   4.513  14.288  1.00  0.00    -0.003 C 
ATOM     14  C   UNL     1      -2.803   5.908  14.210  1.00  0.00     0.004 C 
ENDBRANCH  12  13
ENDBRANCH  11  12
ENDBRANCH  10  11
ENDBRANCH   9  10
ENDBRANCH   1   9
TORSDOF 9
ENDMDL
MODEL 9
REMARK VINA RESULT:    -4.291      4.036      6.700
REMARK INTER + INTRA:          -6.993
REMARK INTER:                  -5.563
REMARK INTRA:                  -1.430
REMARK UNBOUND:                -0.445
REMARK SMILES CCCCCCCCCC=CC(=O)[O-]
REMARK SMILES IDX 7 1 8 2 9 3 10 4 11 5 12 6 13 7 14 8 6 9 5 10 4 11 3 12 2 13
REMARK SMILES IDX 1 14
REMARK H PARENT
REMARK Flexibility Score: inf
ROOT
ATOM      1  C   UNL     1       5.755  -6.316  17.624  1.00  0.00     0.000 C 
ENDROOT
BRANCH   1   2
ATOM      2  C   UNL     1       5.833  -4.794  17.425  1.00  0.00     0.004 C 
BRANCH   2   3
ATOM      3  C   UNL     1       5.184  -4.337  16.111  1.00  0.00     0.027 C 
BRANCH   3   4
ATOM      4  C   UNL     1       6.129  -3.507  15.279  1.00  0.00    -0.025 C 
ATOM      5  C   UNL     1       5.805  -2.667  14.279  1.00  0.00     0.020 C 
BRANCH   5   6
ATOM      6  C   UNL     1       4.459  -2.383  13.741  1.00  0.00     0.064 C 
ATOM      7  O   UNL     1       3.678  -1.558  14.279  1.00  0.00    -0.545 OA
ATOM      8  O   UNL     1       4.042  -3.054  12.598  1.00  0.00    -0.545 OA
ENDBRANCH   5   6
ENDBRANCH   3   4
ENDBRANCH   2   3
ENDBRANCH   1   2
BRANCH   1   9
ATOM      9  C   UNL     1       7.021  -7.040  17.139  1.00  0.00     0.000 C 
BRANCH   9  10
ATOM     10  C   UNL     1       6.713  -8.139  16.105  1.00  0.00     0.000 C 
BRANCH  10  11
ATOM     11  C   UNL     1       6.700  -7.608  14.662  1.00  0.00    -0.000 C 
BRANCH  11  12
ATOM     12  C   UNL     1       5.281  -7.537  14.074  1.00  0.00    -0.000 C 
BRANCH  12  13
ATOM     13  C   UNL     1       5.135  -6.426  13.022  1.00  0.00    -0.003 C 
ATOM     14  C   UNL     1       6.480  -5.928  12.493  1.00  0.00     0.004 C 
ENDBRANCH  12  13
ENDBRANCH  11  12
ENDBRANCH  10  11
ENDBRANCH   9  10
ENDBRANCH   1   9
TORSDOF 9
ENDMDL
