MODEL 1
REMARK VINA RESULT:     8.673      0.000      0.000
REMARK INTER + INTRA:          11.581
REMARK INTER:                  10.954
REMARK INTRA:                   0.627
REMARK UNBOUND:                 0.627
REMARK SMILES Oc1cc(O)cc(CCc2ccccc2O)c1
REMARK SMILES IDX 9 1 10 2 12 3 13 4 11 5 14 6 15 7 16 8 8 10 7 11 6 12 17 13
REMARK SMILES IDX 4 14 2 15 3 16 5 17 1 19
REMARK H PARENT 16 9 5 18 1 20
REMARK Flexibility Score: inf
ROOT
ATOM      1  C   UNL     1      16.464  94.376   8.269  1.00  0.00     0.044 C 
ENDROOT
BRANCH   1   2
ATOM      2  C   UNL     1      17.815  93.740   8.564  1.00  0.00    -0.006 A 
ATOM      3  C   UNL     1      19.523  92.952  10.123  1.00  0.00     0.001 A 
ATOM      4  C   UNL     1      20.328  92.559   9.057  1.00  0.00     0.004 A 
ATOM      5  C   UNL     1      18.279  93.539   9.886  1.00  0.00     0.007 A 
ATOM      6  C   UNL     1      19.891  92.748   7.747  1.00  0.00     0.046 A 
ATOM      7  C   UNL     1      18.646  93.334   7.489  1.00  0.00     0.118 A 
BRANCH   7   8
ATOM      8  O   UNL     1      18.267  93.496   6.154  1.00  0.00    -0.508 OA
ATOM      9  H   UNL     1      18.904  93.390   5.376  1.00  0.00     0.293 HD
ENDBRANCH   7   8
ENDBRANCH   1   2
BRANCH   1  10
ATOM     10  C   UNL     1      16.147  95.669   9.035  1.00  0.00     0.040 C 
BRANCH  10  11
ATOM     11  C   UNL     1      17.145  96.743   8.691  1.00  0.00    -0.040 A 
ATOM     12  C   UNL     1      16.889  98.083   9.029  1.00  0.00     0.050 A 
ATOM     13  C   UNL     1      18.365  96.408   8.082  1.00  0.00     0.050 A 
ATOM     14  C   UNL     1      17.831  99.079   8.738  1.00  0.00     0.119 A 
ATOM     15  C   UNL     1      19.308  97.400   7.792  1.00  0.00     0.119 A 
ATOM     16  C   UNL     1      19.037  98.736   8.119  1.00  0.00     0.092 A 
BRANCH  14  17
ATOM     17  O   UNL     1      17.581 100.410   9.064  1.00  0.00    -0.508 OA
ATOM     18  H   UNL     1      16.636 100.764   9.156  1.00  0.00     0.293 HD
ENDBRANCH  14  17
BRANCH  15  19
ATOM     19  O   UNL     1      20.509  97.048   7.182  1.00  0.00    -0.508 OA
ATOM     20  H   UNL     1      20.733  97.349   6.239  1.00  0.00     0.293 HD
ENDBRANCH  15  19
ENDBRANCH  10  11
ENDBRANCH   1  10
TORSDOF 6
ENDMDL
MODEL 2
REMARK VINA RESULT:     8.750      0.123      2.038
REMARK INTER + INTRA:          11.678
REMARK INTER:                  10.838
REMARK INTRA:                   0.840
REMARK UNBOUND:                 0.627
REMARK SMILES Oc1cc(O)cc(CCc2ccccc2O)c1
REMARK SMILES IDX 9 1 10 2 12 3 13 4 11 5 14 6 15 7 16 8 8 10 7 11 6 12 17 13
REMARK SMILES IDX 4 14 2 15 3 16 5 17 1 19
REMARK H PARENT 16 9 5 18 1 20
REMARK Flexibility Score: inf
ROOT
ATOM      1  C   UNL     1      16.400  94.418   8.419  1.00  0.00     0.044 C 
ENDROOT
BRANCH   1   2
ATOM      2  C   UNL     1      17.762  93.780   8.650  1.00  0.00    -0.006 A 
ATOM      3  C   UNL     1      19.496  92.892  10.125  1.00  0.00     0.001 A 
ATOM      4  C   UNL     1      20.296  92.597   9.023  1.00  0.00     0.004 A 
ATOM      5  C   UNL     1      18.242  93.478   9.947  1.00  0.00     0.007 A 
ATOM      6  C   UNL     1      19.843  92.885   7.737  1.00  0.00     0.046 A 
ATOM      7  C   UNL     1      18.588  93.473   7.538  1.00  0.00     0.118 A 
BRANCH   7   8
ATOM      8  O   UNL     1      18.194  93.737   6.224  1.00  0.00    -0.508 OA
ATOM      9  H   UNL     1      18.645  94.422   5.632  1.00  0.00     0.293 HD
ENDBRANCH   7   8
ENDBRANCH   1   2
BRANCH   1  10
ATOM     10  C   UNL     1      16.126  95.716   9.194  1.00  0.00     0.040 C 
BRANCH  10  11
ATOM     11  C   UNL     1      17.151  96.764   8.847  1.00  0.00    -0.040 A 
ATOM     12  C   UNL     1      18.333  96.404   8.178  1.00  0.00     0.050 A 
ATOM     13  C   UNL     1      16.909  98.116   9.138  1.00  0.00     0.050 A 
ATOM     14  C   UNL     1      19.273  97.382   7.826  1.00  0.00     0.119 A 
ATOM     15  C   UNL     1      17.844  99.094   8.787  1.00  0.00     0.119 A 
ATOM     16  C   UNL     1      19.028  98.725   8.133  1.00  0.00     0.092 A 
BRANCH  14  17
ATOM     17  O   UNL     1      20.450  97.032   7.169  1.00  0.00    -0.508 OA
ATOM     18  H   UNL     1      20.700  96.063   7.011  1.00  0.00     0.293 HD
ENDBRANCH  14  17
BRANCH  15  19
ATOM     19  O   UNL     1      17.589 100.429   9.090  1.00  0.00    -0.508 OA
ATOM     20  H   UNL     1      17.157 100.701   9.966  1.00  0.00     0.293 HD
ENDBRANCH  15  19
ENDBRANCH  10  11
ENDBRANCH   1  10
TORSDOF 6
ENDMDL
MODEL 3
REMARK VINA RESULT:     9.612      1.533      5.245
REMARK INTER + INTRA:          12.767
REMARK INTER:                  12.701
REMARK INTRA:                   0.066
REMARK UNBOUND:                 0.627
REMARK SMILES Oc1cc(O)cc(CCc2ccccc2O)c1
REMARK SMILES IDX 9 1 10 2 12 3 13 4 11 5 14 6 15 7 16 8 8 10 7 11 6 12 17 13
REMARK SMILES IDX 4 14 2 15 3 16 5 17 1 19
REMARK H PARENT 16 9 5 18 1 20
REMARK Flexibility Score: inf
ROOT
ATOM      1  C   UNL     1      15.775  96.202   8.628  1.00  0.00     0.044 C 
ENDROOT
BRANCH   1   2
ATOM      2  C   UNL     1      16.838  97.291   8.624  1.00  0.00    -0.006 A 
ATOM      3  C   UNL     1      19.130  98.055   8.259  1.00  0.00     0.001 A 
ATOM      4  C   UNL     1      18.770  99.347   8.636  1.00  0.00     0.004 A 
ATOM      5  C   UNL     1      18.178  97.033   8.252  1.00  0.00     0.007 A 
ATOM      6  C   UNL     1      17.455  99.623   9.007  1.00  0.00     0.046 A 
ATOM      7  C   UNL     1      16.487  98.611   9.006  1.00  0.00     0.118 A 
BRANCH   7   8
ATOM      8  O   UNL     1      15.187  98.954   9.388  1.00  0.00    -0.508 OA
ATOM      9  H   UNL     1      14.907  99.097  10.349  1.00  0.00     0.293 HD
ENDBRANCH   7   8
ENDBRANCH   1   2
BRANCH   1  10
ATOM     10  C   UNL     1      16.091  94.957   9.471  1.00  0.00     0.040 C 
BRANCH  10  11
ATOM     11  C   UNL     1      17.300  94.244   8.924  1.00  0.00    -0.040 A 
ATOM     12  C   UNL     1      18.348  93.867   9.781  1.00  0.00     0.050 A 
ATOM     13  C   UNL     1      17.365  93.899   7.564  1.00  0.00     0.050 A 
ATOM     14  C   UNL     1      19.459  93.175   9.279  1.00  0.00     0.119 A 
ATOM     15  C   UNL     1      18.471  93.207   7.062  1.00  0.00     0.119 A 
ATOM     16  C   UNL     1      19.519  92.849   7.921  1.00  0.00     0.092 A 
BRANCH  14  17
ATOM     17  O   UNL     1      20.505  92.804  10.122  1.00  0.00    -0.508 OA
ATOM     18  H   UNL     1      21.165  93.486  10.476  1.00  0.00     0.293 HD
ENDBRANCH  14  17
BRANCH  15  19
ATOM     19  O   UNL     1      18.520  92.880   5.709  1.00  0.00    -0.508 OA
ATOM     20  H   UNL     1      18.945  92.018   5.387  1.00  0.00     0.293 HD
ENDBRANCH  15  19
ENDBRANCH  10  11
ENDBRANCH   1  10
TORSDOF 6
ENDMDL
MODEL 4
REMARK VINA RESULT:     9.744      1.529      5.317
REMARK INTER + INTRA:          12.934
REMARK INTER:                  13.128
REMARK INTRA:                  -0.194
REMARK UNBOUND:                 0.627
REMARK SMILES Oc1cc(O)cc(CCc2ccccc2O)c1
REMARK SMILES IDX 9 1 10 2 12 3 13 4 11 5 14 6 15 7 16 8 8 10 7 11 6 12 17 13
REMARK SMILES IDX 4 14 2 15 3 16 5 17 1 19
REMARK H PARENT 16 9 5 18 1 20
REMARK Flexibility Score: inf
ROOT
ATOM      1  C   UNL     1      15.880  96.315   8.586  1.00  0.00     0.044 C 
ENDROOT
BRANCH   1   2
ATOM      2  C   UNL     1      16.939  97.408   8.624  1.00  0.00    -0.006 A 
ATOM      3  C   UNL     1      19.228  98.195   8.289  1.00  0.00     0.001 A 
ATOM      4  C   UNL     1      18.863  99.469   8.717  1.00  0.00     0.004 A 
ATOM      5  C   UNL     1      18.280  97.170   8.242  1.00  0.00     0.007 A 
ATOM      6  C   UNL     1      17.547  99.725   9.098  1.00  0.00     0.046 A 
ATOM      7  C   UNL     1      16.583  98.711   9.058  1.00  0.00     0.118 A 
BRANCH   7   8
ATOM      8  O   UNL     1      15.282  99.033   9.454  1.00  0.00    -0.508 OA
ATOM      9  H   UNL     1      14.491  99.037   8.824  1.00  0.00     0.293 HD
ENDBRANCH   7   8
ENDBRANCH   1   2
BRANCH   1  10
ATOM     10  C   UNL     1      16.143  95.092   9.478  1.00  0.00     0.040 C 
BRANCH  10  11
ATOM     11  C   UNL     1      17.289  94.280   8.935  1.00  0.00    -0.040 A 
ATOM     12  C   UNL     1      17.348  93.963   7.568  1.00  0.00     0.050 A 
ATOM     13  C   UNL     1      18.339  93.883   9.779  1.00  0.00     0.050 A 
ATOM     14  C   UNL     1      18.430  93.236   7.055  1.00  0.00     0.119 A 
ATOM     15  C   UNL     1      19.421  93.159   9.270  1.00  0.00     0.119 A 
ATOM     16  C   UNL     1      19.464  92.833   7.907  1.00  0.00     0.092 A 
BRANCH  14  17
ATOM     17  O   UNL     1      18.492  92.911   5.701  1.00  0.00    -0.508 OA
ATOM     18  H   UNL     1      19.015  93.479   5.045  1.00  0.00     0.293 HD
ENDBRANCH  14  17
BRANCH  15  19
ATOM     19  O   UNL     1      20.449  92.768  10.125  1.00  0.00    -0.508 OA
ATOM     20  H   UNL     1      20.824  93.397  10.825  1.00  0.00     0.293 HD
ENDBRANCH  15  19
ENDBRANCH  10  11
ENDBRANCH   1  10
TORSDOF 6
ENDMDL
MODEL 5
REMARK VINA RESULT:    10.079      2.002      5.456
REMARK INTER + INTRA:          13.357
REMARK INTER:                  13.258
REMARK INTRA:                   0.099
REMARK UNBOUND:                 0.627
REMARK SMILES Oc1cc(O)cc(CCc2ccccc2O)c1
REMARK SMILES IDX 9 1 10 2 12 3 13 4 11 5 14 6 15 7 16 8 8 10 7 11 6 12 17 13
REMARK SMILES IDX 4 14 2 15 3 16 5 17 1 19
REMARK H PARENT 16 9 5 18 1 20
REMARK Flexibility Score: inf
ROOT
ATOM      1  C   UNL     1      16.096  98.020   8.624  1.00  0.00     0.044 C 
ENDROOT
BRANCH   1   2
ATOM      2  C   UNL     1      17.406  98.705   8.985  1.00  0.00    -0.006 A 
ATOM      3  C   UNL     1      18.896 100.642   8.960  1.00  0.00     0.001 A 
ATOM      4  C   UNL     1      19.852  99.928   9.678  1.00  0.00     0.004 A 
ATOM      5  C   UNL     1      17.684 100.042   8.613  1.00  0.00     0.007 A 
ATOM      6  C   UNL     1      19.599  98.610  10.055  1.00  0.00     0.046 A 
ATOM      7  C   UNL     1      18.390  97.991   9.717  1.00  0.00     0.118 A 
BRANCH   7   8
ATOM      8  O   UNL     1      18.199  96.668  10.124  1.00  0.00    -0.508 OA
ATOM      9  H   UNL     1      17.303  96.200  10.100  1.00  0.00     0.293 HD
ENDBRANCH   7   8
ENDBRANCH   1   2
BRANCH   1  10
ATOM     10  C   UNL     1      16.136  97.096   7.398  1.00  0.00     0.040 C 
BRANCH  10  11
ATOM     11  C   UNL     1      16.619  95.723   7.788  1.00  0.00    -0.040 A 
ATOM     12  C   UNL     1      17.914  95.303   7.443  1.00  0.00     0.050 A 
ATOM     13  C   UNL     1      15.799  94.873   8.549  1.00  0.00     0.050 A 
ATOM     14  C   UNL     1      18.376  94.039   7.834  1.00  0.00     0.119 A 
ATOM     15  C   UNL     1      16.258  93.612   8.941  1.00  0.00     0.119 A 
ATOM     16  C   UNL     1      17.547  93.196   8.580  1.00  0.00     0.092 A 
BRANCH  14  17
ATOM     17  O   UNL     1      19.658  93.614   7.490  1.00  0.00    -0.508 OA
ATOM     18  H   UNL     1      20.031  93.759   6.559  1.00  0.00     0.293 HD
ENDBRANCH  14  17
BRANCH  15  19
ATOM     19  O   UNL     1      15.428  92.781   9.689  1.00  0.00    -0.508 OA
ATOM     20  H   UNL     1      15.677  91.817   9.882  1.00  0.00     0.293 HD
ENDBRANCH  15  19
ENDBRANCH  10  11
ENDBRANCH   1  10
TORSDOF 6
ENDMDL
MODEL 6
REMARK VINA RESULT:    10.158      2.013      5.247
REMARK INTER + INTRA:          13.457
REMARK INTER:                  13.212
REMARK INTRA:                   0.245
REMARK UNBOUND:                 0.627
REMARK SMILES Oc1cc(O)cc(CCc2ccccc2O)c1
REMARK SMILES IDX 9 1 10 2 12 3 13 4 11 5 14 6 15 7 16 8 8 10 7 11 6 12 17 13
REMARK SMILES IDX 4 14 2 15 3 16 5 17 1 19
REMARK H PARENT 16 9 5 18 1 20
REMARK Flexibility Score: inf
ROOT
ATOM      1  C   UNL     1      16.111  97.991   8.617  1.00  0.00     0.044 C 
ENDROOT
BRANCH   1   2
ATOM      2  C   UNL     1      17.412  98.680   8.999  1.00  0.00    -0.006 A 
ATOM      3  C   UNL     1      18.890 100.626   9.012  1.00  0.00     0.001 A 
ATOM      4  C   UNL     1      19.843  99.911   9.733  1.00  0.00     0.004 A 
ATOM      5  C   UNL     1      17.686 100.023   8.645  1.00  0.00     0.007 A 
ATOM      6  C   UNL     1      19.595  98.587  10.093  1.00  0.00     0.046 A 
ATOM      7  C   UNL     1      18.393  97.965   9.734  1.00  0.00     0.118 A 
BRANCH   7   8
ATOM      8  O   UNL     1      18.206  96.636  10.125  1.00  0.00    -0.508 OA
ATOM      9  H   UNL     1      18.794  95.875   9.814  1.00  0.00     0.293 HD
ENDBRANCH   7   8
ENDBRANCH   1   2
BRANCH   1  10
ATOM     10  C   UNL     1      16.187  97.027   7.422  1.00  0.00     0.040 C 
BRANCH  10  11
ATOM     11  C   UNL     1      16.656  95.668   7.870  1.00  0.00    -0.040 A 
ATOM     12  C   UNL     1      15.804  94.832   8.611  1.00  0.00     0.050 A 
ATOM     13  C   UNL     1      17.930  95.202   7.503  1.00  0.00     0.050 A 
ATOM     14  C   UNL     1      16.228  93.555   9.000  1.00  0.00     0.119 A 
ATOM     15  C   UNL     1      18.355  93.927   7.889  1.00  0.00     0.119 A 
ATOM     16  C   UNL     1      17.503  93.106   8.641  1.00  0.00     0.092 A 
BRANCH  14  17
ATOM     17  O   UNL     1      15.391  92.723   9.740  1.00  0.00    -0.508 OA
ATOM     18  H   UNL     1      14.466  92.473   9.408  1.00  0.00     0.293 HD
ENDBRANCH  14  17
BRANCH  15  19
ATOM     19  O   UNL     1      19.623  93.485   7.521  1.00  0.00    -0.508 OA
ATOM     20  H   UNL     1      19.847  92.498   7.471  1.00  0.00     0.293 HD
ENDBRANCH  15  19
ENDBRANCH  10  11
ENDBRANCH   1  10
TORSDOF 6
ENDMDL
MODEL 7
REMARK VINA RESULT:    10.401      1.628      2.386
REMARK INTER + INTRA:          13.764
REMARK INTER:                  11.278
REMARK INTRA:                   2.486
REMARK UNBOUND:                 0.627
REMARK SMILES Oc1cc(O)cc(CCc2ccccc2O)c1
REMARK SMILES IDX 9 1 10 2 12 3 13 4 11 5 14 6 15 7 16 8 8 10 7 11 6 12 17 13
REMARK SMILES IDX 4 14 2 15 3 16 5 17 1 19
REMARK H PARENT 16 9 5 18 1 20
REMARK Flexibility Score: inf
ROOT
ATOM      1  C   UNL     1      15.143  96.753  10.019  1.00  0.00     0.044 C 
ENDROOT
BRANCH   1   2
ATOM      2  C   UNL     1      16.194  95.756   9.550  1.00  0.00    -0.006 A 
ATOM      3  C   UNL     1      18.429  94.775   9.666  1.00  0.00     0.001 A 
ATOM      4  C   UNL     1      18.104  93.890   8.642  1.00  0.00     0.004 A 
ATOM      5  C   UNL     1      17.488  95.702  10.120  1.00  0.00     0.007 A 
ATOM      6  C   UNL     1      16.835  93.926   8.066  1.00  0.00     0.046 A 
ATOM      7  C   UNL     1      15.878  94.848   8.507  1.00  0.00     0.118 A 
BRANCH   7   8
ATOM      8  O   UNL     1      14.625  94.832   7.888  1.00  0.00    -0.508 OA
ATOM      9  H   UNL     1      14.107  95.668   7.656  1.00  0.00     0.293 HD
ENDBRANCH   7   8
ENDBRANCH   1   2
BRANCH   1  10
ATOM     10  C   UNL     1      15.169  98.129   9.336  1.00  0.00     0.040 C 
BRANCH  10  11
ATOM     11  C   UNL     1      16.574  98.487   8.927  1.00  0.00    -0.040 A 
ATOM     12  C   UNL     1      17.123  99.729   9.288  1.00  0.00     0.050 A 
ATOM     13  C   UNL     1      17.367  97.560   8.230  1.00  0.00     0.050 A 
ATOM     14  C   UNL     1      18.440 100.050   8.936  1.00  0.00     0.119 A 
ATOM     15  C   UNL     1      18.683  97.878   7.879  1.00  0.00     0.119 A 
ATOM     16  C   UNL     1      19.217  99.125   8.231  1.00  0.00     0.092 A 
BRANCH  14  17
ATOM     17  O   UNL     1      18.989 101.282   9.285  1.00  0.00    -0.508 OA
ATOM     18  H   UNL     1      19.559 101.811   8.635  1.00  0.00     0.293 HD
ENDBRANCH  14  17
BRANCH  15  19
ATOM     19  O   UNL     1      19.452  96.948   7.183  1.00  0.00    -0.508 OA
ATOM     20  H   UNL     1      20.212  97.237   6.577  1.00  0.00     0.293 HD
ENDBRANCH  15  19
ENDBRANCH  10  11
ENDBRANCH   1  10
TORSDOF 6
ENDMDL
