MODEL 1
REMARK VINA RESULT:    -4.834      0.000      0.000
REMARK INTER + INTRA:          -4.834
REMARK INTER:                  -4.834
REMARK INTRA:                   0.000
REMARK UNBOUND:                 0.000
REMARK SMILES CC1=CC(=O)[C@@H]2C[C@H]1C2(C)C
REMARK SMILES IDX 1 1 2 2 3 3 4 4 5 5 6 6 7 7 8 8 9 9 10 10 11 11
REMARK H PARENT
REMARK Flexibility Score: inf
ROOT
ATOM      1  C   UNL     1      43.749  61.214  29.535  1.00  0.00     0.040 C 
ATOM      2  C   UNL     1      43.992  59.990  28.710  1.00  0.00    -0.066 C 
ATOM      3  C   UNL     1      45.215  59.731  28.170  1.00  0.00     0.047 C 
ATOM      4  C   UNL     1      45.338  58.457  27.390  1.00  0.00     0.159 C 
ATOM      5  O   UNL     1      46.425  58.086  26.875  1.00  0.00    -0.295 OA
ATOM      6  C   UNL     1      44.053  57.638  27.266  1.00  0.00     0.067 C 
ATOM      7  C   UNL     1      42.974  58.682  26.903  1.00  0.00     0.021 C 
ATOM      8  C   UNL     1      42.869  58.972  28.417  1.00  0.00     0.022 C 
ATOM      9  C   UNL     1      43.396  57.531  28.672  1.00  0.00    -0.019 C 
ATOM     10  C   UNL     1      42.255  56.483  28.712  1.00  0.00     0.012 C 
ATOM     11  C   UNL     1      44.319  57.293  29.902  1.00  0.00     0.012 C 
ENDROOT
TORSDOF 0
ENDMDL
MODEL 2
REMARK VINA RESULT:    -4.749     17.509     18.993
REMARK INTER + INTRA:          -4.749
REMARK INTER:                  -4.749
REMARK INTRA:                   0.000
REMARK UNBOUND:                 0.000
REMARK SMILES CC1=CC(=O)[C@@H]2C[C@H]1C2(C)C
REMARK SMILES IDX 1 1 2 2 3 3 4 4 5 5 6 6 7 7 8 8 9 9 10 10 11 11
REMARK H PARENT
REMARK Flexibility Score: inf
ROOT
ATOM      1  C   UNL     1      60.679  71.645  30.404  1.00  0.00     0.040 C 
ATOM      2  C   UNL     1      60.116  70.309  30.773  1.00  0.00    -0.066 C 
ATOM      3  C   UNL     1      60.922  69.228  30.964  1.00  0.00     0.047 C 
ATOM      4  C   UNL     1      60.240  67.954  31.361  1.00  0.00     0.159 C 
ATOM      5  O   UNL     1      60.878  66.897  31.604  1.00  0.00    -0.295 OA
ATOM      6  C   UNL     1      58.716  68.029  31.454  1.00  0.00     0.067 C 
ATOM      7  C   UNL     1      58.296  68.779  30.170  1.00  0.00     0.021 C 
ATOM      8  C   UNL     1      58.598  70.086  30.940  1.00  0.00     0.022 C 
ATOM      9  C   UNL     1      58.331  69.303  32.258  1.00  0.00    -0.019 C 
ATOM     10  C   UNL     1      56.834  69.317  32.659  1.00  0.00     0.012 C 
ATOM     11  C   UNL     1      59.175  69.668  33.513  1.00  0.00     0.012 C 
ENDROOT
TORSDOF 0
ENDMDL
MODEL 3
REMARK VINA RESULT:    -4.604     18.588     20.326
REMARK INTER + INTRA:          -4.604
REMARK INTER:                  -4.604
REMARK INTRA:                   0.000
REMARK UNBOUND:                 0.000
REMARK SMILES CC1=CC(=O)[C@@H]2C[C@H]1C2(C)C
REMARK SMILES IDX 1 1 2 2 3 3 4 4 5 5 6 6 7 7 8 8 9 9 10 10 11 11
REMARK H PARENT
REMARK Flexibility Score: inf
ROOT
ATOM      1  C   UNL     1      60.610  67.051  31.506  1.00  0.00     0.040 C 
ATOM      2  C   UNL     1      60.286  68.507  31.391  1.00  0.00    -0.066 C 
ATOM      3  C   UNL     1      59.054  68.929  30.989  1.00  0.00     0.047 C 
ATOM      4  C   UNL     1      58.844  70.413  30.945  1.00  0.00     0.159 C 
ATOM      5  O   UNL     1      57.740  70.926  30.628  1.00  0.00    -0.295 OA
ATOM      6  C   UNL     1      60.063  71.258  31.314  1.00  0.00     0.067 C 
ATOM      7  C   UNL     1      61.226  70.604  30.535  1.00  0.00     0.021 C 
ATOM      8  C   UNL     1      61.330  69.599  31.705  1.00  0.00     0.022 C 
ATOM      9  C   UNL     1      60.688  70.683  32.618  1.00  0.00    -0.019 C 
ATOM     10  C   UNL     1      61.743  71.636  33.235  1.00  0.00     0.012 C 
ATOM     11  C   UNL     1      59.730  70.216  33.752  1.00  0.00     0.012 C 
ENDROOT
TORSDOF 0
ENDMDL
MODEL 4
REMARK VINA RESULT:    -4.563     18.638     20.268
REMARK INTER + INTRA:          -4.563
REMARK INTER:                  -4.563
REMARK INTRA:                   0.000
REMARK UNBOUND:                 0.000
REMARK SMILES CC1=CC(=O)[C@@H]2C[C@H]1C2(C)C
REMARK SMILES IDX 1 1 2 2 3 3 4 4 5 5 6 6 7 7 8 8 9 9 10 10 11 11
REMARK H PARENT
REMARK Flexibility Score: inf
ROOT
ATOM      1  C   UNL     1      61.048  71.870  29.847  1.00  0.00     0.040 C 
ATOM      2  C   UNL     1      60.679  71.002  31.008  1.00  0.00    -0.066 C 
ATOM      3  C   UNL     1      59.778  71.415  31.943  1.00  0.00     0.047 C 
ATOM      4  C   UNL     1      59.469  70.442  33.041  1.00  0.00     0.159 C 
ATOM      5  O   UNL     1      58.626  70.689  33.941  1.00  0.00    -0.295 OA
ATOM      6  C   UNL     1      60.248  69.127  32.988  1.00  0.00     0.067 C 
ATOM      7  C   UNL     1      61.703  69.561  32.708  1.00  0.00     0.021 C 
ATOM      8  C   UNL     1      61.309  69.608  31.213  1.00  0.00     0.022 C 
ATOM      9  C   UNL     1      60.191  68.575  31.535  1.00  0.00    -0.019 C 
ATOM     10  C   UNL     1      60.693  67.113  31.439  1.00  0.00     0.012 C 
ATOM     11  C   UNL     1      58.848  68.681  30.757  1.00  0.00     0.012 C 
ENDROOT
TORSDOF 0
ENDMDL
MODEL 5
REMARK VINA RESULT:    -4.478      1.674      3.125
REMARK INTER + INTRA:          -4.478
REMARK INTER:                  -4.478
REMARK INTRA:                   0.000
REMARK UNBOUND:                 0.000
REMARK SMILES CC1=CC(=O)[C@@H]2C[C@H]1C2(C)C
REMARK SMILES IDX 1 1 2 2 3 3 4 4 5 5 6 6 7 7 8 8 9 9 10 10 11 11
REMARK H PARENT
REMARK Flexibility Score: inf
ROOT
ATOM      1  C   UNL     1      47.164  58.737  26.875  1.00  0.00     0.040 C 
ATOM      2  C   UNL     1      45.880  58.575  27.627  1.00  0.00    -0.066 C 
ATOM      3  C   UNL     1      45.544  57.390  28.208  1.00  0.00     0.047 C 
ATOM      4  C   UNL     1      44.248  57.364  28.960  1.00  0.00     0.159 C 
ATOM      5  O   UNL     1      43.846  56.342  29.573  1.00  0.00    -0.295 OA
ATOM      6  C   UNL     1      43.450  58.668  28.932  1.00  0.00     0.067 C 
ATOM      7  C   UNL     1      43.492  59.106  27.452  1.00  0.00     0.021 C 
ATOM      8  C   UNL     1      44.870  59.733  27.768  1.00  0.00     0.022 C 
ATOM      9  C   UNL     1      44.414  59.846  29.251  1.00  0.00    -0.019 C 
ATOM     10  C   UNL     1      43.656  61.168  29.536  1.00  0.00     0.012 C 
ATOM     11  C   UNL     1      45.481  59.646  30.365  1.00  0.00     0.012 C 
ENDROOT
TORSDOF 0
ENDMDL
MODEL 6
REMARK VINA RESULT:    -4.461      1.802      2.515
REMARK INTER + INTRA:          -4.461
REMARK INTER:                  -4.461
REMARK INTRA:                   0.000
REMARK UNBOUND:                 0.000
REMARK SMILES CC1=CC(=O)[C@@H]2C[C@H]1C2(C)C
REMARK SMILES IDX 1 1 2 2 3 3 4 4 5 5 6 6 7 7 8 8 9 9 10 10 11 11
REMARK H PARENT
REMARK Flexibility Score: inf
ROOT
ATOM      1  C   UNL     1      42.470  57.762  31.763  1.00  0.00     0.040 C 
ATOM      2  C   UNL     1      42.828  58.229  30.387  1.00  0.00    -0.066 C 
ATOM      3  C   UNL     1      43.368  59.462  30.176  1.00  0.00     0.047 C 
ATOM      4  C   UNL     1      43.711  59.801  28.757  1.00  0.00     0.159 C 
ATOM      5  O   UNL     1      44.251  60.891  28.438  1.00  0.00    -0.295 OA
ATOM      6  C   UNL     1      43.362  58.727  27.725  1.00  0.00     0.067 C 
ATOM      7  C   UNL     1      41.931  58.289  28.105  1.00  0.00     0.021 C 
ATOM      8  C   UNL     1      42.588  57.349  29.142  1.00  0.00     0.022 C 
ATOM      9  C   UNL     1      43.864  57.352  28.251  1.00  0.00    -0.019 C 
ATOM     10  C   UNL     1      43.824  56.253  27.160  1.00  0.00     0.012 C 
ATOM     11  C   UNL     1      45.250  57.292  28.954  1.00  0.00     0.012 C 
ENDROOT
TORSDOF 0
ENDMDL
MODEL 7
REMARK VINA RESULT:    -4.418     17.335     19.059
REMARK INTER + INTRA:          -4.418
REMARK INTER:                  -4.418
REMARK INTRA:                   0.000
REMARK UNBOUND:                 0.000
REMARK SMILES CC1=CC(=O)[C@@H]2C[C@H]1C2(C)C
REMARK SMILES IDX 1 1 2 2 3 3 4 4 5 5 6 6 7 7 8 8 9 9 10 10 11 11
REMARK H PARENT
REMARK Flexibility Score: inf
ROOT
ATOM      1  C   UNL     1      57.262  68.701  29.506  1.00  0.00     0.040 C 
ATOM      2  C   UNL     1      58.046  68.967  30.752  1.00  0.00    -0.066 C 
ATOM      3  C   UNL     1      57.617  68.526  31.967  1.00  0.00     0.047 C 
ATOM      4  C   UNL     1      58.506  68.830  33.135  1.00  0.00     0.159 C 
ATOM      5  O   UNL     1      58.240  68.442  34.302  1.00  0.00    -0.295 OA
ATOM      6  C   UNL     1      59.761  69.640  32.808  1.00  0.00     0.067 C 
ATOM      7  C   UNL     1      59.250  70.774  31.892  1.00  0.00     0.021 C 
ATOM      8  C   UNL     1      59.366  69.766  30.726  1.00  0.00     0.022 C 
ATOM      9  C   UNL     1      60.444  69.015  31.559  1.00  0.00    -0.019 C 
ATOM     10  C   UNL     1      61.869  69.575  31.323  1.00  0.00     0.012 C 
ATOM     11  C   UNL     1      60.506  67.464  31.450  1.00  0.00     0.012 C 
ENDROOT
TORSDOF 0
ENDMDL
MODEL 8
REMARK VINA RESULT:    -4.342     17.605     19.182
REMARK INTER + INTRA:          -4.342
REMARK INTER:                  -4.342
REMARK INTRA:                   0.000
REMARK UNBOUND:                 0.000
REMARK SMILES CC1=CC(=O)[C@@H]2C[C@H]1C2(C)C
REMARK SMILES IDX 1 1 2 2 3 3 4 4 5 5 6 6 7 7 8 8 9 9 10 10 11 11
REMARK H PARENT
REMARK Flexibility Score: inf
ROOT
ATOM      1  C   UNL     1      57.499  68.766  29.918  1.00  0.00     0.040 C 
ATOM      2  C   UNL     1      58.762  68.751  30.719  1.00  0.00    -0.066 C 
ATOM      3  C   UNL     1      59.689  69.742  30.599  1.00  0.00     0.047 C 
ATOM      4  C   UNL     1      60.898  69.629  31.478  1.00  0.00     0.159 C 
ATOM      5  O   UNL     1      61.805  70.501  31.488  1.00  0.00    -0.295 OA
ATOM      6  C   UNL     1      60.950  68.383  32.363  1.00  0.00     0.067 C 
ATOM      7  C   UNL     1      60.556  67.230  31.414  1.00  0.00     0.021 C 
ATOM      8  C   UNL     1      59.086  67.608  31.705  1.00  0.00     0.022 C 
ATOM      9  C   UNL     1      59.568  68.210  33.056  1.00  0.00    -0.019 C 
ATOM     10  C   UNL     1      59.607  67.156  34.191  1.00  0.00     0.012 C 
ATOM     11  C   UNL     1      58.848  69.480  33.594  1.00  0.00     0.012 C 
ENDROOT
TORSDOF 0
ENDMDL
