MODEL 1
REMARK VINA RESULT:    11.183      0.000      0.000
REMARK INTER + INTRA:          13.938
REMARK INTER:                  13.471
REMARK INTRA:                   0.468
REMARK UNBOUND:                 0.468
REMARK SMILES O=c1c(O)c(-c2ccc(O)c(O)c2)oc2cc(O)cc(O)c12
REMARK SMILES IDX 5 1 3 2 2 3 1 4 22 5 20 6 19 7 17 8 16 9 15 10 14 11 6 12
REMARK SMILES IDX 7 13 8 14 9 15 13 16 11 17 10 18 12 20 4 22 21 24 18 26
REMARK H PARENT 10 19 12 21 4 23 21 25 18 27
REMARK Flexibility Score: inf
ROOT
ATOM      1  C   UNL     1      21.337   7.650   6.525  1.00  0.00     0.180 A 
ATOM      2  C   UNL     1      22.724   7.596   6.306  1.00  0.00     0.208 A 
ATOM      3  C   UNL     1      23.396   6.376   6.490  1.00  0.00     0.238 A 
ATOM      4  O   UNL     1      24.629   6.322   6.240  1.00  0.00    -0.285 OA
ATOM      5  C   UNL     1      22.675   5.231   6.906  1.00  0.00     0.111 A 
ATOM      6  C   UNL     1      23.260   3.954   7.160  1.00  0.00     0.134 A 
ATOM      7  C   UNL     1      22.434   2.859   7.441  1.00  0.00     0.093 A 
ATOM      8  C   UNL     1      21.050   3.008   7.538  1.00  0.00     0.123 A 
ATOM      9  C   UNL     1      20.473   4.264   7.349  1.00  0.00     0.094 A 
ATOM     10  C   UNL     1      21.268   5.368   7.033  1.00  0.00     0.146 A 
ATOM     11  O   UNL     1      20.679   6.543   6.851  1.00  0.00    -0.452 OA
ENDROOT
BRANCH   1  12
ATOM     12  C   UNL     1      20.564   8.904   6.377  1.00  0.00     0.025 A 
ATOM     13  C   UNL     1      19.169   8.889   6.202  1.00  0.00     0.016 A 
ATOM     14  C   UNL     1      18.464  10.083   6.039  1.00  0.00     0.051 A 
ATOM     15  C   UNL     1      19.142  11.309   6.036  1.00  0.00     0.157 A 
ATOM     16  C   UNL     1      21.241  10.134   6.351  1.00  0.00     0.062 A 
ATOM     17  C   UNL     1      20.534  11.335   6.189  1.00  0.00     0.158 A 
BRANCH  15  18
ATOM     18  O   UNL     1      18.442  12.504   5.875  1.00  0.00    -0.504 OA
ATOM     19  H   UNL     1      18.923  13.383   5.724  1.00  0.00     0.293 HD
ENDBRANCH  15  18
BRANCH  17  20
ATOM     20  O   UNL     1      21.207  12.555   6.178  1.00  0.00    -0.504 OA
ATOM     21  H   UNL     1      20.707  13.437   6.209  1.00  0.00     0.293 HD
ENDBRANCH  17  20
ENDBRANCH   1  12
BRANCH   2  22
ATOM     22  O   UNL     1      23.413   8.734   5.875  1.00  0.00    -0.502 OA
ATOM     23  H   UNL     1      24.012   8.730   5.060  1.00  0.00     0.293 HD
ENDBRANCH   2  22
BRANCH   6  24
ATOM     24  O   UNL     1      24.638   3.717   7.179  1.00  0.00    -0.507 OA
ATOM     25  H   UNL     1      25.262   4.011   7.914  1.00  0.00     0.293 HD
ENDBRANCH   6  24
BRANCH   8  26
ATOM     26  O   UNL     1      20.259   1.899   7.833  1.00  0.00    -0.508 OA
ATOM     27  H   UNL     1      19.490   1.958   8.490  1.00  0.00     0.293 HD
ENDBRANCH   8  26
TORSDOF 6
ENDMDL
