MODEL 1
REMARK VINA RESULT:    -4.004      0.000      0.000
REMARK INTER + INTRA:          -5.358
REMARK INTER:                  -5.174
REMARK INTRA:                  -0.184
REMARK UNBOUND:                -0.184
REMARK SMILES CCCCCCC(=O)[O-]
REMARK SMILES IDX 5 1 6 2 7 3 8 4 9 5 4 6 3 7 2 8 1 9
REMARK H PARENT
REMARK Flexibility Score: inf
ROOT
ATOM      1  C   UNL     1       2.543 -37.439  18.550  1.00  0.00     0.006 C 
ENDROOT
BRANCH   1   2
ATOM      2  C   UNL     1       3.960 -36.930  18.843  1.00  0.00     0.053 C 
BRANCH   2   3
ATOM      3  C   UNL     1       4.138 -36.697  20.310  1.00  0.00     0.041 C 
ATOM      4  O   UNL     1       4.006 -37.649  21.123  1.00  0.00    -0.550 OA
ATOM      5  O   UNL     1       4.503 -35.440  20.776  1.00  0.00    -0.550 OA
ENDBRANCH   2   3
ENDBRANCH   1   2
BRANCH   1   6
ATOM      6  C   UNL     1       2.063 -37.076  17.135  1.00  0.00     0.000 C 
BRANCH   6   7
ATOM      7  C   UNL     1       3.069 -36.190  16.380  1.00  0.00    -0.000 C 
BRANCH   7   8
ATOM      8  C   UNL     1       2.948 -36.332  14.854  1.00  0.00    -0.003 C 
ATOM      9  C   UNL     1       3.978 -37.295  14.264  1.00  0.00     0.004 C 
ENDBRANCH   7   8
ENDBRANCH   6   7
ENDBRANCH   1   6
TORSDOF 5
ENDMDL
MODEL 2
REMARK VINA RESULT:    -3.797      1.126      1.541
REMARK INTER + INTRA:          -5.091
REMARK INTER:                  -5.005
REMARK INTRA:                  -0.086
REMARK UNBOUND:                -0.184
REMARK SMILES CCCCCCC(=O)[O-]
REMARK SMILES IDX 5 1 6 2 7 3 8 4 9 5 4 6 3 7 2 8 1 9
REMARK H PARENT
REMARK Flexibility Score: inf
ROOT
ATOM      1  C   UNL     1       3.586 -37.145  19.433  1.00  0.00     0.006 C 
ENDROOT
BRANCH   1   2
ATOM      2  C   UNL     1       4.928 -36.834  20.110  1.00  0.00     0.053 C 
BRANCH   2   3
ATOM      3  C   UNL     1       4.742 -36.663  21.584  1.00  0.00     0.041 C 
ATOM      4  O   UNL     1       4.968 -37.622  22.367  1.00  0.00    -0.550 OA
ATOM      5  O   UNL     1       4.368 -35.428  22.100  1.00  0.00    -0.550 OA
ENDBRANCH   2   3
ENDBRANCH   1   2
BRANCH   1   6
ATOM      6  C   UNL     1       3.588 -36.810  17.932  1.00  0.00     0.000 C 
BRANCH   6   7
ATOM      7  C   UNL     1       2.237 -37.106  17.260  1.00  0.00    -0.000 C 
BRANCH   7   8
ATOM      8  C   UNL     1       1.927 -36.135  16.109  1.00  0.00    -0.003 C 
ATOM      9  C   UNL     1       2.880 -36.298  14.924  1.00  0.00     0.004 C 
ENDBRANCH   7   8
ENDBRANCH   6   7
ENDBRANCH   1   6
TORSDOF 5
ENDMDL
MODEL 3
REMARK VINA RESULT:    -3.737      3.220      5.029
REMARK INTER + INTRA:          -5.013
REMARK INTER:                  -4.840
REMARK INTRA:                  -0.173
REMARK UNBOUND:                -0.184
REMARK SMILES CCCCCCC(=O)[O-]
REMARK SMILES IDX 5 1 6 2 7 3 8 4 9 5 4 6 3 7 2 8 1 9
REMARK H PARENT
REMARK Flexibility Score: inf
ROOT
ATOM      1  C   UNL     1       2.111 -36.948  17.236  1.00  0.00     0.006 C 
ENDROOT
BRANCH   1   2
ATOM      2  C   UNL     1       3.303 -36.404  16.437  1.00  0.00     0.053 C 
BRANCH   2   3
ATOM      3  C   UNL     1       3.247 -36.888  15.022  1.00  0.00     0.041 C 
ATOM      4  O   UNL     1       2.490 -36.324  14.189  1.00  0.00    -0.550 OA
ATOM      5  O   UNL     1       4.070 -37.928  14.610  1.00  0.00    -0.550 OA
ENDBRANCH   2   3
ENDBRANCH   1   2
BRANCH   1   6
ATOM      6  C   UNL     1       2.516 -37.462  18.627  1.00  0.00     0.000 C 
BRANCH   6   7
ATOM      7  C   UNL     1       3.956 -37.077  19.003  1.00  0.00    -0.000 C 
BRANCH   7   8
ATOM      8  C   UNL     1       4.163 -36.982  20.523  1.00  0.00    -0.003 C 
ATOM      9  C   UNL     1       4.454 -35.557  20.995  1.00  0.00     0.004 C 
ENDBRANCH   7   8
ENDBRANCH   6   7
ENDBRANCH   1   6
TORSDOF 5
ENDMDL
MODEL 4
REMARK VINA RESULT:    -3.673      2.997      5.128
REMARK INTER + INTRA:          -4.931
REMARK INTER:                  -4.781
REMARK INTRA:                  -0.149
REMARK UNBOUND:                -0.184
REMARK SMILES CCCCCCC(=O)[O-]
REMARK SMILES IDX 5 1 6 2 7 3 8 4 9 5 4 6 3 7 2 8 1 9
REMARK H PARENT
REMARK Flexibility Score: inf
ROOT
ATOM      1  C   UNL     1       3.289 -37.160  18.526  1.00  0.00     0.006 C 
ENDROOT
BRANCH   1   2
ATOM      2  C   UNL     1       3.596 -36.257  17.324  1.00  0.00     0.053 C 
BRANCH   2   3
ATOM      3  C   UNL     1       2.950 -36.796  16.087  1.00  0.00     0.041 C 
ATOM      4  O   UNL     1       1.777 -36.454  15.784  1.00  0.00    -0.550 OA
ATOM      5  O   UNL     1       3.661 -37.637  15.240  1.00  0.00    -0.550 OA
ENDBRANCH   2   3
ENDBRANCH   1   2
BRANCH   1   6
ATOM      6  C   UNL     1       4.447 -37.218  19.535  1.00  0.00     0.000 C 
BRANCH   6   7
ATOM      7  C   UNL     1       4.909 -35.821  19.984  1.00  0.00    -0.000 C 
BRANCH   7   8
ATOM      8  C   UNL     1       4.407 -35.459  21.391  1.00  0.00    -0.003 C 
ATOM      9  C   UNL     1       4.958 -36.388  22.474  1.00  0.00     0.004 C 
ENDBRANCH   7   8
ENDBRANCH   6   7
ENDBRANCH   1   6
TORSDOF 5
ENDMDL
MODEL 5
REMARK VINA RESULT:    -3.502      2.672      5.363
REMARK INTER + INTRA:          -4.710
REMARK INTER:                  -4.528
REMARK INTRA:                  -0.182
REMARK UNBOUND:                -0.184
REMARK SMILES CCCCCCC(=O)[O-]
REMARK SMILES IDX 5 1 6 2 7 3 8 4 9 5 4 6 3 7 2 8 1 9
REMARK H PARENT
REMARK Flexibility Score: inf
ROOT
ATOM      1  C   UNL     1       3.761 -36.970  19.962  1.00  0.00     0.006 C 
ENDROOT
BRANCH   1   2
ATOM      2  C   UNL     1       4.005 -36.632  18.485  1.00  0.00     0.053 C 
BRANCH   2   3
ATOM      3  C   UNL     1       2.899 -37.173  17.636  1.00  0.00     0.041 C 
ATOM      4  O   UNL     1       3.098 -37.420  16.418  1.00  0.00    -0.550 OA
ATOM      5  O   UNL     1       1.662 -37.455  18.201  1.00  0.00    -0.550 OA
ENDBRANCH   2   3
ENDBRANCH   1   2
BRANCH   1   6
ATOM      6  C   UNL     1       4.367 -35.928  20.917  1.00  0.00     0.000 C 
BRANCH   6   7
ATOM      7  C   UNL     1       5.125 -36.572  22.089  1.00  0.00    -0.000 C 
BRANCH   7   8
ATOM      8  C   UNL     1       5.097 -38.109  22.036  1.00  0.00    -0.003 C 
ATOM      9  C   UNL     1       4.999 -38.748  23.421  1.00  0.00     0.004 C 
ENDBRANCH   7   8
ENDBRANCH   6   7
ENDBRANCH   1   6
TORSDOF 5
ENDMDL
MODEL 6
REMARK VINA RESULT:    -3.209      2.942      4.321
REMARK INTER + INTRA:          -4.331
REMARK INTER:                  -4.124
REMARK INTRA:                  -0.208
REMARK UNBOUND:                -0.184
REMARK SMILES CCCCCCC(=O)[O-]
REMARK SMILES IDX 5 1 6 2 7 3 8 4 9 5 4 6 3 7 2 8 1 9
REMARK H PARENT
REMARK Flexibility Score: inf
ROOT
ATOM      1  C   UNL     1       4.877 -36.310  22.288  1.00  0.00     0.006 C 
ENDROOT
BRANCH   1   2
ATOM      2  C   UNL     1       5.076 -37.824  22.438  1.00  0.00     0.053 C 
BRANCH   2   3
ATOM      3  C   UNL     1       5.103 -38.205  23.885  1.00  0.00     0.041 C 
ATOM      4  O   UNL     1       5.059 -37.317  24.775  1.00  0.00    -0.550 OA
ATOM      5  O   UNL     1       5.125 -39.545  24.251  1.00  0.00    -0.550 OA
ENDBRANCH   2   3
ENDBRANCH   1   2
BRANCH   1   6
ATOM      6  C   UNL     1       4.150 -35.934  20.986  1.00  0.00     0.000 C 
BRANCH   6   7
ATOM      7  C   UNL     1       4.850 -36.493  19.736  1.00  0.00    -0.000 C 
BRANCH   7   8
ATOM      8  C   UNL     1       3.894 -36.635  18.540  1.00  0.00    -0.003 C 
ATOM      9  C   UNL     1       2.661 -37.478  18.865  1.00  0.00     0.004 C 
ENDBRANCH   7   8
ENDBRANCH   6   7
ENDBRANCH   1   6
TORSDOF 5
ENDMDL
MODEL 7
REMARK VINA RESULT:    -3.076      1.992      3.130
REMARK INTER + INTRA:          -4.159
REMARK INTER:                  -4.077
REMARK INTRA:                  -0.083
REMARK UNBOUND:                -0.184
REMARK SMILES CCCCCCC(=O)[O-]
REMARK SMILES IDX 5 1 6 2 7 3 8 4 9 5 4 6 3 7 2 8 1 9
REMARK H PARENT
REMARK Flexibility Score: inf
ROOT
ATOM      1  C   UNL     1       4.006 -37.520  20.895  1.00  0.00     0.006 C 
ENDROOT
BRANCH   1   2
ATOM      2  C   UNL     1       4.897 -37.691  22.133  1.00  0.00     0.053 C 
BRANCH   2   3
ATOM      3  C   UNL     1       4.964 -36.413  22.908  1.00  0.00     0.041 C 
ATOM      4  O   UNL     1       5.006 -36.437  24.166  1.00  0.00    -0.550 OA
ATOM      5  O   UNL     1       5.034 -35.197  22.240  1.00  0.00    -0.550 OA
ENDBRANCH   2   3
ENDBRANCH   1   2
BRANCH   1   6
ATOM      6  C   UNL     1       4.811 -37.190  19.627  1.00  0.00     0.000 C 
BRANCH   6   7
ATOM      7  C   UNL     1       3.925 -36.666  18.485  1.00  0.00    -0.000 C 
BRANCH   7   8
ATOM      8  C   UNL     1       2.563 -37.376  18.423  1.00  0.00    -0.003 C 
ATOM      9  C   UNL     1       1.769 -37.027  17.164  1.00  0.00     0.004 C 
ENDBRANCH   7   8
ENDBRANCH   6   7
ENDBRANCH   1   6
TORSDOF 5
ENDMDL
MODEL 8
REMARK VINA RESULT:    -3.006      3.907      6.587
REMARK INTER + INTRA:          -4.069
REMARK INTER:                  -3.863
REMARK INTRA:                  -0.206
REMARK UNBOUND:                -0.184
REMARK SMILES CCCCCCC(=O)[O-]
REMARK SMILES IDX 5 1 6 2 7 3 8 4 9 5 4 6 3 7 2 8 1 9
REMARK H PARENT
REMARK Flexibility Score: inf
ROOT
ATOM      1  C   UNL     1       5.025 -38.299  21.659  1.00  0.00     0.006 C 
ENDROOT
BRANCH   1   2
ATOM      2  C   UNL     1       4.142 -37.454  20.731  1.00  0.00     0.053 C 
BRANCH   2   3
ATOM      3  C   UNL     1       4.522 -36.010  20.821  1.00  0.00     0.041 C 
ATOM      4  O   UNL     1       4.546 -35.430  21.938  1.00  0.00    -0.550 OA
ATOM      5  O   UNL     1       4.901 -35.317  19.678  1.00  0.00    -0.550 OA
ENDBRANCH   2   3
ENDBRANCH   1   2
BRANCH   1   6
ATOM      6  C   UNL     1       4.264 -38.823  22.888  1.00  0.00     0.000 C 
BRANCH   6   7
ATOM      7  C   UNL     1       5.123 -38.814  24.163  1.00  0.00    -0.000 C 
BRANCH   7   8
ATOM      8  C   UNL     1       5.091 -37.457  24.885  1.00  0.00    -0.003 C 
ATOM      9  C   UNL     1       4.326 -37.508  26.208  1.00  0.00     0.004 C 
ENDBRANCH   7   8
ENDBRANCH   6   7
ENDBRANCH   1   6
TORSDOF 5
ENDMDL
MODEL 9
REMARK VINA RESULT:    -2.671      3.293      6.489
REMARK INTER + INTRA:          -3.636
REMARK INTER:                  -3.573
REMARK INTRA:                  -0.064
REMARK UNBOUND:                -0.184
REMARK SMILES CCCCCCC(=O)[O-]
REMARK SMILES IDX 5 1 6 2 7 3 8 4 9 5 4 6 3 7 2 8 1 9
REMARK H PARENT
REMARK Flexibility Score: inf
ROOT
ATOM      1  C   UNL     1       3.934 -36.087  21.945  1.00  0.00     0.006 C 
ENDROOT
BRANCH   1   2
ATOM      2  C   UNL     1       4.608 -35.619  20.648  1.00  0.00     0.053 C 
BRANCH   2   3
ATOM      3  C   UNL     1       4.566 -36.704  19.618  1.00  0.00     0.041 C 
ATOM      4  O   UNL     1       5.115 -37.814  19.845  1.00  0.00    -0.550 OA
ATOM      5  O   UNL     1       3.877 -36.507  18.428  1.00  0.00    -0.550 OA
ENDBRANCH   2   3
ENDBRANCH   1   2
BRANCH   1   6
ATOM      6  C   UNL     1       4.928 -36.711  22.938  1.00  0.00     0.000 C 
BRANCH   6   7
ATOM      7  C   UNL     1       5.125 -35.849  24.197  1.00  0.00    -0.000 C 
BRANCH   7   8
ATOM      8  C   UNL     1       4.854 -36.630  25.493  1.00  0.00    -0.003 C 
ATOM      9  C   UNL     1       4.915 -38.145  25.296  1.00  0.00     0.004 C 
ENDBRANCH   7   8
ENDBRANCH   6   7
ENDBRANCH   1   6
TORSDOF 5
ENDMDL
