MODEL 1
REMARK VINA RESULT:    -4.217      0.000      0.000
REMARK INTER + INTRA:          -4.562
REMARK INTER:                  -4.464
REMARK INTRA:                  -0.098
REMARK UNBOUND:                -0.098
REMARK SMILES C=C(C)[C@H]1CC=C(C)C(=O)C1
REMARK SMILES IDX 8 1 7 2 6 3 5 4 4 5 11 6 9 7 10 8 2 9 1 10 3 11
REMARK H PARENT
REMARK Flexibility Score: inf
ROOT
ATOM      1  C   UNL     1      27.753  27.271  25.307  1.00  0.00     0.048 C 
ATOM      2  C   UNL     1      28.218  28.608  24.800  1.00  0.00    -0.012 C 
ATOM      3  C   UNL     1      28.272  28.842  23.477  1.00  0.00    -0.019 C 
ATOM      4  C   UNL     1      28.746  30.155  22.916  1.00  0.00     0.036 C 
ATOM      5  C   UNL     1      28.380  31.322  23.853  1.00  0.00     0.025 C 
ATOM      6  C   UNL     1      28.923  31.063  25.269  1.00  0.00     0.089 C 
ATOM      7  C   UNL     1      28.496  29.707  25.759  1.00  0.00     0.158 C 
ATOM      8  O   UNL     1      28.411  29.501  27.000  1.00  0.00    -0.295 OA
ENDROOT
BRANCH   5   9
ATOM      9  C   UNL     1      28.872  32.654  23.303  1.00  0.00    -0.077 C 
ATOM     10  C   UNL     1      29.125  32.789  21.991  1.00  0.00     0.008 C 
ATOM     11  C   UNL     1      29.084  33.846  24.203  1.00  0.00     0.039 C 
ENDBRANCH   5   9
TORSDOF 1
ENDMDL
MODEL 2
REMARK VINA RESULT:    -3.977      9.408     11.716
REMARK INTER + INTRA:          -4.307
REMARK INTER:                  -4.220
REMARK INTRA:                  -0.087
REMARK UNBOUND:                -0.098
REMARK SMILES C=C(C)[C@H]1CC=C(C)C(=O)C1
REMARK SMILES IDX 8 1 7 2 6 3 5 4 4 5 11 6 9 7 10 8 2 9 1 10 3 11
REMARK H PARENT
REMARK Flexibility Score: inf
ROOT
ATOM      1  C   UNL     1      25.775  37.728  20.542  1.00  0.00     0.048 C 
ATOM      2  C   UNL     1      26.133  39.148  20.200  1.00  0.00    -0.012 C 
ATOM      3  C   UNL     1      25.857  40.136  21.069  1.00  0.00    -0.019 C 
ATOM      4  C   UNL     1      26.177  41.576  20.769  1.00  0.00     0.036 C 
ATOM      5  C   UNL     1      27.445  41.693  19.903  1.00  0.00     0.025 C 
ATOM      6  C   UNL     1      27.300  40.850  18.624  1.00  0.00     0.089 C 
ATOM      7  C   UNL     1      26.899  39.440  18.962  1.00  0.00     0.158 C 
ATOM      8  O   UNL     1      27.190  38.510  18.163  1.00  0.00    -0.295 OA
ENDROOT
BRANCH   5   9
ATOM      9  C   UNL     1      27.767  43.145  19.578  1.00  0.00    -0.077 C 
ATOM     10  C   UNL     1      28.922  43.689  19.993  1.00  0.00     0.008 C 
ATOM     11  C   UNL     1      26.810  44.004  18.788  1.00  0.00     0.039 C 
ENDBRANCH   5   9
TORSDOF 1
ENDMDL
MODEL 3
REMARK VINA RESULT:    -3.897      8.591     11.317
REMARK INTER + INTRA:          -4.223
REMARK INTER:                  -4.126
REMARK INTRA:                  -0.098
REMARK UNBOUND:                -0.098
REMARK SMILES C=C(C)[C@H]1CC=C(C)C(=O)C1
REMARK SMILES IDX 8 1 7 2 6 3 5 4 4 5 11 6 9 7 10 8 2 9 1 10 3 11
REMARK H PARENT
REMARK Flexibility Score: inf
ROOT
ATOM      1  C   UNL     1      27.467  43.097  19.102  1.00  0.00     0.048 C 
ATOM      2  C   UNL     1      27.011  41.697  19.407  1.00  0.00    -0.012 C 
ATOM      3  C   UNL     1      27.379  40.683  18.605  1.00  0.00    -0.019 C 
ATOM      4  C   UNL     1      26.936  39.266  18.853  1.00  0.00     0.036 C 
ATOM      5  C   UNL     1      26.783  38.991  20.361  1.00  0.00     0.025 C 
ATOM      6  C   UNL     1      25.833  40.019  21.000  1.00  0.00     0.089 C 
ATOM      7  C   UNL     1      26.262  41.419  20.659  1.00  0.00     0.158 C 
ATOM      8  O   UNL     1      25.948  42.364  21.431  1.00  0.00    -0.295 OA
ENDROOT
BRANCH   5   9
ATOM      9  C   UNL     1      26.317  37.565  20.623  1.00  0.00    -0.077 C 
ATOM     10  C   UNL     1      25.005  37.289  20.704  1.00  0.00     0.008 C 
ATOM     11  C   UNL     1      27.302  36.435  20.792  1.00  0.00     0.039 C 
ENDBRANCH   5   9
TORSDOF 1
ENDMDL
MODEL 4
REMARK VINA RESULT:    -3.839      8.483     10.814
REMARK INTER + INTRA:          -4.161
REMARK INTER:                  -4.064
REMARK INTRA:                  -0.097
REMARK UNBOUND:                -0.098
REMARK SMILES C=C(C)[C@H]1CC=C(C)C(=O)C1
REMARK SMILES IDX 8 1 7 2 6 3 5 4 4 5 11 6 9 7 10 8 2 9 1 10 3 11
REMARK H PARENT
REMARK Flexibility Score: inf
ROOT
ATOM      1  C   UNL     1      28.469  36.808  19.825  1.00  0.00     0.048 C 
ATOM      2  C   UNL     1      28.030  38.235  20.003  1.00  0.00    -0.012 C 
ATOM      3  C   UNL     1      28.943  39.222  20.014  1.00  0.00    -0.019 C 
ATOM      4  C   UNL     1      28.560  40.664  20.207  1.00  0.00     0.036 C 
ATOM      5  C   UNL     1      27.173  40.954  19.601  1.00  0.00     0.025 C 
ATOM      6  C   UNL     1      26.124  39.989  20.180  1.00  0.00     0.089 C 
ATOM      7  C   UNL     1      26.582  38.564  20.043  1.00  0.00     0.158 C 
ATOM      8  O   UNL     1      25.722  37.643  19.997  1.00  0.00    -0.295 OA
ENDROOT
BRANCH   5   9
ATOM      9  C   UNL     1      26.768  42.407  19.808  1.00  0.00    -0.077 C 
ATOM     10  C   UNL     1      26.257  42.803  20.985  1.00  0.00     0.008 C 
ATOM     11  C   UNL     1      26.930  43.432  18.712  1.00  0.00     0.039 C 
ENDBRANCH   5   9
TORSDOF 1
ENDMDL
MODEL 5
REMARK VINA RESULT:    -3.675      1.479      2.297
REMARK INTER + INTRA:          -3.987
REMARK INTER:                  -3.889
REMARK INTRA:                  -0.098
REMARK UNBOUND:                -0.098
REMARK SMILES C=C(C)[C@H]1CC=C(C)C(=O)C1
REMARK SMILES IDX 8 1 7 2 6 3 5 4 4 5 11 6 9 7 10 8 2 9 1 10 3 11
REMARK H PARENT
REMARK Flexibility Score: inf
ROOT
ATOM      1  C   UNL     1      28.360  27.796  25.879  1.00  0.00     0.048 C 
ATOM      2  C   UNL     1      28.375  29.241  25.464  1.00  0.00    -0.012 C 
ATOM      3  C   UNL     1      29.090  30.133  26.171  1.00  0.00    -0.019 C 
ATOM      4  C   UNL     1      29.125  31.594  25.811  1.00  0.00     0.036 C 
ATOM      5  C   UNL     1      29.004  31.792  24.288  1.00  0.00     0.025 C 
ATOM      6  C   UNL     1      27.742  31.091  23.756  1.00  0.00     0.089 C 
ATOM      7  C   UNL     1      27.703  29.657  24.207  1.00  0.00     0.158 C 
ATOM      8  O   UNL     1      27.062  28.814  23.523  1.00  0.00    -0.295 OA
ENDROOT
BRANCH   5   9
ATOM      9  C   UNL     1      29.019  33.268  23.915  1.00  0.00    -0.077 C 
ATOM     10  C   UNL     1      29.118  34.204  24.872  1.00  0.00     0.008 C 
ATOM     11  C   UNL     1      28.929  33.716  22.477  1.00  0.00     0.039 C 
ENDBRANCH   5   9
TORSDOF 1
ENDMDL
MODEL 6
REMARK VINA RESULT:    -3.611      9.582     12.229
REMARK INTER + INTRA:          -3.920
REMARK INTER:                  -3.821
REMARK INTRA:                  -0.099
REMARK UNBOUND:                -0.098
REMARK SMILES C=C(C)[C@H]1CC=C(C)C(=O)C1
REMARK SMILES IDX 8 1 7 2 6 3 5 4 4 5 11 6 9 7 10 8 2 9 1 10 3 11
REMARK H PARENT
REMARK Flexibility Score: inf
ROOT
ATOM      1  C   UNL     1      27.201  44.125  21.644  1.00  0.00     0.048 C 
ATOM      2  C   UNL     1      27.229  42.742  21.055  1.00  0.00    -0.012 C 
ATOM      3  C   UNL     1      27.338  41.672  21.862  1.00  0.00    -0.019 C 
ATOM      4  C   UNL     1      27.390  40.267  21.323  1.00  0.00     0.036 C 
ATOM      5  C   UNL     1      26.550  40.135  20.039  1.00  0.00     0.025 C 
ATOM      6  C   UNL     1      26.998  41.175  18.997  1.00  0.00     0.089 C 
ATOM      7  C   UNL     1      27.012  42.554  19.598  1.00  0.00     0.158 C 
ATOM      8  O   UNL     1      26.874  43.555  18.844  1.00  0.00    -0.295 OA
ENDROOT
BRANCH   5   9
ATOM      9  C   UNL     1      26.611  38.722  19.476  1.00  0.00    -0.077 C 
ATOM     10  C   UNL     1      27.157  38.500  18.269  1.00  0.00     0.008 C 
ATOM     11  C   UNL     1      26.069  37.544  20.248  1.00  0.00     0.039 C 
ENDBRANCH   5   9
TORSDOF 1
ENDMDL
MODEL 7
REMARK VINA RESULT:    -3.538      6.013      8.765
REMARK INTER + INTRA:          -3.842
REMARK INTER:                  -3.744
REMARK INTRA:                  -0.098
REMARK UNBOUND:                -0.098
REMARK SMILES C=C(C)[C@H]1CC=C(C)C(=O)C1
REMARK SMILES IDX 8 1 7 2 6 3 5 4 4 5 11 6 9 7 10 8 2 9 1 10 3 11
REMARK H PARENT
REMARK Flexibility Score: inf
ROOT
ATOM      1  C   UNL     1      26.413  39.978  19.766  1.00  0.00     0.048 C 
ATOM      2  C   UNL     1      27.014  38.678  20.222  1.00  0.00    -0.012 C 
ATOM      3  C   UNL     1      26.337  37.888  21.074  1.00  0.00    -0.019 C 
ATOM      4  C   UNL     1      26.900  36.587  21.577  1.00  0.00     0.036 C 
ATOM      5  C   UNL     1      27.792  35.921  20.512  1.00  0.00     0.025 C 
ATOM      6  C   UNL     1      28.893  36.894  20.052  1.00  0.00     0.089 C 
ATOM      7  C   UNL     1      28.296  38.210  19.637  1.00  0.00     0.158 C 
ATOM      8  O   UNL     1      28.916  38.933  18.811  1.00  0.00    -0.295 OA
ENDROOT
BRANCH   5   9
ATOM      9  C   UNL     1      28.382  34.612  21.018  1.00  0.00    -0.077 C 
ATOM     10  C   UNL     1      28.340  34.315  22.326  1.00  0.00     0.008 C 
ATOM     11  C   UNL     1      29.021  33.622  20.075  1.00  0.00     0.039 C 
ENDBRANCH   5   9
TORSDOF 1
ENDMDL
MODEL 8
REMARK VINA RESULT:    -3.528      1.305      4.710
REMARK INTER + INTRA:          -3.832
REMARK INTER:                  -3.744
REMARK INTRA:                  -0.088
REMARK UNBOUND:                -0.098
REMARK SMILES C=C(C)[C@H]1CC=C(C)C(=O)C1
REMARK SMILES IDX 8 1 7 2 6 3 5 4 4 5 11 6 9 7 10 8 2 9 1 10 3 11
REMARK H PARENT
REMARK Flexibility Score: inf
ROOT
ATOM      1  C   UNL     1      28.529  31.871  23.652  1.00  0.00     0.048 C 
ATOM      2  C   UNL     1      28.261  30.532  24.280  1.00  0.00    -0.012 C 
ATOM      3  C   UNL     1      27.819  29.513  23.521  1.00  0.00    -0.019 C 
ATOM      4  C   UNL     1      27.517  28.158  24.101  1.00  0.00     0.036 C 
ATOM      5  C   UNL     1      28.452  27.840  25.283  1.00  0.00     0.025 C 
ATOM      6  C   UNL     1      28.376  28.956  26.340  1.00  0.00     0.089 C 
ATOM      7  C   UNL     1      28.601  30.301  25.706  1.00  0.00     0.158 C 
ATOM      8  O   UNL     1      29.050  31.245  26.411  1.00  0.00    -0.295 OA
ENDROOT
BRANCH   5   9
ATOM      9  C   UNL     1      28.142  26.478  25.889  1.00  0.00    -0.077 C 
ATOM     10  C   UNL     1      29.125  25.581  26.069  1.00  0.00     0.008 C 
ATOM     11  C   UNL     1      26.741  26.103  26.303  1.00  0.00     0.039 C 
ENDBRANCH   5   9
TORSDOF 1
ENDMDL
MODEL 9
REMARK VINA RESULT:    -3.508      5.935      8.065
REMARK INTER + INTRA:          -3.811
REMARK INTER:                  -3.717
REMARK INTRA:                  -0.095
REMARK UNBOUND:                -0.098
REMARK SMILES C=C(C)[C@H]1CC=C(C)C(=O)C1
REMARK SMILES IDX 8 1 7 2 6 3 5 4 4 5 11 6 9 7 10 8 2 9 1 10 3 11
REMARK H PARENT
REMARK Flexibility Score: inf
ROOT
ATOM      1  C   UNL     1      28.375  34.147  21.655  1.00  0.00     0.048 C 
ATOM      2  C   UNL     1      28.317  35.469  20.941  1.00  0.00    -0.012 C 
ATOM      3  C   UNL     1      29.125  35.700  19.891  1.00  0.00    -0.019 C 
ATOM      4  C   UNL     1      29.121  37.011  19.153  1.00  0.00     0.036 C 
ATOM      5  C   UNL     1      27.714  37.639  19.148  1.00  0.00     0.025 C 
ATOM      6  C   UNL     1      27.186  37.779  20.587  1.00  0.00     0.089 C 
ATOM      7  C   UNL     1      27.285  36.467  21.316  1.00  0.00     0.158 C 
ATOM      8  O   UNL     1      26.502  36.238  22.277  1.00  0.00    -0.295 OA
ENDROOT
BRANCH   5   9
ATOM      9  C   UNL     1      27.703  38.976  18.419  1.00  0.00    -0.077 C 
ATOM     10  C   UNL     1      28.304  39.097  17.224  1.00  0.00     0.008 C 
ATOM     11  C   UNL     1      27.023  40.187  19.009  1.00  0.00     0.039 C 
ENDBRANCH   5   9
TORSDOF 1
ENDMDL
