MODEL 1
REMARK VINA RESULT:    -3.642      0.000      0.000
REMARK INTER + INTRA:          -6.511
REMARK INTER:                  -5.771
REMARK INTRA:                  -0.740
REMARK UNBOUND:                -0.740
REMARK SMILES CCCCCCCCCCCC(=O)[O-]
REMARK SMILES IDX 7 1 8 2 9 3 10 4 11 5 12 6 13 7 14 8 6 9 5 10 4 11 3 12 2 13
REMARK SMILES IDX 1 14
REMARK H PARENT
REMARK Flexibility Score: inf
ROOT
ATOM      1  C   UNL     1      58.834  29.696  49.575  1.00  0.00     0.000 C 
ENDROOT
BRANCH   1   2
ATOM      2  C   UNL     1      59.258  28.301  49.099  1.00  0.00     0.000 C 
BRANCH   2   3
ATOM      3  C   UNL     1      60.700  27.990  49.516  1.00  0.00     0.000 C 
BRANCH   3   4
ATOM      4  C   UNL     1      60.734  26.949  50.644  1.00  0.00     0.006 C 
BRANCH   4   5
ATOM      5  C   UNL     1      60.555  25.518  50.121  1.00  0.00     0.053 C 
BRANCH   5   6
ATOM      6  C   UNL     1      59.417  24.818  50.798  1.00  0.00     0.041 C 
ATOM      7  O   UNL     1      59.619  23.758  51.446  1.00  0.00    -0.550 OA
ATOM      8  O   UNL     1      58.138  25.356  50.742  1.00  0.00    -0.550 OA
ENDBRANCH   5   6
ENDBRANCH   4   5
ENDBRANCH   3   4
ENDBRANCH   2   3
ENDBRANCH   1   2
BRANCH   1   9
ATOM      9  C   UNL     1      57.774  29.602  50.679  1.00  0.00     0.000 C 
BRANCH   9  10
ATOM     10  C   UNL     1      56.768  28.480  50.380  1.00  0.00    -0.000 C 
BRANCH  10  11
ATOM     11  C   UNL     1      55.320  28.884  50.701  1.00  0.00    -0.000 C 
BRANCH  11  12
ATOM     12  C   UNL     1      54.286  27.981  50.007  1.00  0.00    -0.000 C 
BRANCH  12  13
ATOM     13  C   UNL     1      54.813  26.558  49.768  1.00  0.00    -0.003 C 
ATOM     14  C   UNL     1      53.815  25.678  49.017  1.00  0.00     0.004 C 
ENDBRANCH  12  13
ENDBRANCH  11  12
ENDBRANCH  10  11
ENDBRANCH   9  10
ENDBRANCH   1   9
TORSDOF 10
ENDMDL
MODEL 2
REMARK VINA RESULT:    -3.506      2.108      4.750
REMARK INTER + INTRA:          -6.296
REMARK INTER:                  -5.039
REMARK INTRA:                  -1.257
REMARK UNBOUND:                -0.740
REMARK SMILES CCCCCCCCCCCC(=O)[O-]
REMARK SMILES IDX 7 1 8 2 9 3 10 4 11 5 12 6 13 7 14 8 6 9 5 10 4 11 3 12 2 13
REMARK SMILES IDX 1 14
REMARK H PARENT
REMARK Flexibility Score: inf
ROOT
ATOM      1  C   UNL     1      58.292  29.248  51.313  1.00  0.00     0.000 C 
ENDROOT
BRANCH   1   2
ATOM      2  C   UNL     1      56.898  28.721  51.675  1.00  0.00     0.000 C 
BRANCH   2   3
ATOM      3  C   UNL     1      55.819  29.375  50.805  1.00  0.00     0.000 C 
BRANCH   3   4
ATOM      4  C   UNL     1      54.765  28.347  50.368  1.00  0.00     0.006 C 
BRANCH   4   5
ATOM      5  C   UNL     1      55.391  26.998  49.990  1.00  0.00     0.053 C 
BRANCH   5   6
ATOM      6  C   UNL     1      54.358  25.918  49.885  1.00  0.00     0.041 C 
ATOM      7  O   UNL     1      53.879  25.605  48.764  1.00  0.00    -0.550 OA
ATOM      8  O   UNL     1      53.949  25.235  51.023  1.00  0.00    -0.550 OA
ENDBRANCH   5   6
ENDBRANCH   4   5
ENDBRANCH   3   4
ENDBRANCH   2   3
ENDBRANCH   1   2
BRANCH   1   9
ATOM      9  C   UNL     1      58.353  29.676  49.842  1.00  0.00     0.000 C 
BRANCH   9  10
ATOM     10  C   UNL     1      59.155  28.665  49.008  1.00  0.00    -0.000 C 
BRANCH  10  11
ATOM     11  C   UNL     1      60.042  27.756  49.875  1.00  0.00    -0.000 C 
BRANCH  11  12
ATOM     12  C   UNL     1      59.710  26.264  49.699  1.00  0.00    -0.000 C 
BRANCH  12  13
ATOM     13  C   UNL     1      59.648  25.513  51.037  1.00  0.00    -0.003 C 
ATOM     14  C   UNL     1      58.215  25.254  51.502  1.00  0.00     0.004 C 
ENDBRANCH  12  13
ENDBRANCH  11  12
ENDBRANCH  10  11
ENDBRANCH   9  10
ENDBRANCH   1   9
TORSDOF 10
ENDMDL
MODEL 3
REMARK VINA RESULT:    -3.449      6.211      9.332
REMARK INTER + INTRA:          -6.205
REMARK INTER:                  -5.479
REMARK INTRA:                  -0.726
REMARK UNBOUND:                -0.740
REMARK SMILES CCCCCCCCCCCC(=O)[O-]
REMARK SMILES IDX 7 1 8 2 9 3 10 4 11 5 12 6 13 7 14 8 6 9 5 10 4 11 3 12 2 13
REMARK SMILES IDX 1 14
REMARK H PARENT
REMARK Flexibility Score: inf
ROOT
ATOM      1  C   UNL     1      59.241  17.962  48.512  1.00  0.00     0.000 C 
ENDROOT
BRANCH   1   2
ATOM      2  C   UNL     1      58.275  16.875  48.999  1.00  0.00     0.000 C 
BRANCH   2   3
ATOM      3  C   UNL     1      57.687  17.234  50.369  1.00  0.00     0.000 C 
BRANCH   3   4
ATOM      4  C   UNL     1      57.180  18.683  50.388  1.00  0.00     0.006 C 
BRANCH   4   5
ATOM      5  C   UNL     1      56.358  18.995  51.646  1.00  0.00     0.053 C 
BRANCH   5   6
ATOM      6  C   UNL     1      54.989  19.496  51.303  1.00  0.00     0.041 C 
ATOM      7  O   UNL     1      54.510  19.298  50.155  1.00  0.00    -0.550 OA
ATOM      8  O   UNL     1      54.228  20.153  52.261  1.00  0.00    -0.550 OA
ENDBRANCH   5   6
ENDBRANCH   4   5
ENDBRANCH   3   4
ENDBRANCH   2   3
ENDBRANCH   1   2
BRANCH   1   9
ATOM      9  C   UNL     1      60.553  17.927  49.304  1.00  0.00     0.000 C 
BRANCH   9  10
ATOM     10  C   UNL     1      61.089  19.347  49.542  1.00  0.00    -0.000 C 
BRANCH  10  11
ATOM     11  C   UNL     1      60.348  20.405  48.707  1.00  0.00    -0.000 C 
BRANCH  11  12
ATOM     12  C   UNL     1      61.057  21.771  48.721  1.00  0.00    -0.000 C 
BRANCH  12  13
ATOM     13  C   UNL     1      60.993  22.454  50.095  1.00  0.00    -0.003 C 
ATOM     14  C   UNL     1      60.428  23.872  50.023  1.00  0.00     0.004 C 
ENDBRANCH  12  13
ENDBRANCH  11  12
ENDBRANCH  10  11
ENDBRANCH   9  10
ENDBRANCH   1   9
TORSDOF 10
ENDMDL
MODEL 4
REMARK VINA RESULT:    -3.407      2.986      5.857
REMARK INTER + INTRA:          -6.138
REMARK INTER:                  -4.760
REMARK INTRA:                  -1.378
REMARK UNBOUND:                -0.740
REMARK SMILES CCCCCCCCCCCC(=O)[O-]
REMARK SMILES IDX 7 1 8 2 9 3 10 4 11 5 12 6 13 7 14 8 6 9 5 10 4 11 3 12 2 13
REMARK SMILES IDX 1 14
REMARK H PARENT
REMARK Flexibility Score: inf
ROOT
ATOM      1  C   UNL     1      57.103  26.467  51.095  1.00  0.00     0.000 C 
ENDROOT
BRANCH   1   2
ATOM      2  C   UNL     1      56.113  26.228  49.949  1.00  0.00     0.000 C 
BRANCH   2   3
ATOM      3  C   UNL     1      54.969  27.249  49.987  1.00  0.00     0.000 C 
BRANCH   3   4
ATOM      4  C   UNL     1      55.211  28.306  51.074  1.00  0.00     0.006 C 
BRANCH   4   5
ATOM      5  C   UNL     1      54.721  29.698  50.650  1.00  0.00     0.053 C 
BRANCH   5   6
ATOM      6  C   UNL     1      54.466  30.579  51.834  1.00  0.00     0.041 C 
ATOM      7  O   UNL     1      55.153  30.450  52.882  1.00  0.00    -0.550 OA
ATOM      8  O   UNL     1      53.491  31.566  51.770  1.00  0.00    -0.550 OA
ENDBRANCH   5   6
ENDBRANCH   4   5
ENDBRANCH   3   4
ENDBRANCH   2   3
ENDBRANCH   1   2
BRANCH   1   9
ATOM      9  C   UNL     1      58.408  25.695  50.865  1.00  0.00     0.000 C 
BRANCH   9  10
ATOM     10  C   UNL     1      59.160  26.241  49.642  1.00  0.00    -0.000 C 
BRANCH  10  11
ATOM     11  C   UNL     1      59.838  27.593  49.919  1.00  0.00    -0.000 C 
BRANCH  11  12
ATOM     12  C   UNL     1      59.330  28.711  48.992  1.00  0.00    -0.000 C 
BRANCH  12  13
ATOM     13  C   UNL     1      58.359  29.667  49.700  1.00  0.00    -0.003 C 
ATOM     14  C   UNL     1      58.698  29.863  51.178  1.00  0.00     0.004 C 
ENDBRANCH  12  13
ENDBRANCH  11  12
ENDBRANCH  10  11
ENDBRANCH   9  10
ENDBRANCH   1   9
TORSDOF 10
ENDMDL
MODEL 5
REMARK VINA RESULT:    -3.399      1.855      2.922
REMARK INTER + INTRA:          -6.125
REMARK INTER:                  -4.939
REMARK INTRA:                  -1.187
REMARK UNBOUND:                -0.740
REMARK SMILES CCCCCCCCCCCC(=O)[O-]
REMARK SMILES IDX 7 1 8 2 9 3 10 4 11 5 12 6 13 7 14 8 6 9 5 10 4 11 3 12 2 13
REMARK SMILES IDX 1 14
REMARK H PARENT
REMARK Flexibility Score: inf
ROOT
ATOM      1  C   UNL     1      57.744  28.176  52.424  1.00  0.00     0.000 C 
ENDROOT
BRANCH   1   2
ATOM      2  C   UNL     1      57.554  29.599  51.883  1.00  0.00     0.000 C 
BRANCH   2   3
ATOM      3  C   UNL     1      57.722  29.637  50.360  1.00  0.00     0.000 C 
BRANCH   3   4
ATOM      4  C   UNL     1      59.204  29.556  49.967  1.00  0.00     0.006 C 
BRANCH   4   5
ATOM      5  C   UNL     1      59.511  28.325  49.104  1.00  0.00     0.053 C 
BRANCH   5   6
ATOM      6  C   UNL     1      60.533  27.439  49.748  1.00  0.00     0.041 C 
ATOM      7  O   UNL     1      60.176  26.529  50.541  1.00  0.00    -0.550 OA
ATOM      8  O   UNL     1      61.880  27.597  49.446  1.00  0.00    -0.550 OA
ENDBRANCH   5   6
ENDBRANCH   4   5
ENDBRANCH   3   4
ENDBRANCH   2   3
ENDBRANCH   1   2
BRANCH   1   9
ATOM      9  C   UNL     1      56.467  27.345  52.248  1.00  0.00     0.000 C 
BRANCH   9  10
ATOM     10  C   UNL     1      56.691  26.201  51.247  1.00  0.00    -0.000 C 
BRANCH  10  11
ATOM     11  C   UNL     1      55.932  26.414  49.927  1.00  0.00    -0.000 C 
BRANCH  11  12
ATOM     12  C   UNL     1      54.845  27.498  50.037  1.00  0.00    -0.000 C 
BRANCH  12  13
ATOM     13  C   UNL     1      53.464  26.993  49.594  1.00  0.00    -0.003 C 
ATOM     14  C   UNL     1      53.521  25.606  48.953  1.00  0.00     0.004 C 
ENDBRANCH  12  13
ENDBRANCH  11  12
ENDBRANCH  10  11
ENDBRANCH   9  10
ENDBRANCH   1   9
TORSDOF 10
ENDMDL
MODEL 6
REMARK VINA RESULT:    -3.385      1.986      5.153
REMARK INTER + INTRA:          -6.103
REMARK INTER:                  -5.285
REMARK INTRA:                  -0.818
REMARK UNBOUND:                -0.740
REMARK SMILES CCCCCCCCCCCC(=O)[O-]
REMARK SMILES IDX 7 1 8 2 9 3 10 4 11 5 12 6 13 7 14 8 6 9 5 10 4 11 3 12 2 13
REMARK SMILES IDX 1 14
REMARK H PARENT
REMARK Flexibility Score: inf
ROOT
ATOM      1  C   UNL     1      56.133  28.703  50.565  1.00  0.00     0.000 C 
ENDROOT
BRANCH   1   2
ATOM      2  C   UNL     1      54.697  29.239  50.591  1.00  0.00     0.000 C 
BRANCH   2   3
ATOM      3  C   UNL     1      53.736  28.275  49.885  1.00  0.00     0.000 C 
BRANCH   3   4
ATOM      4  C   UNL     1      54.379  26.892  49.704  1.00  0.00     0.006 C 
BRANCH   4   5
ATOM      5  C   UNL     1      53.439  25.754  50.125  1.00  0.00     0.053 C 
BRANCH   5   6
ATOM      6  C   UNL     1      53.816  25.189  51.460  1.00  0.00     0.041 C 
ATOM      7  O   UNL     1      54.618  25.808  52.207  1.00  0.00    -0.550 OA
ATOM      8  O   UNL     1      53.256  23.995  51.893  1.00  0.00    -0.550 OA
ENDBRANCH   5   6
ENDBRANCH   4   5
ENDBRANCH   3   4
ENDBRANCH   2   3
ENDBRANCH   1   2
BRANCH   1   9
ATOM      9  C   UNL     1      57.026  29.476  51.543  1.00  0.00     0.000 C 
BRANCH   9  10
ATOM     10  C   UNL     1      58.404  29.756  50.924  1.00  0.00    -0.000 C 
BRANCH  10  11
ATOM     11  C   UNL     1      58.459  29.413  49.426  1.00  0.00    -0.000 C 
BRANCH  11  12
ATOM     12  C   UNL     1      59.536  28.364  49.099  1.00  0.00    -0.000 C 
BRANCH  12  13
ATOM     13  C   UNL     1      59.147  26.955  49.571  1.00  0.00    -0.003 C 
ATOM     14  C   UNL     1      60.346  26.148  50.068  1.00  0.00     0.004 C 
ENDBRANCH  12  13
ENDBRANCH  11  12
ENDBRANCH  10  11
ENDBRANCH   9  10
ENDBRANCH   1   9
TORSDOF 10
ENDMDL
MODEL 7
REMARK VINA RESULT:    -3.379      1.598      3.137
REMARK INTER + INTRA:          -6.094
REMARK INTER:                  -5.054
REMARK INTRA:                  -1.040
REMARK UNBOUND:                -0.740
REMARK SMILES CCCCCCCCCCCC(=O)[O-]
REMARK SMILES IDX 7 1 8 2 9 3 10 4 11 5 12 6 13 7 14 8 6 9 5 10 4 11 3 12 2 13
REMARK SMILES IDX 1 14
REMARK H PARENT
REMARK Flexibility Score: inf
ROOT
ATOM      1  C   UNL     1      55.973  28.167  50.407  1.00  0.00     0.000 C 
ENDROOT
BRANCH   1   2
ATOM      2  C   UNL     1      56.784  28.777  51.557  1.00  0.00     0.000 C 
BRANCH   2   3
ATOM      3  C   UNL     1      58.097  29.381  51.046  1.00  0.00     0.000 C 
BRANCH   3   4
ATOM      4  C   UNL     1      58.261  29.146  49.537  1.00  0.00     0.006 C 
BRANCH   4   5
ATOM      5  C   UNL     1      59.631  28.551  49.186  1.00  0.00     0.053 C 
BRANCH   5   6
ATOM      6  C   UNL     1      59.747  27.127  49.636  1.00  0.00     0.041 C 
ATOM      7  O   UNL     1      60.807  26.716  50.177  1.00  0.00    -0.550 OA
ATOM      8  O   UNL     1      58.671  26.261  49.488  1.00  0.00    -0.550 OA
ENDBRANCH   5   6
ENDBRANCH   4   5
ENDBRANCH   3   4
ENDBRANCH   2   3
ENDBRANCH   1   2
BRANCH   1   9
ATOM      9  C   UNL     1      54.558  28.756  50.359  1.00  0.00     0.000 C 
BRANCH   9  10
ATOM     10  C   UNL     1      53.557  27.733  49.799  1.00  0.00    -0.000 C 
BRANCH  10  11
ATOM     11  C   UNL     1      54.233  26.423  49.363  1.00  0.00    -0.000 C 
BRANCH  11  12
ATOM     12  C   UNL     1      53.634  25.188  50.058  1.00  0.00    -0.000 C 
BRANCH  12  13
ATOM     13  C   UNL     1      53.245  25.466  51.518  1.00  0.00    -0.003 C 
ATOM     14  C   UNL     1      54.432  25.359  52.475  1.00  0.00     0.004 C 
ENDBRANCH  12  13
ENDBRANCH  11  12
ENDBRANCH  10  11
ENDBRANCH   9  10
ENDBRANCH   1   9
TORSDOF 10
ENDMDL
MODEL 8
REMARK VINA RESULT:    -3.334      5.607      8.338
REMARK INTER + INTRA:          -6.023
REMARK INTER:                  -5.075
REMARK INTRA:                  -0.949
REMARK UNBOUND:                -0.740
REMARK SMILES CCCCCCCCCCCC(=O)[O-]
REMARK SMILES IDX 7 1 8 2 9 3 10 4 11 5 12 6 13 7 14 8 6 9 5 10 4 11 3 12 2 13
REMARK SMILES IDX 1 14
REMARK H PARENT
REMARK Flexibility Score: inf
ROOT
ATOM      1  C   UNL     1      60.251  19.431  49.858  1.00  0.00     0.000 C 
ENDROOT
BRANCH   1   2
ATOM      2  C   UNL     1      60.026  20.259  48.588  1.00  0.00     0.000 C 
BRANCH   2   3
ATOM      3  C   UNL     1      61.060  21.385  48.474  1.00  0.00     0.000 C 
BRANCH   3   4
ATOM      4  C   UNL     1      61.769  21.621  49.816  1.00  0.00     0.006 C 
BRANCH   4   5
ATOM      5  C   UNL     1      61.663  23.079  50.281  1.00  0.00     0.053 C 
BRANCH   5   6
ATOM      6  C   UNL     1      60.302  23.391  50.821  1.00  0.00     0.041 C 
ATOM      7  O   UNL     1      59.606  24.302  50.301  1.00  0.00    -0.550 OA
ATOM      8  O   UNL     1      59.787  22.652  51.879  1.00  0.00    -0.550 OA
ENDBRANCH   5   6
ENDBRANCH   4   5
ENDBRANCH   3   4
ENDBRANCH   2   3
ENDBRANCH   1   2
BRANCH   1   9
ATOM      9  C   UNL     1      60.392  17.940  49.525  1.00  0.00     0.000 C 
BRANCH   9  10
ATOM     10  C   UNL     1      59.309  17.497  48.530  1.00  0.00    -0.000 C 
BRANCH  10  11
ATOM     11  C   UNL     1      57.973  17.171  49.216  1.00  0.00    -0.000 C 
BRANCH  11  12
ATOM     12  C   UNL     1      58.135  16.875  50.717  1.00  0.00    -0.000 C 
BRANCH  12  13
ATOM     13  C   UNL     1      57.377  17.878  51.599  1.00  0.00    -0.003 C 
ATOM     14  C   UNL     1      56.497  18.830  50.788  1.00  0.00     0.004 C 
ENDBRANCH  12  13
ENDBRANCH  11  12
ENDBRANCH  10  11
ENDBRANCH   9  10
ENDBRANCH   1   9
TORSDOF 10
ENDMDL
MODEL 9
REMARK VINA RESULT:    -3.334      2.361      4.771
REMARK INTER + INTRA:          -6.022
REMARK INTER:                  -4.407
REMARK INTRA:                  -1.616
REMARK UNBOUND:                -0.740
REMARK SMILES CCCCCCCCCCCC(=O)[O-]
REMARK SMILES IDX 7 1 8 2 9 3 10 4 11 5 12 6 13 7 14 8 6 9 5 10 4 11 3 12 2 13
REMARK SMILES IDX 1 14
REMARK H PARENT
REMARK Flexibility Score: inf
ROOT
ATOM      1  C   UNL     1      60.058  26.845  52.216  1.00  0.00     0.000 C 
ENDROOT
BRANCH   1   2
ATOM      2  C   UNL     1      58.615  26.563  52.652  1.00  0.00     0.000 C 
BRANCH   2   3
ATOM      3  C   UNL     1      57.891  25.686  51.623  1.00  0.00     0.000 C 
BRANCH   3   4
ATOM      4  C   UNL     1      56.482  26.225  51.335  1.00  0.00     0.006 C 
BRANCH   4   5
ATOM      5  C   UNL     1      56.163  26.244  49.834  1.00  0.00     0.053 C 
BRANCH   5   6
ATOM      6  C   UNL     1      54.699  26.439  49.582  1.00  0.00     0.041 C 
ATOM      7  O   UNL     1      53.980  25.466  49.233  1.00  0.00    -0.550 OA
ATOM      8  O   UNL     1      54.122  27.689  49.765  1.00  0.00    -0.550 OA
ENDBRANCH   5   6
ENDBRANCH   4   5
ENDBRANCH   3   4
ENDBRANCH   2   3
ENDBRANCH   1   2
BRANCH   1   9
ATOM      9  C   UNL     1      60.326  26.296  50.809  1.00  0.00     0.000 C 
BRANCH   9  10
ATOM     10  C   UNL     1      60.674  27.431  49.834  1.00  0.00    -0.000 C 
BRANCH  10  11
ATOM     11  C   UNL     1      59.435  28.007  49.130  1.00  0.00    -0.000 C 
BRANCH  11  12
ATOM     12  C   UNL     1      59.119  29.447  49.572  1.00  0.00    -0.000 C 
BRANCH  12  13
ATOM     13  C   UNL     1      57.762  29.560  50.282  1.00  0.00    -0.003 C 
ATOM     14  C   UNL     1      57.892  30.030  51.731  1.00  0.00     0.004 C 
ENDBRANCH  12  13
ENDBRANCH  11  12
ENDBRANCH  10  11
ENDBRANCH   9  10
ENDBRANCH   1   9
TORSDOF 10
ENDMDL
