MODEL 1
REMARK VINA RESULT:    -4.784      0.000      0.000
REMARK INTER + INTRA:         -10.349
REMARK INTER:                  -8.699
REMARK INTRA:                  -1.649
REMARK UNBOUND:                -1.649
REMARK SMILES CCCCCCCCCCCCCCCC(=O)[O-]
REMARK SMILES IDX 9 1 10 2 11 3 12 4 13 5 14 6 15 7 16 8 17 9 18 10 8 11 7 12
REMARK SMILES IDX 6 13 5 14 4 15 3 16 2 17 1 18
REMARK H PARENT
REMARK Flexibility Score: inf
ROOT
ATOM      1  C   UNL     1      19.701  28.366  31.589  1.00  0.00     0.000 C 
ENDROOT
BRANCH   1   2
ATOM      2  C   UNL     1      19.867  26.875  31.928  1.00  0.00     0.000 C 
BRANCH   2   3
ATOM      3  C   UNL     1      20.469  26.642  33.326  1.00  0.00     0.000 C 
BRANCH   3   4
ATOM      4  C   UNL     1      19.550  27.018  34.502  1.00  0.00     0.000 C 
BRANCH   4   5
ATOM      5  C   UNL     1      20.101  28.178  35.350  1.00  0.00     0.000 C 
BRANCH   5   6
ATOM      6  C   UNL     1      19.039  29.249  35.648  1.00  0.00     0.006 C 
BRANCH   6   7
ATOM      7  C   UNL     1      17.779  29.085  34.789  1.00  0.00     0.053 C 
BRANCH   7   8
ATOM      8  C   UNL     1      17.523  30.331  33.999  1.00  0.00     0.041 C 
ATOM      9  O   UNL     1      18.376  31.257  33.983  1.00  0.00    -0.550 OA
ATOM     10  O   UNL     1      16.365  30.447  33.242  1.00  0.00    -0.550 OA
ENDBRANCH   7   8
ENDBRANCH   6   7
ENDBRANCH   5   6
ENDBRANCH   4   5
ENDBRANCH   3   4
ENDBRANCH   2   3
ENDBRANCH   1   2
BRANCH   1  11
ATOM     11  C   UNL     1      18.412  28.661  30.801  1.00  0.00     0.000 C 
BRANCH  11  12
ATOM     12  C   UNL     1      18.326  30.076  30.201  1.00  0.00    -0.000 C 
BRANCH  12  13
ATOM     13  C   UNL     1      18.363  30.139  28.661  1.00  0.00    -0.000 C 
BRANCH  13  14
ATOM     14  C   UNL     1      18.914  28.860  27.997  1.00  0.00    -0.000 C 
BRANCH  14  15
ATOM     15  C   UNL     1      17.810  28.009  27.344  1.00  0.00    -0.000 C 
BRANCH  15  16
ATOM     16  C   UNL     1      18.221  26.537  27.157  1.00  0.00    -0.000 C 
BRANCH  16  17
ATOM     17  C   UNL     1      18.407  25.746  28.463  1.00  0.00    -0.003 C 
ATOM     18  C   UNL     1      18.956  24.338  28.238  1.00  0.00     0.004 C 
ENDBRANCH  16  17
ENDBRANCH  15  16
ENDBRANCH  14  15
ENDBRANCH  13  14
ENDBRANCH  12  13
ENDBRANCH  11  12
ENDBRANCH   1  11
TORSDOF 14
ENDMDL
MODEL 2
REMARK VINA RESULT:    -4.770      3.149      7.034
REMARK INTER + INTRA:         -10.324
REMARK INTER:                  -8.579
REMARK INTRA:                  -1.744
REMARK UNBOUND:                -1.649
REMARK SMILES CCCCCCCCCCCCCCCC(=O)[O-]
REMARK SMILES IDX 9 1 10 2 11 3 12 4 13 5 14 6 15 7 16 8 17 9 18 10 8 11 7 12
REMARK SMILES IDX 6 13 5 14 4 15 3 16 2 17 1 18
REMARK H PARENT
REMARK Flexibility Score: inf
ROOT
ATOM      1  C   UNL     1      18.167  28.548  30.519  1.00  0.00     0.000 C 
ENDROOT
BRANCH   1   2
ATOM      2  C   UNL     1      18.685  29.822  29.830  1.00  0.00     0.000 C 
BRANCH   2   3
ATOM      3  C   UNL     1      18.333  29.879  28.332  1.00  0.00     0.000 C 
BRANCH   3   4
ATOM      4  C   UNL     1      17.853  28.548  27.725  1.00  0.00     0.000 C 
BRANCH   4   5
ATOM      5  C   UNL     1      18.930  27.852  26.874  1.00  0.00     0.000 C 
BRANCH   5   6
ATOM      6  C   UNL     1      19.590  26.672  27.605  1.00  0.00     0.006 C 
BRANCH   6   7
ATOM      7  C   UNL     1      18.569  25.641  28.103  1.00  0.00     0.053 C 
BRANCH   7   8
ATOM      8  C   UNL     1      19.254  24.355  28.448  1.00  0.00     0.041 C 
ATOM      9  O   UNL     1      20.028  24.295  29.439  1.00  0.00    -0.550 OA
ATOM     10  O   UNL     1      18.999  23.211  27.702  1.00  0.00    -0.550 OA
ENDBRANCH   7   8
ENDBRANCH   6   7
ENDBRANCH   5   6
ENDBRANCH   4   5
ENDBRANCH   3   4
ENDBRANCH   2   3
ENDBRANCH   1   2
BRANCH   1  11
ATOM     11  C   UNL     1      19.295  27.700  31.135  1.00  0.00     0.000 C 
BRANCH  11  12
ATOM     12  C   UNL     1      19.243  27.564  32.668  1.00  0.00    -0.000 C 
BRANCH  12  13
ATOM     13  C   UNL     1      19.042  28.886  33.437  1.00  0.00    -0.000 C 
BRANCH  13  14
ATOM     14  C   UNL     1      18.225  28.733  34.737  1.00  0.00    -0.000 C 
BRANCH  14  15
ATOM     15  C   UNL     1      17.002  29.667  34.781  1.00  0.00    -0.000 C 
BRANCH  15  16
ATOM     16  C   UNL     1      16.714  30.340  33.426  1.00  0.00    -0.000 C 
BRANCH  16  17
ATOM     17  C   UNL     1      16.874  31.870  33.418  1.00  0.00    -0.003 C 
ATOM     18  C   UNL     1      17.946  32.354  32.443  1.00  0.00     0.004 C 
ENDBRANCH  16  17
ENDBRANCH  15  16
ENDBRANCH  14  15
ENDBRANCH  13  14
ENDBRANCH  12  13
ENDBRANCH  11  12
ENDBRANCH   1  11
TORSDOF 14
ENDMDL
MODEL 3
REMARK VINA RESULT:    -4.708      1.256      1.796
REMARK INTER + INTRA:         -10.210
REMARK INTER:                  -8.450
REMARK INTRA:                  -1.760
REMARK UNBOUND:                -1.649
REMARK SMILES CCCCCCCCCCCCCCCC(=O)[O-]
REMARK SMILES IDX 9 1 10 2 11 3 12 4 13 5 14 6 15 7 16 8 17 9 18 10 8 11 7 12
REMARK SMILES IDX 6 13 5 14 4 15 3 16 2 17 1 18
REMARK H PARENT
REMARK Flexibility Score: inf
ROOT
ATOM      1  C   UNL     1      19.329  27.848  30.869  1.00  0.00     0.000 C 
ENDROOT
BRANCH   1   2
ATOM      2  C   UNL     1      19.775  27.057  32.110  1.00  0.00     0.000 C 
BRANCH   2   3
ATOM      3  C   UNL     1      20.108  27.962  33.310  1.00  0.00     0.000 C 
BRANCH   3   4
ATOM      4  C   UNL     1      19.354  27.625  34.610  1.00  0.00     0.000 C 
BRANCH   4   5
ATOM      5  C   UNL     1      18.761  28.866  35.300  1.00  0.00     0.000 C 
BRANCH   5   6
ATOM      6  C   UNL     1      17.446  29.330  34.653  1.00  0.00     0.006 C 
BRANCH   6   7
ATOM      7  C   UNL     1      16.953  30.671  35.213  1.00  0.00     0.053 C 
BRANCH   7   8
ATOM      8  C   UNL     1      17.214  31.771  34.233  1.00  0.00     0.041 C 
ATOM      9  O   UNL     1      18.395  32.130  33.981  1.00  0.00    -0.550 OA
ATOM     10  O   UNL     1      16.155  32.367  33.560  1.00  0.00    -0.550 OA
ENDBRANCH   7   8
ENDBRANCH   6   7
ENDBRANCH   5   6
ENDBRANCH   4   5
ENDBRANCH   3   4
ENDBRANCH   2   3
ENDBRANCH   1   2
BRANCH   1  11
ATOM     11  C   UNL     1      17.976  28.555  31.064  1.00  0.00     0.000 C 
BRANCH  11  12
ATOM     12  C   UNL     1      18.034  30.094  31.019  1.00  0.00    -0.000 C 
BRANCH  12  13
ATOM     13  C   UNL     1      19.003  30.683  29.976  1.00  0.00    -0.000 C 
BRANCH  13  14
ATOM     14  C   UNL     1      18.438  30.703  28.540  1.00  0.00    -0.000 C 
BRANCH  14  15
ATOM     15  C   UNL     1      19.482  30.287  27.487  1.00  0.00    -0.000 C 
BRANCH  15  16
ATOM     16  C   UNL     1      19.311  28.831  27.017  1.00  0.00    -0.000 C 
BRANCH  16  17
ATOM     17  C   UNL     1      17.973  28.179  27.408  1.00  0.00    -0.003 C 
ATOM     18  C   UNL     1      17.763  26.810  26.763  1.00  0.00     0.004 C 
ENDBRANCH  16  17
ENDBRANCH  15  16
ENDBRANCH  14  15
ENDBRANCH  13  14
ENDBRANCH  12  13
ENDBRANCH  11  12
ENDBRANCH   1  11
TORSDOF 14
ENDMDL
MODEL 4
REMARK VINA RESULT:    -4.695      1.767      2.860
REMARK INTER + INTRA:         -10.188
REMARK INTER:                  -8.581
REMARK INTRA:                  -1.607
REMARK UNBOUND:                -1.649
REMARK SMILES CCCCCCCCCCCCCCCC(=O)[O-]
REMARK SMILES IDX 9 1 10 2 11 3 12 4 13 5 14 6 15 7 16 8 17 9 18 10 8 11 7 12
REMARK SMILES IDX 6 13 5 14 4 15 3 16 2 17 1 18
REMARK H PARENT
REMARK Flexibility Score: inf
ROOT
ATOM      1  C   UNL     1      19.934  28.161  32.426  1.00  0.00     0.000 C 
ENDROOT
BRANCH   1   2
ATOM      2  C   UNL     1      19.510  27.410  33.699  1.00  0.00     0.000 C 
BRANCH   2   3
ATOM      3  C   UNL     1      19.100  28.354  34.843  1.00  0.00     0.000 C 
BRANCH   3   4
ATOM      4  C   UNL     1      17.659  28.891  34.761  1.00  0.00     0.000 C 
BRANCH   4   5
ATOM      5  C   UNL     1      17.547  30.376  35.150  1.00  0.00     0.000 C 
BRANCH   5   6
ATOM      6  C   UNL     1      16.694  31.183  34.159  1.00  0.00     0.006 C 
BRANCH   6   7
ATOM      7  C   UNL     1      16.322  32.572  34.694  1.00  0.00     0.053 C 
BRANCH   7   8
ATOM      8  C   UNL     1      16.209  33.550  33.567  1.00  0.00     0.041 C 
ATOM      9  O   UNL     1      17.102  33.601  32.680  1.00  0.00    -0.550 OA
ATOM     10  O   UNL     1      15.094  34.373  33.470  1.00  0.00    -0.550 OA
ENDBRANCH   7   8
ENDBRANCH   6   7
ENDBRANCH   5   6
ENDBRANCH   4   5
ENDBRANCH   3   4
ENDBRANCH   2   3
ENDBRANCH   1   2
BRANCH   1  11
ATOM     11  C   UNL     1      19.074  27.798  31.202  1.00  0.00     0.000 C 
BRANCH  11  12
ATOM     12  C   UNL     1      17.936  28.787  30.889  1.00  0.00    -0.000 C 
BRANCH  12  13
ATOM     13  C   UNL     1      18.323  30.278  30.970  1.00  0.00    -0.000 C 
BRANCH  13  14
ATOM     14  C   UNL     1      18.798  30.873  29.628  1.00  0.00    -0.000 C 
BRANCH  14  15
ATOM     15  C   UNL     1      18.250  30.105  28.412  1.00  0.00    -0.000 C 
BRANCH  15  16
ATOM     16  C   UNL     1      19.356  29.409  27.596  1.00  0.00    -0.000 C 
BRANCH  16  17
ATOM     17  C   UNL     1      18.912  28.130  26.867  1.00  0.00    -0.003 C 
ATOM     18  C   UNL     1      17.543  27.625  27.323  1.00  0.00     0.004 C 
ENDBRANCH  16  17
ENDBRANCH  15  16
ENDBRANCH  14  15
ENDBRANCH  13  14
ENDBRANCH  12  13
ENDBRANCH  11  12
ENDBRANCH   1  11
TORSDOF 14
ENDMDL
MODEL 5
REMARK VINA RESULT:    -4.689      3.141      7.053
REMARK INTER + INTRA:         -10.176
REMARK INTER:                  -8.752
REMARK INTRA:                  -1.424
REMARK UNBOUND:                -1.649
REMARK SMILES CCCCCCCCCCCCCCCC(=O)[O-]
REMARK SMILES IDX 9 1 10 2 11 3 12 4 13 5 14 6 15 7 16 8 17 9 18 10 8 11 7 12
REMARK SMILES IDX 6 13 5 14 4 15 3 16 2 17 1 18
REMARK H PARENT
REMARK Flexibility Score: inf
ROOT
ATOM      1  C   UNL     1      19.874  28.160  32.306  1.00  0.00     0.000 C 
ENDROOT
BRANCH   1   2
ATOM      2  C   UNL     1      18.969  27.717  31.143  1.00  0.00     0.000 C 
BRANCH   2   3
ATOM      3  C   UNL     1      17.938  28.789  30.746  1.00  0.00     0.000 C 
BRANCH   3   4
ATOM      4  C   UNL     1      18.453  30.240  30.796  1.00  0.00     0.000 C 
BRANCH   4   5
ATOM      5  C   UNL     1      18.657  30.855  29.401  1.00  0.00     0.000 C 
BRANCH   5   6
ATOM      6  C   UNL     1      18.219  29.911  28.269  1.00  0.00     0.006 C 
BRANCH   6   7
ATOM      7  C   UNL     1      19.388  29.476  27.377  1.00  0.00     0.053 C 
BRANCH   7   8
ATOM      8  C   UNL     1      19.048  28.211  26.654  1.00  0.00     0.041 C 
ATOM      9  O   UNL     1      19.700  27.869  25.632  1.00  0.00    -0.550 OA
ATOM     10  O   UNL     1      18.041  27.385  27.137  1.00  0.00    -0.550 OA
ENDBRANCH   7   8
ENDBRANCH   6   7
ENDBRANCH   5   6
ENDBRANCH   4   5
ENDBRANCH   3   4
ENDBRANCH   2   3
ENDBRANCH   1   2
BRANCH   1  11
ATOM     11  C   UNL     1      19.497  27.497  33.643  1.00  0.00     0.000 C 
BRANCH  11  12
ATOM     12  C   UNL     1      19.103  28.475  34.766  1.00  0.00    -0.000 C 
BRANCH  12  13
ATOM     13  C   UNL     1      17.618  28.888  34.784  1.00  0.00    -0.000 C 
BRANCH  13  14
ATOM     14  C   UNL     1      17.395  30.411  34.890  1.00  0.00    -0.000 C 
BRANCH  14  15
ATOM     15  C   UNL     1      16.439  30.947  33.809  1.00  0.00    -0.000 C 
BRANCH  15  16
ATOM     16  C   UNL     1      16.701  32.423  33.456  1.00  0.00    -0.000 C 
BRANCH  16  17
ATOM     17  C   UNL     1      15.882  33.437  34.271  1.00  0.00    -0.003 C 
ATOM     18  C   UNL     1      15.218  34.506  33.404  1.00  0.00     0.004 C 
ENDBRANCH  16  17
ENDBRANCH  15  16
ENDBRANCH  14  15
ENDBRANCH  13  14
ENDBRANCH  12  13
ENDBRANCH  11  12
ENDBRANCH   1  11
TORSDOF 14
ENDMDL
MODEL 6
REMARK VINA RESULT:    -4.667      2.706      6.613
REMARK INTER + INTRA:         -10.137
REMARK INTER:                  -8.129
REMARK INTRA:                  -2.008
REMARK UNBOUND:                -1.649
REMARK SMILES CCCCCCCCCCCCCCCC(=O)[O-]
REMARK SMILES IDX 9 1 10 2 11 3 12 4 13 5 14 6 15 7 16 8 17 9 18 10 8 11 7 12
REMARK SMILES IDX 6 13 5 14 4 15 3 16 2 17 1 18
REMARK H PARENT
REMARK Flexibility Score: inf
ROOT
ATOM      1  C   UNL     1      18.399  30.140  35.454  1.00  0.00     0.000 C 
ENDROOT
BRANCH   1   2
ATOM      2  C   UNL     1      19.435  29.012  35.595  1.00  0.00     0.000 C 
BRANCH   2   3
ATOM      3  C   UNL     1      19.083  27.768  34.759  1.00  0.00     0.000 C 
BRANCH   3   4
ATOM      4  C   UNL     1      20.115  27.396  33.678  1.00  0.00     0.000 C 
BRANCH   4   5
ATOM      5  C   UNL     1      19.518  27.371  32.260  1.00  0.00     0.000 C 
BRANCH   5   6
ATOM      6  C   UNL     1      19.035  28.756  31.799  1.00  0.00     0.006 C 
BRANCH   6   7
ATOM      7  C   UNL     1      17.965  28.673  30.702  1.00  0.00     0.053 C 
BRANCH   7   8
ATOM      8  C   UNL     1      18.259  29.657  29.614  1.00  0.00     0.041 C 
ATOM      9  O   UNL     1      18.391  29.266  28.424  1.00  0.00    -0.550 OA
ATOM     10  O   UNL     1      18.340  31.012  29.906  1.00  0.00    -0.550 OA
ENDBRANCH   7   8
ENDBRANCH   6   7
ENDBRANCH   5   6
ENDBRANCH   4   5
ENDBRANCH   3   4
ENDBRANCH   2   3
ENDBRANCH   1   2
BRANCH   1  11
ATOM     11  C   UNL     1      17.033  29.639  34.951  1.00  0.00     0.000 C 
BRANCH  11  12
ATOM     12  C   UNL     1      16.498  30.358  33.699  1.00  0.00    -0.000 C 
BRANCH  12  13
ATOM     13  C   UNL     1      17.140  31.728  33.404  1.00  0.00    -0.000 C 
BRANCH  13  14
ATOM     14  C   UNL     1      16.190  32.924  33.625  1.00  0.00    -0.000 C 
BRANCH  14  15
ATOM     15  C   UNL     1      16.798  34.004  34.537  1.00  0.00    -0.000 C 
BRANCH  15  16
ATOM     16  C   UNL     1      16.979  33.526  35.990  1.00  0.00    -0.000 C 
BRANCH  16  17
ATOM     17  C   UNL     1      15.691  33.512  36.831  1.00  0.00    -0.003 C 
ATOM     18  C   UNL     1      15.347  32.127  37.376  1.00  0.00     0.004 C 
ENDBRANCH  16  17
ENDBRANCH  15  16
ENDBRANCH  14  15
ENDBRANCH  13  14
ENDBRANCH  12  13
ENDBRANCH  11  12
ENDBRANCH   1  11
TORSDOF 14
ENDMDL
MODEL 7
REMARK VINA RESULT:    -4.614      2.049      4.007
REMARK INTER + INTRA:         -10.040
REMARK INTER:                  -8.304
REMARK INTRA:                  -1.737
REMARK UNBOUND:                -1.649
REMARK SMILES CCCCCCCCCCCCCCCC(=O)[O-]
REMARK SMILES IDX 9 1 10 2 11 3 12 4 13 5 14 6 15 7 16 8 17 9 18 10 8 11 7 12
REMARK SMILES IDX 6 13 5 14 4 15 3 16 2 17 1 18
REMARK H PARENT
REMARK Flexibility Score: inf
ROOT
ATOM      1  C   UNL     1      19.561  29.132  34.466  1.00  0.00     0.000 C 
ENDROOT
BRANCH   1   2
ATOM      2  C   UNL     1      18.469  29.683  35.398  1.00  0.00     0.000 C 
BRANCH   2   3
ATOM      3  C   UNL     1      17.056  29.570  34.798  1.00  0.00     0.000 C 
BRANCH   3   4
ATOM      4  C   UNL     1      16.790  30.472  33.579  1.00  0.00     0.000 C 
BRANCH   4   5
ATOM      5  C   UNL     1      17.236  31.929  33.800  1.00  0.00     0.000 C 
BRANCH   5   6
ATOM      6  C   UNL     1      16.059  32.862  34.128  1.00  0.00     0.006 C 
BRANCH   6   7
ATOM      7  C   UNL     1      16.267  33.636  35.436  1.00  0.00     0.053 C 
BRANCH   7   8
ATOM      8  C   UNL     1      16.385  32.687  36.588  1.00  0.00     0.041 C 
ATOM      9  O   UNL     1      17.430  32.672  37.292  1.00  0.00    -0.550 OA
ATOM     10  O   UNL     1      15.323  31.854  36.913  1.00  0.00    -0.550 OA
ENDBRANCH   7   8
ENDBRANCH   6   7
ENDBRANCH   5   6
ENDBRANCH   4   5
ENDBRANCH   3   4
ENDBRANCH   2   3
ENDBRANCH   1   2
BRANCH   1  11
ATOM     11  C   UNL     1      19.435  27.617  34.226  1.00  0.00     0.000 C 
BRANCH  11  12
ATOM     12  C   UNL     1      19.506  27.184  32.750  1.00  0.00    -0.000 C 
BRANCH  12  13
ATOM     13  C   UNL     1      19.621  28.337  31.733  1.00  0.00    -0.000 C 
BRANCH  13  14
ATOM     14  C   UNL     1      18.336  28.579  30.914  1.00  0.00    -0.000 C 
BRANCH  14  15
ATOM     15  C   UNL     1      18.354  29.924  30.166  1.00  0.00    -0.000 C 
BRANCH  15  16
ATOM     16  C   UNL     1      18.258  29.760  28.638  1.00  0.00    -0.000 C 
BRANCH  16  17
ATOM     17  C   UNL     1      18.655  28.370  28.112  1.00  0.00    -0.003 C 
ATOM     18  C   UNL     1      17.560  27.712  27.273  1.00  0.00     0.004 C 
ENDBRANCH  16  17
ENDBRANCH  15  16
ENDBRANCH  14  15
ENDBRANCH  13  14
ENDBRANCH  12  13
ENDBRANCH  11  12
ENDBRANCH   1  11
TORSDOF 14
ENDMDL
MODEL 8
REMARK VINA RESULT:    -4.601      2.771      6.879
REMARK INTER + INTRA:         -10.016
REMARK INTER:                  -8.306
REMARK INTRA:                  -1.710
REMARK UNBOUND:                -1.649
REMARK SMILES CCCCCCCCCCCCCCCC(=O)[O-]
REMARK SMILES IDX 9 1 10 2 11 3 12 4 13 5 14 6 15 7 16 8 17 9 18 10 8 11 7 12
REMARK SMILES IDX 6 13 5 14 4 15 3 16 2 17 1 18
REMARK H PARENT
REMARK Flexibility Score: inf
ROOT
ATOM      1  C   UNL     1      18.410  30.643  30.996  1.00  0.00     0.000 C 
ENDROOT
BRANCH   1   2
ATOM      2  C   UNL     1      18.402  31.265  29.589  1.00  0.00     0.000 C 
BRANCH   2   3
ATOM      3  C   UNL     1      19.225  30.455  28.571  1.00  0.00     0.000 C 
BRANCH   3   4
ATOM      4  C   UNL     1      18.403  29.790  27.451  1.00  0.00     0.000 C 
BRANCH   4   5
ATOM      5  C   UNL     1      18.858  28.352  27.144  1.00  0.00     0.000 C 
BRANCH   5   6
ATOM      6  C   UNL     1      17.706  27.338  27.227  1.00  0.00     0.006 C 
BRANCH   6   7
ATOM      7  C   UNL     1      17.718  26.538  28.536  1.00  0.00     0.053 C 
BRANCH   7   8
ATOM      8  C   UNL     1      18.748  25.454  28.474  1.00  0.00     0.041 C 
ATOM      9  O   UNL     1      18.692  24.576  27.573  1.00  0.00    -0.550 OA
ATOM     10  O   UNL     1      19.798  25.441  29.384  1.00  0.00    -0.550 OA
ENDBRANCH   7   8
ENDBRANCH   6   7
ENDBRANCH   5   6
ENDBRANCH   4   5
ENDBRANCH   3   4
ENDBRANCH   2   3
ENDBRANCH   1   2
BRANCH   1  11
ATOM     11  C   UNL     1      17.803  29.228  31.028  1.00  0.00     0.000 C 
BRANCH  11  12
ATOM     12  C   UNL     1      18.780  28.111  31.439  1.00  0.00    -0.000 C 
BRANCH  12  13
ATOM     13  C   UNL     1      19.677  28.437  32.651  1.00  0.00    -0.000 C 
BRANCH  13  14
ATOM     14  C   UNL     1      19.610  27.385  33.778  1.00  0.00    -0.000 C 
BRANCH  14  15
ATOM     15  C   UNL     1      19.199  27.992  35.131  1.00  0.00    -0.000 C 
BRANCH  15  16
ATOM     16  C   UNL     1      18.717  29.449  35.012  1.00  0.00    -0.000 C 
BRANCH  16  17
ATOM     17  C   UNL     1      17.208  29.651  35.236  1.00  0.00    -0.003 C 
ATOM     18  C   UNL     1      16.534  30.431  34.109  1.00  0.00     0.004 C 
ENDBRANCH  16  17
ENDBRANCH  15  16
ENDBRANCH  14  15
ENDBRANCH  13  14
ENDBRANCH  12  13
ENDBRANCH  11  12
ENDBRANCH   1  11
TORSDOF 14
ENDMDL
MODEL 9
REMARK VINA RESULT:    -4.585      3.245      7.077
REMARK INTER + INTRA:          -9.987
REMARK INTER:                  -8.385
REMARK INTRA:                  -1.601
REMARK UNBOUND:                -1.649
REMARK SMILES CCCCCCCCCCCCCCCC(=O)[O-]
REMARK SMILES IDX 9 1 10 2 11 3 12 4 13 5 14 6 15 7 16 8 17 9 18 10 8 11 7 12
REMARK SMILES IDX 6 13 5 14 4 15 3 16 2 17 1 18
REMARK H PARENT
REMARK Flexibility Score: inf
ROOT
ATOM      1  C   UNL     1      17.899  29.636  35.166  1.00  0.00     0.000 C 
ENDROOT
BRANCH   1   2
ATOM      2  C   UNL     1      18.372  28.233  34.749  1.00  0.00     0.000 C 
BRANCH   2   3
ATOM      3  C   UNL     1      19.664  28.262  33.911  1.00  0.00     0.000 C 
BRANCH   3   4
ATOM      4  C   UNL     1      19.495  27.844  32.439  1.00  0.00     0.000 C 
BRANCH   4   5
ATOM      5  C   UNL     1      19.106  29.016  31.521  1.00  0.00     0.000 C 
BRANCH   5   6
ATOM      6  C   UNL     1      17.940  28.669  30.582  1.00  0.00     0.006 C 
BRANCH   6   7
ATOM      7  C   UNL     1      18.331  27.646  29.508  1.00  0.00     0.053 C 
BRANCH   7   8
ATOM      8  C   UNL     1      17.999  28.169  28.146  1.00  0.00     0.041 C 
ATOM      9  O   UNL     1      18.399  29.309  27.790  1.00  0.00    -0.550 OA
ATOM     10  O   UNL     1      17.289  27.378  27.252  1.00  0.00    -0.550 OA
ENDBRANCH   7   8
ENDBRANCH   6   7
ENDBRANCH   5   6
ENDBRANCH   4   5
ENDBRANCH   3   4
ENDBRANCH   2   3
ENDBRANCH   1   2
BRANCH   1  11
ATOM     11  C   UNL     1      16.525  30.004  34.579  1.00  0.00     0.000 C 
BRANCH  11  12
ATOM     12  C   UNL     1      16.570  30.926  33.346  1.00  0.00    -0.000 C 
BRANCH  12  13
ATOM     13  C   UNL     1      16.992  32.382  33.631  1.00  0.00    -0.000 C 
BRANCH  13  14
ATOM     14  C   UNL     1      15.825  33.390  33.584  1.00  0.00    -0.000 C 
BRANCH  14  15
ATOM     15  C   UNL     1      15.749  34.268  34.846  1.00  0.00    -0.000 C 
BRANCH  15  16
ATOM     16  C   UNL     1      16.760  33.848  35.929  1.00  0.00    -0.000 C 
BRANCH  16  17
ATOM     17  C   UNL     1      16.146  33.571  37.312  1.00  0.00    -0.003 C 
ATOM     18  C   UNL     1      15.378  32.252  37.374  1.00  0.00     0.004 C 
ENDBRANCH  16  17
ENDBRANCH  15  16
ENDBRANCH  14  15
ENDBRANCH  13  14
ENDBRANCH  12  13
ENDBRANCH  11  12
ENDBRANCH   1  11
TORSDOF 14
ENDMDL
