MODEL 1
REMARK VINA RESULT:    -4.942      0.000      0.000
REMARK INTER + INTRA:          -5.086
REMARK INTER:                  -5.086
REMARK INTRA:                   0.000
REMARK UNBOUND:                 0.000
REMARK SMILES Cc1ccccc1O
REMARK SMILES IDX 1 1 2 2 3 3 4 4 5 5 6 6 7 7 8 8
REMARK H PARENT 8 9
REMARK Flexibility Score: inf
ROOT
ATOM      1  C   UNL     1      24.410   7.246 100.251  1.00  0.00     0.048 C 
ATOM      2  C   UNL     1      23.544   6.208 100.905  1.00  0.00    -0.009 A 
ATOM      3  C   UNL     1      24.099   5.293 101.815  1.00  0.00     0.007 A 
ATOM      4  C   UNL     1      23.292   4.327 102.424  1.00  0.00     0.001 A 
ATOM      5  C   UNL     1      21.929   4.267 102.132  1.00  0.00     0.004 A 
ATOM      6  C   UNL     1      21.366   5.172 101.228  1.00  0.00     0.046 A 
ATOM      7  C   UNL     1      22.168   6.145 100.612  1.00  0.00     0.118 A 
ENDROOT
BRANCH   7   8
ATOM      8  O   UNL     1      21.603   7.047  99.710  1.00  0.00    -0.508 OA
ATOM      9  H   UNL     1      21.130   6.733  98.871  1.00  0.00     0.293 HD
ENDBRANCH   7   8
TORSDOF 1
ENDMDL
MODEL 2
REMARK VINA RESULT:    -4.825      4.207      5.761
REMARK INTER + INTRA:          -4.966
REMARK INTER:                  -4.966
REMARK INTRA:                   0.000
REMARK UNBOUND:                 0.000
REMARK SMILES Cc1ccccc1O
REMARK SMILES IDX 1 1 2 2 3 3 4 4 5 5 6 6 7 7 8 8
REMARK H PARENT 8 9
REMARK Flexibility Score: inf
ROOT
ATOM      1  C   UNL     1      19.402   1.721 105.885  1.00  0.00     0.048 C 
ATOM      2  C   UNL     1      20.380   2.672 105.256  1.00  0.00    -0.009 A 
ATOM      3  C   UNL     1      21.311   2.210 104.310  1.00  0.00     0.007 A 
ATOM      4  C   UNL     1      22.220   3.095 103.725  1.00  0.00     0.001 A 
ATOM      5  C   UNL     1      22.210   4.445 104.078  1.00  0.00     0.004 A 
ATOM      6  C   UNL     1      21.290   4.916 105.018  1.00  0.00     0.046 A 
ATOM      7  C   UNL     1      20.372   4.035 105.610  1.00  0.00     0.118 A 
ENDROOT
BRANCH   7   8
ATOM      8  O   UNL     1      19.455   4.508 106.549  1.00  0.00    -0.508 OA
ATOM      9  H   UNL     1      18.658   3.953 106.838  1.00  0.00     0.293 HD
ENDBRANCH   7   8
TORSDOF 1
ENDMDL
MODEL 3
REMARK VINA RESULT:    -4.392      1.829      2.818
REMARK INTER + INTRA:          -4.520
REMARK INTER:                  -4.520
REMARK INTRA:                   0.000
REMARK UNBOUND:                 0.000
REMARK SMILES Cc1ccccc1O
REMARK SMILES IDX 1 1 2 2 3 3 4 4 5 5 6 6 7 7 8 8
REMARK H PARENT 8 9
REMARK Flexibility Score: inf
ROOT
ATOM      1  C   UNL     1      24.770   4.371 102.982  1.00  0.00     0.048 C 
ATOM      2  C   UNL     1      23.789   5.010 102.039  1.00  0.00    -0.009 A 
ATOM      3  C   UNL     1      24.193   6.066 101.205  1.00  0.00     0.007 A 
ATOM      4  C   UNL     1      23.281   6.660 100.328  1.00  0.00     0.001 A 
ATOM      5  C   UNL     1      21.962   6.205 100.275  1.00  0.00     0.004 A 
ATOM      6  C   UNL     1      21.550   5.156 101.100  1.00  0.00     0.046 A 
ATOM      7  C   UNL     1      22.458   4.554 101.984  1.00  0.00     0.118 A 
ENDROOT
BRANCH   7   8
ATOM      8  O   UNL     1      22.043   3.506 102.806  1.00  0.00    -0.508 OA
ATOM      9  H   UNL     1      21.139   3.517 103.263  1.00  0.00     0.293 HD
ENDBRANCH   7   8
TORSDOF 1
ENDMDL
MODEL 4
REMARK VINA RESULT:    -4.296      1.128      2.699
REMARK INTER + INTRA:          -4.421
REMARK INTER:                  -4.421
REMARK INTRA:                   0.000
REMARK UNBOUND:                 0.000
REMARK SMILES Cc1ccccc1O
REMARK SMILES IDX 1 1 2 2 3 3 4 4 5 5 6 6 7 7 8 8
REMARK H PARENT 8 9
REMARK Flexibility Score: inf
ROOT
ATOM      1  C   UNL     1      22.111   3.661 102.542  1.00  0.00     0.048 C 
ATOM      2  C   UNL     1      22.638   4.822 101.747  1.00  0.00    -0.009 A 
ATOM      3  C   UNL     1      23.992   5.187 101.838  1.00  0.00     0.007 A 
ATOM      4  C   UNL     1      24.482   6.267 101.098  1.00  0.00     0.001 A 
ATOM      5  C   UNL     1      23.627   6.990 100.264  1.00  0.00     0.004 A 
ATOM      6  C   UNL     1      22.279   6.636 100.166  1.00  0.00     0.046 A 
ATOM      7  C   UNL     1      21.778   5.553 100.905  1.00  0.00     0.118 A 
ENDROOT
BRANCH   7   8
ATOM      8  O   UNL     1      20.432   5.202 100.805  1.00  0.00    -0.508 OA
ATOM      9  H   UNL     1      20.096   4.591 100.070  1.00  0.00     0.293 HD
ENDBRANCH   7   8
TORSDOF 1
ENDMDL
MODEL 5
REMARK VINA RESULT:    -4.272      1.377      2.454
REMARK INTER + INTRA:          -4.397
REMARK INTER:                  -4.397
REMARK INTRA:                   0.000
REMARK UNBOUND:                 0.000
REMARK SMILES Cc1ccccc1O
REMARK SMILES IDX 1 1 2 2 3 3 4 4 5 5 6 6 7 7 8 8
REMARK H PARENT 8 9
REMARK Flexibility Score: inf
ROOT
ATOM      1  C   UNL     1      21.412   5.612 100.077  1.00  0.00     0.048 C 
ATOM      2  C   UNL     1      22.352   5.129 101.145  1.00  0.00    -0.009 A 
ATOM      3  C   UNL     1      21.909   4.223 102.123  1.00  0.00     0.007 A 
ATOM      4  C   UNL     1      22.783   3.773 103.116  1.00  0.00     0.001 A 
ATOM      5  C   UNL     1      24.105   4.223 103.141  1.00  0.00     0.004 A 
ATOM      6  C   UNL     1      24.556   5.124 102.174  1.00  0.00     0.046 A 
ATOM      7  C   UNL     1      23.686   5.580 101.173  1.00  0.00     0.118 A 
ENDROOT
BRANCH   7   8
ATOM      8  O   UNL     1      24.140   6.480 100.208  1.00  0.00    -0.508 OA
ATOM      9  H   UNL     1      24.556   7.368 100.465  1.00  0.00     0.293 HD
ENDBRANCH   7   8
TORSDOF 1
ENDMDL
MODEL 6
REMARK VINA RESULT:    -4.264      4.114      5.058
REMARK INTER + INTRA:          -4.388
REMARK INTER:                  -4.388
REMARK INTRA:                   0.000
REMARK UNBOUND:                 0.000
REMARK SMILES Cc1ccccc1O
REMARK SMILES IDX 1 1 2 2 3 3 4 4 5 5 6 6 7 7 8 8
REMARK H PARENT 8 9
REMARK Flexibility Score: inf
ROOT
ATOM      1  C   UNL     1      21.383   5.234 106.136  1.00  0.00     0.048 C 
ATOM      2  C   UNL     1      21.617   4.173 105.099  1.00  0.00    -0.009 A 
ATOM      3  C   UNL     1      22.498   4.408 104.029  1.00  0.00     0.007 A 
ATOM      4  C   UNL     1      22.716   3.421 103.065  1.00  0.00     0.001 A 
ATOM      5  C   UNL     1      22.059   2.192 103.159  1.00  0.00     0.004 A 
ATOM      6  C   UNL     1      21.181   1.947 104.218  1.00  0.00     0.046 A 
ATOM      7  C   UNL     1      20.956   2.933 105.191  1.00  0.00     0.118 A 
ENDROOT
BRANCH   7   8
ATOM      8  O   UNL     1      20.079   2.685 106.247  1.00  0.00    -0.508 OA
ATOM      9  H   UNL     1      20.371   2.170 107.070  1.00  0.00     0.293 HD
ENDBRANCH   7   8
TORSDOF 1
ENDMDL
MODEL 7
REMARK VINA RESULT:    -4.237      2.225      3.381
REMARK INTER + INTRA:          -4.361
REMARK INTER:                  -4.361
REMARK INTRA:                   0.000
REMARK UNBOUND:                 0.000
REMARK SMILES Cc1ccccc1O
REMARK SMILES IDX 1 1 2 2 3 3 4 4 5 5 6 6 7 7 8 8
REMARK H PARENT 8 9
REMARK Flexibility Score: inf
ROOT
ATOM      1  C   UNL     1      21.044   4.842 105.416  1.00  0.00     0.048 C 
ATOM      2  C   UNL     1      21.634   4.855 104.034  1.00  0.00    -0.009 A 
ATOM      3  C   UNL     1      22.788   4.106 103.749  1.00  0.00     0.007 A 
ATOM      4  C   UNL     1      23.337   4.118 102.463  1.00  0.00     0.001 A 
ATOM      5  C   UNL     1      22.740   4.875 101.454  1.00  0.00     0.004 A 
ATOM      6  C   UNL     1      21.592   5.625 101.727  1.00  0.00     0.046 A 
ATOM      7  C   UNL     1      21.034   5.619 103.014  1.00  0.00     0.118 A 
ENDROOT
BRANCH   7   8
ATOM      8  O   UNL     1      19.888   6.367 103.283  1.00  0.00    -0.508 OA
ATOM      9  H   UNL     1      19.808   6.934 104.119  1.00  0.00     0.293 HD
ENDBRANCH   7   8
TORSDOF 1
ENDMDL
MODEL 8
REMARK VINA RESULT:    -4.232      9.801      9.964
REMARK INTER + INTRA:          -4.356
REMARK INTER:                  -4.356
REMARK INTRA:                   0.000
REMARK UNBOUND:                 0.000
REMARK SMILES Cc1ccccc1O
REMARK SMILES IDX 1 1 2 2 3 3 4 4 5 5 6 6 7 7 8 8
REMARK H PARENT 8 9
REMARK Flexibility Score: inf
ROOT
ATOM      1  C   UNL     1      31.792   4.917  97.605  1.00  0.00     0.048 C 
ATOM      2  C   UNL     1      32.141   4.423  98.980  1.00  0.00    -0.009 A 
ATOM      3  C   UNL     1      32.059   3.054  99.283  1.00  0.00     0.007 A 
ATOM      4  C   UNL     1      32.384   2.594 100.563  1.00  0.00     0.001 A 
ATOM      5  C   UNL     1      32.794   3.494 101.548  1.00  0.00     0.004 A 
ATOM      6  C   UNL     1      32.879   4.858 101.257  1.00  0.00     0.046 A 
ATOM      7  C   UNL     1      32.555   5.329  99.976  1.00  0.00     0.118 A 
ENDROOT
BRANCH   7   8
ATOM      8  O   UNL     1      32.641   6.692  99.689  1.00  0.00    -0.508 OA
ATOM      9  H   UNL     1      31.832   7.224  99.392  1.00  0.00     0.293 HD
ENDBRANCH   7   8
TORSDOF 1
ENDMDL
MODEL 9
REMARK VINA RESULT:    -4.110     12.628     12.939
REMARK INTER + INTRA:          -4.230
REMARK INTER:                  -4.230
REMARK INTRA:                   0.000
REMARK UNBOUND:                 0.000
REMARK SMILES Cc1ccccc1O
REMARK SMILES IDX 1 1 2 2 3 3 4 4 5 5 6 6 7 7 8 8
REMARK H PARENT 8 9
REMARK Flexibility Score: inf
ROOT
ATOM      1  C   UNL     1      21.976  -5.715 107.862  1.00  0.00     0.048 C 
ATOM      2  C   UNL     1      22.367  -5.980 106.436  1.00  0.00    -0.009 A 
ATOM      3  C   UNL     1      23.711  -5.870 106.038  1.00  0.00     0.007 A 
ATOM      4  C   UNL     1      24.075  -6.117 104.712  1.00  0.00     0.001 A 
ATOM      5  C   UNL     1      23.106  -6.475 103.774  1.00  0.00     0.004 A 
ATOM      6  C   UNL     1      21.767  -6.587 104.158  1.00  0.00     0.046 A 
ATOM      7  C   UNL     1      21.391  -6.341 105.488  1.00  0.00     0.118 A 
ENDROOT
BRANCH   7   8
ATOM      8  O   UNL     1      20.054  -6.454 105.869  1.00  0.00    -0.508 OA
ATOM      9  H   UNL     1      19.452  -7.173 105.485  1.00  0.00     0.293 HD
ENDBRANCH   7   8
TORSDOF 1
ENDMDL
