MODEL 1
REMARK VINA RESULT:     6.520      0.000      0.000
REMARK INTER + INTRA:           9.901
REMARK INTER:                  10.331
REMARK INTRA:                  -0.431
REMARK UNBOUND:                -0.431
REMARK SMILES CCCCCCCCCCCC(=O)[O-]
REMARK SMILES IDX 7 1 8 2 9 3 10 4 11 5 12 6 13 7 14 8 6 9 5 10 4 11 3 12 2 13
REMARK SMILES IDX 1 14
REMARK H PARENT
REMARK Flexibility Score: inf
ROOT
ATOM      1  C   UNL     1      12.149  12.211  17.606  1.00  0.00     0.000 C 
ENDROOT
BRANCH   1   2
ATOM      2  C   UNL     1      13.515  11.572  17.295  1.00  0.00     0.000 C 
BRANCH   2   3
ATOM      3  C   UNL     1      14.629  12.562  16.907  1.00  0.00     0.000 C 
BRANCH   3   4
ATOM      4  C   UNL     1      14.465  13.991  17.460  1.00  0.00     0.006 C 
BRANCH   4   5
ATOM      5  C   UNL     1      13.697  14.942  16.522  1.00  0.00     0.053 C 
BRANCH   5   6
ATOM      6  C   UNL     1      13.899  16.385  16.871  1.00  0.00     0.041 C 
ATOM      7  O   UNL     1      13.395  17.288  16.152  1.00  0.00    -0.550 OA
ATOM      8  O   UNL     1      14.613  16.733  18.011  1.00  0.00    -0.550 OA
ENDBRANCH   5   6
ENDBRANCH   4   5
ENDBRANCH   3   4
ENDBRANCH   2   3
ENDBRANCH   1   2
BRANCH   1   9
ATOM      9  C   UNL     1      11.244  12.321  16.371  1.00  0.00     0.000 C 
BRANCH   9  10
ATOM     10  C   UNL     1       9.914  11.592  16.597  1.00  0.00    -0.000 C 
BRANCH  10  11
ATOM     11  C   UNL     1       8.913  11.914  15.482  1.00  0.00    -0.000 C 
BRANCH  11  12
ATOM     12  C   UNL     1       7.994  13.077  15.887  1.00  0.00    -0.000 C 
BRANCH  12  13
ATOM     13  C   UNL     1       7.885  13.241  17.410  1.00  0.00    -0.003 C 
ATOM     14  C   UNL     1       7.875  14.706  17.847  1.00  0.00     0.004 C 
ENDBRANCH  12  13
ENDBRANCH  11  12
ENDBRANCH  10  11
ENDBRANCH   9  10
ENDBRANCH   1   9
TORSDOF 10
ENDMDL
MODEL 2
REMARK VINA RESULT:     6.991      0.834      1.982
REMARK INTER + INTRA:          10.647
REMARK INTER:                  10.829
REMARK INTRA:                  -0.181
REMARK UNBOUND:                -0.431
REMARK SMILES CCCCCCCCCCCC(=O)[O-]
REMARK SMILES IDX 7 1 8 2 9 3 10 4 11 5 12 6 13 7 14 8 6 9 5 10 4 11 3 12 2 13
REMARK SMILES IDX 1 14
REMARK H PARENT
REMARK Flexibility Score: inf
ROOT
ATOM      1  C   UNL     1      12.396  11.938  17.852  1.00  0.00     0.000 C 
ENDROOT
BRANCH   1   2
ATOM      2  C   UNL     1      13.785  11.582  17.292  1.00  0.00     0.000 C 
BRANCH   2   3
ATOM      3  C   UNL     1      14.471  12.698  16.482  1.00  0.00     0.000 C 
BRANCH   3   4
ATOM      4  C   UNL     1      14.545  14.070  17.179  1.00  0.00     0.006 C 
BRANCH   4   5
ATOM      5  C   UNL     1      13.505  15.087  16.672  1.00  0.00     0.053 C 
BRANCH   5   6
ATOM      6  C   UNL     1      13.918  16.507  16.919  1.00  0.00     0.041 C 
ATOM      7  O   UNL     1      14.703  16.784  17.864  1.00  0.00    -0.550 OA
ATOM      8  O   UNL     1      13.466  17.519  16.082  1.00  0.00    -0.550 OA
ENDBRANCH   5   6
ENDBRANCH   4   5
ENDBRANCH   3   4
ENDBRANCH   2   3
ENDBRANCH   1   2
BRANCH   1   9
ATOM      9  C   UNL     1      11.398  12.349  16.761  1.00  0.00     0.000 C 
BRANCH   9  10
ATOM     10  C   UNL     1      10.035  11.681  16.981  1.00  0.00    -0.000 C 
BRANCH  10  11
ATOM     11  C   UNL     1       8.911  12.722  17.028  1.00  0.00    -0.000 C 
BRANCH  11  12
ATOM     12  C   UNL     1       8.123  12.739  15.709  1.00  0.00    -0.000 C 
BRANCH  12  13
ATOM     13  C   UNL     1       9.010  12.457  14.487  1.00  0.00    -0.003 C 
ATOM     14  C   UNL     1       8.616  11.174  13.755  1.00  0.00     0.004 C 
ENDBRANCH  12  13
ENDBRANCH  11  12
ENDBRANCH  10  11
ENDBRANCH   9  10
ENDBRANCH   1   9
TORSDOF 10
ENDMDL
MODEL 3
REMARK VINA RESULT:     7.297      3.539      6.995
REMARK INTER + INTRA:          11.132
REMARK INTER:                  11.424
REMARK INTRA:                  -0.292
REMARK UNBOUND:                -0.431
REMARK SMILES CCCCCCCCCCCC(=O)[O-]
REMARK SMILES IDX 7 1 8 2 9 3 10 4 11 5 12 6 13 7 14 8 6 9 5 10 4 11 3 12 2 13
REMARK SMILES IDX 1 14
REMARK H PARENT
REMARK Flexibility Score: inf
ROOT
ATOM      1  C   UNL     1      14.268  14.072  16.737  1.00  0.00     0.000 C 
ENDROOT
BRANCH   1   2
ATOM      2  C   UNL     1      13.627  13.086  17.730  1.00  0.00     0.000 C 
BRANCH   2   3
ATOM      3  C   UNL     1      12.636  12.082  17.110  1.00  0.00     0.000 C 
BRANCH   3   4
ATOM      4  C   UNL     1      11.345  12.697  16.535  1.00  0.00     0.006 C 
BRANCH   4   5
ATOM      5  C   UNL     1      10.152  11.724  16.496  1.00  0.00     0.053 C 
BRANCH   5   6
ATOM      6  C   UNL     1       8.999  12.256  15.700  1.00  0.00     0.041 C 
ATOM      7  O   UNL     1       8.120  12.968  16.255  1.00  0.00    -0.550 OA
ATOM      8  O   UNL     1       8.913  11.998  14.338  1.00  0.00    -0.550 OA
ENDBRANCH   5   6
ENDBRANCH   4   5
ENDBRANCH   3   4
ENDBRANCH   2   3
ENDBRANCH   1   2
BRANCH   1   9
ATOM      9  C   UNL     1      14.027  15.541  17.112  1.00  0.00     0.000 C 
BRANCH   9  10
ATOM     10  C   UNL     1      15.056  16.022  18.142  1.00  0.00    -0.000 C 
BRANCH  10  11
ATOM     11  C   UNL     1      15.113  17.553  18.191  1.00  0.00    -0.000 C 
BRANCH  11  12
ATOM     12  C   UNL     1      16.514  18.038  18.593  1.00  0.00    -0.000 C 
BRANCH  12  13
ATOM     13  C   UNL     1      16.486  18.998  19.792  1.00  0.00    -0.003 C 
ATOM     14  C   UNL     1      16.812  20.439  19.403  1.00  0.00     0.004 C 
ENDBRANCH  12  13
ENDBRANCH  11  12
ENDBRANCH  10  11
ENDBRANCH   9  10
ENDBRANCH   1   9
TORSDOF 10
ENDMDL
MODEL 4
REMARK VINA RESULT:     7.363      2.946      5.930
REMARK INTER + INTRA:          11.236
REMARK INTER:                  11.796
REMARK INTRA:                  -0.560
REMARK UNBOUND:                -0.431
REMARK SMILES CCCCCCCCCCCC(=O)[O-]
REMARK SMILES IDX 7 1 8 2 9 3 10 4 11 5 12 6 13 7 14 8 6 9 5 10 4 11 3 12 2 13
REMARK SMILES IDX 1 14
REMARK H PARENT
REMARK Flexibility Score: inf
ROOT
ATOM      1  C   UNL     1      12.527  11.931  17.684  1.00  0.00     0.000 C 
ENDROOT
BRANCH   1   2
ATOM      2  C   UNL     1      11.470  12.529  16.739  1.00  0.00     0.000 C 
BRANCH   2   3
ATOM      3  C   UNL     1      10.105  11.815  16.748  1.00  0.00     0.000 C 
BRANCH   3   4
ATOM      4  C   UNL     1       8.875  12.743  16.780  1.00  0.00     0.006 C 
BRANCH   4   5
ATOM      5  C   UNL     1       7.930  12.572  15.576  1.00  0.00     0.053 C 
BRANCH   5   6
ATOM      6  C   UNL     1       8.648  12.129  14.337  1.00  0.00     0.041 C 
ATOM      7  O   UNL     1       9.439  12.912  13.748  1.00  0.00    -0.550 OA
ATOM      8  O   UNL     1       8.472  10.838  13.854  1.00  0.00    -0.550 OA
ENDBRANCH   5   6
ENDBRANCH   4   5
ENDBRANCH   3   4
ENDBRANCH   2   3
ENDBRANCH   1   2
BRANCH   1   9
ATOM      9  C   UNL     1      13.959  12.075  17.148  1.00  0.00     0.000 C 
BRANCH   9  10
ATOM     10  C   UNL     1      14.240  13.517  16.708  1.00  0.00    -0.000 C 
BRANCH  10  11
ATOM     11  C   UNL     1      14.494  14.423  17.918  1.00  0.00    -0.000 C 
BRANCH  11  12
ATOM     12  C   UNL     1      14.464  15.905  17.510  1.00  0.00    -0.000 C 
BRANCH  12  13
ATOM     13  C   UNL     1      13.426  16.196  16.417  1.00  0.00    -0.003 C 
ATOM     14  C   UNL     1      13.446  17.653  15.957  1.00  0.00     0.004 C 
ENDBRANCH  12  13
ENDBRANCH  11  12
ENDBRANCH  10  11
ENDBRANCH   9  10
ENDBRANCH   1   9
TORSDOF 10
ENDMDL
MODEL 5
REMARK VINA RESULT:     7.503      2.619      5.698
REMARK INTER + INTRA:          11.459
REMARK INTER:                  11.765
REMARK INTRA:                  -0.306
REMARK UNBOUND:                -0.431
REMARK SMILES CCCCCCCCCCCC(=O)[O-]
REMARK SMILES IDX 7 1 8 2 9 3 10 4 11 5 12 6 13 7 14 8 6 9 5 10 4 11 3 12 2 13
REMARK SMILES IDX 1 14
REMARK H PARENT
REMARK Flexibility Score: inf
ROOT
ATOM      1  C   UNL     1      12.519  11.868  17.425  1.00  0.00     0.000 C 
ENDROOT
BRANCH   1   2
ATOM      2  C   UNL     1      11.464  12.688  16.661  1.00  0.00     0.000 C 
BRANCH   2   3
ATOM      3  C   UNL     1      10.285  11.874  16.094  1.00  0.00     0.000 C 
BRANCH   3   4
ATOM      4  C   UNL     1       9.300  12.665  15.212  1.00  0.00     0.006 C 
BRANCH   4   5
ATOM      5  C   UNL     1       7.935  12.926  15.875  1.00  0.00     0.053 C 
BRANCH   5   6
ATOM      6  C   UNL     1       8.063  13.523  17.244  1.00  0.00     0.041 C 
ATOM      7  O   UNL     1       8.373  12.799  18.226  1.00  0.00    -0.550 OA
ATOM      8  O   UNL     1       7.876  14.887  17.429  1.00  0.00    -0.550 OA
ENDBRANCH   5   6
ENDBRANCH   4   5
ENDBRANCH   3   4
ENDBRANCH   2   3
ENDBRANCH   1   2
BRANCH   1   9
ATOM      9  C   UNL     1      13.956  12.328  17.140  1.00  0.00     0.000 C 
BRANCH   9  10
ATOM     10  C   UNL     1      13.990  13.805  16.729  1.00  0.00    -0.000 C 
BRANCH  10  11
ATOM     11  C   UNL     1      14.631  14.666  17.823  1.00  0.00    -0.000 C 
BRANCH  11  12
ATOM     12  C   UNL     1      14.398  16.161  17.553  1.00  0.00    -0.000 C 
BRANCH  12  13
ATOM     13  C   UNL     1      13.451  16.406  16.369  1.00  0.00    -0.003 C 
ATOM     14  C   UNL     1      13.497  17.848  15.865  1.00  0.00     0.004 C 
ENDBRANCH  12  13
ENDBRANCH  11  12
ENDBRANCH  10  11
ENDBRANCH   9  10
ENDBRANCH   1   9
TORSDOF 10
ENDMDL
MODEL 6
REMARK VINA RESULT:     8.106      3.006      6.000
REMARK INTER + INTRA:          12.414
REMARK INTER:                  12.965
REMARK INTRA:                  -0.552
REMARK UNBOUND:                -0.431
REMARK SMILES CCCCCCCCCCCC(=O)[O-]
REMARK SMILES IDX 7 1 8 2 9 3 10 4 11 5 12 6 13 7 14 8 6 9 5 10 4 11 3 12 2 13
REMARK SMILES IDX 1 14
REMARK H PARENT
REMARK Flexibility Score: inf
ROOT
ATOM      1  C   UNL     1      13.976  13.752  16.746  1.00  0.00     0.000 C 
ENDROOT
BRANCH   1   2
ATOM      2  C   UNL     1      13.739  12.329  17.284  1.00  0.00     0.000 C 
BRANCH   2   3
ATOM      3  C   UNL     1      12.268  11.972  17.570  1.00  0.00     0.000 C 
BRANCH   3   4
ATOM      4  C   UNL     1      11.244  12.546  16.572  1.00  0.00     0.006 C 
BRANCH   4   5
ATOM      5  C   UNL     1      10.050  11.613  16.296  1.00  0.00     0.053 C 
BRANCH   5   6
ATOM      6  C   UNL     1       8.927  12.307  15.584  1.00  0.00     0.041 C 
ATOM      7  O   UNL     1       8.186  13.113  16.205  1.00  0.00    -0.550 OA
ATOM      8  O   UNL     1       8.723  12.091  14.227  1.00  0.00    -0.550 OA
ENDBRANCH   5   6
ENDBRANCH   4   5
ENDBRANCH   3   4
ENDBRANCH   2   3
ENDBRANCH   1   2
BRANCH   1   9
ATOM      9  C   UNL     1      14.646  14.676  17.773  1.00  0.00     0.000 C 
BRANCH   9  10
ATOM     10  C   UNL     1      14.349  16.149  17.463  1.00  0.00    -0.000 C 
BRANCH  10  11
ATOM     11  C   UNL     1      13.484  16.284  16.205  1.00  0.00    -0.000 C 
BRANCH  11  12
ATOM     12  C   UNL     1      13.114  17.753  15.948  1.00  0.00    -0.000 C 
BRANCH  12  13
ATOM     13  C   UNL     1      14.334  18.616  15.595  1.00  0.00    -0.003 C 
ATOM     14  C   UNL     1      14.011  20.110  15.561  1.00  0.00     0.004 C 
ENDBRANCH  12  13
ENDBRANCH  11  12
ENDBRANCH  10  11
ENDBRANCH   9  10
ENDBRANCH   1   9
TORSDOF 10
ENDMDL
