MODEL 1
REMARK VINA RESULT:     1.325      0.000      0.000
REMARK INTER + INTRA:          13.905
REMARK INTER:                   1.945
REMARK INTRA:                  11.960
REMARK UNBOUND:                11.960
REMARK SMILES Cc1cc2c(C(C)C)c(O)c(O)c(C=O)c2c(O)c1-c1c(C)cc2c(C(C)C)c(O)c(O)c(C=O)c2c1O
REMARK SMILES IDX 1 1 2 2 3 3 4 4 16 5 13 6 11 7 9 8 5 9 17 10 19 11 20 12
REMARK SMILES IDX 37 13 21 14 36 15 23 16 22 17 24 18 33 19 25 20 31 21 29 22
REMARK SMILES IDX 38 23 34 25 35 26 26 27 27 28 28 29 32 30 30 32 18 34 6 36
REMARK SMILES IDX 7 37 8 38 14 39 15 40 10 41 12 43
REMARK H PARENT 38 24 32 31 30 33 18 35 10 42 12 44
REMARK Flexibility Score: inf
ROOT
ATOM      1  C   UNL     1      29.040  29.992  21.609  1.00  0.00     0.045 C 
ATOM      2  C   UNL     1      28.946  31.327  22.298  1.00  0.00    -0.039 A 
ATOM      3  C   UNL     1      28.866  32.489  21.522  1.00  0.00     0.013 A 
ATOM      4  C   UNL     1      28.636  33.762  22.107  1.00  0.00    -0.006 A 
ATOM      5  C   UNL     1      28.463  33.840  23.518  1.00  0.00     0.039 A 
ATOM      6  C   UNL     1      27.937  35.037  24.090  1.00  0.00     0.072 A 
ATOM      7  C   UNL     1      27.744  36.162  23.263  1.00  0.00     0.169 A 
ATOM      8  C   UNL     1      28.005  36.109  21.896  1.00  0.00     0.162 A 
ATOM      9  C   UNL     1      28.549  34.936  21.308  1.00  0.00     0.008 A 
ATOM     10  C   UNL     1      28.788  32.699  24.295  1.00  0.00     0.132 A 
ATOM     11  C   UNL     1      28.868  31.433  23.700  1.00  0.00     0.031 A 
ENDROOT
BRANCH  11  12
ATOM     12  C   UNL     1      28.843  30.229  24.567  1.00  0.00     0.031 A 
ATOM     13  C   UNL     1      28.814  30.361  25.966  1.00  0.00     0.132 A 
ATOM     14  C   UNL     1      28.825  28.945  23.982  1.00  0.00    -0.039 A 
ATOM     15  C   UNL     1      28.579  29.226  26.791  1.00  0.00     0.039 A 
ATOM     16  C   UNL     1      28.794  27.819  24.802  1.00  0.00     0.013 A 
ATOM     17  C   UNL     1      28.897  28.769  22.484  1.00  0.00     0.045 C 
ATOM     18  C   UNL     1      28.623  27.919  26.199  1.00  0.00    -0.006 A 
ATOM     19  C   UNL     1      28.346  29.332  28.190  1.00  0.00     0.072 A 
ATOM     20  C   UNL     1      28.486  26.760  27.005  1.00  0.00     0.008 A 
ATOM     21  C   UNL     1      28.392  28.178  28.997  1.00  0.00     0.169 A 
ATOM     22  C   UNL     1      28.541  26.902  28.415  1.00  0.00     0.162 A 
BRANCH  13  23
ATOM     23  O   UNL     1      29.075  31.610  26.543  1.00  0.00    -0.507 OA
ATOM     24  H   UNL     1      30.006  32.000  26.611  1.00  0.00     0.293 HD
ENDBRANCH  13  23
BRANCH  19  25
ATOM     25  C   UNL     1      27.965  30.598  28.879  1.00  0.00     0.264 C 
ATOM     26  O   UNL     1      28.651  31.079  29.831  1.00  0.00    -0.298 OA
ENDBRANCH  19  25
BRANCH  20  27
ATOM     27  C   UNL     1      28.235  25.373  26.396  1.00  0.00     0.017 C 
ATOM     28  C   UNL     1      28.919  24.282  27.220  1.00  0.00     0.012 C 
ATOM     29  C   UNL     1      26.753  25.050  26.165  1.00  0.00     0.012 C 
ENDBRANCH  20  27
BRANCH  21  30
ATOM     30  O   UNL     1      28.221  28.331  30.374  1.00  0.00    -0.504 OA
ATOM     31  H   UNL     1      28.548  27.665  31.066  1.00  0.00     0.293 HD
ENDBRANCH  21  30
BRANCH  22  32
ATOM     32  O   UNL     1      28.748  25.776  29.203  1.00  0.00    -0.504 OA
ATOM     33  H   UNL     1      29.140  25.796  30.132  1.00  0.00     0.293 HD
ENDBRANCH  22  32
ENDBRANCH  11  12
BRANCH  10  34
ATOM     34  O   UNL     1      29.125  32.793  25.649  1.00  0.00    -0.507 OA
ATOM     35  H   UNL     1      28.739  32.171  26.351  1.00  0.00     0.293 HD
ENDBRANCH  10  34
BRANCH   9  36
ATOM     36  C   UNL     1      29.125  34.955  19.879  1.00  0.00     0.017 C 
ATOM     37  C   UNL     1      28.725  33.710  19.081  1.00  0.00     0.012 C 
ATOM     38  C   UNL     1      28.857  36.258  19.104  1.00  0.00     0.012 C 
ENDBRANCH   9  36
BRANCH   6  39
ATOM     39  C   UNL     1      27.374  35.049  25.473  1.00  0.00     0.264 C 
ATOM     40  O   UNL     1      26.205  35.465  25.723  1.00  0.00    -0.298 OA
ENDBRANCH   6  39
BRANCH   8  41
ATOM     41  O   UNL     1      27.653  37.224  21.134  1.00  0.00    -0.504 OA
ATOM     42  H   UNL     1      26.722  37.622  21.159  1.00  0.00     0.293 HD
ENDBRANCH   8  41
BRANCH   7  43
ATOM     43  O   UNL     1      27.237  37.341  23.822  1.00  0.00    -0.504 OA
ATOM     44  H   UNL     1      27.216  37.511  24.820  1.00  0.00     0.293 HD
ENDBRANCH   7  43
TORSDOF 11
ENDMDL
