MODEL 1
REMARK VINA RESULT:    -4.899      0.000      0.000
REMARK INTER + INTRA:         -11.160
REMARK INTER:                  -9.195
REMARK INTRA:                  -1.964
REMARK UNBOUND:                -1.964
REMARK SMILES O=C([O-])CCCCCCCCCCCCCCC(=O)[O-]
REMARK SMILES IDX 10 1 9 2 8 3 7 4 6 5 5 6 4 7 2 8 1 9 3 10 11 11 12 12 13 13
REMARK SMILES IDX 14 14 15 15 16 16 17 17 18 18 19 19 20 20
REMARK H PARENT
REMARK Flexibility Score: inf
ROOT
ATOM      1  C   UNL     1      61.383  29.402  14.010  1.00  0.00     0.000 C 
ENDROOT
BRANCH   1   2
ATOM      2  C   UNL     1      60.901  28.281  13.077  1.00  0.00     0.000 C 
BRANCH   2   3
ATOM      3  C   UNL     1      59.683  28.692  12.234  1.00  0.00     0.000 C 
BRANCH   3   4
ATOM      4  C   UNL     1      60.079  29.428  10.941  1.00  0.00     0.000 C 
BRANCH   4   5
ATOM      5  C   UNL     1      61.227  28.730  10.195  1.00  0.00     0.000 C 
BRANCH   5   6
ATOM      6  C   UNL     1      62.235  29.724   9.591  1.00  0.00     0.006 C 
BRANCH   6   7
ATOM      7  C   UNL     1      63.653  29.518  10.142  1.00  0.00     0.053 C 
BRANCH   7   8
ATOM      8  C   UNL     1      64.493  30.748   9.986  1.00  0.00     0.041 C 
ATOM      9  O   UNL     1      64.444  31.417   8.920  1.00  0.00    -0.550 OA
ATOM     10  O   UNL     1      65.306  31.173  11.029  1.00  0.00    -0.550 OA
ENDBRANCH   7   8
ENDBRANCH   6   7
ENDBRANCH   5   6
ENDBRANCH   4   5
ENDBRANCH   3   4
ENDBRANCH   2   3
ENDBRANCH   1   2
BRANCH   1  11
ATOM     11  C   UNL     1      62.810  29.840  13.650  1.00  0.00     0.000 C 
BRANCH  11  12
ATOM     12  C   UNL     1      62.969  31.369  13.624  1.00  0.00     0.000 C 
BRANCH  12  13
ATOM     13  C   UNL     1      61.896  32.060  12.766  1.00  0.00     0.000 C 
BRANCH  13  14
ATOM     14  C   UNL     1      61.125  33.142  13.551  1.00  0.00     0.000 C 
BRANCH  14  15
ATOM     15  C   UNL     1      61.121  32.917  15.076  1.00  0.00     0.000 C 
BRANCH  15  16
ATOM     16  C   UNL     1      61.365  34.184  15.919  1.00  0.00     0.006 C 
BRANCH  16  17
ATOM     17  C   UNL     1      61.769  33.904  17.377  1.00  0.00     0.053 C 
BRANCH  17  18
ATOM     18  C   UNL     1      63.177  34.330  17.658  1.00  0.00     0.041 C 
ATOM     19  O   UNL     1      63.938  34.666  16.713  1.00  0.00    -0.550 OA
ATOM     20  O   UNL     1      63.658  34.324  18.962  1.00  0.00    -0.550 OA
ENDBRANCH  17  18
ENDBRANCH  16  17
ENDBRANCH  15  16
ENDBRANCH  14  15
ENDBRANCH  13  14
ENDBRANCH  12  13
ENDBRANCH  11  12
ENDBRANCH   1  11
TORSDOF 15
ENDMDL
MODEL 2
REMARK VINA RESULT:    -4.804      2.285      6.830
REMARK INTER + INTRA:         -10.980
REMARK INTER:                  -9.274
REMARK INTRA:                  -1.706
REMARK UNBOUND:                -1.964
REMARK SMILES O=C([O-])CCCCCCCCCCCCCCC(=O)[O-]
REMARK SMILES IDX 10 1 9 2 8 3 7 4 6 5 5 6 4 7 2 8 1 9 3 10 11 11 12 12 13 13
REMARK SMILES IDX 14 14 15 15 16 16 17 17 18 18 19 19 20 20
REMARK H PARENT
REMARK Flexibility Score: inf
ROOT
ATOM      1  C   UNL     1      63.462  31.095  13.322  1.00  0.00     0.000 C 
ENDROOT
BRANCH   1   2
ATOM      2  C   UNL     1      62.970  32.375  12.629  1.00  0.00     0.000 C 
BRANCH   2   3
ATOM      3  C   UNL     1      61.459  32.599  12.799  1.00  0.00     0.000 C 
BRANCH   3   4
ATOM      4  C   UNL     1      61.125  33.483  14.014  1.00  0.00     0.000 C 
BRANCH   4   5
ATOM      5  C   UNL     1      60.640  32.666  15.222  1.00  0.00     0.000 C 
BRANCH   5   6
ATOM      6  C   UNL     1      61.727  32.491  16.297  1.00  0.00     0.006 C 
BRANCH   6   7
ATOM      7  C   UNL     1      62.726  33.656  16.304  1.00  0.00     0.053 C 
BRANCH   7   8
ATOM      8  C   UNL     1      62.662  34.435  17.582  1.00  0.00     0.041 C 
ATOM      9  O   UNL     1      61.736  34.220  18.408  1.00  0.00    -0.550 OA
ATOM     10  O   UNL     1      63.642  35.375  17.875  1.00  0.00    -0.550 OA
ENDBRANCH   7   8
ENDBRANCH   6   7
ENDBRANCH   5   6
ENDBRANCH   4   5
ENDBRANCH   3   4
ENDBRANCH   2   3
ENDBRANCH   1   2
BRANCH   1  11
ATOM     11  C   UNL     1      64.093  30.130  12.308  1.00  0.00     0.000 C 
BRANCH  11  12
ATOM     12  C   UNL     1      63.858  30.567  10.854  1.00  0.00     0.000 C 
BRANCH  12  13
ATOM     13  C   UNL     1      63.746  29.375   9.888  1.00  0.00     0.000 C 
BRANCH  13  14
ATOM     14  C   UNL     1      62.409  29.371   9.116  1.00  0.00     0.000 C 
BRANCH  14  15
ATOM     15  C   UNL     1      61.364  28.393   9.691  1.00  0.00     0.000 C 
BRANCH  15  16
ATOM     16  C   UNL     1      60.021  29.037  10.085  1.00  0.00     0.006 C 
BRANCH  16  17
ATOM     17  C   UNL     1      60.010  29.664  11.489  1.00  0.00     0.053 C 
BRANCH  17  18
ATOM     18  C   UNL     1      59.998  28.625  12.566  1.00  0.00     0.041 C 
ATOM     19  O   UNL     1      58.968  27.928  12.764  1.00  0.00    -0.550 OA
ATOM     20  O   UNL     1      61.114  28.447  13.375  1.00  0.00    -0.550 OA
ENDBRANCH  17  18
ENDBRANCH  16  17
ENDBRANCH  15  16
ENDBRANCH  14  15
ENDBRANCH  13  14
ENDBRANCH  12  13
ENDBRANCH  11  12
ENDBRANCH   1  11
TORSDOF 15
ENDMDL
MODEL 3
REMARK VINA RESULT:    -4.789      1.212      1.638
REMARK INTER + INTRA:         -10.953
REMARK INTER:                  -9.221
REMARK INTRA:                  -1.732
REMARK UNBOUND:                -1.964
REMARK SMILES O=C([O-])CCCCCCCCCCCCCCC(=O)[O-]
REMARK SMILES IDX 10 1 9 2 8 3 7 4 6 5 5 6 4 7 2 8 1 9 3 10 11 11 12 12 13 13
REMARK SMILES IDX 14 14 15 15 16 16 17 17 18 18 19 19 20 20
REMARK H PARENT
REMARK Flexibility Score: inf
ROOT
ATOM      1  C   UNL     1      61.278  28.826  12.931  1.00  0.00     0.000 C 
ENDROOT
BRANCH   1   2
ATOM      2  C   UNL     1      59.980  28.944  12.118  1.00  0.00     0.000 C 
BRANCH   2   3
ATOM      3  C   UNL     1      60.215  28.829  10.603  1.00  0.00     0.000 C 
BRANCH   3   4
ATOM      4  C   UNL     1      61.318  29.777  10.101  1.00  0.00     0.000 C 
BRANCH   4   5
ATOM      5  C   UNL     1      62.327  29.073   9.181  1.00  0.00     0.000 C 
BRANCH   5   6
ATOM      6  C   UNL     1      63.788  29.389   9.548  1.00  0.00     0.006 C 
BRANCH   6   7
ATOM      7  C   UNL     1      63.900  30.595  10.490  1.00  0.00     0.053 C 
BRANCH   7   8
ATOM      8  C   UNL     1      65.220  31.290  10.348  1.00  0.00     0.041 C 
ATOM      9  O   UNL     1      65.524  32.236  11.122  1.00  0.00    -0.550 OA
ATOM     10  O   UNL     1      66.126  30.872   9.382  1.00  0.00    -0.550 OA
ENDBRANCH   7   8
ENDBRANCH   6   7
ENDBRANCH   5   6
ENDBRANCH   4   5
ENDBRANCH   3   4
ENDBRANCH   2   3
ENDBRANCH   1   2
BRANCH   1  11
ATOM     11  C   UNL     1      61.505  30.081  13.788  1.00  0.00     0.000 C 
BRANCH  11  12
ATOM     12  C   UNL     1      60.487  31.192  13.486  1.00  0.00     0.000 C 
BRANCH  12  13
ATOM     13  C   UNL     1      61.156  32.553  13.227  1.00  0.00     0.000 C 
BRANCH  13  14
ATOM     14  C   UNL     1      62.685  32.501  13.429  1.00  0.00     0.000 C 
BRANCH  14  15
ATOM     15  C   UNL     1      63.172  33.262  14.678  1.00  0.00     0.000 C 
BRANCH  15  16
ATOM     16  C   UNL     1      62.384  32.962  15.968  1.00  0.00     0.006 C 
BRANCH  16  17
ATOM     17  C   UNL     1      61.665  34.183  16.568  1.00  0.00     0.053 C 
BRANCH  17  18
ATOM     18  C   UNL     1      62.229  34.565  17.901  1.00  0.00     0.041 C 
ATOM     19  O   UNL     1      63.322  35.186  17.973  1.00  0.00    -0.550 OA
ATOM     20  O   UNL     1      61.563  34.204  19.067  1.00  0.00    -0.550 OA
ENDBRANCH  17  18
ENDBRANCH  16  17
ENDBRANCH  15  16
ENDBRANCH  14  15
ENDBRANCH  13  14
ENDBRANCH  12  13
ENDBRANCH  11  12
ENDBRANCH   1  11
TORSDOF 15
ENDMDL
MODEL 4
REMARK VINA RESULT:    -4.751      1.923      2.890
REMARK INTER + INTRA:         -10.881
REMARK INTER:                  -9.084
REMARK INTRA:                  -1.796
REMARK UNBOUND:                -1.964
REMARK SMILES O=C([O-])CCCCCCCCCCCCCCC(=O)[O-]
REMARK SMILES IDX 10 1 9 2 8 3 7 4 6 5 5 6 4 7 2 8 1 9 3 10 11 11 12 12 13 13
REMARK SMILES IDX 14 14 15 15 16 16 17 17 18 18 19 19 20 20
REMARK H PARENT
REMARK Flexibility Score: inf
ROOT
ATOM      1  C   UNL     1      61.990  30.087  14.701  1.00  0.00     0.000 C 
ENDROOT
BRANCH   1   2
ATOM      2  C   UNL     1      63.375  30.677  14.395  1.00  0.00     0.000 C 
BRANCH   2   3
ATOM      3  C   UNL     1      64.024  30.055  13.147  1.00  0.00     0.000 C 
BRANCH   3   4
ATOM      4  C   UNL     1      64.584  31.114  12.182  1.00  0.00     0.000 C 
BRANCH   4   5
ATOM      5  C   UNL     1      64.074  30.928  10.743  1.00  0.00     0.000 C 
BRANCH   5   6
ATOM      6  C   UNL     1      63.466  29.534  10.504  1.00  0.00     0.006 C 
BRANCH   6   7
ATOM      7  C   UNL     1      62.770  29.433   9.140  1.00  0.00     0.053 C 
BRANCH   7   8
ATOM      8  C   UNL     1      61.338  29.015   9.276  1.00  0.00     0.041 C 
ATOM      9  O   UNL     1      61.023  27.799   9.181  1.00  0.00    -0.550 OA
ATOM     10  O   UNL     1      60.358  29.963   9.540  1.00  0.00    -0.550 OA
ENDBRANCH   7   8
ENDBRANCH   6   7
ENDBRANCH   5   6
ENDBRANCH   4   5
ENDBRANCH   3   4
ENDBRANCH   2   3
ENDBRANCH   1   2
BRANCH   1  11
ATOM     11  C   UNL     1      61.183  29.886  13.410  1.00  0.00     0.000 C 
BRANCH  11  12
ATOM     12  C   UNL     1      60.642  31.207  12.841  1.00  0.00     0.000 C 
BRANCH  12  13
ATOM     13  C   UNL     1      60.115  32.151  13.935  1.00  0.00     0.000 C 
BRANCH  13  14
ATOM     14  C   UNL     1      60.943  33.450  14.037  1.00  0.00     0.000 C 
BRANCH  14  15
ATOM     15  C   UNL     1      60.927  34.086  15.441  1.00  0.00     0.000 C 
BRANCH  15  16
ATOM     16  C   UNL     1      61.765  33.344  16.499  1.00  0.00     0.006 C 
BRANCH  16  17
ATOM     17  C   UNL     1      63.236  33.790  16.566  1.00  0.00     0.053 C 
BRANCH  17  18
ATOM     18  C   UNL     1      63.535  34.544  17.825  1.00  0.00     0.041 C 
ATOM     19  O   UNL     1      64.303  35.541  17.799  1.00  0.00    -0.550 OA
ATOM     20  O   UNL     1      62.992  34.124  19.033  1.00  0.00    -0.550 OA
ENDBRANCH  17  18
ENDBRANCH  16  17
ENDBRANCH  15  16
ENDBRANCH  14  15
ENDBRANCH  13  14
ENDBRANCH  12  13
ENDBRANCH  11  12
ENDBRANCH   1  11
TORSDOF 15
ENDMDL
MODEL 5
REMARK VINA RESULT:    -4.745      2.471      7.389
REMARK INTER + INTRA:         -10.870
REMARK INTER:                  -9.366
REMARK INTRA:                  -1.504
REMARK UNBOUND:                -1.964
REMARK SMILES O=C([O-])CCCCCCCCCCCCCCC(=O)[O-]
REMARK SMILES IDX 10 1 9 2 8 3 7 4 6 5 5 6 4 7 2 8 1 9 3 10 11 11 12 12 13 13
REMARK SMILES IDX 14 14 15 15 16 16 17 17 18 18 19 19 20 20
REMARK H PARENT
REMARK Flexibility Score: inf
ROOT
ATOM      1  C   UNL     1      63.366  30.641  13.407  1.00  0.00     0.000 C 
ENDROOT
BRANCH   1   2
ATOM      2  C   UNL     1      62.665  31.844  12.758  1.00  0.00     0.000 C 
BRANCH   2   3
ATOM      3  C   UNL     1      62.551  33.048  13.707  1.00  0.00     0.000 C 
BRANCH   3   4
ATOM      4  C   UNL     1      63.856  33.322  14.476  1.00  0.00     0.000 C 
BRANCH   4   5
ATOM      5  C   UNL     1      63.608  33.991  15.837  1.00  0.00     0.000 C 
BRANCH   5   6
ATOM      6  C   UNL     1      62.357  33.446  16.549  1.00  0.00     0.006 C 
BRANCH   6   7
ATOM      7  C   UNL     1      61.747  34.472  17.514  1.00  0.00     0.053 C 
BRANCH   7   8
ATOM      8  C   UNL     1      61.995  34.104  18.945  1.00  0.00     0.041 C 
ATOM      9  O   UNL     1      61.049  33.685  19.663  1.00  0.00    -0.550 OA
ATOM     10  O   UNL     1      63.276  34.193  19.475  1.00  0.00    -0.550 OA
ENDBRANCH   7   8
ENDBRANCH   6   7
ENDBRANCH   5   6
ENDBRANCH   4   5
ENDBRANCH   3   4
ENDBRANCH   2   3
ENDBRANCH   1   2
BRANCH   1  11
ATOM     11  C   UNL     1      63.912  29.682  12.339  1.00  0.00     0.000 C 
BRANCH  11  12
ATOM     12  C   UNL     1      64.133  30.374  10.984  1.00  0.00     0.000 C 
BRANCH  12  13
ATOM     13  C   UNL     1      63.780  29.467   9.793  1.00  0.00     0.000 C 
BRANCH  13  14
ATOM     14  C   UNL     1      62.358  29.736   9.254  1.00  0.00     0.000 C 
BRANCH  14  15
ATOM     15  C   UNL     1      61.426  28.511   9.329  1.00  0.00     0.000 C 
BRANCH  15  16
ATOM     16  C   UNL     1      60.077  28.765  10.029  1.00  0.00     0.006 C 
BRANCH  16  17
ATOM     17  C   UNL     1      60.192  29.496  11.377  1.00  0.00     0.053 C 
BRANCH  17  18
ATOM     18  C   UNL     1      59.919  28.585  12.533  1.00  0.00     0.041 C 
ATOM     19  O   UNL     1      60.834  28.312  13.354  1.00  0.00    -0.550 OA
ATOM     20  O   UNL     1      58.663  28.010  12.685  1.00  0.00    -0.550 OA
ENDBRANCH  17  18
ENDBRANCH  16  17
ENDBRANCH  15  16
ENDBRANCH  14  15
ENDBRANCH  13  14
ENDBRANCH  12  13
ENDBRANCH  11  12
ENDBRANCH   1  11
TORSDOF 15
ENDMDL
MODEL 6
REMARK VINA RESULT:    -4.727      1.624      6.021
REMARK INTER + INTRA:         -10.836
REMARK INTER:                  -8.902
REMARK INTRA:                  -1.934
REMARK UNBOUND:                -1.964
REMARK SMILES O=C([O-])CCCCCCCCCCCCCCC(=O)[O-]
REMARK SMILES IDX 10 1 9 2 8 3 7 4 6 5 5 6 4 7 2 8 1 9 3 10 11 11 12 12 13 13
REMARK SMILES IDX 14 14 15 15 16 16 17 17 18 18 19 19 20 20
REMARK H PARENT
REMARK Flexibility Score: inf
ROOT
ATOM      1  C   UNL     1      60.746  28.667  12.830  1.00  0.00     0.000 C 
ENDROOT
BRANCH   1   2
ATOM      2  C   UNL     1      61.237  29.961  13.497  1.00  0.00     0.000 C 
BRANCH   2   3
ATOM      3  C   UNL     1      60.488  31.208  12.999  1.00  0.00     0.000 C 
BRANCH   3   4
ATOM      4  C   UNL     1      60.025  32.119  14.149  1.00  0.00     0.000 C 
BRANCH   4   5
ATOM      5  C   UNL     1      60.949  33.331  14.349  1.00  0.00     0.000 C 
BRANCH   5   6
ATOM      6  C   UNL     1      61.771  33.245  15.647  1.00  0.00     0.006 C 
BRANCH   6   7
ATOM      7  C   UNL     1      61.423  34.372  16.629  1.00  0.00     0.053 C 
BRANCH   7   8
ATOM      8  C   UNL     1      62.247  34.295  17.877  1.00  0.00     0.041 C 
ATOM      9  O   UNL     1      61.745  34.612  18.988  1.00  0.00    -0.550 OA
ATOM     10  O   UNL     1      63.559  33.842  17.819  1.00  0.00    -0.550 OA
ENDBRANCH   7   8
ENDBRANCH   6   7
ENDBRANCH   5   6
ENDBRANCH   4   5
ENDBRANCH   3   4
ENDBRANCH   2   3
ENDBRANCH   1   2
BRANCH   1  11
ATOM     11  C   UNL     1      60.026  28.971  11.508  1.00  0.00     0.000 C 
BRANCH  11  12
ATOM     12  C   UNL     1      60.885  28.636  10.278  1.00  0.00     0.000 C 
BRANCH  12  13
ATOM     13  C   UNL     1      61.309  29.889   9.494  1.00  0.00     0.000 C 
BRANCH  13  14
ATOM     14  C   UNL     1      62.841  29.987   9.332  1.00  0.00     0.000 C 
BRANCH  14  15
ATOM     15  C   UNL     1      63.626  29.572  10.591  1.00  0.00     0.000 C 
BRANCH  15  16
ATOM     16  C   UNL     1      64.564  30.655  11.158  1.00  0.00     0.006 C 
BRANCH  16  17
ATOM     17  C   UNL     1      63.845  31.932  11.624  1.00  0.00     0.053 C 
BRANCH  17  18
ATOM     18  C   UNL     1      64.252  32.329  13.009  1.00  0.00     0.041 C 
ATOM     19  O   UNL     1      64.434  33.542  13.293  1.00  0.00    -0.550 OA
ATOM     20  O   UNL     1      64.463  31.355  13.978  1.00  0.00    -0.550 OA
ENDBRANCH  17  18
ENDBRANCH  16  17
ENDBRANCH  15  16
ENDBRANCH  14  15
ENDBRANCH  13  14
ENDBRANCH  12  13
ENDBRANCH  11  12
ENDBRANCH   1  11
TORSDOF 15
ENDMDL
MODEL 7
REMARK VINA RESULT:    -4.677      2.887      4.171
REMARK INTER + INTRA:         -10.742
REMARK INTER:                  -8.748
REMARK INTRA:                  -1.995
REMARK UNBOUND:                -1.964
REMARK SMILES O=C([O-])CCCCCCCCCCCCCCC(=O)[O-]
REMARK SMILES IDX 10 1 9 2 8 3 7 4 6 5 5 6 4 7 2 8 1 9 3 10 11 11 12 12 13 13
REMARK SMILES IDX 14 14 15 15 16 16 17 17 18 18 19 19 20 20
REMARK H PARENT
REMARK Flexibility Score: inf
ROOT
ATOM      1  C   UNL     1      64.123  30.293  11.534  1.00  0.00     0.000 C 
ENDROOT
BRANCH   1   2
ATOM      2  C   UNL     1      64.507  30.956  10.202  1.00  0.00     0.000 C 
BRANCH   2   3
ATOM      3  C   UNL     1      63.860  30.269   8.989  1.00  0.00     0.000 C 
BRANCH   3   4
ATOM      4  C   UNL     1      62.815  29.214   9.394  1.00  0.00     0.000 C 
BRANCH   4   5
ATOM      5  C   UNL     1      61.373  29.720   9.227  1.00  0.00     0.000 C 
BRANCH   5   6
ATOM      6  C   UNL     1      60.383  29.019  10.175  1.00  0.00     0.006 C 
BRANCH   6   7
ATOM      7  C   UNL     1      60.301  29.712  11.541  1.00  0.00     0.053 C 
BRANCH   7   8
ATOM      8  C   UNL     1      60.375  28.729  12.668  1.00  0.00     0.041 C 
ATOM      9  O   UNL     1      61.430  28.624  13.349  1.00  0.00    -0.550 OA
ATOM     10  O   UNL     1      59.269  27.951  12.988  1.00  0.00    -0.550 OA
ENDBRANCH   7   8
ENDBRANCH   6   7
ENDBRANCH   5   6
ENDBRANCH   4   5
ENDBRANCH   3   4
ENDBRANCH   2   3
ENDBRANCH   1   2
BRANCH   1  11
ATOM     11  C   UNL     1      63.643  31.341  12.549  1.00  0.00     0.000 C 
BRANCH  11  12
ATOM     12  C   UNL     1      64.202  32.743  12.258  1.00  0.00     0.000 C 
BRANCH  12  13
ATOM     13  C   UNL     1      64.860  33.386  13.491  1.00  0.00     0.000 C 
BRANCH  13  14
ATOM     14  C   UNL     1      64.278  32.844  14.814  1.00  0.00     0.000 C 
BRANCH  14  15
ATOM     15  C   UNL     1      63.645  33.931  15.704  1.00  0.00     0.000 C 
BRANCH  15  16
ATOM     16  C   UNL     1      62.127  33.784  15.929  1.00  0.00     0.006 C 
BRANCH  16  17
ATOM     17  C   UNL     1      61.326  33.481  14.652  1.00  0.00     0.053 C 
BRANCH  17  18
ATOM     18  C   UNL     1      60.611  32.169  14.738  1.00  0.00     0.041 C 
ATOM     19  O   UNL     1      59.519  32.001  14.135  1.00  0.00    -0.550 OA
ATOM     20  O   UNL     1      61.134  31.141  15.514  1.00  0.00    -0.550 OA
ENDBRANCH  17  18
ENDBRANCH  16  17
ENDBRANCH  15  16
ENDBRANCH  14  15
ENDBRANCH  13  14
ENDBRANCH  12  13
ENDBRANCH  11  12
ENDBRANCH   1  11
TORSDOF 15
ENDMDL
MODEL 8
REMARK VINA RESULT:    -4.673      1.087      6.834
REMARK INTER + INTRA:         -10.736
REMARK INTER:                  -8.907
REMARK INTRA:                  -1.828
REMARK UNBOUND:                -1.964
REMARK SMILES O=C([O-])CCCCCCCCCCCCCCC(=O)[O-]
REMARK SMILES IDX 10 1 9 2 8 3 7 4 6 5 5 6 4 7 2 8 1 9 3 10 11 11 12 12 13 13
REMARK SMILES IDX 14 14 15 15 16 16 17 17 18 18 19 19 20 20
REMARK H PARENT
REMARK Flexibility Score: inf
ROOT
ATOM      1  C   UNL     1      62.517  30.105  14.069  1.00  0.00     0.000 C 
ENDROOT
BRANCH   1   2
ATOM      2  C   UNL     1      62.983  31.156  13.050  1.00  0.00     0.000 C 
BRANCH   2   3
ATOM      3  C   UNL     1      62.000  32.331  12.916  1.00  0.00     0.000 C 
BRANCH   3   4
ATOM      4  C   UNL     1      60.856  32.265  13.942  1.00  0.00     0.000 C 
BRANCH   4   5
ATOM      5  C   UNL     1      60.897  33.428  14.946  1.00  0.00     0.000 C 
BRANCH   5   6
ATOM      6  C   UNL     1      62.332  33.868  15.288  1.00  0.00     0.006 C 
BRANCH   6   7
ATOM      7  C   UNL     1      62.796  33.323  16.646  1.00  0.00     0.053 C 
BRANCH   7   8
ATOM      8  C   UNL     1      62.660  34.348  17.731  1.00  0.00     0.041 C 
ATOM      9  O   UNL     1      61.527  34.613  18.213  1.00  0.00    -0.550 OA
ATOM     10  O   UNL     1      63.788  34.985  18.232  1.00  0.00    -0.550 OA
ENDBRANCH   7   8
ENDBRANCH   6   7
ENDBRANCH   5   6
ENDBRANCH   4   5
ENDBRANCH   3   4
ENDBRANCH   2   3
ENDBRANCH   1   2
BRANCH   1  11
ATOM     11  C   UNL     1      62.185  28.777  13.375  1.00  0.00     0.000 C 
BRANCH  11  12
ATOM     12  C   UNL     1      60.699  28.665  12.996  1.00  0.00     0.000 C 
BRANCH  12  13
ATOM     13  C   UNL     1      60.413  29.159  11.568  1.00  0.00     0.000 C 
BRANCH  13  14
ATOM     14  C   UNL     1      61.467  28.662  10.555  1.00  0.00     0.000 C 
BRANCH  14  15
ATOM     15  C   UNL     1      62.089  29.787   9.706  1.00  0.00     0.000 C 
BRANCH  15  16
ATOM     16  C   UNL     1      63.609  29.665   9.480  1.00  0.00     0.006 C 
BRANCH  16  17
ATOM     17  C   UNL     1      64.260  30.920   8.875  1.00  0.00     0.053 C 
BRANCH  17  18
ATOM     18  C   UNL     1      65.496  31.322   9.618  1.00  0.00     0.041 C 
ATOM     19  O   UNL     1      66.627  30.930   9.226  1.00  0.00    -0.550 OA
ATOM     20  O   UNL     1      65.397  32.103  10.764  1.00  0.00    -0.550 OA
ENDBRANCH  17  18
ENDBRANCH  16  17
ENDBRANCH  15  16
ENDBRANCH  14  15
ENDBRANCH  13  14
ENDBRANCH  12  13
ENDBRANCH  11  12
ENDBRANCH   1  11
TORSDOF 15
ENDMDL
MODEL 9
REMARK VINA RESULT:    -4.660     10.242     13.768
REMARK INTER + INTRA:         -10.710
REMARK INTER:                  -8.574
REMARK INTRA:                  -2.137
REMARK UNBOUND:                -1.964
REMARK SMILES O=C([O-])CCCCCCCCCCCCCCC(=O)[O-]
REMARK SMILES IDX 10 1 9 2 8 3 7 4 6 5 5 6 4 7 2 8 1 9 3 10 11 11 12 12 13 13
REMARK SMILES IDX 14 14 15 15 16 16 17 17 18 18 19 19 20 20
REMARK H PARENT
REMARK Flexibility Score: inf
ROOT
ATOM      1  C   UNL     1      61.435  27.459  28.306  1.00  0.00     0.000 C 
ENDROOT
BRANCH   1   2
ATOM      2  C   UNL     1      61.383  28.994  28.260  1.00  0.00     0.000 C 
BRANCH   2   3
ATOM      3  C   UNL     1      62.535  29.650  29.039  1.00  0.00     0.000 C 
BRANCH   3   4
ATOM      4  C   UNL     1      63.456  30.491  28.136  1.00  0.00     0.000 C 
BRANCH   4   5
ATOM      5  C   UNL     1      64.740  29.742  27.745  1.00  0.00     0.000 C 
BRANCH   5   6
ATOM      6  C   UNL     1      65.173  30.022  26.294  1.00  0.00     0.006 C 
BRANCH   6   7
ATOM      7  C   UNL     1      64.016  30.555  25.438  1.00  0.00     0.053 C 
BRANCH   7   8
ATOM      8  C   UNL     1      64.437  30.790  24.020  1.00  0.00     0.041 C 
ATOM      9  O   UNL     1      64.717  29.816  23.273  1.00  0.00    -0.550 OA
ATOM     10  O   UNL     1      64.489  32.083  23.514  1.00  0.00    -0.550 OA
ENDBRANCH   7   8
ENDBRANCH   6   7
ENDBRANCH   5   6
ENDBRANCH   4   5
ENDBRANCH   3   4
ENDBRANCH   2   3
ENDBRANCH   1   2
BRANCH   1  11
ATOM     11  C   UNL     1      62.422  26.912  27.265  1.00  0.00     0.000 C 
BRANCH  11  12
ATOM     12  C   UNL     1      62.037  27.297  25.828  1.00  0.00     0.000 C 
BRANCH  12  13
ATOM     13  C   UNL     1      63.143  26.968  24.811  1.00  0.00     0.000 C 
BRANCH  13  14
ATOM     14  C   UNL     1      64.432  26.460  25.491  1.00  0.00     0.000 C 
BRANCH  14  15
ATOM     15  C   UNL     1      65.654  26.421  24.552  1.00  0.00     0.000 C 
BRANCH  15  16
ATOM     16  C   UNL     1      65.317  26.403  23.049  1.00  0.00     0.006 C 
BRANCH  16  17
ATOM     17  C   UNL     1      66.437  25.840  22.158  1.00  0.00     0.053 C 
BRANCH  17  18
ATOM     18  C   UNL     1      66.718  26.727  20.985  1.00  0.00     0.041 C 
ATOM     19  O   UNL     1      66.804  26.240  19.827  1.00  0.00    -0.550 OA
ATOM     20  O   UNL     1      66.919  28.089  21.175  1.00  0.00    -0.550 OA
ENDBRANCH  17  18
ENDBRANCH  16  17
ENDBRANCH  15  16
ENDBRANCH  14  15
ENDBRANCH  13  14
ENDBRANCH  12  13
ENDBRANCH  11  12
ENDBRANCH   1  11
TORSDOF 15
ENDMDL
