MODEL 1
REMARK VINA RESULT:    36.050      0.000      0.000
REMARK INTER + INTRA:          44.184
REMARK INTER:                  44.480
REMARK INTRA:                  -0.296
REMARK UNBOUND:                -0.296
REMARK SMILES Oc1cc(O)c2cc(O)c(-c3cc(O)c(O)c(O)c3)[o+]c2c1
REMARK SMILES IDX 10 1 20 2 21 3 22 4 2 5 3 6 4 7 6 8 7 9 8 10 11 11 12 12
REMARK SMILES IDX 13 13 19 14 15 15 17 16 14 17 16 19 18 21 9 23 1 25 5 27
REMARK H PARENT 14 18 16 20 18 22 9 24 1 26 5 28
REMARK Flexibility Score: inf
ROOT
ATOM      1  C   UNL     1      30.205 -31.829  -2.473  1.00  0.00     0.402 A 
ATOM      2  O   UNL     1      31.140 -31.637  -3.399  1.00  0.00    -0.202 OA
ATOM      3  C   UNL     1      32.394 -31.300  -3.111  1.00  0.00     0.368 A 
ATOM      4  C   UNL     1      33.304 -31.117  -4.154  1.00  0.00     0.162 A 
ATOM      5  C   UNL     1      34.629 -30.761  -3.881  1.00  0.00     0.128 A 
ATOM      6  C   UNL     1      35.042 -30.586  -2.558  1.00  0.00     0.093 A 
ATOM      7  C   UNL     1      34.148 -30.763  -1.495  1.00  0.00     0.136 A 
ATOM      8  C   UNL     1      32.804 -31.128  -1.768  1.00  0.00     0.125 A 
ATOM      9  C   UNL     1      31.843 -31.340  -0.765  1.00  0.00     0.078 A 
ATOM     10  C   UNL     1      30.538 -31.702  -1.112  1.00  0.00     0.223 A 
ENDROOT
BRANCH   1  11
ATOM     11  C   UNL     1      28.841 -32.191  -2.920  1.00  0.00     0.091 A 
ATOM     12  C   UNL     1      28.627 -33.424  -3.557  1.00  0.00     0.068 A 
ATOM     13  C   UNL     1      27.350 -33.783  -4.007  1.00  0.00     0.162 A 
ATOM     14  C   UNL     1      27.761 -31.303  -2.771  1.00  0.00     0.068 A 
ATOM     15  C   UNL     1      26.273 -32.898  -3.836  1.00  0.00     0.200 A 
ATOM     16  C   UNL     1      26.482 -31.657  -3.222  1.00  0.00     0.162 A 
BRANCH  13  17
ATOM     17  O   UNL     1      27.148 -35.016  -4.626  1.00  0.00    -0.504 OA
ATOM     18  H   UNL     1      27.130 -35.108  -5.635  1.00  0.00     0.293 HD
ENDBRANCH  13  17
BRANCH  15  19
ATOM     19  O   UNL     1      24.991 -33.234  -4.275  1.00  0.00    -0.502 OA
ATOM     20  H   UNL     1      24.160 -32.958  -3.768  1.00  0.00     0.293 HD
ENDBRANCH  15  19
BRANCH  16  21
ATOM     21  O   UNL     1      25.413 -30.775  -3.066  1.00  0.00    -0.504 OA
ATOM     22  H   UNL     1      24.506 -30.963  -3.477  1.00  0.00     0.293 HD
ENDBRANCH  16  21
ENDBRANCH   1  11
BRANCH  10  23
ATOM     23  O   UNL     1      29.597 -31.961  -0.115  1.00  0.00    -0.500 OA
ATOM     24  H   UNL     1      29.603 -32.826   0.413  1.00  0.00     0.294 HD
ENDBRANCH  10  23
BRANCH   5  25
ATOM     25  O   UNL     1      35.543 -30.577  -4.916  1.00  0.00    -0.507 OA
ATOM     26  H   UNL     1      35.254 -30.226  -5.822  1.00  0.00     0.293 HD
ENDBRANCH   5  25
BRANCH   7  27
ATOM     27  O   UNL     1      34.639 -30.566  -0.201  1.00  0.00    -0.507 OA
ATOM     28  H   UNL     1      34.445 -29.754   0.366  1.00  0.00     0.293 HD
ENDBRANCH   7  27
TORSDOF 7
ENDMDL
MODEL 2
REMARK VINA RESULT:    36.326      0.048      1.789
REMARK INTER + INTRA:          44.524
REMARK INTER:                  44.775
REMARK INTRA:                  -0.251
REMARK UNBOUND:                -0.296
REMARK SMILES Oc1cc(O)c2cc(O)c(-c3cc(O)c(O)c(O)c3)[o+]c2c1
REMARK SMILES IDX 10 1 20 2 21 3 22 4 2 5 3 6 4 7 6 8 7 9 8 10 11 11 12 12
REMARK SMILES IDX 13 13 19 14 15 15 17 16 14 17 16 19 18 21 9 23 1 25 5 27
REMARK H PARENT 14 18 16 20 18 22 9 24 1 26 5 28
REMARK Flexibility Score: inf
ROOT
ATOM      1  C   UNL     1      30.216 -31.841  -2.515  1.00  0.00     0.402 A 
ATOM      2  O   UNL     1      31.162 -31.638  -3.426  1.00  0.00    -0.202 OA
ATOM      3  C   UNL     1      32.410 -31.295  -3.120  1.00  0.00     0.368 A 
ATOM      4  C   UNL     1      33.333 -31.101  -4.149  1.00  0.00     0.162 A 
ATOM      5  C   UNL     1      34.651 -30.738  -3.855  1.00  0.00     0.128 A 
ATOM      6  C   UNL     1      35.045 -30.567  -2.526  1.00  0.00     0.093 A 
ATOM      7  C   UNL     1      34.138 -30.756  -1.476  1.00  0.00     0.136 A 
ATOM      8  C   UNL     1      32.800 -31.128  -1.770  1.00  0.00     0.125 A 
ATOM      9  C   UNL     1      31.826 -31.351  -0.782  1.00  0.00     0.078 A 
ATOM     10  C   UNL     1      30.528 -31.719  -1.148  1.00  0.00     0.223 A 
ENDROOT
BRANCH   1  11
ATOM     11  C   UNL     1      28.860 -32.209  -2.983  1.00  0.00     0.091 A 
ATOM     12  C   UNL     1      27.792 -31.323  -2.769  1.00  0.00     0.068 A 
ATOM     13  C   UNL     1      26.495 -31.655  -3.184  1.00  0.00     0.162 A 
ATOM     14  C   UNL     1      28.605 -33.453  -3.587  1.00  0.00     0.068 A 
ATOM     15  C   UNL     1      26.254 -32.891  -3.806  1.00  0.00     0.200 A 
ATOM     16  C   UNL     1      27.310 -33.790  -4.002  1.00  0.00     0.162 A 
BRANCH  13  17
ATOM     17  O   UNL     1      25.445 -30.761  -2.979  1.00  0.00    -0.504 OA
ATOM     18  H   UNL     1      25.101 -30.166  -3.723  1.00  0.00     0.293 HD
ENDBRANCH  13  17
BRANCH  15  19
ATOM     19  O   UNL     1      24.972 -33.244  -4.230  1.00  0.00    -0.502 OA
ATOM     20  H   UNL     1      24.139 -32.907  -3.763  1.00  0.00     0.293 HD
ENDBRANCH  15  19
BRANCH  16  21
ATOM     21  O   UNL     1      27.064 -35.022  -4.607  1.00  0.00    -0.504 OA
ATOM     22  H   UNL     1      26.152 -35.258  -4.980  1.00  0.00     0.293 HD
ENDBRANCH  16  21
ENDBRANCH   1  11
BRANCH  10  23
ATOM     23  O   UNL     1      29.575 -31.989  -0.166  1.00  0.00    -0.500 OA
ATOM     24  H   UNL     1      29.837 -32.327   0.753  1.00  0.00     0.294 HD
ENDBRANCH  10  23
BRANCH   5  25
ATOM     25  O   UNL     1      35.579 -30.542  -4.876  1.00  0.00    -0.507 OA
ATOM     26  H   UNL     1      35.314 -30.120  -5.759  1.00  0.00     0.293 HD
ENDBRANCH   5  25
BRANCH   7  27
ATOM     27  O   UNL     1      34.610 -30.562  -0.175  1.00  0.00    -0.507 OA
ATOM     28  H   UNL     1      35.427 -31.015   0.209  1.00  0.00     0.293 HD
ENDBRANCH   7  27
TORSDOF 7
ENDMDL
MODEL 3
REMARK VINA RESULT:    37.570     10.086     12.742
REMARK INTER + INTRA:          46.059
REMARK INTER:                  46.119
REMARK INTRA:                  -0.059
REMARK UNBOUND:                -0.296
REMARK SMILES Oc1cc(O)c2cc(O)c(-c3cc(O)c(O)c(O)c3)[o+]c2c1
REMARK SMILES IDX 10 1 20 2 21 3 22 4 2 5 3 6 4 7 6 8 7 9 8 10 11 11 12 12
REMARK SMILES IDX 13 13 19 14 15 15 17 16 14 17 16 19 18 21 9 23 1 25 5 27
REMARK H PARENT 14 18 16 20 18 22 9 24 1 26 5 28
REMARK Flexibility Score: inf
ROOT
ATOM      1  C   UNL     1      34.816 -24.126   5.197  1.00  0.00     0.402 A 
ATOM      2  O   UNL     1      35.483 -23.563   6.200  1.00  0.00    -0.202 OA
ATOM      3  C   UNL     1      36.636 -22.919   6.039  1.00  0.00     0.368 A 
ATOM      4  C   UNL     1      37.264 -22.362   7.156  1.00  0.00     0.162 A 
ATOM      5  C   UNL     1      38.478 -21.682   7.016  1.00  0.00     0.128 A 
ATOM      6  C   UNL     1      39.065 -21.560   5.755  1.00  0.00     0.093 A 
ATOM      7  C   UNL     1      38.455 -22.110   4.621  1.00  0.00     0.136 A 
ATOM      8  C   UNL     1      37.221 -22.798   4.757  1.00  0.00     0.125 A 
ATOM      9  C   UNL     1      36.532 -23.369   3.674  1.00  0.00     0.078 A 
ATOM     10  C   UNL     1      35.318 -24.029   3.886  1.00  0.00     0.223 A 
ENDROOT
BRANCH   1  11
ATOM     11  C   UNL     1      33.547 -24.824   5.505  1.00  0.00     0.091 A 
ATOM     12  C   UNL     1      32.620 -24.222   6.370  1.00  0.00     0.068 A 
ATOM     13  C   UNL     1      31.419 -24.870   6.694  1.00  0.00     0.162 A 
ATOM     14  C   UNL     1      33.273 -26.105   4.995  1.00  0.00     0.068 A 
ATOM     15  C   UNL     1      31.145 -26.141   6.163  1.00  0.00     0.200 A 
ATOM     16  C   UNL     1      32.075 -26.758   5.317  1.00  0.00     0.162 A 
BRANCH  13  17
ATOM     17  O   UNL     1      30.501 -24.255   7.544  1.00  0.00    -0.504 OA
ATOM     18  H   UNL     1      29.512 -24.229   7.327  1.00  0.00     0.293 HD
ENDBRANCH  13  17
BRANCH  15  19
ATOM     19  O   UNL     1      29.957 -26.805   6.469  1.00  0.00    -0.502 OA
ATOM     20  H   UNL     1      29.147 -26.765   5.863  1.00  0.00     0.293 HD
ENDBRANCH  15  19
BRANCH  16  21
ATOM     21  O   UNL     1      31.805 -28.026   4.803  1.00  0.00    -0.504 OA
ATOM     22  H   UNL     1      30.935 -28.231   4.325  1.00  0.00     0.293 HD
ENDBRANCH  16  21
ENDBRANCH   1  11
BRANCH  10  23
ATOM     23  O   UNL     1      34.609 -24.553   2.805  1.00  0.00    -0.500 OA
ATOM     24  H   UNL     1      34.408 -25.543   2.729  1.00  0.00     0.294 HD
ENDBRANCH  10  23
BRANCH   5  25
ATOM     25  O   UNL     1      39.110 -21.124   8.125  1.00  0.00    -0.507 OA
ATOM     26  H   UNL     1      39.358 -20.141   8.154  1.00  0.00     0.293 HD
ENDBRANCH   5  25
BRANCH   7  27
ATOM     27  O   UNL     1      39.108 -21.947   3.395  1.00  0.00    -0.507 OA
ATOM     28  H   UNL     1      40.111 -21.943   3.280  1.00  0.00     0.293 HD
ENDBRANCH   7  27
TORSDOF 7
ENDMDL
MODEL 4
REMARK VINA RESULT:    39.041     11.895     12.605
REMARK INTER + INTRA:          47.875
REMARK INTER:                  47.671
REMARK INTRA:                   0.204
REMARK UNBOUND:                -0.296
REMARK SMILES Oc1cc(O)c2cc(O)c(-c3cc(O)c(O)c(O)c3)[o+]c2c1
REMARK SMILES IDX 10 1 20 2 21 3 22 4 2 5 3 6 4 7 6 8 7 9 8 10 11 11 12 12
REMARK SMILES IDX 13 13 19 14 15 15 17 16 14 17 16 19 18 21 9 23 1 25 5 27
REMARK H PARENT 14 18 16 20 18 22 9 24 1 26 5 28
REMARK Flexibility Score: inf
ROOT
ATOM      1  C   UNL     1      34.177 -24.482   6.385  1.00  0.00     0.402 A 
ATOM      2  O   UNL     1      34.944 -23.582   5.776  1.00  0.00    -0.202 OA
ATOM      3  C   UNL     1      36.273 -23.608   5.818  1.00  0.00     0.368 A 
ATOM      4  C   UNL     1      36.992 -22.616   5.148  1.00  0.00     0.162 A 
ATOM      5  C   UNL     1      38.391 -22.617   5.177  1.00  0.00     0.128 A 
ATOM      6  C   UNL     1      39.070 -23.613   5.883  1.00  0.00     0.093 A 
ATOM      7  C   UNL     1      38.371 -24.618   6.563  1.00  0.00     0.136 A 
ATOM      8  C   UNL     1      36.952 -24.623   6.533  1.00  0.00     0.125 A 
ATOM      9  C   UNL     1      36.170 -25.597   7.174  1.00  0.00     0.078 A 
ATOM     10  C   UNL     1      34.775 -25.539   7.096  1.00  0.00     0.223 A 
ENDROOT
BRANCH   1  11
ATOM     11  C   UNL     1      32.707 -24.340   6.273  1.00  0.00     0.091 A 
ATOM     12  C   UNL     1      32.163 -23.631   5.190  1.00  0.00     0.068 A 
ATOM     13  C   UNL     1      30.776 -23.465   5.070  1.00  0.00     0.162 A 
ATOM     14  C   UNL     1      31.844 -24.852   7.258  1.00  0.00     0.068 A 
ATOM     15  C   UNL     1      29.920 -23.998   6.048  1.00  0.00     0.200 A 
ATOM     16  C   UNL     1      30.458 -24.688   7.143  1.00  0.00     0.162 A 
BRANCH  13  17
ATOM     17  O   UNL     1      30.247 -22.771   3.983  1.00  0.00    -0.504 OA
ATOM     18  H   UNL     1      29.894 -23.254   3.165  1.00  0.00     0.293 HD
ENDBRANCH  13  17
BRANCH  15  19
ATOM     19  O   UNL     1      28.537 -23.848   5.950  1.00  0.00    -0.502 OA
ATOM     20  H   UNL     1      27.925 -23.963   6.747  1.00  0.00     0.293 HD
ENDBRANCH  15  19
BRANCH  16  21
ATOM     21  O   UNL     1      29.605 -25.203   8.119  1.00  0.00    -0.504 OA
ATOM     22  H   UNL     1      28.627 -24.941   8.162  1.00  0.00     0.293 HD
ENDBRANCH  16  21
ENDBRANCH   1  11
BRANCH  10  23
ATOM     23  O   UNL     1      33.999 -26.533   7.692  1.00  0.00    -0.500 OA
ATOM     24  H   UNL     1      33.883 -27.446   7.265  1.00  0.00     0.294 HD
ENDBRANCH  10  23
BRANCH   5  25
ATOM     25  O   UNL     1      39.116 -21.632   4.511  1.00  0.00    -0.507 OA
ATOM     26  H   UNL     1      40.103 -21.746   4.309  1.00  0.00     0.293 HD
ENDBRANCH   5  25
BRANCH   7  27
ATOM     27  O   UNL     1      39.125 -25.576   7.248  1.00  0.00    -0.507 OA
ATOM     28  H   UNL     1      40.058 -25.423   7.599  1.00  0.00     0.293 HD
ENDBRANCH   7  27
TORSDOF 7
ENDMDL
