MODEL 1
REMARK VINA RESULT:    -2.483      0.000      0.000
REMARK INTER + INTRA:          -3.108
REMARK INTER:                  -2.991
REMARK INTRA:                  -0.117
REMARK UNBOUND:                -0.117
REMARK SMILES NC(=O)C[C@@H]([NH3+])C(=O)[O-]
REMARK SMILES IDX 4 1 5 2 6 3 7 7 8 8 9 9 2 10 3 11 1 12
REMARK H PARENT 6 4 6 5 6 6 1 13 1 14
REMARK Flexibility Score: inf
ROOT
ATOM      1  C   UNL     1       1.942  -0.234  -6.995  1.00  0.00     0.171 C 
ENDROOT
BRANCH   1   2
ATOM      2  C   UNL     1       1.909   0.078  -8.505  1.00  0.00     0.237 C 
BRANCH   2   3
ATOM      3  N   UNL     1       3.264   0.337  -9.007  1.00  0.00    -0.350 N 
ATOM      4  H   UNL     1       3.575  -0.455  -9.616  1.00  0.00     0.345 HD
ATOM      5  H   UNL     1       3.937   0.447  -8.213  1.00  0.00     0.345 HD
ATOM      6  H   UNL     1       3.267   1.211  -9.582  1.00  0.00     0.345 HD
ENDBRANCH   2   3
BRANCH   2   7
ATOM      7  C   UNL     1       1.273  -1.049  -9.277  1.00  0.00     0.100 C 
ATOM      8  O   UNL     1       0.089  -1.405  -9.031  1.00  0.00    -0.544 OA
ATOM      9  O   UNL     1       1.986  -1.692 -10.281  1.00  0.00    -0.544 OA
ENDBRANCH   2   7
ENDBRANCH   1   2
BRANCH   1  10
ATOM     10  C   UNL     1       1.331   0.876  -6.187  1.00  0.00     0.223 C 
ATOM     11  O   UNL     1       0.160   1.263  -6.444  1.00  0.00    -0.275 OA
ATOM     12  N   UNL     1       2.052   1.468  -5.108  1.00  0.00    -0.369 N 
ATOM     13  H   UNL     1       3.016   1.146  -4.870  1.00  0.00     0.159 HD
ATOM     14  H   UNL     1       1.618   2.229  -4.540  1.00  0.00     0.159 HD
ENDBRANCH   1  10
TORSDOF 4
ENDMDL
MODEL 2
REMARK VINA RESULT:    -2.416      1.728      2.113
REMARK INTER + INTRA:          -3.027
REMARK INTER:                  -2.775
REMARK INTRA:                  -0.252
REMARK UNBOUND:                -0.117
REMARK SMILES NC(=O)C[C@@H]([NH3+])C(=O)[O-]
REMARK SMILES IDX 4 1 5 2 6 3 7 7 8 8 9 9 2 10 3 11 1 12
REMARK H PARENT 6 4 6 5 6 6 1 13 1 14
REMARK Flexibility Score: inf
ROOT
ATOM      1  C   UNL     1       0.376   0.647  -6.863  1.00  0.00     0.171 C 
ENDROOT
BRANCH   1   2
ATOM      2  C   UNL     1       1.795   0.405  -7.418  1.00  0.00     0.237 C 
BRANCH   2   3
ATOM      3  N   UNL     1       2.594  -0.376  -6.466  1.00  0.00    -0.350 N 
ATOM      4  H   UNL     1       2.743   0.175  -5.590  1.00  0.00     0.345 HD
ATOM      5  H   UNL     1       3.522  -0.626  -6.880  1.00  0.00     0.345 HD
ATOM      6  H   UNL     1       2.085  -1.256  -6.215  1.00  0.00     0.345 HD
ENDBRANCH   2   3
BRANCH   2   7
ATOM      7  C   UNL     1       1.743  -0.293  -8.753  1.00  0.00     0.100 C 
ATOM      8  O   UNL     1       2.629  -0.076  -9.623  1.00  0.00    -0.544 OA
ATOM      9  O   UNL     1       0.724  -1.197  -9.024  1.00  0.00    -0.544 OA
ENDBRANCH   2   7
ENDBRANCH   1   2
BRANCH   1  10
ATOM     10  C   UNL     1       0.361   1.754  -5.847  1.00  0.00     0.223 C 
ATOM     11  O   UNL     1       1.347   1.910  -5.079  1.00  0.00    -0.275 OA
ATOM     12  N   UNL     1      -0.744   2.652  -5.772  1.00  0.00    -0.369 N 
ATOM     13  H   UNL     1      -1.561   2.549  -6.414  1.00  0.00     0.159 HD
ATOM     14  H   UNL     1      -0.745   3.429  -5.074  1.00  0.00     0.159 HD
ENDBRANCH   1  10
TORSDOF 4
ENDMDL
MODEL 3
REMARK VINA RESULT:    -2.318      1.998      4.091
REMARK INTER + INTRA:          -2.909
REMARK INTER:                  -2.728
REMARK INTRA:                  -0.181
REMARK UNBOUND:                -0.117
REMARK SMILES NC(=O)C[C@@H]([NH3+])C(=O)[O-]
REMARK SMILES IDX 4 1 5 2 6 3 7 7 8 8 9 9 2 10 3 11 1 12
REMARK H PARENT 6 4 6 5 6 6 1 13 1 14
REMARK Flexibility Score: inf
ROOT
ATOM      1  C   UNL     1       1.172   0.224  -8.291  1.00  0.00     0.171 C 
ENDROOT
BRANCH   1   2
ATOM      2  C   UNL     1       1.561  -0.056  -6.826  1.00  0.00     0.237 C 
BRANCH   2   3
ATOM      3  N   UNL     1       3.008  -0.270  -6.709  1.00  0.00    -0.350 N 
ATOM      4  H   UNL     1       3.394   0.315  -5.933  1.00  0.00     0.345 HD
ATOM      5  H   UNL     1       3.492  -0.021  -7.603  1.00  0.00     0.345 HD
ATOM      6  H   UNL     1       3.201  -1.275  -6.486  1.00  0.00     0.345 HD
ENDBRANCH   2   3
BRANCH   2   7
ATOM      7  C   UNL     1       1.127   1.071  -5.924  1.00  0.00     0.100 C 
ATOM      8  O   UNL     1       1.895   1.499  -5.021  1.00  0.00    -0.544 OA
ATOM      9  O   UNL     1      -0.120   1.657  -6.097  1.00  0.00    -0.544 OA
ENDBRANCH   2   7
ENDBRANCH   1   2
BRANCH   1  10
ATOM     10  C   UNL     1       2.240  -0.229  -9.244  1.00  0.00     0.223 C 
ATOM     11  O   UNL     1       3.311   0.428  -9.341  1.00  0.00    -0.275 OA
ATOM     12  N   UNL     1       2.069  -1.419 -10.012  1.00  0.00    -0.369 N 
ATOM     13  H   UNL     1       1.195  -1.986  -9.930  1.00  0.00     0.159 HD
ATOM     14  H   UNL     1       2.820  -1.739 -10.663  1.00  0.00     0.159 HD
ENDBRANCH   1  10
TORSDOF 4
ENDMDL
MODEL 4
REMARK VINA RESULT:    -2.269      1.513      3.926
REMARK INTER + INTRA:          -2.850
REMARK INTER:                  -2.721
REMARK INTRA:                  -0.129
REMARK UNBOUND:                -0.117
REMARK SMILES NC(=O)C[C@@H]([NH3+])C(=O)[O-]
REMARK SMILES IDX 4 1 5 2 6 3 7 7 8 8 9 9 2 10 3 11 1 12
REMARK H PARENT 6 4 6 5 6 6 1 13 1 14
REMARK Flexibility Score: inf
ROOT
ATOM      1  C   UNL     1       1.846   0.019  -8.395  1.00  0.00     0.171 C 
ENDROOT
BRANCH   1   2
ATOM      2  C   UNL     1       1.851  -0.238  -6.874  1.00  0.00     0.237 C 
BRANCH   2   3
ATOM      3  N   UNL     1       3.222  -0.435  -6.390  1.00  0.00    -0.350 N 
ATOM      4  H   UNL     1       3.655  -1.257  -6.871  1.00  0.00     0.345 HD
ATOM      5  H   UNL     1       3.230  -0.598  -5.356  1.00  0.00     0.345 HD
ATOM      6  H   UNL     1       3.799   0.411  -6.606  1.00  0.00     0.345 HD
ENDBRANCH   2   3
BRANCH   2   7
ATOM      7  C   UNL     1       1.193   0.896  -6.130  1.00  0.00     0.100 C 
ATOM      8  O   UNL     1       0.042   1.292  -6.456  1.00  0.00    -0.544 OA
ATOM      9  O   UNL     1       1.849   1.501  -5.066  1.00  0.00    -0.544 OA
ENDBRANCH   2   7
ENDBRANCH   1   2
BRANCH   1  10
ATOM     10  C   UNL     1       1.133  -1.075  -9.138  1.00  0.00     0.223 C 
ATOM     11  O   UNL     1      -0.087  -1.293  -8.910  1.00  0.00    -0.275 OA
ATOM     12  N   UNL     1       1.817  -1.842 -10.128  1.00  0.00    -0.369 N 
ATOM     13  H   UNL     1       2.823  -1.661 -10.343  1.00  0.00     0.159 HD
ATOM     14  H   UNL     1       1.315  -2.591 -10.653  1.00  0.00     0.159 HD
ENDBRANCH   1  10
TORSDOF 4
ENDMDL
MODEL 5
REMARK VINA RESULT:    -1.945      1.839      3.876
REMARK INTER + INTRA:          -2.459
REMARK INTER:                  -2.455
REMARK INTRA:                  -0.004
REMARK UNBOUND:                -0.117
REMARK SMILES NC(=O)C[C@@H]([NH3+])C(=O)[O-]
REMARK SMILES IDX 4 1 5 2 6 3 7 7 8 8 9 9 2 10 3 11 1 12
REMARK H PARENT 6 4 6 5 6 6 1 13 1 14
REMARK Flexibility Score: inf
ROOT
ATOM      1  C   UNL     1       1.188  -0.433  -8.132  1.00  0.00     0.171 C 
ENDROOT
BRANCH   1   2
ATOM      2  C   UNL     1       1.375   0.737  -7.145  1.00  0.00     0.237 C 
BRANCH   2   3
ATOM      3  N   UNL     1       0.078   1.180  -6.621  1.00  0.00    -0.350 N 
ATOM      4  H   UNL     1       0.148   2.169  -6.286  1.00  0.00     0.345 HD
ATOM      5  H   UNL     1      -0.229   0.569  -5.829  1.00  0.00     0.345 HD
ATOM      6  H   UNL     1      -0.642   1.143  -7.380  1.00  0.00     0.345 HD
ENDBRANCH   2   3
BRANCH   2   7
ATOM      7  C   UNL     1       2.291   0.350  -6.012  1.00  0.00     0.100 C 
ATOM      8  O   UNL     1       2.182   0.902  -4.885  1.00  0.00    -0.544 OA
ATOM      9  O   UNL     1       3.252  -0.635  -6.202  1.00  0.00    -0.544 OA
ENDBRANCH   2   7
ENDBRANCH   1   2
BRANCH   1  10
ATOM     10  C   UNL     1       2.227  -0.413  -9.217  1.00  0.00     0.223 C 
ATOM     11  O   UNL     1       2.073  -1.130 -10.242  1.00  0.00    -0.275 OA
ATOM     12  N   UNL     1       3.366   0.439  -9.114  1.00  0.00    -0.369 N 
ATOM     13  H   UNL     1       3.499   1.054  -8.280  1.00  0.00     0.159 HD
ATOM     14  H   UNL     1       4.078   0.461  -9.877  1.00  0.00     0.159 HD
ENDBRANCH   1  10
TORSDOF 4
ENDMDL
MODEL 6
REMARK VINA RESULT:    -1.900      2.008      2.165
REMARK INTER + INTRA:          -2.406
REMARK INTER:                  -2.386
REMARK INTRA:                  -0.020
REMARK UNBOUND:                -0.117
REMARK SMILES NC(=O)C[C@@H]([NH3+])C(=O)[O-]
REMARK SMILES IDX 4 1 5 2 6 3 7 7 8 8 9 9 2 10 3 11 1 12
REMARK H PARENT 6 4 6 5 6 6 1 13 1 14
REMARK Flexibility Score: inf
ROOT
ATOM      1  C   UNL     1       1.132   0.345  -7.362  1.00  0.00     0.171 C 
ENDROOT
BRANCH   1   2
ATOM      2  C   UNL     1       1.366  -0.815  -8.350  1.00  0.00     0.237 C 
BRANCH   2   3
ATOM      3  N   UNL     1       0.092  -1.275  -8.916  1.00  0.00    -0.350 N 
ATOM      4  H   UNL     1      -0.566  -1.538  -8.146  1.00  0.00     0.345 HD
ATOM      5  H   UNL     1       0.241  -2.102  -9.539  1.00  0.00     0.345 HD
ATOM      6  H   UNL     1      -0.348  -0.504  -9.471  1.00  0.00     0.345 HD
ENDBRANCH   2   3
BRANCH   2   7
ATOM      7  C   UNL     1       2.308  -0.407  -9.453  1.00  0.00     0.100 C 
ATOM      8  O   UNL     1       3.021   0.626  -9.334  1.00  0.00    -0.544 OA
ATOM      9  O   UNL     1       2.409  -1.180 -10.602  1.00  0.00    -0.544 OA
ENDBRANCH   2   7
ENDBRANCH   1   2
BRANCH   1  10
ATOM     10  C   UNL     1       2.114   0.312  -6.226  1.00  0.00     0.223 C 
ATOM     11  O   UNL     1       1.886   0.981  -5.183  1.00  0.00    -0.275 OA
ATOM     12  N   UNL     1       3.283  -0.503  -6.302  1.00  0.00    -0.369 N 
ATOM     13  H   UNL     1       3.477  -1.079  -7.152  1.00  0.00     0.159 HD
ATOM     14  H   UNL     1       3.955  -0.535  -5.505  1.00  0.00     0.159 HD
ENDBRANCH   1  10
TORSDOF 4
ENDMDL
MODEL 7
REMARK VINA RESULT:    -1.749      2.100      4.115
REMARK INTER + INTRA:          -2.223
REMARK INTER:                  -1.965
REMARK INTRA:                  -0.258
REMARK UNBOUND:                -0.117
REMARK SMILES NC(=O)C[C@@H]([NH3+])C(=O)[O-]
REMARK SMILES IDX 4 1 5 2 6 3 7 7 8 8 9 9 2 10 3 11 1 12
REMARK H PARENT 6 4 6 5 6 6 1 13 1 14
REMARK Flexibility Score: inf
ROOT
ATOM      1  C   UNL     1       0.214  -0.640  -8.637  1.00  0.00     0.171 C 
ENDROOT
BRANCH   1   2
ATOM      2  C   UNL     1       1.586  -0.444  -7.959  1.00  0.00     0.237 C 
BRANCH   2   3
ATOM      3  N   UNL     1       2.509   0.259  -8.859  1.00  0.00    -0.350 N 
ATOM      4  H   UNL     1       2.195   1.248  -8.989  1.00  0.00     0.345 HD
ATOM      5  H   UNL     1       2.550  -0.216  -9.791  1.00  0.00     0.345 HD
ATOM      6  H   UNL     1       3.468   0.274  -8.440  1.00  0.00     0.345 HD
ENDBRANCH   2   3
BRANCH   2   7
ATOM      7  C   UNL     1       1.447   0.310  -6.662  1.00  0.00     0.100 C 
ATOM      8  O   UNL     1       2.299   0.167  -5.745  1.00  0.00    -0.544 OA
ATOM      9  O   UNL     1       0.382   1.183  -6.477  1.00  0.00    -0.544 OA
ENDBRANCH   2   7
ENDBRANCH   1   2
BRANCH   1  10
ATOM     10  C   UNL     1       0.206  -1.848  -9.530  1.00  0.00     0.223 C 
ATOM     11  O   UNL     1       1.237  -2.142 -10.192  1.00  0.00    -0.275 OA
ATOM     12  N   UNL     1      -0.946  -2.685  -9.605  1.00  0.00    -0.369 N 
ATOM     13  H   UNL     1      -1.802  -2.467  -9.048  1.00  0.00     0.159 HD
ATOM     14  H   UNL     1      -0.943  -3.532 -10.216  1.00  0.00     0.159 HD
ENDBRANCH   1  10
TORSDOF 4
ENDMDL
MODEL 8
REMARK VINA RESULT:    -1.230      2.647      3.626
REMARK INTER + INTRA:          -1.598
REMARK INTER:                  -1.331
REMARK INTRA:                  -0.267
REMARK UNBOUND:                -0.117
REMARK SMILES NC(=O)C[C@@H]([NH3+])C(=O)[O-]
REMARK SMILES IDX 4 1 5 2 6 3 7 7 8 8 9 9 2 10 3 11 1 12
REMARK H PARENT 6 4 6 5 6 6 1 13 1 14
REMARK Flexibility Score: inf
ROOT
ATOM      1  C   UNL     1      -0.754   1.822  -5.787  1.00  0.00     0.171 C 
ENDROOT
BRANCH   1   2
ATOM      2  C   UNL     1       0.734   1.731  -6.184  1.00  0.00     0.237 C 
BRANCH   2   3
ATOM      3  N   UNL     1       1.593   1.961  -5.016  1.00  0.00    -0.350 N 
ATOM      4  H   UNL     1       1.685   2.988  -4.839  1.00  0.00     0.345 HD
ATOM      5  H   UNL     1       2.544   1.551  -5.168  1.00  0.00     0.345 HD
ATOM      6  H   UNL     1       1.163   1.522  -4.168  1.00  0.00     0.345 HD
ENDBRANCH   2   3
BRANCH   2   7
ATOM      7  C   UNL     1       1.049   0.395  -6.806  1.00  0.00     0.100 C 
ATOM      8  O   UNL     1       0.348  -0.049  -7.755  1.00  0.00    -0.544 OA
ATOM      9  O   UNL     1       2.129  -0.348  -6.347  1.00  0.00    -0.544 OA
ENDBRANCH   2   7
ENDBRANCH   1   2
BRANCH   1  10
ATOM     10  C   UNL     1      -1.101   3.180  -5.249  1.00  0.00     0.223 C 
ATOM     11  O   UNL     1      -0.950   3.423  -4.022  1.00  0.00    -0.275 OA
ATOM     12  N   UNL     1      -1.563   4.209  -6.122  1.00  0.00    -0.369 N 
ATOM     13  H   UNL     1      -1.676   4.031  -7.145  1.00  0.00     0.159 HD
ATOM     14  H   UNL     1      -1.790   5.156  -5.746  1.00  0.00     0.159 HD
ENDBRANCH   1  10
TORSDOF 4
ENDMDL
MODEL 9
REMARK VINA RESULT:    -1.119      4.186      6.598
REMARK INTER + INTRA:          -1.464
REMARK INTER:                  -1.181
REMARK INTRA:                  -0.283
REMARK UNBOUND:                -0.117
REMARK SMILES NC(=O)C[C@@H]([NH3+])C(=O)[O-]
REMARK SMILES IDX 4 1 5 2 6 3 7 7 8 8 9 9 2 10 3 11 1 12
REMARK H PARENT 6 4 6 5 6 6 1 13 1 14
REMARK Flexibility Score: inf
ROOT
ATOM      1  C   UNL     1      -1.045   2.595  -4.654  1.00  0.00     0.171 C 
ENDROOT
BRANCH   1   2
ATOM      2  C   UNL     1      -1.068   4.121  -4.876  1.00  0.00     0.237 C 
BRANCH   2   3
ATOM      3  N   UNL     1      -1.806   4.452  -6.101  1.00  0.00    -0.350 N 
ATOM      4  H   UNL     1      -1.327   5.233  -6.605  1.00  0.00     0.345 HD
ATOM      5  H   UNL     1      -2.788   4.738  -5.876  1.00  0.00     0.345 HD
ATOM      6  H   UNL     1      -1.830   3.621  -6.736  1.00  0.00     0.345 HD
ENDBRANCH   2   3
BRANCH   2   7
ATOM      7  C   UNL     1      -1.675   4.832  -3.694  1.00  0.00     0.100 C 
ATOM      8  O   UNL     1      -2.226   4.177  -2.768  1.00  0.00    -0.544 OA
ATOM      9  O   UNL     1      -1.613   6.217  -3.610  1.00  0.00    -0.544 OA
ENDBRANCH   2   7
ENDBRANCH   1   2
BRANCH   1  10
ATOM     10  C   UNL     1      -0.562   1.866  -5.875  1.00  0.00     0.223 C 
ATOM     11  O   UNL     1      -1.394   1.448  -6.724  1.00  0.00    -0.275 OA
ATOM     12  N   UNL     1       0.834   1.675  -6.100  1.00  0.00    -0.369 N 
ATOM     13  H   UNL     1       1.538   2.032  -5.416  1.00  0.00     0.159 HD
ATOM     14  H   UNL     1       1.167   1.181  -6.957  1.00  0.00     0.159 HD
ENDBRANCH   1  10
TORSDOF 4
ENDMDL
