MODEL 1
REMARK VINA RESULT:    -4.561      0.000      0.000
REMARK INTER + INTRA:         -11.586
REMARK INTER:                  -8.826
REMARK INTRA:                  -2.760
REMARK UNBOUND:                -2.760
REMARK SMILES CCCCCC=CCC=CCCCCCCCCOC(C)=O
REMARK SMILES IDX 12 1 11 2 10 3 9 4 8 5 7 6 6 7 5 8 4 9 3 10 2 11 1 12 13 13
REMARK SMILES IDX 14 14 15 15 16 16 17 17 18 18 19 19 20 20 22 21 21 22
REMARK H PARENT
REMARK Flexibility Score: inf
ROOT
ATOM      1  C   UNL     1       3.585  57.365   9.776  1.00  0.00     0.004 C 
ENDROOT
BRANCH   1   2
ATOM      2  C   UNL     1       2.499  57.758  10.788  1.00  0.00     0.027 C 
BRANCH   2   3
ATOM      3  C   UNL     1       1.180  57.124  10.443  1.00  0.00    -0.031 C 
ATOM      4  C   UNL     1       1.111  55.904   9.889  1.00  0.00    -0.027 C 
BRANCH   4   5
ATOM      5  C   UNL     1      -0.205  55.259   9.563  1.00  0.00     0.054 C 
BRANCH   5   6
ATOM      6  C   UNL     1      -0.036  54.217   8.493  1.00  0.00    -0.027 C 
ATOM      7  C   UNL     1       1.141  54.017   7.884  1.00  0.00    -0.031 C 
BRANCH   7   8
ATOM      8  C   UNL     1       1.281  52.977   6.806  1.00  0.00     0.027 C 
BRANCH   8   9
ATOM      9  C   UNL     1       2.638  53.094   6.096  1.00  0.00     0.004 C 
BRANCH   9  10
ATOM     10  C   UNL     1       2.834  54.458   5.415  1.00  0.00     0.000 C 
BRANCH  10  11
ATOM     11  C   UNL     1       4.301  54.729   5.046  1.00  0.00    -0.003 C 
ATOM     12  C   UNL     1       5.168  53.499   5.300  1.00  0.00     0.004 C 
ENDBRANCH  10  11
ENDBRANCH   9  10
ENDBRANCH   8   9
ENDBRANCH   7   8
ENDBRANCH   5   6
ENDBRANCH   4   5
ENDBRANCH   2   3
ENDBRANCH   1   2
BRANCH   1  13
ATOM     13  C   UNL     1       4.918  57.005  10.449  1.00  0.00     0.000 C 
BRANCH  13  14
ATOM     14  C   UNL     1       5.297  55.526  10.253  1.00  0.00     0.000 C 
BRANCH  14  15
ATOM     15  C   UNL     1       4.639  54.905   9.011  1.00  0.00     0.000 C 
BRANCH  15  16
ATOM     16  C   UNL     1       4.680  53.366   9.029  1.00  0.00     0.003 C 
BRANCH  16  17
ATOM     17  C   UNL     1       3.834  52.768  10.166  1.00  0.00     0.042 C 
BRANCH  17  18
ATOM     18  C   UNL     1       3.056  51.524   9.734  1.00  0.00     0.233 C 
BRANCH  18  19
ATOM     19  O   UNL     1       3.856  50.755   8.841  1.00  0.00    -0.466 OA
BRANCH  19  20
ATOM     20  C   UNL     1       4.327  49.478   9.160  1.00  0.00     0.302 C 
ATOM     21  O   UNL     1       4.619  48.653   8.252  1.00  0.00    -0.253 OA
ATOM     22  C   UNL     1       4.525  49.102  10.590  1.00  0.00     0.139 C 
ENDBRANCH  19  20
ENDBRANCH  18  19
ENDBRANCH  17  18
ENDBRANCH  16  17
ENDBRANCH  15  16
ENDBRANCH  14  15
ENDBRANCH  13  14
ENDBRANCH   1  13
TORSDOF 16
ENDMDL
MODEL 2
REMARK VINA RESULT:    -4.549      1.196      1.588
REMARK INTER + INTRA:         -11.565
REMARK INTER:                  -9.257
REMARK INTRA:                  -2.308
REMARK UNBOUND:                -2.760
REMARK SMILES CCCCCC=CCC=CCCCCCCCCOC(C)=O
REMARK SMILES IDX 12 1 11 2 10 3 9 4 8 5 7 6 6 7 5 8 4 9 3 10 2 11 1 12 13 13
REMARK SMILES IDX 14 14 15 15 16 16 17 17 18 18 19 19 20 20 22 21 21 22
REMARK H PARENT
REMARK Flexibility Score: inf
ROOT
ATOM      1  C   UNL     1       3.086  58.000  10.338  1.00  0.00     0.004 C 
ENDROOT
BRANCH   1   2
ATOM      2  C   UNL     1       1.770  57.457  10.914  1.00  0.00     0.027 C 
BRANCH   2   3
ATOM      3  C   UNL     1       1.330  56.217  10.186  1.00  0.00    -0.031 C 
ATOM      4  C   UNL     1       0.112  56.123   9.631  1.00  0.00    -0.027 C 
BRANCH   4   5
ATOM      5  C   UNL     1      -0.323  54.895   8.885  1.00  0.00     0.054 C 
BRANCH   5   6
ATOM      6  C   UNL     1       0.852  54.229   8.227  1.00  0.00    -0.027 C 
ATOM      7  C   UNL     1       0.782  53.749   6.977  1.00  0.00    -0.031 C 
BRANCH   7   8
ATOM      8  C   UNL     1       1.969  53.076   6.346  1.00  0.00     0.027 C 
BRANCH   8   9
ATOM      9  C   UNL     1       3.180  54.018   6.297  1.00  0.00     0.004 C 
BRANCH   9  10
ATOM     10  C   UNL     1       3.469  54.539   4.880  1.00  0.00     0.000 C 
BRANCH  10  11
ATOM     11  C   UNL     1       4.971  54.704   4.605  1.00  0.00    -0.003 C 
ATOM     12  C   UNL     1       5.267  54.638   3.110  1.00  0.00     0.004 C 
ENDBRANCH  10  11
ENDBRANCH   9  10
ENDBRANCH   8   9
ENDBRANCH   7   8
ENDBRANCH   5   6
ENDBRANCH   4   5
ENDBRANCH   2   3
ENDBRANCH   1   2
BRANCH   1  13
ATOM     13  C   UNL     1       4.266  57.845  11.311  1.00  0.00     0.000 C 
BRANCH  13  14
ATOM     14  C   UNL     1       4.641  56.372  11.553  1.00  0.00     0.000 C 
BRANCH  14  15
ATOM     15  C   UNL     1       5.571  55.810  10.466  1.00  0.00     0.000 C 
BRANCH  15  16
ATOM     16  C   UNL     1       4.819  54.953   9.432  1.00  0.00     0.003 C 
BRANCH  16  17
ATOM     17  C   UNL     1       4.060  53.782  10.079  1.00  0.00     0.042 C 
BRANCH  17  18
ATOM     18  C   UNL     1       4.760  52.437   9.876  1.00  0.00     0.233 C 
BRANCH  18  19
ATOM     19  O   UNL     1       4.050  51.679   8.903  1.00  0.00    -0.466 OA
BRANCH  19  20
ATOM     20  C   UNL     1       4.684  50.796   8.025  1.00  0.00     0.302 C 
ATOM     21  O   UNL     1       4.436  49.560   8.060  1.00  0.00    -0.253 OA
ATOM     22  C   UNL     1       5.638  51.326   7.008  1.00  0.00     0.139 C 
ENDBRANCH  19  20
ENDBRANCH  18  19
ENDBRANCH  17  18
ENDBRANCH  16  17
ENDBRANCH  15  16
ENDBRANCH  14  15
ENDBRANCH  13  14
ENDBRANCH   1  13
TORSDOF 16
ENDMDL
MODEL 3
REMARK VINA RESULT:    -4.499      2.148      5.312
REMARK INTER + INTRA:         -11.466
REMARK INTER:                  -9.376
REMARK INTRA:                  -2.090
REMARK UNBOUND:                -2.760
REMARK SMILES CCCCCC=CCC=CCCCCCCCCOC(C)=O
REMARK SMILES IDX 12 1 11 2 10 3 9 4 8 5 7 6 6 7 5 8 4 9 3 10 2 11 1 12 13 13
REMARK SMILES IDX 14 14 15 15 16 16 17 17 18 18 19 19 20 20 22 21 21 22
REMARK H PARENT
REMARK Flexibility Score: inf
ROOT
ATOM      1  C   UNL     1       1.644  52.010   6.964  1.00  0.00     0.004 C 
ENDROOT
BRANCH   1   2
ATOM      2  C   UNL     1       1.106  53.443   6.836  1.00  0.00     0.027 C 
BRANCH   2   3
ATOM      3  C   UNL     1       0.711  53.996   8.177  1.00  0.00    -0.031 C 
ATOM      4  C   UNL     1      -0.439  54.666   8.351  1.00  0.00    -0.027 C 
BRANCH   4   5
ATOM      5  C   UNL     1      -0.846  55.201   9.693  1.00  0.00     0.054 C 
BRANCH   5   6
ATOM      6  C   UNL     1      -0.316  56.593   9.893  1.00  0.00    -0.027 C 
ATOM      7  C   UNL     1       0.724  56.842  10.701  1.00  0.00    -0.031 C 
BRANCH   7   8
ATOM      8  C   UNL     1       1.226  58.246  10.895  1.00  0.00     0.027 C 
BRANCH   8   9
ATOM      9  C   UNL     1       2.755  58.309  10.767  1.00  0.00     0.004 C 
BRANCH   9  10
ATOM     10  C   UNL     1       3.403  56.917  10.705  1.00  0.00     0.000 C 
BRANCH  10  11
ATOM     11  C   UNL     1       4.237  56.708   9.432  1.00  0.00    -0.003 C 
ATOM     12  C   UNL     1       4.051  55.298   8.879  1.00  0.00     0.004 C 
ENDBRANCH  10  11
ENDBRANCH   9  10
ENDBRANCH   8   9
ENDBRANCH   7   8
ENDBRANCH   5   6
ENDBRANCH   4   5
ENDBRANCH   2   3
ENDBRANCH   1   2
BRANCH   1  13
ATOM     13  C   UNL     1       1.601  51.489   8.409  1.00  0.00     0.000 C 
BRANCH  13  14
ATOM     14  C   UNL     1       2.848  50.664   8.775  1.00  0.00     0.000 C 
BRANCH  14  15
ATOM     15  C   UNL     1       4.143  51.490   8.719  1.00  0.00     0.000 C 
BRANCH  15  16
ATOM     16  C   UNL     1       5.248  50.798   7.902  1.00  0.00     0.003 C 
BRANCH  16  17
ATOM     17  C   UNL     1       5.935  51.753   6.912  1.00  0.00     0.042 C 
BRANCH  17  18
ATOM     18  C   UNL     1       4.991  52.832   6.378  1.00  0.00     0.233 C 
BRANCH  18  19
ATOM     19  O   UNL     1       5.361  53.163   5.043  1.00  0.00    -0.466 OA
BRANCH  19  20
ATOM     20  C   UNL     1       4.960  54.349   4.421  1.00  0.00     0.302 C 
ATOM     21  O   UNL     1       5.654  54.862   3.502  1.00  0.00    -0.253 OA
ATOM     22  C   UNL     1       3.677  54.994   4.824  1.00  0.00     0.139 C 
ENDBRANCH  19  20
ENDBRANCH  18  19
ENDBRANCH  17  18
ENDBRANCH  16  17
ENDBRANCH  15  16
ENDBRANCH  14  15
ENDBRANCH  13  14
ENDBRANCH   1  13
TORSDOF 16
ENDMDL
MODEL 4
REMARK VINA RESULT:    -4.469      2.004      3.760
REMARK INTER + INTRA:         -11.409
REMARK INTER:                  -9.133
REMARK INTRA:                  -2.276
REMARK UNBOUND:                -2.760
REMARK SMILES CCCCCC=CCC=CCCCCCCCCOC(C)=O
REMARK SMILES IDX 12 1 11 2 10 3 9 4 8 5 7 6 6 7 5 8 4 9 3 10 2 11 1 12 13 13
REMARK SMILES IDX 14 14 15 15 16 16 17 17 18 18 19 19 20 20 22 21 21 22
REMARK H PARENT
REMARK Flexibility Score: inf
ROOT
ATOM      1  C   UNL     1       4.537  57.048   9.986  1.00  0.00     0.004 C 
ENDROOT
BRANCH   1   2
ATOM      2  C   UNL     1       4.236  57.896  11.230  1.00  0.00     0.027 C 
BRANCH   2   3
ATOM      3  C   UNL     1       2.759  58.120  11.390  1.00  0.00    -0.031 C 
ATOM      4  C   UNL     1       1.861  57.435  10.665  1.00  0.00    -0.027 C 
BRANCH   4   5
ATOM      5  C   UNL     1       0.384  57.642  10.837  1.00  0.00     0.054 C 
BRANCH   5   6
ATOM      6  C   UNL     1      -0.391  56.670   9.991  1.00  0.00    -0.027 C 
ATOM      7  C   UNL     1       0.130  55.495   9.611  1.00  0.00    -0.031 C 
BRANCH   7   8
ATOM      8  C   UNL     1      -0.662  54.547   8.754  1.00  0.00     0.027 C 
BRANCH   8   9
ATOM      9  C   UNL     1       0.017  54.331   7.393  1.00  0.00     0.004 C 
BRANCH   9  10
ATOM     10  C   UNL     1       1.431  53.743   7.523  1.00  0.00     0.000 C 
BRANCH  10  11
ATOM     11  C   UNL     1       1.529  52.311   6.976  1.00  0.00    -0.003 C 
ATOM     12  C   UNL     1       1.818  51.314   8.095  1.00  0.00     0.004 C 
ENDBRANCH  10  11
ENDBRANCH   9  10
ENDBRANCH   8   9
ENDBRANCH   7   8
ENDBRANCH   5   6
ENDBRANCH   4   5
ENDBRANCH   2   3
ENDBRANCH   1   2
BRANCH   1  13
ATOM     13  C   UNL     1       5.415  55.827  10.300  1.00  0.00     0.000 C 
BRANCH  13  14
ATOM     14  C   UNL     1       4.619  54.680  10.951  1.00  0.00     0.000 C 
BRANCH  14  15
ATOM     15  C   UNL     1       4.243  53.577   9.950  1.00  0.00     0.000 C 
BRANCH  15  16
ATOM     16  C   UNL     1       4.979  53.724   8.607  1.00  0.00     0.003 C 
BRANCH  16  17
ATOM     17  C   UNL     1       5.374  52.367   8.000  1.00  0.00     0.042 C 
BRANCH  17  18
ATOM     18  C   UNL     1       5.723  52.461   6.514  1.00  0.00     0.233 C 
BRANCH  18  19
ATOM     19  O   UNL     1       4.605  52.975   5.798  1.00  0.00    -0.466 OA
BRANCH  19  20
ATOM     20  C   UNL     1       4.667  54.150   5.044  1.00  0.00     0.302 C 
ATOM     21  O   UNL     1       3.829  55.076   5.221  1.00  0.00    -0.253 OA
ATOM     22  C   UNL     1       5.761  54.327   4.045  1.00  0.00     0.139 C 
ENDBRANCH  19  20
ENDBRANCH  18  19
ENDBRANCH  17  18
ENDBRANCH  16  17
ENDBRANCH  15  16
ENDBRANCH  14  15
ENDBRANCH  13  14
ENDBRANCH   1  13
TORSDOF 16
ENDMDL
MODEL 5
REMARK VINA RESULT:    -4.421      2.408      5.507
REMARK INTER + INTRA:         -11.316
REMARK INTER:                  -8.779
REMARK INTRA:                  -2.537
REMARK UNBOUND:                -2.760
REMARK SMILES CCCCCC=CCC=CCCCCCCCCOC(C)=O
REMARK SMILES IDX 12 1 11 2 10 3 9 4 8 5 7 6 6 7 5 8 4 9 3 10 2 11 1 12 13 13
REMARK SMILES IDX 14 14 15 15 16 16 17 17 18 18 19 19 20 20 22 21 21 22
REMARK H PARENT
REMARK Flexibility Score: inf
ROOT
ATOM      1  C   UNL     1       0.320  53.165   9.804  1.00  0.00     0.004 C 
ENDROOT
BRANCH   1   2
ATOM      2  C   UNL     1      -0.664  54.130   9.125  1.00  0.00     0.027 C 
BRANCH   2   3
ATOM      3  C   UNL     1      -0.248  55.560   9.328  1.00  0.00    -0.031 C 
ATOM      4  C   UNL     1       0.561  55.921  10.336  1.00  0.00    -0.027 C 
BRANCH   4   5
ATOM      5  C   UNL     1       0.994  57.345  10.529  1.00  0.00     0.054 C 
BRANCH   5   6
ATOM      6  C   UNL     1       2.487  57.468  10.408  1.00  0.00    -0.027 C 
ATOM      7  C   UNL     1       3.223  56.537   9.784  1.00  0.00    -0.031 C 
BRANCH   7   8
ATOM      8  C   UNL     1       4.717  56.677   9.688  1.00  0.00     0.027 C 
BRANCH   8   9
ATOM      9  C   UNL     1       5.426  55.439  10.256  1.00  0.00     0.004 C 
BRANCH   9  10
ATOM     10  C   UNL     1       4.443  54.353  10.720  1.00  0.00     0.000 C 
BRANCH  10  11
ATOM     11  C   UNL     1       4.727  52.985  10.082  1.00  0.00    -0.003 C 
ATOM     12  C   UNL     1       4.500  51.854  11.081  1.00  0.00     0.004 C 
ENDBRANCH  10  11
ENDBRANCH   9  10
ENDBRANCH   8   9
ENDBRANCH   7   8
ENDBRANCH   5   6
ENDBRANCH   4   5
ENDBRANCH   2   3
ENDBRANCH   1   2
BRANCH   1  13
ATOM     13  C   UNL     1       1.459  52.729   8.870  1.00  0.00     0.000 C 
BRANCH  13  14
ATOM     14  C   UNL     1       0.984  52.511   7.422  1.00  0.00     0.000 C 
BRANCH  14  15
ATOM     15  C   UNL     1       1.795  53.326   6.403  1.00  0.00     0.000 C 
BRANCH  15  16
ATOM     16  C   UNL     1       2.950  54.105   7.056  1.00  0.00     0.003 C 
BRANCH  16  17
ATOM     17  C   UNL     1       4.320  53.737   6.461  1.00  0.00     0.042 C 
BRANCH  17  18
ATOM     18  C   UNL     1       4.379  53.932   4.945  1.00  0.00     0.233 C 
BRANCH  18  19
ATOM     19  O   UNL     1       5.532  54.699   4.613  1.00  0.00    -0.466 OA
BRANCH  19  20
ATOM     20  C   UNL     1       6.207  54.558   3.397  1.00  0.00     0.302 C 
ATOM     21  O   UNL     1       7.438  54.289   3.370  1.00  0.00    -0.253 OA
ATOM     22  C   UNL     1       5.453  54.690   2.117  1.00  0.00     0.139 C 
ENDBRANCH  19  20
ENDBRANCH  18  19
ENDBRANCH  17  18
ENDBRANCH  16  17
ENDBRANCH  15  16
ENDBRANCH  14  15
ENDBRANCH  13  14
ENDBRANCH   1  13
TORSDOF 16
ENDMDL
MODEL 6
REMARK VINA RESULT:    -4.408     12.315     14.900
REMARK INTER + INTRA:         -11.291
REMARK INTER:                  -8.998
REMARK INTRA:                  -2.293
REMARK UNBOUND:                -2.760
REMARK SMILES CCCCCC=CCC=CCCCCCCCCOC(C)=O
REMARK SMILES IDX 12 1 11 2 10 3 9 4 8 5 7 6 6 7 5 8 4 9 3 10 2 11 1 12 13 13
REMARK SMILES IDX 14 14 15 15 16 16 17 17 18 18 19 19 20 20 22 21 21 22
REMARK H PARENT
REMARK Flexibility Score: inf
ROOT
ATOM      1  C   UNL     1      -7.687  62.470   3.783  1.00  0.00     0.004 C 
ENDROOT
BRANCH   1   2
ATOM      2  C   UNL     1      -8.650  62.811   2.637  1.00  0.00     0.027 C 
BRANCH   2   3
ATOM      3  C   UNL     1      -9.222  64.192   2.801  1.00  0.00    -0.031 C 
ATOM      4  C   UNL     1     -10.410  64.395   3.392  1.00  0.00    -0.027 C 
BRANCH   4   5
ATOM      5  C   UNL     1     -10.974  65.774   3.577  1.00  0.00     0.054 C 
BRANCH   5   6
ATOM      6  C   UNL     1     -10.255  66.499   4.679  1.00  0.00    -0.027 C 
ATOM      7  C   UNL     1     -10.007  65.918   5.861  1.00  0.00    -0.031 C 
BRANCH   7   8
ATOM      8  C   UNL     1      -9.298  66.671   6.953  1.00  0.00     0.027 C 
BRANCH   8   9
ATOM      9  C   UNL     1      -7.775  66.614   6.765  1.00  0.00     0.004 C 
BRANCH   9  10
ATOM     10  C   UNL     1      -7.299  65.274   6.182  1.00  0.00     0.000 C 
BRANCH  10  11
ATOM     11  C   UNL     1      -6.144  65.439   5.183  1.00  0.00    -0.003 C 
ATOM     12  C   UNL     1      -4.815  65.637   5.908  1.00  0.00     0.004 C 
ENDBRANCH  10  11
ENDBRANCH   9  10
ENDBRANCH   8   9
ENDBRANCH   7   8
ENDBRANCH   5   6
ENDBRANCH   4   5
ENDBRANCH   2   3
ENDBRANCH   1   2
BRANCH   1  13
ATOM     13  C   UNL     1      -6.992  61.113   3.588  1.00  0.00     0.000 C 
BRANCH  13  14
ATOM     14  C   UNL     1      -5.487  61.258   3.297  1.00  0.00     0.000 C 
BRANCH  14  15
ATOM     15  C   UNL     1      -4.795  62.259   4.234  1.00  0.00     0.000 C 
BRANCH  15  16
ATOM     16  C   UNL     1      -3.877  61.569   5.259  1.00  0.00     0.003 C 
BRANCH  16  17
ATOM     17  C   UNL     1      -4.040  62.145   6.676  1.00  0.00     0.042 C 
BRANCH  17  18
ATOM     18  C   UNL     1      -5.491  62.125   7.161  1.00  0.00     0.233 C 
BRANCH  18  19
ATOM     19  O   UNL     1      -5.530  61.668   8.509  1.00  0.00    -0.466 OA
BRANCH  19  20
ATOM     20  C   UNL     1      -5.455  60.314   8.849  1.00  0.00     0.302 C 
ATOM     21  O   UNL     1      -6.428  59.541   8.635  1.00  0.00    -0.253 OA
ATOM     22  C   UNL     1      -4.196  59.770   9.435  1.00  0.00     0.139 C 
ENDBRANCH  19  20
ENDBRANCH  18  19
ENDBRANCH  17  18
ENDBRANCH  16  17
ENDBRANCH  15  16
ENDBRANCH  14  15
ENDBRANCH  13  14
ENDBRANCH   1  13
TORSDOF 16
ENDMDL
MODEL 7
REMARK VINA RESULT:    -4.402      2.064      5.913
REMARK INTER + INTRA:         -11.278
REMARK INTER:                  -8.751
REMARK INTRA:                  -2.527
REMARK UNBOUND:                -2.760
REMARK SMILES CCCCCC=CCC=CCCCCCCCCOC(C)=O
REMARK SMILES IDX 12 1 11 2 10 3 9 4 8 5 7 6 6 7 5 8 4 9 3 10 2 11 1 12 13 13
REMARK SMILES IDX 14 14 15 15 16 16 17 17 18 18 19 19 20 20 22 21 21 22
REMARK H PARENT
REMARK Flexibility Score: inf
ROOT
ATOM      1  C   UNL     1       1.626  52.045   7.442  1.00  0.00     0.004 C 
ENDROOT
BRANCH   1   2
ATOM      2  C   UNL     1       1.169  53.295   8.208  1.00  0.00     0.027 C 
BRANCH   2   3
ATOM      3  C   UNL     1       2.251  54.338   8.239  1.00  0.00    -0.031 C 
ATOM      4  C   UNL     1       3.203  54.336   9.185  1.00  0.00    -0.027 C 
BRANCH   4   5
ATOM      5  C   UNL     1       4.297  55.364   9.207  1.00  0.00     0.054 C 
BRANCH   5   6
ATOM      6  C   UNL     1       3.990  56.446  10.204  1.00  0.00    -0.027 C 
ATOM      7  C   UNL     1       3.684  57.693   9.820  1.00  0.00    -0.031 C 
BRANCH   7   8
ATOM      8  C   UNL     1       3.394  58.760  10.838  1.00  0.00     0.027 C 
BRANCH   8   9
ATOM      9  C   UNL     1       1.891  59.067  10.905  1.00  0.00     0.004 C 
BRANCH   9  10
ATOM     10  C   UNL     1       1.138  58.136  11.869  1.00  0.00     0.000 C 
BRANCH  10  11
ATOM     11  C   UNL     1      -0.181  57.615  11.278  1.00  0.00    -0.003 C 
ATOM     12  C   UNL     1       0.072  56.762  10.037  1.00  0.00     0.004 C 
ENDBRANCH  10  11
ENDBRANCH   9  10
ENDBRANCH   8   9
ENDBRANCH   7   8
ENDBRANCH   5   6
ENDBRANCH   4   5
ENDBRANCH   2   3
ENDBRANCH   1   2
BRANCH   1  13
ATOM     13  C   UNL     1       1.578  50.773   8.302  1.00  0.00     0.000 C 
BRANCH  13  14
ATOM     14  C   UNL     1       2.922  50.476   8.992  1.00  0.00     0.000 C 
BRANCH  14  15
ATOM     15  C   UNL     1       4.122  50.635   8.046  1.00  0.00     0.000 C 
BRANCH  15  16
ATOM     16  C   UNL     1       5.303  51.366   8.710  1.00  0.00     0.003 C 
BRANCH  16  17
ATOM     17  C   UNL     1       6.027  52.316   7.743  1.00  0.00     0.042 C 
BRANCH  17  18
ATOM     18  C   UNL     1       5.376  52.363   6.359  1.00  0.00     0.233 C 
BRANCH  18  19
ATOM     19  O   UNL     1       4.702  53.607   6.198  1.00  0.00    -0.466 OA
BRANCH  19  20
ATOM     20  C   UNL     1       4.587  54.248   4.961  1.00  0.00     0.302 C 
ATOM     21  O   UNL     1       5.532  54.216   4.128  1.00  0.00    -0.253 OA
ATOM     22  C   UNL     1       3.316  54.944   4.608  1.00  0.00     0.139 C 
ENDBRANCH  19  20
ENDBRANCH  18  19
ENDBRANCH  17  18
ENDBRANCH  16  17
ENDBRANCH  15  16
ENDBRANCH  14  15
ENDBRANCH  13  14
ENDBRANCH   1  13
TORSDOF 16
ENDMDL
MODEL 8
REMARK VINA RESULT:    -4.293      2.026      4.980
REMARK INTER + INTRA:         -11.068
REMARK INTER:                  -8.430
REMARK INTRA:                  -2.637
REMARK UNBOUND:                -2.760
REMARK SMILES CCCCCC=CCC=CCCCCCCCCOC(C)=O
REMARK SMILES IDX 12 1 11 2 10 3 9 4 8 5 7 6 6 7 5 8 4 9 3 10 2 11 1 12 13 13
REMARK SMILES IDX 14 14 15 15 16 16 17 17 18 18 19 19 20 20 22 21 21 22
REMARK H PARENT
REMARK Flexibility Score: inf
ROOT
ATOM      1  C   UNL     1      -0.192  54.632   8.044  1.00  0.00     0.004 C 
ENDROOT
BRANCH   1   2
ATOM      2  C   UNL     1      -0.969  54.347   9.337  1.00  0.00     0.027 C 
BRANCH   2   3
ATOM      3  C   UNL     1      -0.628  55.347  10.407  1.00  0.00    -0.031 C 
ATOM      4  C   UNL     1      -0.414  56.640  10.118  1.00  0.00    -0.027 C 
BRANCH   4   5
ATOM      5  C   UNL     1      -0.094  57.645  11.186  1.00  0.00     0.054 C 
BRANCH   5   6
ATOM      6  C   UNL     1       1.369  57.988  11.173  1.00  0.00    -0.027 C 
ATOM      7  C   UNL     1       2.156  57.678  10.133  1.00  0.00    -0.031 C 
BRANCH   7   8
ATOM      8  C   UNL     1       3.620  58.021  10.149  1.00  0.00     0.027 C 
BRANCH   8   9
ATOM      9  C   UNL     1       4.478  56.803   9.777  1.00  0.00     0.004 C 
BRANCH   9  10
ATOM     10  C   UNL     1       3.634  55.590   9.355  1.00  0.00     0.000 C 
BRANCH  10  11
ATOM     11  C   UNL     1       3.504  54.542  10.470  1.00  0.00    -0.003 C 
ATOM     12  C   UNL     1       4.664  53.551  10.431  1.00  0.00     0.004 C 
ENDBRANCH  10  11
ENDBRANCH   9  10
ENDBRANCH   8   9
ENDBRANCH   7   8
ENDBRANCH   5   6
ENDBRANCH   4   5
ENDBRANCH   2   3
ENDBRANCH   1   2
BRANCH   1  13
ATOM     13  C   UNL     1       0.919  53.603   7.782  1.00  0.00     0.000 C 
BRANCH  13  14
ATOM     14  C   UNL     1       0.920  52.461   8.815  1.00  0.00     0.000 C 
BRANCH  14  15
ATOM     15  C   UNL     1       2.161  51.563   8.705  1.00  0.00     0.000 C 
BRANCH  15  16
ATOM     16  C   UNL     1       2.851  51.675   7.334  1.00  0.00     0.003 C 
BRANCH  16  17
ATOM     17  C   UNL     1       4.368  51.439   7.416  1.00  0.00     0.042 C 
BRANCH  17  18
ATOM     18  C   UNL     1       5.174  52.482   6.639  1.00  0.00     0.233 C 
BRANCH  18  19
ATOM     19  O   UNL     1       4.390  53.660   6.479  1.00  0.00    -0.466 OA
BRANCH  19  20
ATOM     20  C   UNL     1       4.163  54.251   5.233  1.00  0.00     0.302 C 
ATOM     21  O   UNL     1       3.027  54.710   4.934  1.00  0.00    -0.253 OA
ATOM     22  C   UNL     1       5.288  54.376   4.262  1.00  0.00     0.139 C 
ENDBRANCH  19  20
ENDBRANCH  18  19
ENDBRANCH  17  18
ENDBRANCH  16  17
ENDBRANCH  15  16
ENDBRANCH  14  15
ENDBRANCH  13  14
ENDBRANCH   1  13
TORSDOF 16
ENDMDL
MODEL 9
REMARK VINA RESULT:    -4.267     13.024     15.820
REMARK INTER + INTRA:         -11.017
REMARK INTER:                  -8.272
REMARK INTRA:                  -2.746
REMARK UNBOUND:                -2.760
REMARK SMILES CCCCCC=CCC=CCCCCCCCCOC(C)=O
REMARK SMILES IDX 12 1 11 2 10 3 9 4 8 5 7 6 6 7 5 8 4 9 3 10 2 11 1 12 13 13
REMARK SMILES IDX 14 14 15 15 16 16 17 17 18 18 19 19 20 20 22 21 21 22
REMARK H PARENT
REMARK Flexibility Score: inf
ROOT
ATOM      1  C   UNL     1      -9.720  65.937   3.064  1.00  0.00     0.004 C 
ENDROOT
BRANCH   1   2
ATOM      2  C   UNL     1     -11.123  65.837   3.680  1.00  0.00     0.027 C 
BRANCH   2   3
ATOM      3  C   UNL     1     -11.120  66.296   5.112  1.00  0.00    -0.031 C 
ATOM      4  C   UNL     1     -10.177  65.893   5.978  1.00  0.00    -0.027 C 
BRANCH   4   5
ATOM      5  C   UNL     1     -10.160  66.366   7.402  1.00  0.00     0.054 C 
BRANCH   5   6
ATOM      6  C   UNL     1      -8.750  66.460   7.914  1.00  0.00    -0.027 C 
ATOM      7  C   UNL     1      -7.734  66.825   7.119  1.00  0.00    -0.031 C 
BRANCH   7   8
ATOM      8  C   UNL     1      -6.330  66.898   7.653  1.00  0.00     0.027 C 
BRANCH   8   9
ATOM      9  C   UNL     1      -5.960  65.618   8.416  1.00  0.00     0.004 C 
BRANCH   9  10
ATOM     10  C   UNL     1      -4.513  65.170   8.155  1.00  0.00     0.000 C 
BRANCH  10  11
ATOM     11  C   UNL     1      -4.353  63.643   8.181  1.00  0.00    -0.003 C 
ATOM     12  C   UNL     1      -5.662  62.959   8.563  1.00  0.00     0.004 C 
ENDBRANCH  10  11
ENDBRANCH   9  10
ENDBRANCH   8   9
ENDBRANCH   7   8
ENDBRANCH   5   6
ENDBRANCH   4   5
ENDBRANCH   2   3
ENDBRANCH   1   2
BRANCH   1  13
ATOM     13  C   UNL     1      -9.254  64.614   2.437  1.00  0.00     0.000 C 
BRANCH  13  14
ATOM     14  C   UNL     1      -8.302  63.829   3.357  1.00  0.00     0.000 C 
BRANCH  14  15
ATOM     15  C   UNL     1      -7.307  64.737   4.096  1.00  0.00     0.000 C 
BRANCH  15  16
ATOM     16  C   UNL     1      -6.410  63.957   5.074  1.00  0.00     0.003 C 
BRANCH  16  17
ATOM     17  C   UNL     1      -5.042  63.606   4.466  1.00  0.00     0.042 C 
BRANCH  17  18
ATOM     18  C   UNL     1      -4.681  62.129   4.631  1.00  0.00     0.233 C 
BRANCH  18  19
ATOM     19  O   UNL     1      -5.118  61.406   3.485  1.00  0.00    -0.466 OA
BRANCH  19  20
ATOM     20  C   UNL     1      -6.273  60.618   3.485  1.00  0.00     0.302 C 
ATOM     21  O   UNL     1      -6.959  60.480   4.535  1.00  0.00    -0.253 OA
ATOM     22  C   UNL     1      -6.720  59.966   2.221  1.00  0.00     0.139 C 
ENDBRANCH  19  20
ENDBRANCH  18  19
ENDBRANCH  17  18
ENDBRANCH  16  17
ENDBRANCH  15  16
ENDBRANCH  14  15
ENDBRANCH  13  14
ENDBRANCH   1  13
TORSDOF 16
ENDMDL
