MODEL 1
REMARK VINA RESULT:    -6.864      0.000      0.000
REMARK INTER + INTRA:          -8.333
REMARK INTER:                  -8.067
REMARK INTRA:                  -0.265
REMARK UNBOUND:                -0.265
REMARK SMILES O=c1cc(-c2ccc(O)c(O)c2)oc2cc(O)cc(O)c12
REMARK SMILES IDX 4 1 3 2 2 3 1 4 21 5 19 6 18 7 16 8 15 9 14 10 13 11 5 12
REMARK SMILES IDX 6 13 7 14 8 15 12 16 10 17 9 18 11 20 20 22 17 24
REMARK H PARENT 9 19 11 21 20 23 17 25
REMARK Flexibility Score: inf
ROOT
ATOM      1  C   UNL     1      12.774 -44.750  29.264  1.00  0.00     0.138 A 
ATOM      2  C   UNL     1      12.305 -44.032  30.372  1.00  0.00     0.100 A 
ATOM      3  C   UNL     1      13.194 -43.658  31.380  1.00  0.00     0.197 A 
ATOM      4  O   UNL     1      12.733 -43.069  32.390  1.00  0.00    -0.289 OA
ATOM      5  C   UNL     1      14.567 -43.980  31.261  1.00  0.00     0.107 A 
ATOM      6  C   UNL     1      15.572 -43.616  32.207  1.00  0.00     0.134 A 
ATOM      7  C   UNL     1      16.879 -44.091  32.041  1.00  0.00     0.093 A 
ATOM      8  C   UNL     1      17.231 -44.866  30.933  1.00  0.00     0.123 A 
ATOM      9  C   UNL     1      16.268 -45.182  29.977  1.00  0.00     0.094 A 
ATOM     10  C   UNL     1      14.948 -44.753  30.130  1.00  0.00     0.146 A 
ATOM     11  O   UNL     1      14.058 -45.088  29.203  1.00  0.00    -0.456 OA
ENDROOT
BRANCH   1  12
ATOM     12  C   UNL     1      11.872 -45.172  28.162  1.00  0.00     0.021 A 
ATOM     13  C   UNL     1      11.576 -44.269  27.126  1.00  0.00     0.016 A 
ATOM     14  C   UNL     1      10.724 -44.638  26.082  1.00  0.00     0.051 A 
ATOM     15  C   UNL     1      10.145 -45.914  26.061  1.00  0.00     0.157 A 
ATOM     16  C   UNL     1      11.276 -46.448  28.141  1.00  0.00     0.062 A 
ATOM     17  C   UNL     1      10.420 -46.820  27.097  1.00  0.00     0.158 A 
BRANCH  15  18
ATOM     18  O   UNL     1       9.296 -46.280  25.017  1.00  0.00    -0.504 OA
ATOM     19  H   UNL     1       9.098 -47.251  24.810  1.00  0.00     0.293 HD
ENDBRANCH  15  18
BRANCH  17  20
ATOM     20  O   UNL     1       9.850 -48.093  27.111  1.00  0.00    -0.504 OA
ATOM     21  H   UNL     1      10.347 -48.901  27.467  1.00  0.00     0.293 HD
ENDBRANCH  17  20
ENDBRANCH   1  12
BRANCH   6  22
ATOM     22  O   UNL     1      15.347 -42.776  33.301  1.00  0.00    -0.507 OA
ATOM     23  H   UNL     1      15.822 -41.902  33.464  1.00  0.00     0.293 HD
ENDBRANCH   6  22
BRANCH   8  24
ATOM     24  O   UNL     1      18.537 -45.322  30.770  1.00  0.00    -0.508 OA
ATOM     25  H   UNL     1      18.909 -46.076  31.336  1.00  0.00     0.293 HD
ENDBRANCH   8  24
TORSDOF 5
ENDMDL
MODEL 2
REMARK VINA RESULT:    -6.761      4.717      6.950
REMARK INTER + INTRA:          -8.212
REMARK INTER:                  -7.941
REMARK INTRA:                  -0.272
REMARK UNBOUND:                -0.265
REMARK SMILES O=c1cc(-c2ccc(O)c(O)c2)oc2cc(O)cc(O)c12
REMARK SMILES IDX 4 1 3 2 2 3 1 4 21 5 19 6 18 7 16 8 15 9 14 10 13 11 5 12
REMARK SMILES IDX 6 13 7 14 8 15 12 16 10 17 9 18 11 20 20 22 17 24
REMARK H PARENT 9 19 11 21 20 23 17 25
REMARK Flexibility Score: inf
ROOT
ATOM      1  C   UNL     1      17.754 -42.491  29.429  1.00  0.00     0.138 A 
ATOM      2  C   UNL     1      16.472 -43.021  29.633  1.00  0.00     0.100 A 
ATOM      3  C   UNL     1      16.269 -43.968  30.637  1.00  0.00     0.197 A 
ATOM      4  O   UNL     1      15.123 -44.471  30.755  1.00  0.00    -0.289 OA
ATOM      5  C   UNL     1      17.351 -44.363  31.460  1.00  0.00     0.107 A 
ATOM      6  C   UNL     1      17.252 -45.291  32.540  1.00  0.00     0.134 A 
ATOM      7  C   UNL     1      18.415 -45.693  33.211  1.00  0.00     0.093 A 
ATOM      8  C   UNL     1      19.661 -45.156  32.880  1.00  0.00     0.123 A 
ATOM      9  C   UNL     1      19.759 -44.211  31.863  1.00  0.00     0.094 A 
ATOM     10  C   UNL     1      18.624 -43.813  31.152  1.00  0.00     0.146 A 
ATOM     11  O   UNL     1      18.763 -42.919  30.179  1.00  0.00    -0.456 OA
ENDROOT
BRANCH   1  12
ATOM     12  C   UNL     1      18.026 -41.479  28.376  1.00  0.00     0.021 A 
ATOM     13  C   UNL     1      17.903 -41.838  27.023  1.00  0.00     0.016 A 
ATOM     14  C   UNL     1      18.160 -40.907  26.013  1.00  0.00     0.051 A 
ATOM     15  C   UNL     1      18.556 -39.604  26.339  1.00  0.00     0.157 A 
ATOM     16  C   UNL     1      18.437 -40.170  28.696  1.00  0.00     0.062 A 
ATOM     17  C   UNL     1      18.697 -39.235  27.686  1.00  0.00     0.158 A 
BRANCH  15  18
ATOM     18  O   UNL     1      18.810 -38.677  25.329  1.00  0.00    -0.504 OA
ATOM     19  H   UNL     1      19.740 -38.552  24.945  1.00  0.00     0.293 HD
ENDBRANCH  15  18
BRANCH  17  20
ATOM     20  O   UNL     1      19.100 -37.949  28.042  1.00  0.00    -0.504 OA
ATOM     21  H   UNL     1      19.793 -37.435  27.510  1.00  0.00     0.293 HD
ENDBRANCH  17  20
ENDBRANCH   1  12
BRANCH   6  22
ATOM     22  O   UNL     1      16.047 -45.822  33.007  1.00  0.00    -0.507 OA
ATOM     23  H   UNL     1      15.956 -46.430  33.805  1.00  0.00     0.293 HD
ENDBRANCH   6  22
BRANCH   8  24
ATOM     24  O   UNL     1      20.809 -45.552  33.563  1.00  0.00    -0.508 OA
ATOM     25  H   UNL     1      21.735 -45.351  33.204  1.00  0.00     0.293 HD
ENDBRANCH   8  24
TORSDOF 5
ENDMDL
MODEL 3
REMARK VINA RESULT:    -6.716      5.078      7.400
REMARK INTER + INTRA:          -8.159
REMARK INTER:                  -7.895
REMARK INTRA:                  -0.264
REMARK UNBOUND:                -0.265
REMARK SMILES O=c1cc(-c2ccc(O)c(O)c2)oc2cc(O)cc(O)c12
REMARK SMILES IDX 4 1 3 2 2 3 1 4 21 5 19 6 18 7 16 8 15 9 14 10 13 11 5 12
REMARK SMILES IDX 6 13 7 14 8 15 12 16 10 17 9 18 11 20 20 22 17 24
REMARK H PARENT 9 19 11 21 20 23 17 25
REMARK Flexibility Score: inf
ROOT
ATOM      1  C   UNL     1      17.967 -42.110  29.601  1.00  0.00     0.138 A 
ATOM      2  C   UNL     1      18.962 -43.005  30.016  1.00  0.00     0.100 A 
ATOM      3  C   UNL     1      18.696 -43.901  31.052  1.00  0.00     0.197 A 
ATOM      4  O   UNL     1      19.628 -44.650  31.444  1.00  0.00    -0.289 OA
ATOM      5  C   UNL     1      17.415 -43.920  31.654  1.00  0.00     0.107 A 
ATOM      6  C   UNL     1      17.018 -44.817  32.690  1.00  0.00     0.134 A 
ATOM      7  C   UNL     1      15.760 -44.665  33.289  1.00  0.00     0.093 A 
ATOM      8  C   UNL     1      14.865 -43.688  32.848  1.00  0.00     0.123 A 
ATOM      9  C   UNL     1      15.224 -42.842  31.801  1.00  0.00     0.094 A 
ATOM     10  C   UNL     1      16.483 -42.946  31.205  1.00  0.00     0.146 A 
ATOM     11  O   UNL     1      16.791 -42.110  30.219  1.00  0.00    -0.456 OA
ENDROOT
BRANCH   1  12
ATOM     12  C   UNL     1      18.196 -41.136  28.503  1.00  0.00     0.021 A 
ATOM     13  C   UNL     1      17.894 -41.502  27.180  1.00  0.00     0.016 A 
ATOM     14  C   UNL     1      18.107 -40.607  26.128  1.00  0.00     0.051 A 
ATOM     15  C   UNL     1      18.636 -39.334  26.380  1.00  0.00     0.157 A 
ATOM     16  C   UNL     1      18.739 -39.860  28.747  1.00  0.00     0.062 A 
ATOM     17  C   UNL     1      18.956 -38.962  27.695  1.00  0.00     0.158 A 
BRANCH  15  18
ATOM     18  O   UNL     1      18.846 -38.443  25.328  1.00  0.00    -0.504 OA
ATOM     19  H   UNL     1      19.728 -37.958  25.212  1.00  0.00     0.293 HD
ENDBRANCH  15  18
BRANCH  17  20
ATOM     20  O   UNL     1      19.494 -37.707  27.977  1.00  0.00    -0.504 OA
ATOM     21  H   UNL     1      19.006 -36.848  27.749  1.00  0.00     0.293 HD
ENDBRANCH  17  20
ENDBRANCH   1  12
BRANCH   6  22
ATOM     22  O   UNL     1      17.801 -45.881  33.146  1.00  0.00    -0.507 OA
ATOM     23  H   UNL     1      18.307 -46.520  32.552  1.00  0.00     0.293 HD
ENDBRANCH   6  22
BRANCH   8  24
ATOM     24  O   UNL     1      13.611 -43.554  33.441  1.00  0.00    -0.508 OA
ATOM     25  H   UNL     1      13.358 -42.722  33.963  1.00  0.00     0.293 HD
ENDBRANCH   8  24
TORSDOF 5
ENDMDL
MODEL 4
REMARK VINA RESULT:    -6.662      5.885      7.881
REMARK INTER + INTRA:          -8.096
REMARK INTER:                  -7.826
REMARK INTRA:                  -0.270
REMARK UNBOUND:                -0.265
REMARK SMILES O=c1cc(-c2ccc(O)c(O)c2)oc2cc(O)cc(O)c12
REMARK SMILES IDX 4 1 3 2 2 3 1 4 21 5 19 6 18 7 16 8 15 9 14 10 13 11 5 12
REMARK SMILES IDX 6 13 7 14 8 15 12 16 10 17 9 18 11 20 20 22 17 24
REMARK H PARENT 9 19 11 21 20 23 17 25
REMARK Flexibility Score: inf
ROOT
ATOM      1  C   UNL     1      18.054 -42.574  30.083  1.00  0.00     0.138 A 
ATOM      2  C   UNL     1      17.917 -41.221  30.424  1.00  0.00     0.100 A 
ATOM      3  C   UNL     1      17.967 -40.250  29.424  1.00  0.00     0.197 A 
ATOM      4  O   UNL     1      17.903 -39.041  29.766  1.00  0.00    -0.289 OA
ATOM      5  C   UNL     1      18.125 -40.639  28.072  1.00  0.00     0.107 A 
ATOM      6  C   UNL     1      18.150 -39.738  26.965  1.00  0.00     0.134 A 
ATOM      7  C   UNL     1      18.429 -40.229  25.683  1.00  0.00     0.093 A 
ATOM      8  C   UNL     1      18.624 -41.595  25.460  1.00  0.00     0.123 A 
ATOM      9  C   UNL     1      18.549 -42.487  26.526  1.00  0.00     0.094 A 
ATOM     10  C   UNL     1      18.306 -42.026  27.822  1.00  0.00     0.146 A 
ATOM     11  O   UNL     1      18.256 -42.909  28.814  1.00  0.00    -0.456 OA
ENDROOT
BRANCH   1  12
ATOM     12  C   UNL     1      18.007 -43.649  31.107  1.00  0.00     0.021 A 
ATOM     13  C   UNL     1      16.779 -43.985  31.702  1.00  0.00     0.016 A 
ATOM     14  C   UNL     1      16.708 -44.987  32.672  1.00  0.00     0.051 A 
ATOM     15  C   UNL     1      17.867 -45.665  33.073  1.00  0.00     0.157 A 
ATOM     16  C   UNL     1      19.170 -44.326  31.524  1.00  0.00     0.062 A 
ATOM     17  C   UNL     1      19.103 -45.329  32.498  1.00  0.00     0.158 A 
BRANCH  15  18
ATOM     18  O   UNL     1      17.794 -46.666  34.041  1.00  0.00    -0.504 OA
ATOM     19  H   UNL     1      18.402 -46.666  34.851  1.00  0.00     0.293 HD
ENDBRANCH  15  18
BRANCH  17  20
ATOM     20  O   UNL     1      20.276 -45.978  32.882  1.00  0.00    -0.504 OA
ATOM     21  H   UNL     1      21.111 -45.964  32.309  1.00  0.00     0.293 HD
ENDBRANCH  17  20
ENDBRANCH   1  12
BRANCH   6  22
ATOM     22  O   UNL     1      17.884 -38.370  27.065  1.00  0.00    -0.507 OA
ATOM     23  H   UNL     1      18.454 -37.641  26.665  1.00  0.00     0.293 HD
ENDBRANCH   6  22
BRANCH   8  24
ATOM     24  O   UNL     1      18.887 -42.075  24.179  1.00  0.00    -0.508 OA
ATOM     25  H   UNL     1      19.800 -42.434  23.925  1.00  0.00     0.293 HD
ENDBRANCH   8  24
TORSDOF 5
ENDMDL
MODEL 5
REMARK VINA RESULT:    -6.657      2.021      3.787
REMARK INTER + INTRA:          -8.090
REMARK INTER:                  -7.773
REMARK INTRA:                  -0.318
REMARK UNBOUND:                -0.265
REMARK SMILES O=c1cc(-c2ccc(O)c(O)c2)oc2cc(O)cc(O)c12
REMARK SMILES IDX 4 1 3 2 2 3 1 4 21 5 19 6 18 7 16 8 15 9 14 10 13 11 5 12
REMARK SMILES IDX 6 13 7 14 8 15 12 16 10 17 9 18 11 20 20 22 17 24
REMARK H PARENT 9 19 11 21 20 23 17 25
REMARK Flexibility Score: inf
ROOT
ATOM      1  C   UNL     1      14.486 -44.562  30.014  1.00  0.00     0.138 A 
ATOM      2  C   UNL     1      15.407 -45.147  29.135  1.00  0.00     0.100 A 
ATOM      3  C   UNL     1      16.774 -45.021  29.384  1.00  0.00     0.197 A 
ATOM      4  O   UNL     1      17.578 -45.503  28.545  1.00  0.00    -0.289 OA
ATOM      5  C   UNL     1      17.219 -44.330  30.537  1.00  0.00     0.107 A 
ATOM      6  C   UNL     1      18.586 -44.174  30.913  1.00  0.00     0.134 A 
ATOM      7  C   UNL     1      18.911 -43.370  32.014  1.00  0.00     0.093 A 
ATOM      8  C   UNL     1      17.914 -42.768  32.787  1.00  0.00     0.123 A 
ATOM      9  C   UNL     1      16.575 -42.959  32.458  1.00  0.00     0.094 A 
ATOM     10  C   UNL     1      16.219 -43.727  31.347  1.00  0.00     0.146 A 
ATOM     11  O   UNL     1      14.930 -43.872  31.060  1.00  0.00    -0.456 OA
ENDROOT
BRANCH   1  12
ATOM     12  C   UNL     1      13.020 -44.666  29.798  1.00  0.00     0.021 A 
ATOM     13  C   UNL     1      12.531 -45.461  28.748  1.00  0.00     0.016 A 
ATOM     14  C   UNL     1      11.157 -45.570  28.519  1.00  0.00     0.051 A 
ATOM     15  C   UNL     1      10.248 -44.877  29.329  1.00  0.00     0.157 A 
ATOM     16  C   UNL     1      12.102 -43.962  30.602  1.00  0.00     0.062 A 
ATOM     17  C   UNL     1      10.724 -44.068  30.373  1.00  0.00     0.158 A 
BRANCH  15  18
ATOM     18  O   UNL     1       8.878 -44.989  29.099  1.00  0.00    -0.504 OA
ATOM     19  H   UNL     1       8.406 -44.415  28.410  1.00  0.00     0.293 HD
ENDBRANCH  15  18
BRANCH  17  20
ATOM     20  O   UNL     1       9.846 -43.358  31.191  1.00  0.00    -0.504 OA
ATOM     21  H   UNL     1      10.118 -42.498  31.653  1.00  0.00     0.293 HD
ENDBRANCH  17  20
ENDBRANCH   1  12
BRANCH   6  22
ATOM     22  O   UNL     1      19.652 -44.801  30.263  1.00  0.00    -0.507 OA
ATOM     23  H   UNL     1      20.116 -45.635  30.587  1.00  0.00     0.293 HD
ENDBRANCH   6  22
BRANCH   8  24
ATOM     24  O   UNL     1      18.247 -41.983  33.888  1.00  0.00    -0.508 OA
ATOM     25  H   UNL     1      18.646 -41.057  33.778  1.00  0.00     0.293 HD
ENDBRANCH   8  24
TORSDOF 5
ENDMDL
MODEL 6
REMARK VINA RESULT:    -6.607      5.008      6.881
REMARK INTER + INTRA:          -8.031
REMARK INTER:                  -7.752
REMARK INTRA:                  -0.278
REMARK UNBOUND:                -0.265
REMARK SMILES O=c1cc(-c2ccc(O)c(O)c2)oc2cc(O)cc(O)c12
REMARK SMILES IDX 4 1 3 2 2 3 1 4 21 5 19 6 18 7 16 8 15 9 14 10 13 11 5 12
REMARK SMILES IDX 6 13 7 14 8 15 12 16 10 17 9 18 11 20 20 22 17 24
REMARK H PARENT 9 19 11 21 20 23 17 25
REMARK Flexibility Score: inf
ROOT
ATOM      1  C   UNL     1      16.775 -42.223  30.088  1.00  0.00     0.138 A 
ATOM      2  C   UNL     1      16.877 -40.853  30.363  1.00  0.00     0.100 A 
ATOM      3  C   UNL     1      17.362 -39.987  29.382  1.00  0.00     0.197 A 
ATOM      4  O   UNL     1      17.501 -38.772  29.678  1.00  0.00    -0.289 OA
ATOM      5  C   UNL     1      17.716 -40.494  28.109  1.00  0.00     0.107 A 
ATOM      6  C   UNL     1      18.183 -39.699  27.019  1.00  0.00     0.134 A 
ATOM      7  C   UNL     1      18.614 -40.327  25.844  1.00  0.00     0.093 A 
ATOM      8  C   UNL     1      18.539 -41.714  25.697  1.00  0.00     0.123 A 
ATOM      9  C   UNL     1      18.034 -42.493  26.735  1.00  0.00     0.094 A 
ATOM     10  C   UNL     1      17.628 -41.901  27.933  1.00  0.00     0.146 A 
ATOM     11  O   UNL     1      17.166 -42.682  28.904  1.00  0.00    -0.456 OA
ENDROOT
BRANCH   1  12
ATOM     12  C   UNL     1      16.265 -43.189  31.095  1.00  0.00     0.021 A 
ATOM     13  C   UNL     1      16.938 -44.407  31.289  1.00  0.00     0.016 A 
ATOM     14  C   UNL     1      16.475 -45.336  32.224  1.00  0.00     0.051 A 
ATOM     15  C   UNL     1      15.323 -45.067  32.975  1.00  0.00     0.157 A 
ATOM     16  C   UNL     1      15.100 -42.931  31.844  1.00  0.00     0.062 A 
ATOM     17  C   UNL     1      14.632 -43.861  32.781  1.00  0.00     0.158 A 
BRANCH  15  18
ATOM     18  O   UNL     1      14.864 -45.995  33.909  1.00  0.00    -0.504 OA
ATOM     19  H   UNL     1      15.498 -46.623  34.389  1.00  0.00     0.293 HD
ENDBRANCH  15  18
BRANCH  17  20
ATOM     20  O   UNL     1      13.477 -43.569  33.505  1.00  0.00    -0.504 OA
ATOM     21  H   UNL     1      13.512 -43.188  34.443  1.00  0.00     0.293 HD
ENDBRANCH  17  20
ENDBRANCH   1  12
BRANCH   6  22
ATOM     22  O   UNL     1      18.219 -38.302  27.030  1.00  0.00    -0.507 OA
ATOM     23  H   UNL     1      17.546 -37.705  26.576  1.00  0.00     0.293 HD
ENDBRANCH   6  22
BRANCH   8  24
ATOM     24  O   UNL     1      18.957 -42.328  24.518  1.00  0.00    -0.508 OA
ATOM     25  H   UNL     1      19.797 -42.031  24.035  1.00  0.00     0.293 HD
ENDBRANCH   8  24
TORSDOF 5
ENDMDL
MODEL 7
REMARK VINA RESULT:    -6.578      2.209      3.492
REMARK INTER + INTRA:          -7.997
REMARK INTER:                  -7.700
REMARK INTRA:                  -0.297
REMARK UNBOUND:                -0.265
REMARK SMILES O=c1cc(-c2ccc(O)c(O)c2)oc2cc(O)cc(O)c12
REMARK SMILES IDX 4 1 3 2 2 3 1 4 21 5 19 6 18 7 16 8 15 9 14 10 13 11 5 12
REMARK SMILES IDX 6 13 7 14 8 15 12 16 10 17 9 18 11 20 20 22 17 24
REMARK H PARENT 9 19 11 21 20 23 17 25
REMARK Flexibility Score: inf
ROOT
ATOM      1  C   UNL     1      14.870 -43.725  31.222  1.00  0.00     0.138 A 
ATOM      2  C   UNL     1      14.931 -43.071  32.460  1.00  0.00     0.100 A 
ATOM      3  C   UNL     1      16.172 -42.798  33.036  1.00  0.00     0.197 A 
ATOM      4  O   UNL     1      16.194 -42.267  34.176  1.00  0.00    -0.289 OA
ATOM      5  C   UNL     1      17.359 -43.155  32.352  1.00  0.00     0.107 A 
ATOM      6  C   UNL     1      18.680 -42.891  32.824  1.00  0.00     0.134 A 
ATOM      7  C   UNL     1      19.778 -43.395  32.116  1.00  0.00     0.093 A 
ATOM      8  C   UNL     1      19.606 -44.101  30.923  1.00  0.00     0.123 A 
ATOM      9  C   UNL     1      18.323 -44.318  30.428  1.00  0.00     0.094 A 
ATOM     10  C   UNL     1      17.205 -43.858  31.127  1.00  0.00     0.146 A 
ATOM     11  O   UNL     1      15.998 -44.099  30.626  1.00  0.00    -0.456 OA
ENDROOT
BRANCH   1  12
ATOM     12  C   UNL     1      13.577 -44.038  30.563  1.00  0.00     0.021 A 
ATOM     13  C   UNL     1      13.569 -44.795  29.379  1.00  0.00     0.016 A 
ATOM     14  C   UNL     1      12.366 -45.097  28.736  1.00  0.00     0.051 A 
ATOM     15  C   UNL     1      11.150 -44.640  29.260  1.00  0.00     0.157 A 
ATOM     16  C   UNL     1      12.352 -43.570  31.078  1.00  0.00     0.062 A 
ATOM     17  C   UNL     1      11.145 -43.870  30.434  1.00  0.00     0.158 A 
BRANCH  15  18
ATOM     18  O   UNL     1       9.951 -44.944  28.616  1.00  0.00    -0.504 OA
ATOM     19  H   UNL     1       9.126 -44.368  28.732  1.00  0.00     0.293 HD
ENDBRANCH  15  18
BRANCH  17  20
ATOM     20  O   UNL     1       9.953 -43.391  30.975  1.00  0.00    -0.504 OA
ATOM     21  H   UNL     1       9.892 -42.486  31.428  1.00  0.00     0.293 HD
ENDBRANCH  17  20
ENDBRANCH   1  12
BRANCH   6  22
ATOM     22  O   UNL     1      18.965 -42.124  33.957  1.00  0.00    -0.507 OA
ATOM     23  H   UNL     1      19.775 -42.244  34.545  1.00  0.00     0.293 HD
ENDBRANCH   6  22
BRANCH   8  24
ATOM     24  O   UNL     1      20.706 -44.586  30.220  1.00  0.00    -0.508 OA
ATOM     25  H   UNL     1      21.654 -44.415  30.535  1.00  0.00     0.293 HD
ENDBRANCH   8  24
TORSDOF 5
ENDMDL
MODEL 8
REMARK VINA RESULT:    -6.522      2.594      7.861
REMARK INTER + INTRA:          -7.931
REMARK INTER:                  -7.647
REMARK INTRA:                  -0.283
REMARK UNBOUND:                -0.265
REMARK SMILES O=c1cc(-c2ccc(O)c(O)c2)oc2cc(O)cc(O)c12
REMARK SMILES IDX 4 1 3 2 2 3 1 4 21 5 19 6 18 7 16 8 15 9 14 10 13 11 5 12
REMARK SMILES IDX 6 13 7 14 8 15 12 16 10 17 9 18 11 20 20 22 17 24
REMARK H PARENT 9 19 11 21 20 23 17 25
REMARK Flexibility Score: inf
ROOT
ATOM      1  C   UNL     1      16.470 -44.292  31.347  1.00  0.00     0.138 A 
ATOM      2  C   UNL     1      16.349 -45.078  30.193  1.00  0.00     0.100 A 
ATOM      3  C   UNL     1      15.157 -45.061  29.468  1.00  0.00     0.197 A 
ATOM      4  O   UNL     1      15.056 -45.824  28.473  1.00  0.00    -0.289 OA
ATOM      5  C   UNL     1      14.091 -44.228  29.887  1.00  0.00     0.107 A 
ATOM      6  C   UNL     1      12.845 -44.100  29.204  1.00  0.00     0.134 A 
ATOM      7  C   UNL     1      11.821 -43.333  29.776  1.00  0.00     0.093 A 
ATOM      8  C   UNL     1      12.020 -42.643  30.975  1.00  0.00     0.123 A 
ATOM      9  C   UNL     1      13.252 -42.721  31.621  1.00  0.00     0.094 A 
ATOM     10  C   UNL     1      14.282 -43.504  31.094  1.00  0.00     0.146 A 
ATOM     11  O   UNL     1      15.436 -43.561  31.749  1.00  0.00    -0.456 OA
ENDROOT
BRANCH   1  12
ATOM     12  C   UNL     1      17.716 -44.271  32.155  1.00  0.00     0.021 A 
ATOM     13  C   UNL     1      18.134 -43.070  32.752  1.00  0.00     0.016 A 
ATOM     14  C   UNL     1      19.306 -43.022  33.511  1.00  0.00     0.051 A 
ATOM     15  C   UNL     1      20.088 -44.173  33.676  1.00  0.00     0.157 A 
ATOM     16  C   UNL     1      18.514 -45.421  32.314  1.00  0.00     0.062 A 
ATOM     17  C   UNL     1      19.691 -45.376  33.072  1.00  0.00     0.158 A 
BRANCH  15  18
ATOM     18  O   UNL     1      21.257 -44.122  34.435  1.00  0.00    -0.504 OA
ATOM     19  H   UNL     1      22.171 -44.217  34.009  1.00  0.00     0.293 HD
ENDBRANCH  15  18
BRANCH  17  20
ATOM     20  O   UNL     1      20.452 -46.536  33.209  1.00  0.00    -0.504 OA
ATOM     21  H   UNL     1      20.209 -47.398  32.735  1.00  0.00     0.293 HD
ENDBRANCH  17  20
ENDBRANCH   1  12
BRANCH   6  22
ATOM     22  O   UNL     1      12.572 -44.677  27.961  1.00  0.00    -0.507 OA
ATOM     23  H   UNL     1      12.322 -45.642  27.816  1.00  0.00     0.293 HD
ENDBRANCH   6  22
BRANCH   8  24
ATOM     24  O   UNL     1      11.001 -41.872  31.528  1.00  0.00    -0.508 OA
ATOM     25  H   UNL     1      10.393 -42.238  32.252  1.00  0.00     0.293 HD
ENDBRANCH   8  24
TORSDOF 5
ENDMDL
MODEL 9
REMARK VINA RESULT:    -6.484      1.632      6.933
REMARK INTER + INTRA:          -7.886
REMARK INTER:                  -7.614
REMARK INTRA:                  -0.272
REMARK UNBOUND:                -0.265
REMARK SMILES O=c1cc(-c2ccc(O)c(O)c2)oc2cc(O)cc(O)c12
REMARK SMILES IDX 4 1 3 2 2 3 1 4 21 5 19 6 18 7 16 8 15 9 14 10 13 11 5 12
REMARK SMILES IDX 6 13 7 14 8 15 12 16 10 17 9 18 11 20 20 22 17 24
REMARK H PARENT 9 19 11 21 20 23 17 25
REMARK Flexibility Score: inf
ROOT
ATOM      1  C   UNL     1      14.877 -44.277  31.033  1.00  0.00     0.138 A 
ATOM      2  C   UNL     1      14.206 -43.196  31.621  1.00  0.00     0.100 A 
ATOM      3  C   UNL     1      12.908 -42.885  31.213  1.00  0.00     0.197 A 
ATOM      4  O   UNL     1      12.355 -41.873  31.714  1.00  0.00    -0.289 OA
ATOM      5  C   UNL     1      12.270 -43.681  30.232  1.00  0.00     0.107 A 
ATOM      6  C   UNL     1      10.935 -43.482  29.768  1.00  0.00     0.134 A 
ATOM      7  C   UNL     1      10.450 -44.261  28.709  1.00  0.00     0.093 A 
ATOM      8  C   UNL     1      11.230 -45.271  28.140  1.00  0.00     0.123 A 
ATOM      9  C   UNL     1      12.515 -45.507  28.622  1.00  0.00     0.094 A 
ATOM     10  C   UNL     1      13.041 -44.725  29.654  1.00  0.00     0.146 A 
ATOM     11  O   UNL     1      14.276 -44.974  30.075  1.00  0.00    -0.456 OA
ENDROOT
BRANCH   1  12
ATOM     12  C   UNL     1      16.258 -44.653  31.431  1.00  0.00     0.021 A 
ATOM     13  C   UNL     1      16.483 -45.222  32.696  1.00  0.00     0.016 A 
ATOM     14  C   UNL     1      17.773 -45.578  33.097  1.00  0.00     0.051 A 
ATOM     15  C   UNL     1      18.863 -45.361  32.244  1.00  0.00     0.157 A 
ATOM     16  C   UNL     1      17.360 -44.427  30.583  1.00  0.00     0.062 A 
ATOM     17  C   UNL     1      18.654 -44.780  30.983  1.00  0.00     0.158 A 
BRANCH  15  18
ATOM     18  O   UNL     1      20.149 -45.719  32.646  1.00  0.00    -0.504 OA
ATOM     19  H   UNL     1      20.668 -45.166  33.318  1.00  0.00     0.293 HD
ENDBRANCH  15  18
BRANCH  17  20
ATOM     20  O   UNL     1      19.719 -44.542  30.115  1.00  0.00    -0.504 OA
ATOM     21  H   UNL     1      20.401 -43.813  30.288  1.00  0.00     0.293 HD
ENDBRANCH  17  20
ENDBRANCH   1  12
BRANCH   6  22
ATOM     22  O   UNL     1      10.044 -42.560  30.323  1.00  0.00    -0.507 OA
ATOM     23  H   UNL     1      10.274 -41.905  31.055  1.00  0.00     0.293 HD
ENDBRANCH   6  22
BRANCH   8  24
ATOM     24  O   UNL     1      10.734 -46.049  27.097  1.00  0.00    -0.508 OA
ATOM     25  H   UNL     1      11.123 -46.961  26.885  1.00  0.00     0.293 HD
ENDBRANCH   8  24
TORSDOF 5
ENDMDL
