MODEL 1
REMARK VINA RESULT:    -1.294      0.000      0.000
REMARK INTER + INTRA:          -2.184
REMARK INTER:                  -1.975
REMARK INTRA:                  -0.209
REMARK UNBOUND:                -0.209
REMARK SMILES CC1=CCC[C@@H](C)C(=O)C[C@@H](C(C)C)C(=O)C1
REMARK SMILES IDX 8 1 9 2 6 3 7 4 5 5 4 6 3 7 2 8 1 9 10 11 11 12 15 13 16 14
REMARK SMILES IDX 17 15 12 17 13 18 14 19
REMARK H PARENT
REMARK Flexibility Score: 70.00
ROOT
ATOM      1  C   UNL     1      30.052  60.675  10.042  1.00  0.00     0.136 C 
ATOM      2  O   UNL     1      29.319  60.974   9.109  1.00  0.00    -0.299 OA
ENDROOT
BRANCH   1   3
ATOM      3  C   UNL     1      31.322  59.904   9.774  1.00  0.00     0.053 C 
ATOM      4  C   UNL     1      32.112  60.539   8.624  1.00  0.00     0.016 C 
BRANCH   3   5
ATOM      5  C   UNL     1      30.973  58.426   9.471  1.00  0.00     0.015 C 
BRANCH   5   6
ATOM      6  C   UNL     1      31.067  57.447  10.659  1.00  0.00     0.028 C 
BRANCH   6   7
ATOM      7  C   UNL     1      29.775  56.843  11.168  1.00  0.00    -0.028 C 
ATOM      8  C   UNL     1      29.168  57.095  12.353  1.00  0.00    -0.070 CG0
ATOM      9  C   UNL     1      27.803  56.490  12.575  1.00  0.00     0.039 C 
ATOM     10  G   UNL     1      29.785  57.910  13.479  1.00  0.00     0.000 G0
ENDBRANCH   6   7
ENDBRANCH   5   6
ENDBRANCH   3   5
ENDBRANCH   1   3
BRANCH   1  11
ATOM     11  C   UNL     1      29.664  61.075  11.446  1.00  0.00     0.087 C 
BRANCH  11  12
ATOM     12  C   UNL     1      30.457  60.352  12.574  1.00  0.00     0.066 C 
BRANCH  12  13
ATOM     13  C   UNL     1      29.544  59.401  13.351  1.00  0.00     0.140 C 
ATOM     14  O   UNL     1      28.539  59.886  13.853  1.00  0.00    -0.299 OA
BRANCH  13  15
ATOM     15  C   UNL     1      29.766  57.903  13.511  1.00  0.00     0.106 CG0
ATOM     16  G   UNL     1      29.164  57.120  12.355  1.00  0.00     0.000 G0
ENDBRANCH  13  15
ENDBRANCH  12  13
BRANCH  12  17
ATOM     17  C   UNL     1      31.377  61.278  13.438  1.00  0.00    -0.006 C 
ATOM     18  C   UNL     1      31.248  60.970  14.941  1.00  0.00     0.008 C 
ATOM     19  C   UNL     1      31.033  62.764  13.227  1.00  0.00     0.008 C 
ENDBRANCH  12  17
ENDBRANCH  11  12
ENDBRANCH   1  11
TORSDOF 1
ENDMDL
MODEL 2
REMARK VINA RESULT:    -1.205      2.388      4.339
REMARK INTER + INTRA:          -2.049
REMARK INTER:                  -1.510
REMARK INTRA:                  -0.539
REMARK UNBOUND:                -0.209
REMARK SMILES CC1=CCC[C@@H](C)C(=O)C[C@@H](C(C)C)C(=O)C1
REMARK SMILES IDX 8 1 9 2 6 3 7 4 5 5 4 6 3 7 2 8 1 9 10 11 11 12 15 13 16 14
REMARK SMILES IDX 17 15 12 17 13 18 14 19
REMARK H PARENT
REMARK Flexibility Score: 70.00
ROOT
ATOM      1  C   UNL     1      27.465  59.158  13.145  1.00  0.00     0.136 C 
ATOM      2  O   UNL     1      26.905  59.636  14.122  1.00  0.00    -0.299 OA
ENDROOT
BRANCH   1   3
ATOM      3  C   UNL     1      26.760  58.106  12.323  1.00  0.00     0.053 C 
ATOM      4  C   UNL     1      25.661  58.735  11.460  1.00  0.00     0.016 C 
BRANCH   3   5
ATOM      5  C   UNL     1      26.185  57.017  13.263  1.00  0.00     0.015 C 
BRANCH   5   6
ATOM      6  C   UNL     1      27.179  55.939  13.743  1.00  0.00     0.028 C 
BRANCH   6   7
ATOM      7  C   UNL     1      27.941  56.214  15.023  1.00  0.00    -0.028 C 
ATOM      8  C   UNL     1      29.255  56.525  15.139  1.00  0.00    -0.070 CG0
ATOM      9  C   UNL     1      29.756  56.910  16.510  1.00  0.00     0.039 C 
ATOM     10  G   UNL     1      30.254  56.476  13.994  1.00  0.00     0.000 G0
ENDBRANCH   6   7
ENDBRANCH   5   6
ENDBRANCH   3   5
ENDBRANCH   1   3
BRANCH   1  11
ATOM     11  C   UNL     1      28.857  59.623  12.786  1.00  0.00     0.087 C 
BRANCH  11  12
ATOM     12  C   UNL     1      29.802  58.508  12.253  1.00  0.00     0.066 C 
BRANCH  12  13
ATOM     13  C   UNL     1      30.561  57.846  13.406  1.00  0.00     0.140 C 
ATOM     14  O   UNL     1      31.457  58.498  13.924  1.00  0.00    -0.299 OA
BRANCH  13  15
ATOM     15  C   UNL     1      30.262  56.467  13.979  1.00  0.00     0.106 CG0
ATOM     16  G   UNL     1      29.255  56.539  15.116  1.00  0.00     0.000 G0
ENDBRANCH  13  15
ENDBRANCH  12  13
BRANCH  12  17
ATOM     17  C   UNL     1      30.660  58.904  11.005  1.00  0.00    -0.006 C 
ATOM     18  C   UNL     1      29.832  59.677   9.963  1.00  0.00     0.008 C 
ATOM     19  C   UNL     1      31.252  57.660  10.316  1.00  0.00     0.008 C 
ENDBRANCH  12  17
ENDBRANCH  11  12
ENDBRANCH   1  11
TORSDOF 1
ENDMDL
MODEL 3
REMARK VINA RESULT:    -1.102      2.483      4.810
REMARK INTER + INTRA:          -1.892
REMARK INTER:                  -1.424
REMARK INTRA:                  -0.468
REMARK UNBOUND:                -0.209
REMARK SMILES CC1=CCC[C@@H](C)C(=O)C[C@@H](C(C)C)C(=O)C1
REMARK SMILES IDX 8 1 9 2 6 3 7 4 5 5 4 6 3 7 2 8 1 9 10 11 11 12 15 13 16 14
REMARK SMILES IDX 17 15 12 17 13 18 14 19
REMARK H PARENT
REMARK Flexibility Score: 70.00
ROOT
ATOM      1  C   UNL     1      29.693  58.110  12.297  1.00  0.00     0.136 C 
ATOM      2  O   UNL     1      30.495  58.587  13.090  1.00  0.00    -0.299 OA
ENDROOT
BRANCH   1   3
ATOM      3  C   UNL     1      30.198  57.353  11.092  1.00  0.00     0.053 C 
ATOM      4  C   UNL     1      30.791  56.002  11.508  1.00  0.00     0.016 C 
BRANCH   3   5
ATOM      5  C   UNL     1      31.238  58.218  10.338  1.00  0.00     0.015 C 
BRANCH   5   6
ATOM      6  C   UNL     1      30.683  59.434   9.569  1.00  0.00     0.028 C 
BRANCH   6   7
ATOM      7  C   UNL     1      30.686  60.771  10.281  1.00  0.00    -0.028 C 
ATOM      8  C   UNL     1      29.606  61.508  10.638  1.00  0.00    -0.070 CG0
ATOM      9  C   UNL     1      29.853  62.736  11.480  1.00  0.00     0.039 C 
ATOM     10  G   UNL     1      28.178  61.200  10.216  1.00  0.00     0.000 G0
ENDBRANCH   6   7
ENDBRANCH   5   6
ENDBRANCH   3   5
ENDBRANCH   1   3
BRANCH   1  11
ATOM     11  C   UNL     1      28.214  58.300  12.535  1.00  0.00     0.087 C 
BRANCH  11  12
ATOM     12  C   UNL     1      27.415  58.821  11.305  1.00  0.00     0.066 C 
BRANCH  12  13
ATOM     13  C   UNL     1      27.430  60.351  11.260  1.00  0.00     0.140 C 
ATOM     14  O   UNL     1      26.827  60.936  12.149  1.00  0.00    -0.299 OA
BRANCH  13  15
ATOM     15  C   UNL     1      28.165  61.193  10.226  1.00  0.00     0.106 CG0
ATOM     16  G   UNL     1      29.586  61.509  10.668  1.00  0.00     0.000 G0
ENDBRANCH  13  15
ENDBRANCH  12  13
BRANCH  12  17
ATOM     17  C   UNL     1      26.023  58.142  11.080  1.00  0.00    -0.006 C 
ATOM     18  C   UNL     1      25.341  57.779  12.412  1.00  0.00     0.008 C 
ATOM     19  C   UNL     1      26.156  56.853  10.247  1.00  0.00     0.008 C 
ENDBRANCH  12  17
ENDBRANCH  11  12
ENDBRANCH   1  11
TORSDOF 1
ENDMDL
MODEL 4
REMARK VINA RESULT:    -1.014      2.209      5.049
REMARK INTER + INTRA:          -1.758
REMARK INTER:                  -1.339
REMARK INTRA:                  -0.418
REMARK UNBOUND:                -0.209
REMARK SMILES CC1=CCC[C@@H](C)C(=O)C[C@@H](C(C)C)C(=O)C1
REMARK SMILES IDX 8 1 9 2 6 3 7 4 5 5 4 6 3 7 2 8 1 9 10 11 11 12 15 13 16 14
REMARK SMILES IDX 17 15 12 17 13 18 14 19
REMARK H PARENT
REMARK Flexibility Score: 70.00
ROOT
ATOM      1  C   UNL     1      29.654  59.199  15.960  1.00  0.00     0.136 C 
ATOM      2  O   UNL     1      29.312  59.379  17.121  1.00  0.00    -0.299 OA
ENDROOT
BRANCH   1   3
ATOM      3  C   UNL     1      30.531  60.218  15.274  1.00  0.00     0.053 C 
ATOM      4  C   UNL     1      31.931  60.239  15.899  1.00  0.00     0.016 C 
BRANCH   3   5
ATOM      5  C   UNL     1      29.858  61.611  15.350  1.00  0.00     0.015 C 
BRANCH   5   6
ATOM      6  C   UNL     1      29.344  62.192  14.017  1.00  0.00     0.028 C 
BRANCH   6   7
ATOM      7  C   UNL     1      29.849  61.555  12.738  1.00  0.00    -0.028 C 
ATOM      8  C   UNL     1      29.258  60.561  12.033  1.00  0.00    -0.070 CG0
ATOM      9  C   UNL     1      29.870  60.197  10.702  1.00  0.00     0.039 C 
ATOM     10  G   UNL     1      28.050  59.770  12.510  1.00  0.00     0.000 G0
ENDBRANCH   6   7
ENDBRANCH   5   6
ENDBRANCH   3   5
ENDBRANCH   1   3
BRANCH   1  11
ATOM     11  C   UNL     1      29.180  57.962  15.232  1.00  0.00     0.087 C 
BRANCH  11  12
ATOM     12  C   UNL     1      29.606  57.880  13.738  1.00  0.00     0.066 C 
BRANCH  12  13
ATOM     13  C   UNL     1      28.450  58.294  12.823  1.00  0.00     0.140 C 
ATOM     14  O   UNL     1      27.778  57.394  12.340  1.00  0.00    -0.299 OA
BRANCH  13  15
ATOM     15  C   UNL     1      28.052  59.729  12.504  1.00  0.00     0.106 CG0
ATOM     16  G   UNL     1      29.245  60.554  12.048  1.00  0.00     0.000 G0
ENDBRANCH  13  15
ENDBRANCH  12  13
BRANCH  12  17
ATOM     17  C   UNL     1      30.365  56.573  13.333  1.00  0.00    -0.006 C 
ATOM     18  C   UNL     1      31.348  56.119  14.428  1.00  0.00     0.008 C 
ATOM     19  C   UNL     1      31.163  56.769  12.030  1.00  0.00     0.008 C 
ENDBRANCH  12  17
ENDBRANCH  11  12
ENDBRANCH   1  11
TORSDOF 1
ENDMDL
MODEL 5
REMARK VINA RESULT:    -0.960      2.085      3.806
REMARK INTER + INTRA:          -1.675
REMARK INTER:                  -1.809
REMARK INTRA:                   0.134
REMARK UNBOUND:                -0.209
REMARK SMILES CC1=CCC[C@@H](C)C(=O)C[C@@H](C(C)C)C(=O)C1
REMARK SMILES IDX 8 1 9 2 6 3 7 4 5 5 4 6 3 7 2 8 1 9 10 11 11 12 15 13 16 14
REMARK SMILES IDX 17 15 12 17 13 18 14 19
REMARK H PARENT
REMARK Flexibility Score: 70.00
ROOT
ATOM      1  C   UNL     1      30.816  61.755  11.530  1.00  0.00     0.136 C 
ATOM      2  O   UNL     1      31.688  62.547  11.861  1.00  0.00    -0.299 OA
ENDROOT
BRANCH   1   3
ATOM      3  C   UNL     1      29.379  62.214  11.464  1.00  0.00     0.053 C 
ATOM      4  C   UNL     1      29.124  63.023  10.188  1.00  0.00     0.016 C 
BRANCH   3   5
ATOM      5  C   UNL     1      29.043  63.038  12.732  1.00  0.00     0.015 C 
BRANCH   5   6
ATOM      6  C   UNL     1      28.315  62.281  13.862  1.00  0.00     0.028 C 
BRANCH   6   7
ATOM      7  C   UNL     1      27.613  60.990  13.497  1.00  0.00    -0.028 C 
ATOM      8  C   UNL     1      28.003  59.731  13.812  1.00  0.00    -0.070 CG0
ATOM      9  C   UNL     1      27.056  58.606  13.472  1.00  0.00     0.039 C 
ATOM     10  G   UNL     1      29.340  59.380  14.446  1.00  0.00     0.000 G0
ENDBRANCH   6   7
ENDBRANCH   5   6
ENDBRANCH   3   5
ENDBRANCH   1   3
BRANCH   1  11
ATOM     11  C   UNL     1      31.195  60.330  11.203  1.00  0.00     0.087 C 
BRANCH  11  12
ATOM     12  C   UNL     1      30.373  59.246  11.957  1.00  0.00     0.066 C 
BRANCH  12  13
ATOM     13  C   UNL     1      30.481  59.442  13.471  1.00  0.00     0.140 C 
ATOM     14  O   UNL     1      31.587  59.718  13.916  1.00  0.00    -0.299 OA
BRANCH  13  15
ATOM     15  C   UNL     1      29.320  59.361  14.454  1.00  0.00     0.106 CG0
ATOM     16  G   UNL     1      28.000  59.721  13.791  1.00  0.00     0.000 G0
ENDBRANCH  13  15
ENDBRANCH  12  13
BRANCH  12  17
ATOM     17  C   UNL     1      30.572  57.781  11.441  1.00  0.00    -0.006 C 
ATOM     18  C   UNL     1      31.271  56.895  12.488  1.00  0.00     0.008 C 
ATOM     19  C   UNL     1      31.416  57.752  10.153  1.00  0.00     0.008 C 
ENDBRANCH  12  17
ENDBRANCH  11  12
ENDBRANCH   1  11
TORSDOF 1
ENDMDL
MODEL 6
REMARK VINA RESULT:    -0.843      2.982      4.017
REMARK INTER + INTRA:          -1.496
REMARK INTER:                  -1.153
REMARK INTRA:                  -0.343
REMARK UNBOUND:                -0.209
REMARK SMILES CC1=CCC[C@@H](C)C(=O)C[C@@H](C(C)C)C(=O)C1
REMARK SMILES IDX 8 1 9 2 6 3 7 4 5 5 4 6 3 7 2 8 1 9 10 11 11 12 15 13 16 14
REMARK SMILES IDX 17 15 12 17 13 18 14 19
REMARK H PARENT
REMARK Flexibility Score: 70.00
ROOT
ATOM      1  C   UNL     1      28.183  59.872  14.530  1.00  0.00     0.136 C 
ATOM      2  O   UNL     1      28.230  60.931  15.140  1.00  0.00    -0.299 OA
ENDROOT
BRANCH   1   3
ATOM      3  C   UNL     1      27.425  59.796  13.226  1.00  0.00     0.053 C 
ATOM      4  C   UNL     1      27.055  61.198  12.730  1.00  0.00     0.016 C 
BRANCH   3   5
ATOM      5  C   UNL     1      26.166  58.912  13.413  1.00  0.00     0.015 C 
BRANCH   5   6
ATOM      6  C   UNL     1      26.292  57.444  12.958  1.00  0.00     0.028 C 
BRANCH   6   7
ATOM      7  C   UNL     1      27.339  57.126  11.910  1.00  0.00    -0.028 C 
ATOM      8  C   UNL     1      28.530  56.511  12.108  1.00  0.00    -0.070 CG0
ATOM      9  C   UNL     1      29.340  56.161  10.884  1.00  0.00     0.039 C 
ATOM     10  G   UNL     1      29.114  56.189  13.474  1.00  0.00     0.000 G0
ENDBRANCH   6   7
ENDBRANCH   5   6
ENDBRANCH   3   5
ENDBRANCH   1   3
BRANCH   1  11
ATOM     11  C   UNL     1      28.875  58.656  15.101  1.00  0.00     0.087 C 
BRANCH  11  12
ATOM     12  C   UNL     1      30.298  58.387  14.532  1.00  0.00     0.066 C 
BRANCH  12  13
ATOM     13  C   UNL     1      30.343  57.041  13.804  1.00  0.00     0.140 C 
ATOM     14  O   UNL     1      31.447  56.619  13.490  1.00  0.00    -0.299 OA
BRANCH  13  15
ATOM     15  C   UNL     1      29.132  56.176  13.480  1.00  0.00     0.106 CG0
ATOM     16  G   UNL     1      28.545  56.519  12.120  1.00  0.00     0.000 G0
ENDBRANCH  13  15
ENDBRANCH  12  13
BRANCH  12  17
ATOM     17  C   UNL     1      31.475  58.668  15.524  1.00  0.00    -0.006 C 
ATOM     18  C   UNL     1      31.051  58.459  16.990  1.00  0.00     0.008 C 
ATOM     19  C   UNL     1      31.996  60.111  15.381  1.00  0.00     0.008 C 
ENDBRANCH  12  17
ENDBRANCH  11  12
ENDBRANCH   1  11
TORSDOF 1
ENDMDL
MODEL 7
REMARK VINA RESULT:    -0.793      1.994      4.261
REMARK INTER + INTRA:          -1.419
REMARK INTER:                  -1.235
REMARK INTRA:                  -0.184
REMARK UNBOUND:                -0.209
REMARK SMILES CC1=CCC[C@@H](C)C(=O)C[C@@H](C(C)C)C(=O)C1
REMARK SMILES IDX 8 1 9 2 6 3 7 4 5 5 4 6 3 7 2 8 1 9 10 11 11 12 15 13 16 14
REMARK SMILES IDX 17 15 12 17 13 18 14 19
REMARK H PARENT
REMARK Flexibility Score: 70.00
ROOT
ATOM      1  C   UNL     1      28.183  60.917  13.245  1.00  0.00     0.136 C 
ATOM      2  O   UNL     1      27.274  61.569  12.749  1.00  0.00    -0.299 OA
ENDROOT
BRANCH   1   3
ATOM      3  C   UNL     1      29.443  61.617  13.695  1.00  0.00     0.053 C 
ATOM      4  C   UNL     1      29.128  62.669  14.764  1.00  0.00     0.016 C 
BRANCH   3   5
ATOM      5  C   UNL     1      30.146  62.251  12.469  1.00  0.00     0.015 C 
BRANCH   5   6
ATOM      6  C   UNL     1      31.332  61.459  11.880  1.00  0.00     0.028 C 
BRANCH   6   7
ATOM      7  C   UNL     1      31.199  60.960  10.456  1.00  0.00    -0.028 C 
ATOM      8  C   UNL     1      30.952  59.689  10.057  1.00  0.00    -0.070 CG0
ATOM      9  C   UNL     1      30.707  59.461   8.585  1.00  0.00     0.039 C 
ATOM     10  G   UNL     1      30.943  58.484  10.984  1.00  0.00     0.000 G0
ENDBRANCH   6   7
ENDBRANCH   5   6
ENDBRANCH   3   5
ENDBRANCH   1   3
BRANCH   1  11
ATOM     11  C   UNL     1      28.030  59.420  13.386  1.00  0.00     0.087 C 
BRANCH  11  12
ATOM     12  C   UNL     1      29.341  58.607  13.183  1.00  0.00     0.066 C 
BRANCH  12  13
ATOM     13  C   UNL     1      29.587  58.341  11.696  1.00  0.00     0.140 C 
ATOM     14  O   UNL     1      28.617  58.019  11.024  1.00  0.00    -0.299 OA
BRANCH  13  15
ATOM     15  C   UNL     1      30.927  58.486  10.986  1.00  0.00     0.106 CG0
ATOM     16  G   UNL     1      30.942  59.691  10.058  1.00  0.00     0.000 G0
ENDBRANCH  13  15
ENDBRANCH  12  13
BRANCH  12  17
ATOM     17  C   UNL     1      29.516  57.378  14.136  1.00  0.00    -0.006 C 
ATOM     18  C   UNL     1      29.342  57.772  15.615  1.00  0.00     0.008 C 
ATOM     19  C   UNL     1      30.908  56.739  13.975  1.00  0.00     0.008 C 
ENDBRANCH  12  17
ENDBRANCH  11  12
ENDBRANCH   1  11
TORSDOF 1
ENDMDL
MODEL 8
REMARK VINA RESULT:    -0.758      3.143      5.981
REMARK INTER + INTRA:          -1.366
REMARK INTER:                  -0.778
REMARK INTRA:                  -0.588
REMARK UNBOUND:                -0.209
REMARK SMILES CC1=CCC[C@@H](C)C(=O)C[C@@H](C(C)C)C(=O)C1
REMARK SMILES IDX 8 1 9 2 6 3 7 4 5 5 4 6 3 7 2 8 1 9 10 11 11 12 15 13 16 14
REMARK SMILES IDX 17 15 12 17 13 18 14 19
REMARK H PARENT
REMARK Flexibility Score: 70.00
ROOT
ATOM      1  C   UNL     1      27.655  60.847  14.177  1.00  0.00     0.136 C 
ATOM      2  O   UNL     1      26.585  61.263  13.754  1.00  0.00    -0.299 OA
ENDROOT
BRANCH   1   3
ATOM      3  C   UNL     1      27.671  59.745  15.209  1.00  0.00     0.053 C 
ATOM      4  C   UNL     1      26.675  58.640  14.840  1.00  0.00     0.016 C 
BRANCH   3   5
ATOM      5  C   UNL     1      27.363  60.341  16.605  1.00  0.00     0.015 C 
BRANCH   5   6
ATOM      6  C   UNL     1      28.578  60.592  17.521  1.00  0.00     0.028 C 
BRANCH   6   7
ATOM      7  C   UNL     1      29.071  62.018  17.650  1.00  0.00    -0.028 C 
ATOM      8  C   UNL     1      30.208  62.539  17.129  1.00  0.00    -0.070 CG0
ATOM      9  C   UNL     1      30.411  64.029  17.259  1.00  0.00     0.039 C 
ATOM     10  G   UNL     1      31.301  61.720  16.461  1.00  0.00     0.000 G0
ENDBRANCH   6   7
ENDBRANCH   5   6
ENDBRANCH   3   5
ENDBRANCH   1   3
BRANCH   1  11
ATOM     11  C   UNL     1      28.940  61.455  13.666  1.00  0.00     0.087 C 
BRANCH  11  12
ATOM     12  C   UNL     1      30.237  60.744  14.149  1.00  0.00     0.066 C 
BRANCH  12  13
ATOM     13  C   UNL     1      31.124  61.714  14.934  1.00  0.00     0.140 C 
ATOM     14  O   UNL     1      31.712  62.571  14.289  1.00  0.00    -0.299 OA
BRANCH  13  15
ATOM     15  C   UNL     1      31.297  61.719  16.447  1.00  0.00     0.106 CG0
ATOM     16  G   UNL     1      30.209  62.530  17.133  1.00  0.00     0.000 G0
ENDBRANCH  13  15
ENDBRANCH  12  13
BRANCH  12  17
ATOM     17  C   UNL     1      30.962  59.876  13.067  1.00  0.00    -0.006 C 
ATOM     18  C   UNL     1      30.618  60.336  11.638  1.00  0.00     0.008 C 
ATOM     19  C   UNL     1      30.578  58.389  13.193  1.00  0.00     0.008 C 
ENDBRANCH  12  17
ENDBRANCH  11  12
ENDBRANCH   1  11
TORSDOF 1
ENDMDL
MODEL 9
REMARK VINA RESULT:    -0.737      2.240      4.653
REMARK INTER + INTRA:          -1.334
REMARK INTER:                  -1.487
REMARK INTRA:                   0.153
REMARK UNBOUND:                -0.209
REMARK SMILES CC1=CCC[C@@H](C)C(=O)C[C@@H](C(C)C)C(=O)C1
REMARK SMILES IDX 8 1 9 2 6 3 7 4 5 5 4 6 3 7 2 8 1 9 10 11 11 12 15 13 16 14
REMARK SMILES IDX 17 15 12 17 13 18 14 19
REMARK H PARENT
REMARK Flexibility Score: 70.00
ROOT
ATOM      1  C   UNL     1      30.486  61.225  14.549  1.00  0.00     0.136 C 
ATOM      2  O   UNL     1      29.499  61.716  14.019  1.00  0.00    -0.299 OA
ENDROOT
BRANCH   1   3
ATOM      3  C   UNL     1      30.847  61.620  15.961  1.00  0.00     0.053 C 
ATOM      4  C   UNL     1      31.760  62.852  15.965  1.00  0.00     0.016 C 
BRANCH   3   5
ATOM      5  C   UNL     1      31.517  60.420  16.677  1.00  0.00     0.015 C 
BRANCH   5   6
ATOM      6  C   UNL     1      30.570  59.465  17.432  1.00  0.00     0.028 C 
BRANCH   6   7
ATOM      7  C   UNL     1      29.399  58.890  16.662  1.00  0.00    -0.028 C 
ATOM      8  C   UNL     1      29.435  57.888  15.750  1.00  0.00    -0.070 CG0
ATOM      9  C   UNL     1      28.113  57.379  15.228  1.00  0.00     0.039 C 
ATOM     10  G   UNL     1      30.711  57.275  15.197  1.00  0.00     0.000 G0
ENDBRANCH   6   7
ENDBRANCH   5   6
ENDBRANCH   3   5
ENDBRANCH   1   3
BRANCH   1  11
ATOM     11  C   UNL     1      31.330  60.240  13.775  1.00  0.00     0.087 C 
BRANCH  11  12
ATOM     12  C   UNL     1      30.545  59.044  13.165  1.00  0.00     0.066 C 
BRANCH  12  13
ATOM     13  C   UNL     1      31.013  57.722  13.778  1.00  0.00     0.140 C 
ATOM     14  O   UNL     1      31.703  56.999  13.073  1.00  0.00    -0.299 OA
BRANCH  13  15
ATOM     15  C   UNL     1      30.722  57.260  15.200  1.00  0.00     0.106 CG0
ATOM     16  G   UNL     1      29.443  57.881  15.740  1.00  0.00     0.000 G0
ENDBRANCH  13  15
ENDBRANCH  12  13
BRANCH  12  17
ATOM     17  C   UNL     1      30.407  59.065  11.605  1.00  0.00    -0.006 C 
ATOM     18  C   UNL     1      30.983  60.357  10.997  1.00  0.00     0.008 C 
ATOM     19  C   UNL     1      28.934  58.951  11.172  1.00  0.00     0.008 C 
ENDBRANCH  12  17
ENDBRANCH  11  12
ENDBRANCH   1  11
TORSDOF 1
ENDMDL
