MODEL 1
REMARK VINA RESULT:    -3.455      0.000      0.000
REMARK INTER + INTRA:          -4.011
REMARK INTER:                  -3.960
REMARK INTRA:                  -0.050
REMARK UNBOUND:                -0.050
REMARK SMILES CC(C)[C@H]([NH3+])C(=O)[O-]
REMARK SMILES IDX 4 1 5 2 6 6 7 7 8 8 2 9 1 10 3 11
REMARK H PARENT 5 3 5 4 5 5
REMARK Flexibility Score: inf
ROOT
ATOM      1  C   UNL     1     111.523 108.122 117.298  1.00  0.00     0.230 C 
ENDROOT
BRANCH   1   2
ATOM      2  N   UNL     1     112.778 108.761 116.875  1.00  0.00    -0.350 N 
ATOM      3  H   UNL     1     112.651 109.797 116.820  1.00  0.00     0.345 HD
ATOM      4  H   UNL     1     113.095 108.403 115.946  1.00  0.00     0.345 HD
ATOM      5  H   UNL     1     113.524 108.563 117.580  1.00  0.00     0.345 HD
ENDBRANCH   1   2
BRANCH   1   6
ATOM      6  C   UNL     1     110.358 109.071 117.147  1.00  0.00     0.099 C 
ATOM      7  O   UNL     1     109.204 108.639 116.882  1.00  0.00    -0.544 OA
ATOM      8  O   UNL     1     110.562 110.439 117.269  1.00  0.00    -0.544 OA
ENDBRANCH   1   6
BRANCH   1   9
ATOM      9  C   UNL     1     111.633 107.526 118.735  1.00  0.00     0.047 C 
ATOM     10  C   UNL     1     112.194 106.094 118.768  1.00  0.00     0.014 C 
ATOM     11  C   UNL     1     112.461 108.436 119.655  1.00  0.00     0.014 C 
ENDBRANCH   1   9
TORSDOF 3
ENDMDL
MODEL 2
REMARK VINA RESULT:    -3.440      5.938      6.668
REMARK INTER + INTRA:          -3.993
REMARK INTER:                  -3.940
REMARK INTRA:                  -0.053
REMARK UNBOUND:                -0.050
REMARK SMILES CC(C)[C@H]([NH3+])C(=O)[O-]
REMARK SMILES IDX 4 1 5 2 6 6 7 7 8 8 2 9 1 10 3 11
REMARK H PARENT 5 3 5 4 5 5
REMARK Flexibility Score: inf
ROOT
ATOM      1  C   UNL     1     110.694 108.599 123.737  1.00  0.00     0.230 C 
ENDROOT
BRANCH   1   2
ATOM      2  N   UNL     1     110.253 109.470 124.836  1.00  0.00    -0.350 N 
ATOM      3  H   UNL     1     110.201 110.462 124.507  1.00  0.00     0.345 HD
ATOM      4  H   UNL     1     110.900 109.413 125.654  1.00  0.00     0.345 HD
ATOM      5  H   UNL     1     109.297 109.181 125.147  1.00  0.00     0.345 HD
ENDBRANCH   1   2
BRANCH   1   6
ATOM      6  C   UNL     1     110.870 107.178 124.215  1.00  0.00     0.099 C 
ATOM      7  O   UNL     1     109.871 106.441 124.434  1.00  0.00    -0.544 OA
ATOM      8  O   UNL     1     112.146 106.680 124.448  1.00  0.00    -0.544 OA
ENDBRANCH   1   6
BRANCH   1   9
ATOM      9  C   UNL     1     111.965 109.159 123.028  1.00  0.00     0.047 C 
ATOM     10  C   UNL     1     111.827 109.255 121.499  1.00  0.00     0.014 C 
ATOM     11  C   UNL     1     112.370 110.524 123.606  1.00  0.00     0.014 C 
ENDBRANCH   1   9
TORSDOF 3
ENDMDL
MODEL 3
REMARK VINA RESULT:    -3.354      5.379      5.937
REMARK INTER + INTRA:          -3.894
REMARK INTER:                  -3.842
REMARK INTRA:                  -0.052
REMARK UNBOUND:                -0.050
REMARK SMILES CC(C)[C@H]([NH3+])C(=O)[O-]
REMARK SMILES IDX 4 1 5 2 6 6 7 7 8 8 2 9 1 10 3 11
REMARK H PARENT 5 3 5 4 5 5
REMARK Flexibility Score: inf
ROOT
ATOM      1  C   UNL     1     111.250 109.114 123.803  1.00  0.00     0.230 C 
ENDROOT
BRANCH   1   2
ATOM      2  N   UNL     1     110.168 109.546 124.700  1.00  0.00    -0.350 N 
ATOM      3  H   UNL     1     109.243 109.426 124.229  1.00  0.00     0.345 HD
ATOM      4  H   UNL     1     110.281 110.546 124.984  1.00  0.00     0.345 HD
ATOM      5  H   UNL     1     110.172 108.954 125.562  1.00  0.00     0.345 HD
ENDBRANCH   1   2
BRANCH   1   6
ATOM      6  C   UNL     1     111.201 109.870 122.498  1.00  0.00     0.099 C 
ATOM      7  O   UNL     1     110.788 111.060 122.456  1.00  0.00    -0.544 OA
ATOM      8  O   UNL     1     111.584 109.240 121.320  1.00  0.00    -0.544 OA
ENDBRANCH   1   6
BRANCH   1   9
ATOM      9  C   UNL     1     111.254 107.567 123.606  1.00  0.00     0.047 C 
ATOM     10  C   UNL     1     112.615 106.912 123.893  1.00  0.00     0.014 C 
ATOM     11  C   UNL     1     110.159 106.894 124.447  1.00  0.00     0.014 C 
ENDBRANCH   1   9
TORSDOF 3
ENDMDL
MODEL 4
REMARK VINA RESULT:    -3.344      5.249      6.068
REMARK INTER + INTRA:          -3.883
REMARK INTER:                  -3.827
REMARK INTRA:                  -0.056
REMARK UNBOUND:                -0.050
REMARK SMILES CC(C)[C@H]([NH3+])C(=O)[O-]
REMARK SMILES IDX 4 1 5 2 6 6 7 7 8 8 2 9 1 10 3 11
REMARK H PARENT 5 3 5 4 5 5
REMARK Flexibility Score: inf
ROOT
ATOM      1  C   UNL     1     111.722 107.547 122.373  1.00  0.00     0.230 C 
ENDROOT
BRANCH   1   2
ATOM      2  N   UNL     1     110.951 106.444 121.781  1.00  0.00    -0.350 N 
ATOM      3  H   UNL     1     110.414 106.787 120.952  1.00  0.00     0.345 HD
ATOM      4  H   UNL     1     110.287 106.027 122.471  1.00  0.00     0.345 HD
ATOM      5  H   UNL     1     111.606 105.697 121.456  1.00  0.00     0.345 HD
ENDBRANCH   1   2
BRANCH   1   6
ATOM      6  C   UNL     1     113.200 107.240 122.356  1.00  0.00     0.099 C 
ATOM      7  O   UNL     1     113.731 106.679 121.361  1.00  0.00    -0.544 OA
ATOM      8  O   UNL     1     113.983 107.550 123.461  1.00  0.00    -0.544 OA
ENDBRANCH   1   6
BRANCH   1   9
ATOM      9  C   UNL     1     111.199 107.921 123.793  1.00  0.00     0.047 C 
ATOM     10  C   UNL     1     110.591 109.332 123.876  1.00  0.00     0.014 C 
ATOM     11  C   UNL     1     110.189 106.883 124.307  1.00  0.00     0.014 C 
ENDBRANCH   1   9
TORSDOF 3
ENDMDL
MODEL 5
REMARK VINA RESULT:    -3.327      3.499      4.136
REMARK INTER + INTRA:          -3.864
REMARK INTER:                  -3.798
REMARK INTRA:                  -0.065
REMARK UNBOUND:                -0.050
REMARK SMILES CC(C)[C@H]([NH3+])C(=O)[O-]
REMARK SMILES IDX 4 1 5 2 6 6 7 7 8 8 2 9 1 10 3 11
REMARK H PARENT 5 3 5 4 5 5
REMARK Flexibility Score: inf
ROOT
ATOM      1  C   UNL     1     111.921 107.156 120.774  1.00  0.00     0.230 C 
ENDROOT
BRANCH   1   2
ATOM      2  N   UNL     1     110.889 106.185 121.166  1.00  0.00    -0.350 N 
ATOM      3  H   UNL     1     111.175 105.222 120.879  1.00  0.00     0.345 HD
ATOM      4  H   UNL     1     109.965 106.413 120.734  1.00  0.00     0.345 HD
ATOM      5  H   UNL     1     110.781 106.194 122.207  1.00  0.00     0.345 HD
ENDBRANCH   1   2
BRANCH   1   6
ATOM      6  C   UNL     1     112.425 106.871 119.379  1.00  0.00     0.099 C 
ATOM      7  O   UNL     1     112.821 105.718 119.059  1.00  0.00    -0.544 OA
ATOM      8  O   UNL     1     112.483 107.896 118.443  1.00  0.00    -0.544 OA
ENDBRANCH   1   6
BRANCH   1   9
ATOM      9  C   UNL     1     113.069 107.237 121.826  1.00  0.00     0.047 C 
ATOM     10  C   UNL     1     114.006 108.440 121.626  1.00  0.00     0.014 C 
ATOM     11  C   UNL     1     112.515 107.235 123.258  1.00  0.00     0.014 C 
ENDBRANCH   1   9
TORSDOF 3
ENDMDL
MODEL 6
REMARK VINA RESULT:    -3.303      3.441      4.018
REMARK INTER + INTRA:          -3.836
REMARK INTER:                  -3.763
REMARK INTRA:                  -0.074
REMARK UNBOUND:                -0.050
REMARK SMILES CC(C)[C@H]([NH3+])C(=O)[O-]
REMARK SMILES IDX 4 1 5 2 6 6 7 7 8 8 2 9 1 10 3 11
REMARK H PARENT 5 3 5 4 5 5
REMARK Flexibility Score: inf
ROOT
ATOM      1  C   UNL     1     112.221 106.887 120.840  1.00  0.00     0.230 C 
ENDROOT
BRANCH   1   2
ATOM      2  N   UNL     1     110.911 106.383 121.277  1.00  0.00    -0.350 N 
ATOM      3  H   UNL     1     110.284 107.182 121.524  1.00  0.00     0.345 HD
ATOM      4  H   UNL     1     111.000 105.748 122.102  1.00  0.00     0.345 HD
ATOM      5  H   UNL     1     110.464 105.850 120.495  1.00  0.00     0.345 HD
ENDBRANCH   1   2
BRANCH   1   6
ATOM      6  C   UNL     1     112.464 108.281 121.367  1.00  0.00     0.099 C 
ATOM      7  O   UNL     1     111.548 108.918 121.952  1.00  0.00    -0.544 OA
ATOM      8  O   UNL     1     113.701 108.884 121.181  1.00  0.00    -0.544 OA
ENDBRANCH   1   6
BRANCH   1   9
ATOM      9  C   UNL     1     112.392 106.788 119.293  1.00  0.00     0.047 C 
ATOM     10  C   UNL     1     112.113 105.385 118.730  1.00  0.00     0.014 C 
ATOM     11  C   UNL     1     111.524 107.828 118.568  1.00  0.00     0.014 C 
ENDBRANCH   1   9
TORSDOF 3
ENDMDL
MODEL 7
REMARK VINA RESULT:    -3.287      3.381      4.116
REMARK INTER + INTRA:          -3.818
REMARK INTER:                  -3.747
REMARK INTRA:                  -0.070
REMARK UNBOUND:                -0.050
REMARK SMILES CC(C)[C@H]([NH3+])C(=O)[O-]
REMARK SMILES IDX 4 1 5 2 6 6 7 7 8 8 2 9 1 10 3 11
REMARK H PARENT 5 3 5 4 5 5
REMARK Flexibility Score: inf
ROOT
ATOM      1  C   UNL     1     111.653 107.282 120.572  1.00  0.00     0.230 C 
ENDROOT
BRANCH   1   2
ATOM      2  N   UNL     1     110.921 106.103 121.058  1.00  0.00    -0.350 N 
ATOM      3  H   UNL     1     111.468 105.627 121.811  1.00  0.00     0.345 HD
ATOM      4  H   UNL     1     110.735 105.423 120.286  1.00  0.00     0.345 HD
ATOM      5  H   UNL     1     110.005 106.404 121.463  1.00  0.00     0.345 HD
ENDBRANCH   1   2
BRANCH   1   6
ATOM      6  C   UNL     1     112.294 107.004 119.234  1.00  0.00     0.099 C 
ATOM      7  O   UNL     1     112.709 107.947 118.508  1.00  0.00    -0.544 OA
ATOM      8  O   UNL     1     112.404 105.696 118.779  1.00  0.00    -0.544 OA
ENDBRANCH   1   6
BRANCH   1   9
ATOM      9  C   UNL     1     112.669 107.809 121.631  1.00  0.00     0.047 C 
ATOM     10  C   UNL     1     112.054 108.020 123.025  1.00  0.00     0.014 C 
ATOM     11  C   UNL     1     113.896 106.890 121.732  1.00  0.00     0.014 C 
ENDBRANCH   1   9
TORSDOF 3
ENDMDL
MODEL 8
REMARK VINA RESULT:    -3.241      4.925      5.729
REMARK INTER + INTRA:          -3.765
REMARK INTER:                  -3.704
REMARK INTRA:                  -0.061
REMARK UNBOUND:                -0.050
REMARK SMILES CC(C)[C@H]([NH3+])C(=O)[O-]
REMARK SMILES IDX 4 1 5 2 6 6 7 7 8 8 2 9 1 10 3 11
REMARK H PARENT 5 3 5 4 5 5
REMARK Flexibility Score: inf
ROOT
ATOM      1  C   UNL     1     111.592 107.139 122.700  1.00  0.00     0.230 C 
ENDROOT
BRANCH   1   2
ATOM      2  N   UNL     1     110.717 106.334 121.835  1.00  0.00    -0.350 N 
ATOM      3  H   UNL     1     110.513 105.415 122.290  1.00  0.00     0.345 HD
ATOM      4  H   UNL     1     111.152 106.166 120.900  1.00  0.00     0.345 HD
ATOM      5  H   UNL     1     109.810 106.835 121.695  1.00  0.00     0.345 HD
ENDBRANCH   1   2
BRANCH   1   6
ATOM      6  C   UNL     1     110.812 107.740 123.845  1.00  0.00     0.099 C 
ATOM      7  O   UNL     1     110.795 108.987 124.030  1.00  0.00    -0.544 OA
ATOM      8  O   UNL     1     110.129 106.911 124.725  1.00  0.00    -0.544 OA
ENDBRANCH   1   6
BRANCH   1   9
ATOM      9  C   UNL     1     112.388 108.205 121.886  1.00  0.00     0.047 C 
ATOM     10  C   UNL     1     113.914 108.039 121.978  1.00  0.00     0.014 C 
ATOM     11  C   UNL     1     111.949 108.225 120.414  1.00  0.00     0.014 C 
ENDBRANCH   1   9
TORSDOF 3
ENDMDL
MODEL 9
REMARK VINA RESULT:    -3.226      4.588      5.347
REMARK INTER + INTRA:          -3.748
REMARK INTER:                  -3.690
REMARK INTRA:                  -0.058
REMARK UNBOUND:                -0.050
REMARK SMILES CC(C)[C@H]([NH3+])C(=O)[O-]
REMARK SMILES IDX 4 1 5 2 6 6 7 7 8 8 2 9 1 10 3 11
REMARK H PARENT 5 3 5 4 5 5
REMARK Flexibility Score: inf
ROOT
ATOM      1  C   UNL     1     113.175 107.241 121.795  1.00  0.00     0.230 C 
ENDROOT
BRANCH   1   2
ATOM      2  N   UNL     1     114.192 106.182 121.715  1.00  0.00    -0.350 N 
ATOM      3  H   UNL     1     114.016 105.580 120.879  1.00  0.00     0.345 HD
ATOM      4  H   UNL     1     114.193 105.586 122.573  1.00  0.00     0.345 HD
ATOM      5  H   UNL     1     115.138 106.615 121.609  1.00  0.00     0.345 HD
ENDBRANCH   1   2
BRANCH   1   6
ATOM      6  C   UNL     1     112.521 107.256 123.156  1.00  0.00     0.099 C 
ATOM      7  O   UNL     1     111.327 106.878 123.302  1.00  0.00    -0.544 OA
ATOM      8  O   UNL     1     113.228 107.721 124.257  1.00  0.00    -0.544 OA
ENDBRANCH   1   6
BRANCH   1   9
ATOM      9  C   UNL     1     112.144 107.143 120.630  1.00  0.00     0.047 C 
ATOM     10  C   UNL     1     111.858 108.489 119.944  1.00  0.00     0.014 C 
ATOM     11  C   UNL     1     112.579 106.103 119.586  1.00  0.00     0.014 C 
ENDBRANCH   1   9
TORSDOF 3
ENDMDL
