MODEL 1
REMARK VINA RESULT:    -4.427      0.000      0.000
REMARK INTER + INTRA:          -4.427
REMARK INTER:                  -4.427
REMARK INTRA:                   0.000
REMARK UNBOUND:                 0.000
REMARK SMILES C=C1CCC[C@@]2(C)CC(=O)C(=C(C)C)C[C@@H]12
REMARK SMILES IDX 13 1 12 2 11 3 15 4 16 5 2 6 1 7 3 8 4 9 5 10 6 11 8 12 9 13
REMARK SMILES IDX 10 14 7 15 14 16
REMARK H PARENT
REMARK Flexibility Score: inf
ROOT
ATOM      1  C   UNL     1       4.139   3.378  -6.423  1.00  0.00     0.039 C 
ATOM      2  C   UNL     1       5.578   3.387  -6.886  1.00  0.00    -0.070 C 
ATOM      3  C   UNL     1       6.279   2.226  -7.044  1.00  0.00    -0.006 C 
ATOM      4  C   UNL     1       5.640   0.871  -6.790  1.00  0.00     0.047 C 
ATOM      5  C   UNL     1       6.206  -0.254  -7.697  1.00  0.00     0.025 C 
ATOM      6  C   UNL     1       5.691  -0.253  -9.141  1.00  0.00    -0.073 C 
ATOM      7  C   UNL     1       4.852   0.671  -9.645  1.00  0.00     0.008 C 
ATOM      8  C   UNL     1       6.197  -1.333 -10.070  1.00  0.00     0.031 C 
ATOM      9  C   UNL     1       7.223  -2.238  -9.380  1.00  0.00     0.005 C 
ATOM     10  C   UNL     1       8.317  -1.410  -8.691  1.00  0.00     0.008 C 
ATOM     11  C   UNL     1       7.774  -0.308  -7.698  1.00  0.00    -0.018 C 
ATOM     12  C   UNL     1       8.324   1.075  -8.139  1.00  0.00     0.088 C 
ATOM     13  C   UNL     1       7.735   2.211  -7.355  1.00  0.00     0.159 C 
ATOM     14  O   UNL     1       8.495   3.135  -6.961  1.00  0.00    -0.295 OA
ATOM     15  C   UNL     1       8.300  -0.638  -6.277  1.00  0.00     0.012 C 
ATOM     16  C   UNL     1       6.191   4.732  -7.200  1.00  0.00     0.039 C 
ENDROOT
TORSDOF 0
ENDMDL
MODEL 2
REMARK VINA RESULT:    -4.232      1.984      4.919
REMARK INTER + INTRA:          -4.232
REMARK INTER:                  -4.232
REMARK INTRA:                   0.000
REMARK UNBOUND:                 0.000
REMARK SMILES C=C1CCC[C@@]2(C)CC(=O)C(=C(C)C)C[C@@H]12
REMARK SMILES IDX 13 1 12 2 11 3 15 4 16 5 2 6 1 7 3 8 4 9 5 10 6 11 8 12 9 13
REMARK SMILES IDX 10 14 7 15 14 16
REMARK H PARENT
REMARK Flexibility Score: inf
ROOT
ATOM      1  C   UNL     1       5.986  -1.855  -6.442  1.00  0.00     0.039 C 
ATOM      2  C   UNL     1       5.730  -1.159  -7.759  1.00  0.00    -0.070 C 
ATOM      3  C   UNL     1       5.672   0.202  -7.842  1.00  0.00    -0.006 C 
ATOM      4  C   UNL     1       5.889   1.083  -6.622  1.00  0.00     0.047 C 
ATOM      5  C   UNL     1       6.549   2.447  -6.960  1.00  0.00     0.025 C 
ATOM      6  C   UNL     1       8.059   2.396  -7.225  1.00  0.00    -0.073 C 
ATOM      7  C   UNL     1       8.789   1.266  -7.231  1.00  0.00     0.008 C 
ATOM      8  C   UNL     1       8.760   3.696  -7.548  1.00  0.00     0.031 C 
ATOM      9  C   UNL     1       7.779   4.870  -7.608  1.00  0.00     0.005 C 
ATOM     10  C   UNL     1       6.577   4.541  -8.507  1.00  0.00     0.008 C 
ATOM     11  C   UNL     1       5.834   3.198  -8.137  1.00  0.00    -0.018 C 
ATOM     12  C   UNL     1       5.819   2.276  -9.387  1.00  0.00     0.088 C 
ATOM     13  C   UNL     1       5.277   0.908  -9.092  1.00  0.00     0.159 C 
ATOM     14  O   UNL     1       4.480   0.382  -9.914  1.00  0.00    -0.295 OA
ATOM     15  C   UNL     1       4.375   3.547  -7.743  1.00  0.00     0.012 C 
ATOM     16  C   UNL     1       5.578  -2.035  -8.981  1.00  0.00     0.039 C 
ENDROOT
TORSDOF 0
ENDMDL
MODEL 3
REMARK VINA RESULT:    -4.203      1.573      3.362
REMARK INTER + INTRA:          -4.203
REMARK INTER:                  -4.203
REMARK INTRA:                   0.000
REMARK UNBOUND:                 0.000
REMARK SMILES C=C1CCC[C@@]2(C)CC(=O)C(=C(C)C)C[C@@H]12
REMARK SMILES IDX 13 1 12 2 11 3 15 4 16 5 2 6 1 7 3 8 4 9 5 10 6 11 8 12 9 13
REMARK SMILES IDX 10 14 7 15 14 16
REMARK H PARENT
REMARK Flexibility Score: inf
ROOT
ATOM      1  C   UNL     1       8.185   5.832  -7.721  1.00  0.00     0.039 C 
ATOM      2  C   UNL     1       7.081   5.091  -7.001  1.00  0.00    -0.070 C 
ATOM      3  C   UNL     1       6.732   3.820  -7.356  1.00  0.00    -0.006 C 
ATOM      4  C   UNL     1       7.453   3.080  -8.471  1.00  0.00     0.047 C 
ATOM      5  C   UNL     1       7.520   1.545  -8.244  1.00  0.00     0.025 C 
ATOM      6  C   UNL     1       8.565   1.079  -7.224  1.00  0.00    -0.073 C 
ATOM      7  C   UNL     1       9.349   1.908  -6.509  1.00  0.00     0.008 C 
ATOM      8  C   UNL     1       8.686  -0.406  -6.969  1.00  0.00     0.031 C 
ATOM      9  C   UNL     1       7.657  -1.205  -7.774  1.00  0.00     0.005 C 
ATOM     10  C   UNL     1       6.245  -0.629  -7.593  1.00  0.00     0.008 C 
ATOM     11  C   UNL     1       6.126   0.917  -7.895  1.00  0.00    -0.018 C 
ATOM     12  C   UNL     1       5.555   1.628  -6.638  1.00  0.00     0.088 C 
ATOM     13  C   UNL     1       5.556   3.123  -6.767  1.00  0.00     0.159 C 
ATOM     14  O   UNL     1       4.545   3.766  -6.378  1.00  0.00    -0.295 OA
ATOM     15  C   UNL     1       5.142   1.103  -9.078  1.00  0.00     0.012 C 
ATOM     16  C   UNL     1       6.409   5.806  -5.852  1.00  0.00     0.039 C 
ENDROOT
TORSDOF 0
ENDMDL
MODEL 4
REMARK VINA RESULT:    -4.036      1.817      4.641
REMARK INTER + INTRA:          -4.036
REMARK INTER:                  -4.036
REMARK INTRA:                   0.000
REMARK UNBOUND:                 0.000
REMARK SMILES C=C1CCC[C@@]2(C)CC(=O)C(=C(C)C)C[C@@H]12
REMARK SMILES IDX 13 1 12 2 11 3 15 4 16 5 2 6 1 7 3 8 4 9 5 10 6 11 8 12 9 13
REMARK SMILES IDX 10 14 7 15 14 16
REMARK H PARENT
REMARK Flexibility Score: inf
ROOT
ATOM      1  C   UNL     1       6.424  -1.711  -9.487  1.00  0.00     0.039 C 
ATOM      2  C   UNL     1       6.018  -1.038  -8.196  1.00  0.00    -0.070 C 
ATOM      3  C   UNL     1       6.226   0.296  -7.996  1.00  0.00    -0.006 C 
ATOM      4  C   UNL     1       6.848   1.173  -9.070  1.00  0.00     0.047 C 
ATOM      5  C   UNL     1       6.326   2.635  -9.047  1.00  0.00     0.025 C 
ATOM      6  C   UNL     1       4.931   2.842  -9.650  1.00  0.00    -0.073 C 
ATOM      7  C   UNL     1       4.156   1.849 -10.123  1.00  0.00     0.008 C 
ATOM      8  C   UNL     1       4.373   4.246  -9.668  1.00  0.00     0.031 C 
ATOM      9  C   UNL     1       5.325   5.242  -8.998  1.00  0.00     0.005 C 
ATOM     10  C   UNL     1       5.771   4.739  -7.617  1.00  0.00     0.008 C 
ATOM     11  C   UNL     1       6.383   3.283  -7.620  1.00  0.00    -0.018 C 
ATOM     12  C   UNL     1       5.571   2.400  -6.634  1.00  0.00     0.088 C 
ATOM     13  C   UNL     1       5.973   0.955  -6.685  1.00  0.00     0.159 C 
ATOM     14  O   UNL     1       6.099   0.322  -5.602  1.00  0.00    -0.295 OA
ATOM     15  C   UNL     1       7.852   3.376  -7.132  1.00  0.00     0.012 C 
ATOM     16  C   UNL     1       5.341  -1.900  -7.155  1.00  0.00     0.039 C 
ENDROOT
TORSDOF 0
ENDMDL
MODEL 5
REMARK VINA RESULT:    -4.014      1.859      4.516
REMARK INTER + INTRA:          -4.014
REMARK INTER:                  -4.014
REMARK INTRA:                   0.000
REMARK UNBOUND:                 0.000
REMARK SMILES C=C1CCC[C@@]2(C)CC(=O)C(=C(C)C)C[C@@H]12
REMARK SMILES IDX 13 1 12 2 11 3 15 4 16 5 2 6 1 7 3 8 4 9 5 10 6 11 8 12 9 13
REMARK SMILES IDX 10 14 7 15 14 16
REMARK H PARENT
REMARK Flexibility Score: inf
ROOT
ATOM      1  C   UNL     1       5.252  -1.475  -7.353  1.00  0.00     0.039 C 
ATOM      2  C   UNL     1       6.501  -0.913  -6.713  1.00  0.00    -0.070 C 
ATOM      3  C   UNL     1       7.065   0.248  -7.159  1.00  0.00    -0.006 C 
ATOM      4  C   UNL     1       6.451   1.043  -8.300  1.00  0.00     0.047 C 
ATOM      5  C   UNL     1       6.677   2.573  -8.171  1.00  0.00     0.025 C 
ATOM      6  C   UNL     1       5.776   3.286  -7.156  1.00  0.00    -0.073 C 
ATOM      7  C   UNL     1       4.881   2.662  -6.368  1.00  0.00     0.008 C 
ATOM      8  C   UNL     1       5.941   4.780  -6.995  1.00  0.00     0.031 C 
ATOM      9  C   UNL     1       7.069   5.323  -7.878  1.00  0.00     0.005 C 
ATOM     10  C   UNL     1       8.356   4.505  -7.697  1.00  0.00     0.008 C 
ATOM     11  C   UNL     1       8.175   2.950  -7.901  1.00  0.00    -0.018 C 
ATOM     12  C   UNL     1       8.653   2.220  -6.616  1.00  0.00     0.088 C 
ATOM     13  C   UNL     1       8.371   0.747  -6.648  1.00  0.00     0.159 C 
ATOM     14  O   UNL     1       9.260  -0.050  -6.244  1.00  0.00    -0.295 OA
ATOM     15  C   UNL     1       9.062   2.514  -9.096  1.00  0.00     0.012 C 
ATOM     16  C   UNL     1       7.072  -1.672  -5.537  1.00  0.00     0.039 C 
ENDROOT
TORSDOF 0
ENDMDL
MODEL 6
REMARK VINA RESULT:    -3.982      7.821      9.965
REMARK INTER + INTRA:          -3.982
REMARK INTER:                  -3.982
REMARK INTRA:                   0.000
REMARK UNBOUND:                 0.000
REMARK SMILES C=C1CCC[C@@]2(C)CC(=O)C(=C(C)C)C[C@@H]12
REMARK SMILES IDX 13 1 12 2 11 3 15 4 16 5 2 6 1 7 3 8 4 9 5 10 6 11 8 12 9 13
REMARK SMILES IDX 10 14 7 15 14 16
REMARK H PARENT
REMARK Flexibility Score: inf
ROOT
ATOM      1  C   UNL     1       7.129   7.196   0.876  1.00  0.00     0.039 C 
ATOM      2  C   UNL     1       8.010   8.055  -0.002  1.00  0.00    -0.070 C 
ATOM      3  C   UNL     1       7.796   8.147  -1.347  1.00  0.00    -0.006 C 
ATOM      4  C   UNL     1       6.647   7.414  -2.022  1.00  0.00     0.047 C 
ATOM      5  C   UNL     1       6.076   8.170  -3.252  1.00  0.00     0.025 C 
ATOM      6  C   UNL     1       5.161   9.356  -2.925  1.00  0.00    -0.073 C 
ATOM      7  C   UNL     1       4.892   9.784  -1.677  1.00  0.00     0.008 C 
ATOM      8  C   UNL     1       4.564  10.125  -4.082  1.00  0.00     0.031 C 
ATOM      9  C   UNL     1       5.050   9.585  -5.430  1.00  0.00     0.005 C 
ATOM     10  C   UNL     1       6.581   9.459  -5.457  1.00  0.00     0.008 C 
ATOM     11  C   UNL     1       7.188   8.625  -4.261  1.00  0.00    -0.018 C 
ATOM     12  C   UNL     1       8.217   9.511  -3.508  1.00  0.00     0.088 C 
ATOM     13  C   UNL     1       8.732   8.865  -2.255  1.00  0.00     0.159 C 
ATOM     14  O   UNL     1       9.964   8.935  -1.999  1.00  0.00    -0.295 OA
ATOM     15  C   UNL     1       7.913   7.390  -4.853  1.00  0.00     0.012 C 
ATOM     16  C   UNL     1       9.111   8.832   0.681  1.00  0.00     0.039 C 
ENDROOT
TORSDOF 0
ENDMDL
MODEL 7
REMARK VINA RESULT:    -3.900      2.120      4.326
REMARK INTER + INTRA:          -3.900
REMARK INTER:                  -3.900
REMARK INTRA:                   0.000
REMARK UNBOUND:                 0.000
REMARK SMILES C=C1CCC[C@@]2(C)CC(=O)C(=C(C)C)C[C@@H]12
REMARK SMILES IDX 13 1 12 2 11 3 15 4 16 5 2 6 1 7 3 8 4 9 5 10 6 11 8 12 9 13
REMARK SMILES IDX 10 14 7 15 14 16
REMARK H PARENT
REMARK Flexibility Score: inf
ROOT
ATOM      1  C   UNL     1       4.822  -2.111  -9.641  1.00  0.00     0.039 C 
ATOM      2  C   UNL     1       5.295  -1.892  -8.222  1.00  0.00    -0.070 C 
ATOM      3  C   UNL     1       6.347  -1.068  -7.945  1.00  0.00    -0.006 C 
ATOM      4  C   UNL     1       7.074  -0.310  -9.044  1.00  0.00     0.047 C 
ATOM      5  C   UNL     1       7.631   1.062  -8.578  1.00  0.00     0.025 C 
ATOM      6  C   UNL     1       6.593   2.183  -8.457  1.00  0.00    -0.073 C 
ATOM      7  C   UNL     1       5.274   2.021  -8.672  1.00  0.00     0.008 C 
ATOM      8  C   UNL     1       7.077   3.547  -8.018  1.00  0.00     0.031 C 
ATOM      9  C   UNL     1       8.577   3.542  -7.708  1.00  0.00     0.005 C 
ATOM     10  C   UNL     1       8.943   2.389  -6.762  1.00  0.00     0.008 C 
ATOM     11  C   UNL     1       8.460   0.966  -7.250  1.00  0.00    -0.018 C 
ATOM     12  C   UNL     1       7.569   0.338  -6.145  1.00  0.00     0.088 C 
ATOM     13  C   UNL     1       6.927  -0.948  -6.579  1.00  0.00     0.159 C 
ATOM     14  O   UNL     1       6.900  -1.915  -5.772  1.00  0.00    -0.295 OA
ATOM     15  C   UNL     1       9.713   0.078  -7.462  1.00  0.00     0.012 C 
ATOM     16  C   UNL     1       4.529  -2.597  -7.126  1.00  0.00     0.039 C 
ENDROOT
TORSDOF 0
ENDMDL
MODEL 8
REMARK VINA RESULT:    -3.862      5.517      9.167
REMARK INTER + INTRA:          -3.862
REMARK INTER:                  -3.862
REMARK INTRA:                   0.000
REMARK UNBOUND:                 0.000
REMARK SMILES C=C1CCC[C@@]2(C)CC(=O)C(=C(C)C)C[C@@H]12
REMARK SMILES IDX 13 1 12 2 11 3 15 4 16 5 2 6 1 7 3 8 4 9 5 10 6 11 8 12 9 13
REMARK SMILES IDX 10 14 7 15 14 16
REMARK H PARENT
REMARK Flexibility Score: inf
ROOT
ATOM      1  C   UNL     1       6.216   5.220  -6.389  1.00  0.00     0.039 C 
ATOM      2  C   UNL     1       6.360   6.725  -6.382  1.00  0.00    -0.070 C 
ATOM      3  C   UNL     1       6.412   7.426  -5.212  1.00  0.00    -0.006 C 
ATOM      4  C   UNL     1       6.356   6.728  -3.863  1.00  0.00     0.047 C 
ATOM      5  C   UNL     1       7.167   7.460  -2.760  1.00  0.00     0.025 C 
ATOM      6  C   UNL     1       8.687   7.267  -2.827  1.00  0.00    -0.073 C 
ATOM      7  C   UNL     1       9.320   6.570  -3.788  1.00  0.00     0.008 C 
ATOM      8  C   UNL     1       9.530   7.946  -1.771  1.00  0.00     0.031 C 
ATOM      9  C   UNL     1       8.675   8.786  -0.818  1.00  0.00     0.005 C 
ATOM     10  C   UNL     1       7.733   9.719  -1.595  1.00  0.00     0.008 C 
ATOM     11  C   UNL     1       6.835   8.991  -2.670  1.00  0.00    -0.018 C 
ATOM     12  C   UNL     1       7.091   9.643  -4.056  1.00  0.00     0.088 C 
ATOM     13  C   UNL     1       6.404   8.915  -5.175  1.00  0.00     0.159 C 
ATOM     14  O   UNL     1       5.819   9.586  -6.066  1.00  0.00    -0.295 OA
ATOM     15  C   UNL     1       5.349   9.195  -2.276  1.00  0.00     0.012 C 
ATOM     16  C   UNL     1       6.479   7.410  -7.724  1.00  0.00     0.039 C 
ENDROOT
TORSDOF 0
ENDMDL
