MODEL 1
REMARK VINA RESULT:    -2.221      0.000      0.000
REMARK INTER + INTRA:          -1.984
REMARK INTER:                  -2.351
REMARK INTRA:                   0.367
REMARK UNBOUND:                 0.367
REMARK SMILES CC1=C[C@H]2C(=C(C)CC[C@@H]2C(C)C)CC1
REMARK SMILES IDX 1 1 2 2 3 3 4 4 10 5 9 6 8 7 6 8 5 9 14 10 15 11 7 12 11 13
REMARK SMILES IDX 12 14 13 15
REMARK H PARENT
REMARK Flexibility Score: inf
ROOT
ATOM      1  C   UNL     1     147.207 148.720 130.113  1.00  0.00     0.039 C 
ATOM      2  C   UNL     1     146.759 147.772 131.191  1.00  0.00    -0.076 C 
ATOM      3  C   UNL     1     146.571 146.469 130.909  1.00  0.00    -0.020 C 
ATOM      4  C   UNL     1     146.083 145.536 131.998  1.00  0.00     0.041 C 
ATOM      5  C   UNL     1     145.783 144.093 131.458  1.00  0.00     0.003 C 
ATOM      6  C   UNL     1     144.273 143.951 131.184  1.00  0.00     0.009 C 
ATOM      7  C   UNL     1     143.468 144.230 132.450  1.00  0.00     0.031 C 
ATOM      8  C   UNL     1     143.736 145.624 132.961  1.00  0.00    -0.073 C 
ATOM      9  C   UNL     1     144.933 146.234 132.735  1.00  0.00    -0.064 C 
ATOM     10  C   UNL     1     145.144 147.699 133.119  1.00  0.00     0.036 C 
ATOM     11  C   UNL     1     146.481 148.261 132.598  1.00  0.00     0.035 C 
ATOM     12  C   UNL     1     142.636 146.313 133.737  1.00  0.00     0.039 C 
ENDROOT
BRANCH   5  13
ATOM     13  C   UNL     1     146.376 142.985 132.402  1.00  0.00    -0.013 C 
ATOM     14  C   UNL     1     147.913 142.905 132.360  1.00  0.00     0.007 C 
ATOM     15  C   UNL     1     145.952 143.224 133.866  1.00  0.00     0.007 C 
ENDBRANCH   5  13
TORSDOF 1
ENDMDL
MODEL 2
REMARK VINA RESULT:    -2.171      1.407      4.795
REMARK INTER + INTRA:          -1.931
REMARK INTER:                  -2.542
REMARK INTRA:                   0.611
REMARK UNBOUND:                 0.367
REMARK SMILES CC1=C[C@H]2C(=C(C)CC[C@@H]2C(C)C)CC1
REMARK SMILES IDX 1 1 2 2 3 3 4 4 10 5 9 6 8 7 6 8 5 9 14 10 15 11 7 12 11 13
REMARK SMILES IDX 12 14 13 15
REMARK H PARENT
REMARK Flexibility Score: inf
ROOT
ATOM      1  C   UNL     1     143.502 142.040 130.134  1.00  0.00     0.039 C 
ATOM      2  C   UNL     1     143.941 143.016 131.191  1.00  0.00    -0.076 C 
ATOM      3  C   UNL     1     144.169 144.304 130.868  1.00  0.00    -0.020 C 
ATOM      4  C   UNL     1     144.647 145.264 131.937  1.00  0.00     0.041 C 
ATOM      5  C   UNL     1     144.996 146.680 131.355  1.00  0.00     0.003 C 
ATOM      6  C   UNL     1     146.517 146.777 131.120  1.00  0.00     0.009 C 
ATOM      7  C   UNL     1     147.279 146.526 132.419  1.00  0.00     0.031 C 
ATOM      8  C   UNL     1     146.963 145.157 132.971  1.00  0.00    -0.073 C 
ATOM      9  C   UNL     1     145.759 144.568 132.732  1.00  0.00    -0.064 C 
ATOM     10  C   UNL     1     145.502 143.123 133.161  1.00  0.00     0.036 C 
ATOM     11  C   UNL     1     144.168 142.572 132.622  1.00  0.00     0.035 C 
ATOM     12  C   UNL     1     148.024 144.472 133.803  1.00  0.00     0.039 C 
ENDROOT
BRANCH   5  13
ATOM     13  C   UNL     1     144.404 147.834 132.241  1.00  0.00    -0.013 C 
ATOM     14  C   UNL     1     142.927 147.616 132.621  1.00  0.00     0.007 C 
ATOM     15  C   UNL     1     145.211 147.997 133.546  1.00  0.00     0.007 C 
ENDBRANCH   5  13
TORSDOF 1
ENDMDL
MODEL 3
REMARK VINA RESULT:    -0.888      1.852      4.670
REMARK INTER + INTRA:          -0.573
REMARK INTER:                  -0.648
REMARK INTRA:                   0.075
REMARK UNBOUND:                 0.367
REMARK SMILES CC1=C[C@H]2C(=C(C)CC[C@@H]2C(C)C)CC1
REMARK SMILES IDX 1 1 2 2 3 3 4 4 10 5 9 6 8 7 6 8 5 9 14 10 15 11 7 12 11 13
REMARK SMILES IDX 12 14 13 15
REMARK H PARENT
REMARK Flexibility Score: inf
ROOT
ATOM      1  C   UNL     1     141.442 141.378 131.499  1.00  0.00     0.039 C 
ATOM      2  C   UNL     1     142.770 142.063 131.329  1.00  0.00    -0.076 C 
ATOM      3  C   UNL     1     143.302 142.766 132.347  1.00  0.00    -0.020 C 
ATOM      4  C   UNL     1     144.622 143.483 132.144  1.00  0.00     0.041 C 
ATOM      5  C   UNL     1     145.018 144.364 133.382  1.00  0.00     0.003 C 
ATOM      6  C   UNL     1     144.615 145.828 133.119  1.00  0.00     0.009 C 
ATOM      7  C   UNL     1     145.284 146.351 131.849  1.00  0.00     0.031 C 
ATOM      8  C   UNL     1     144.888 145.520 130.653  1.00  0.00    -0.073 C 
ATOM      9  C   UNL     1     144.563 144.204 130.792  1.00  0.00    -0.064 C 
ATOM     10  C   UNL     1     144.016 143.409 129.606  1.00  0.00     0.036 C 
ATOM     11  C   UNL     1     143.516 142.009 130.011  1.00  0.00     0.035 C 
ATOM     12  C   UNL     1     144.874 146.196 129.301  1.00  0.00     0.039 C 
ENDROOT
BRANCH   5  13
ATOM     13  C   UNL     1     146.527 144.169 133.773  1.00  0.00    -0.013 C 
ATOM     14  C   UNL     1     147.366 143.508 132.663  1.00  0.00     0.007 C 
ATOM     15  C   UNL     1     147.185 145.519 134.125  1.00  0.00     0.007 C 
ENDBRANCH   5  13
TORSDOF 1
ENDMDL
MODEL 4
REMARK VINA RESULT:    -0.765      0.966      4.281
REMARK INTER + INTRA:          -0.442
REMARK INTER:                  -0.034
REMARK INTRA:                  -0.409
REMARK UNBOUND:                 0.367
REMARK SMILES CC1=C[C@H]2C(=C(C)CC[C@@H]2C(C)C)CC1
REMARK SMILES IDX 1 1 2 2 3 3 4 4 10 5 9 6 8 7 6 8 5 9 14 10 15 11 7 12 11 13
REMARK SMILES IDX 12 14 13 15
REMARK H PARENT
REMARK Flexibility Score: inf
ROOT
ATOM      1  C   UNL     1     147.624 142.347 132.573  1.00  0.00     0.039 C 
ATOM      2  C   UNL     1     146.829 143.541 132.122  1.00  0.00    -0.076 C 
ATOM      3  C   UNL     1     147.250 144.785 132.420  1.00  0.00    -0.020 C 
ATOM      4  C   UNL     1     146.416 145.975 131.991  1.00  0.00     0.041 C 
ATOM      5  C   UNL     1     146.981 147.331 132.544  1.00  0.00     0.003 C 
ATOM      6  C   UNL     1     146.208 147.727 133.817  1.00  0.00     0.009 C 
ATOM      7  C   UNL     1     144.714 147.846 133.524  1.00  0.00     0.031 C 
ATOM      8  C   UNL     1     144.162 146.538 133.012  1.00  0.00    -0.073 C 
ATOM      9  C   UNL     1     144.951 145.667 132.324  1.00  0.00    -0.064 C 
ATOM     10  C   UNL     1     144.430 144.281 131.944  1.00  0.00     0.036 C 
ATOM     11  C   UNL     1     145.530 143.374 131.359  1.00  0.00     0.035 C 
ATOM     12  C   UNL     1     142.706 146.236 133.283  1.00  0.00     0.039 C 
ENDROOT
BRANCH   5  13
ATOM     13  C   UNL     1     147.013 148.442 131.434  1.00  0.00    -0.013 C 
ATOM     14  C   UNL     1     148.372 149.159 131.325  1.00  0.00     0.007 C 
ATOM     15  C   UNL     1     146.676 147.850 130.050  1.00  0.00     0.007 C 
ENDBRANCH   5  13
TORSDOF 1
ENDMDL
MODEL 5
REMARK VINA RESULT:    -0.576      1.721      3.457
REMARK INTER + INTRA:          -0.243
REMARK INTER:                  -0.737
REMARK INTRA:                   0.494
REMARK UNBOUND:                 0.367
REMARK SMILES CC1=C[C@H]2C(=C(C)CC[C@@H]2C(C)C)CC1
REMARK SMILES IDX 1 1 2 2 3 3 4 4 10 5 9 6 8 7 6 8 5 9 14 10 15 11 7 12 11 13
REMARK SMILES IDX 12 14 13 15
REMARK H PARENT
REMARK Flexibility Score: inf
ROOT
ATOM      1  C   UNL     1     148.623 143.498 130.230  1.00  0.00     0.039 C 
ATOM      2  C   UNL     1     147.636 143.967 131.263  1.00  0.00    -0.076 C 
ATOM      3  C   UNL     1     146.360 144.218 130.912  1.00  0.00    -0.020 C 
ATOM      4  C   UNL     1     145.388 144.726 131.958  1.00  0.00     0.041 C 
ATOM      5  C   UNL     1     143.992 145.098 131.344  1.00  0.00     0.003 C 
ATOM      6  C   UNL     1     143.931 146.618 131.094  1.00  0.00     0.009 C 
ATOM      7  C   UNL     1     144.172 147.387 132.391  1.00  0.00     0.031 C 
ATOM      8  C   UNL     1     145.522 147.048 132.973  1.00  0.00    -0.073 C 
ATOM      9  C   UNL     1     146.092 145.830 132.757  1.00  0.00    -0.064 C 
ATOM     10  C   UNL     1     147.522 145.548 133.217  1.00  0.00     0.036 C 
ATOM     11  C   UNL     1     148.056 144.198 132.701  1.00  0.00     0.035 C 
ATOM     12  C   UNL     1     146.212 148.103 133.808  1.00  0.00     0.039 C 
ENDROOT
BRANCH   5  13
ATOM     13  C   UNL     1     142.809 144.538 132.212  1.00  0.00    -0.013 C 
ATOM     14  C   UNL     1     142.786 143.000 132.295  1.00  0.00     0.007 C 
ATOM     15  C   UNL     1     142.871 145.090 133.652  1.00  0.00     0.007 C 
ENDBRANCH   5  13
TORSDOF 1
ENDMDL
