MODEL 1
REMARK VINA RESULT:    -8.425      0.000      0.000
REMARK INTER + INTRA:         -13.119
REMARK INTER:                 -12.118
REMARK INTRA:                  -1.001
REMARK UNBOUND:                -1.001
REMARK SMILES O=c1cc(-c2ccc(O)c(O)c2)oc2cc(O[C@H]3O[C@H](CO)[C@H](O)[C@@H](O)[C@H]3O)cc(O)c12
REMARK SMILES IDX 17 1 16 2 4 3 3 4 13 5 2 6 14 7 1 8 32 9 15 10 30 11 29 12
REMARK SMILES IDX 5 13 6 14 7 15 8 16 12 17 10 18 9 19 11 21 31 23 18 25 27 26
REMARK SMILES IDX 19 27 25 28 20 29 23 30 28 31 26 33 21 35 22 36 24 38
REMARK H PARENT 9 20 11 22 31 24 28 32 26 34 22 37 24 39
REMARK Flexibility Score: inf
ROOT
ATOM      1  O   UNL     1     -34.661 -46.116  29.366  1.00  0.00    -0.462 OA
ENDROOT
BRANCH   1   2
ATOM      2  C   UNL     1     -34.725 -46.607  30.681  1.00  0.00     0.130 A 
ATOM      3  C   UNL     1     -32.228 -48.151  34.441  1.00  0.00     0.138 A 
ATOM      4  C   UNL     1     -33.389 -48.384  35.197  1.00  0.00     0.100 A 
ATOM      5  O   UNL     1     -32.338 -47.682  33.200  1.00  0.00    -0.456 OA
ATOM      6  C   UNL     1     -34.637 -48.103  34.640  1.00  0.00     0.197 A 
ATOM      7  C   UNL     1     -33.504 -47.401  32.626  1.00  0.00     0.146 A 
ATOM      8  O   UNL     1     -35.674 -48.316  35.326  1.00  0.00    -0.289 OA
ATOM      9  C   UNL     1     -34.716 -47.597  33.328  1.00  0.00     0.107 A 
ATOM     10  C   UNL     1     -33.519 -46.908  31.320  1.00  0.00     0.094 A 
ATOM     11  C   UNL     1     -35.939 -47.285  32.690  1.00  0.00     0.134 A 
ATOM     12  C   UNL     1     -35.935 -46.789  31.378  1.00  0.00     0.093 A 
BRANCH   3  13
ATOM     13  C   UNL     1     -30.873 -48.431  34.979  1.00  0.00     0.021 A 
ATOM     14  C   UNL     1     -29.780 -47.665  34.535  1.00  0.00     0.016 A 
ATOM     15  C   UNL     1     -28.497 -47.904  35.032  1.00  0.00     0.051 A 
ATOM     16  C   UNL     1     -28.282 -48.900  35.986  1.00  0.00     0.157 A 
ATOM     17  C   UNL     1     -30.653 -49.426  35.951  1.00  0.00     0.062 A 
ATOM     18  C   UNL     1     -29.364 -49.665  36.452  1.00  0.00     0.158 A 
BRANCH  16  19
ATOM     19  O   UNL     1     -26.988 -49.116  36.462  1.00  0.00    -0.504 OA
ATOM     20  H   UNL     1     -26.799 -49.727  37.247  1.00  0.00     0.293 HD
ENDBRANCH  16  19
BRANCH  18  21
ATOM     21  O   UNL     1     -29.158 -50.654  37.412  1.00  0.00    -0.504 OA
ATOM     22  H   UNL     1     -29.615 -51.556  37.352  1.00  0.00     0.293 HD
ENDBRANCH  18  21
ENDBRANCH   3  13
BRANCH  11  23
ATOM     23  O   UNL     1     -37.155 -47.460  33.351  1.00  0.00    -0.507 OA
ATOM     24  H   UNL     1     -37.903 -48.017  32.954  1.00  0.00     0.293 HD
ENDBRANCH  11  23
ENDBRANCH   1   2
BRANCH   1  25
ATOM     25  C   UNL     1     -34.828 -44.755  28.946  1.00  0.00     0.339 C 
ATOM     26  C   UNL     1     -35.849 -44.614  27.787  1.00  0.00     0.214 C 
ATOM     27  O   UNL     1     -33.576 -44.195  28.584  1.00  0.00    -0.332 OA
ATOM     28  C   UNL     1     -35.302 -45.176  26.457  1.00  0.00     0.180 C 
ATOM     29  C   UNL     1     -32.986 -44.891  27.496  1.00  0.00     0.179 C 
ATOM     30  C   UNL     1     -33.838 -44.739  26.210  1.00  0.00     0.177 C 
BRANCH  26  31
ATOM     31  O   UNL     1     -37.064 -45.243  28.101  1.00  0.00    -0.384 OA
ATOM     32  H   UNL     1     -37.322 -45.786  27.311  1.00  0.00     0.211 HD
ENDBRANCH  26  31
BRANCH  28  33
ATOM     33  O   UNL     1     -35.445 -46.575  26.384  1.00  0.00    -0.387 OA
ATOM     34  H   UNL     1     -34.691 -46.941  25.857  1.00  0.00     0.211 HD
ENDBRANCH  28  33
BRANCH  29  35
ATOM     35  C   UNL     1     -31.561 -44.360  27.277  1.00  0.00     0.191 C 
BRANCH  35  36
ATOM     36  O   UNL     1     -31.565 -42.960  27.209  1.00  0.00    -0.394 OA
ATOM     37  H   UNL     1     -30.907 -42.639  27.879  1.00  0.00     0.210 HD
ENDBRANCH  35  36
ENDBRANCH  29  35
BRANCH  30  38
ATOM     38  O   UNL     1     -33.794 -43.423  25.712  1.00  0.00    -0.387 OA
ATOM     39  H   UNL     1     -34.474 -42.887  26.197  1.00  0.00     0.211 HD
ENDBRANCH  30  38
ENDBRANCH   1  25
TORSDOF 11
ENDMDL
MODEL 2
REMARK VINA RESULT:    -8.318      7.964     12.688
REMARK INTER + INTRA:         -12.966
REMARK INTER:                 -11.968
REMARK INTRA:                  -0.997
REMARK UNBOUND:                -1.001
REMARK SMILES O=c1cc(-c2ccc(O)c(O)c2)oc2cc(O[C@H]3O[C@H](CO)[C@H](O)[C@@H](O)[C@H]3O)cc(O)c12
REMARK SMILES IDX 17 1 16 2 4 3 3 4 13 5 2 6 14 7 1 8 32 9 15 10 30 11 29 12
REMARK SMILES IDX 5 13 6 14 7 15 8 16 12 17 10 18 9 19 11 21 31 23 18 25 27 26
REMARK SMILES IDX 19 27 25 28 20 29 23 30 28 31 26 33 21 35 22 36 24 38
REMARK H PARENT 9 20 11 22 31 24 28 32 26 34 22 37 24 39
REMARK Flexibility Score: inf
ROOT
ATOM      1  O   UNL     1     -26.962 -52.807  28.718  1.00  0.00    -0.462 OA
ENDROOT
BRANCH   1   2
ATOM      2  C   UNL     1     -27.409 -52.949  27.394  1.00  0.00     0.130 A 
ATOM      3  C   UNL     1     -29.210 -50.723  23.579  1.00  0.00     0.138 A 
ATOM      4  C   UNL     1     -29.258 -51.910  22.830  1.00  0.00     0.100 A 
ATOM      5  O   UNL     1     -28.758 -50.757  24.831  1.00  0.00    -0.456 OA
ATOM      6  C   UNL     1     -28.815 -53.102  23.404  1.00  0.00     0.197 A 
ATOM      7  C   UNL     1     -28.326 -51.867  25.421  1.00  0.00     0.146 A 
ATOM      8  O   UNL     1     -28.863 -54.163  22.724  1.00  0.00    -0.289 OA
ATOM      9  C   UNL     1     -28.332 -53.099  24.728  1.00  0.00     0.107 A 
ATOM     10  C   UNL     1     -27.865 -51.803  26.738  1.00  0.00     0.094 A 
ATOM     11  C   UNL     1     -27.863 -54.261  25.383  1.00  0.00     0.134 A 
ATOM     12  C   UNL     1     -27.402 -54.177  26.706  1.00  0.00     0.093 A 
BRANCH   3  13
ATOM     13  C   UNL     1     -29.668 -49.425  23.022  1.00  0.00     0.021 A 
ATOM     14  C   UNL     1     -28.914 -48.263  23.264  1.00  0.00     0.016 A 
ATOM     15  C   UNL     1     -29.320 -47.032  22.744  1.00  0.00     0.051 A 
ATOM     16  C   UNL     1     -30.476 -46.939  21.967  1.00  0.00     0.157 A 
ATOM     17  C   UNL     1     -30.827 -49.328  22.227  1.00  0.00     0.062 A 
ATOM     18  C   UNL     1     -31.234 -48.092  21.704  1.00  0.00     0.158 A 
BRANCH  16  19
ATOM     19  O   UNL     1     -30.856 -45.694  21.464  1.00  0.00    -0.504 OA
ATOM     20  H   UNL     1     -31.238 -45.584  20.532  1.00  0.00     0.293 HD
ENDBRANCH  16  19
BRANCH  18  21
ATOM     21  O   UNL     1     -32.384 -48.006  20.920  1.00  0.00    -0.504 OA
ATOM     22  H   UNL     1     -33.138 -47.372  21.151  1.00  0.00     0.293 HD
ENDBRANCH  18  21
ENDBRANCH   3  13
BRANCH  11  23
ATOM     23  O   UNL     1     -27.848 -55.493  24.730  1.00  0.00    -0.507 OA
ATOM     24  H   UNL     1     -27.036 -56.099  24.754  1.00  0.00     0.293 HD
ENDBRANCH  11  23
ENDBRANCH   1   2
BRANCH   1  25
ATOM     25  C   UNL     1     -25.604 -52.861  29.179  1.00  0.00     0.339 C 
ATOM     26  C   UNL     1     -25.411 -53.879  30.332  1.00  0.00     0.214 C 
ATOM     27  O   UNL     1     -25.167 -51.569  29.570  1.00  0.00    -0.332 OA
ATOM     28  C   UNL     1     -26.057 -53.399  31.649  1.00  0.00     0.180 C 
ATOM     29  C   UNL     1     -25.944 -51.054  30.641  1.00  0.00     0.179 C 
ATOM     30  C   UNL     1     -25.757 -51.906  31.923  1.00  0.00     0.177 C 
BRANCH  26  31
ATOM     31  O   UNL     1     -25.922 -55.140  29.988  1.00  0.00    -0.384 OA
ATOM     32  H   UNL     1     -26.183 -55.095  29.031  1.00  0.00     0.211 HD
ENDBRANCH  26  31
BRANCH  28  33
ATOM     33  O   UNL     1     -27.440 -53.664  31.678  1.00  0.00    -0.387 OA
ATOM     34  H   UNL     1     -27.619 -54.324  32.393  1.00  0.00     0.211 HD
ENDBRANCH  28  33
BRANCH  29  35
ATOM     35  C   UNL     1     -25.546 -49.591  30.889  1.00  0.00     0.191 C 
BRANCH  35  36
ATOM     36  O   UNL     1     -24.151 -49.467  30.949  1.00  0.00    -0.394 OA
ATOM     37  H   UNL     1     -23.842 -49.264  30.028  1.00  0.00     0.210 HD
ENDBRANCH  35  36
ENDBRANCH  29  35
BRANCH  30  38
ATOM     38  O   UNL     1     -24.465 -51.753  32.462  1.00  0.00    -0.387 OA
ATOM     39  H   UNL     1     -24.333 -50.794  32.676  1.00  0.00     0.211 HD
ENDBRANCH  30  38
ENDBRANCH   1  25
TORSDOF 11
ENDMDL
MODEL 3
REMARK VINA RESULT:    -8.248      4.429      9.662
REMARK INTER + INTRA:         -12.865
REMARK INTER:                 -11.870
REMARK INTRA:                  -0.994
REMARK UNBOUND:                -1.001
REMARK SMILES O=c1cc(-c2ccc(O)c(O)c2)oc2cc(O[C@H]3O[C@H](CO)[C@H](O)[C@@H](O)[C@H]3O)cc(O)c12
REMARK SMILES IDX 17 1 16 2 4 3 3 4 13 5 2 6 14 7 1 8 32 9 15 10 30 11 29 12
REMARK SMILES IDX 5 13 6 14 7 15 8 16 12 17 10 18 9 19 11 21 31 23 18 25 27 26
REMARK SMILES IDX 19 27 25 28 20 29 23 30 28 31 26 33 21 35 22 36 24 38
REMARK H PARENT 9 20 11 22 31 24 28 32 26 34 22 37 24 39
REMARK Flexibility Score: inf
ROOT
ATOM      1  O   UNL     1     -33.876 -45.207  28.688  1.00  0.00    -0.462 OA
ENDROOT
BRANCH   1   2
ATOM      2  C   UNL     1     -33.411 -45.076  27.368  1.00  0.00     0.130 A 
ATOM      3  C   UNL     1     -31.561 -47.334  23.595  1.00  0.00     0.138 A 
ATOM      4  C   UNL     1     -31.502 -46.153  22.837  1.00  0.00     0.100 A 
ATOM      5  O   UNL     1     -32.030 -47.290  24.840  1.00  0.00    -0.456 OA
ATOM      6  C   UNL     1     -31.951 -44.955  23.396  1.00  0.00     0.197 A 
ATOM      7  C   UNL     1     -32.469 -46.174  25.416  1.00  0.00     0.146 A 
ATOM      8  O   UNL     1     -31.893 -43.900  22.709  1.00  0.00    -0.289 OA
ATOM      9  C   UNL     1     -32.452 -44.948  24.713  1.00  0.00     0.107 A 
ATOM     10  C   UNL     1     -32.948 -46.228  26.727  1.00  0.00     0.094 A 
ATOM     11  C   UNL     1     -32.929 -43.781  25.353  1.00  0.00     0.134 A 
ATOM     12  C   UNL     1     -33.407 -43.854  26.670  1.00  0.00     0.093 A 
BRANCH   3  13
ATOM     13  C   UNL     1     -31.097 -48.636  23.054  1.00  0.00     0.021 A 
ATOM     14  C   UNL     1     -31.803 -49.809  23.374  1.00  0.00     0.016 A 
ATOM     15  C   UNL     1     -31.391 -51.046  22.872  1.00  0.00     0.051 A 
ATOM     16  C   UNL     1     -30.277 -51.133  22.034  1.00  0.00     0.157 A 
ATOM     17  C   UNL     1     -29.982 -48.728  22.198  1.00  0.00     0.062 A 
ATOM     18  C   UNL     1     -29.569 -49.969  21.692  1.00  0.00     0.158 A 
BRANCH  16  19
ATOM     19  O   UNL     1     -29.890 -52.383  21.550  1.00  0.00    -0.504 OA
ATOM     20  H   UNL     1     -28.964 -52.761  21.717  1.00  0.00     0.293 HD
ENDBRANCH  16  19
BRANCH  18  21
ATOM     21  O   UNL     1     -28.463 -50.049  20.847  1.00  0.00    -0.504 OA
ATOM     22  H   UNL     1     -27.520 -50.115  21.212  1.00  0.00     0.293 HD
ENDBRANCH  18  21
ENDBRANCH   3  13
BRANCH  11  23
ATOM     23  O   UNL     1     -32.934 -42.553  24.691  1.00  0.00    -0.507 OA
ATOM     24  H   UNL     1     -32.585 -41.709  25.130  1.00  0.00     0.293 HD
ENDBRANCH  11  23
ENDBRANCH   1   2
BRANCH   1  25
ATOM     25  C   UNL     1     -35.242 -45.183  29.126  1.00  0.00     0.339 C 
ATOM     26  C   UNL     1     -35.473 -44.182  30.287  1.00  0.00     0.214 C 
ATOM     27  O   UNL     1     -35.663 -46.487  29.494  1.00  0.00    -0.332 OA
ATOM     28  C   UNL     1     -34.840 -44.666  31.609  1.00  0.00     0.180 C 
ATOM     29  C   UNL     1     -34.895 -47.001  30.572  1.00  0.00     0.179 C 
ATOM     30  C   UNL     1     -35.119 -46.167  31.860  1.00  0.00     0.177 C 
BRANCH  26  31
ATOM     31  O   UNL     1     -34.978 -42.908  29.965  1.00  0.00    -0.384 OA
ATOM     32  H   UNL     1     -34.100 -43.042  29.522  1.00  0.00     0.211 HD
ENDBRANCH  26  31
BRANCH  28  33
ATOM     33  O   UNL     1     -33.463 -44.378  31.664  1.00  0.00    -0.387 OA
ATOM     34  H   UNL     1     -33.051 -44.944  32.364  1.00  0.00     0.211 HD
ENDBRANCH  28  33
BRANCH  29  35
ATOM     35  C   UNL     1     -35.271 -48.473  30.797  1.00  0.00     0.191 C 
BRANCH  35  36
ATOM     36  O   UNL     1     -36.664 -48.616  30.876  1.00  0.00    -0.394 OA
ATOM     37  H   UNL     1     -36.905 -48.534  31.835  1.00  0.00     0.210 HD
ENDBRANCH  35  36
ENDBRANCH  29  35
BRANCH  30  38
ATOM     38  O   UNL     1     -36.417 -46.349  32.376  1.00  0.00    -0.387 OA
ATOM     39  H   UNL     1     -36.350 -46.404  33.364  1.00  0.00     0.211 HD
ENDBRANCH  30  38
ENDBRANCH   1  25
TORSDOF 11
ENDMDL
MODEL 4
REMARK VINA RESULT:    -8.110      7.831      9.400
REMARK INTER + INTRA:         -12.667
REMARK INTER:                 -11.646
REMARK INTRA:                  -1.021
REMARK UNBOUND:                -1.001
REMARK SMILES O=c1cc(-c2ccc(O)c(O)c2)oc2cc(O[C@H]3O[C@H](CO)[C@H](O)[C@@H](O)[C@H]3O)cc(O)c12
REMARK SMILES IDX 17 1 16 2 4 3 3 4 13 5 2 6 14 7 1 8 32 9 15 10 30 11 29 12
REMARK SMILES IDX 5 13 6 14 7 15 8 16 12 17 10 18 9 19 11 21 31 23 18 25 27 26
REMARK SMILES IDX 19 27 25 28 20 29 23 30 28 31 26 33 21 35 22 36 24 38
REMARK H PARENT 9 20 11 22 31 24 28 32 26 34 22 37 24 39
REMARK Flexibility Score: inf
ROOT
ATOM      1  O   UNL     1     -30.160 -49.424  23.028  1.00  0.00    -0.462 OA
ENDROOT
BRANCH   1   2
ATOM      2  C   UNL     1     -29.599 -50.657  23.401  1.00  0.00     0.130 A 
ATOM      3  C   UNL     1     -27.205 -53.045  26.765  1.00  0.00     0.138 A 
ATOM      4  C   UNL     1     -27.204 -54.231  26.012  1.00  0.00     0.100 A 
ATOM      5  O   UNL     1     -27.782 -51.954  26.266  1.00  0.00    -0.456 OA
ATOM      6  C   UNL     1     -27.822 -54.250  24.761  1.00  0.00     0.197 A 
ATOM      7  C   UNL     1     -28.382 -51.923  25.081  1.00  0.00     0.146 A 
ATOM      8  O   UNL     1     -27.815 -55.319  24.092  1.00  0.00    -0.289 OA
ATOM      9  C   UNL     1     -28.433 -53.079  24.270  1.00  0.00     0.107 A 
ATOM     10  C   UNL     1     -28.965 -50.731  24.643  1.00  0.00     0.094 A 
ATOM     11  C   UNL     1     -29.082 -53.014  23.015  1.00  0.00     0.134 A 
ATOM     12  C   UNL     1     -29.663 -51.808  22.593  1.00  0.00     0.093 A 
BRANCH   3  13
ATOM     13  C   UNL     1     -26.562 -52.965  28.101  1.00  0.00     0.021 A 
ATOM     14  C   UNL     1     -26.052 -51.734  28.550  1.00  0.00     0.016 A 
ATOM     15  C   UNL     1     -25.449 -51.630  29.806  1.00  0.00     0.051 A 
ATOM     16  C   UNL     1     -25.355 -52.747  30.639  1.00  0.00     0.157 A 
ATOM     17  C   UNL     1     -26.476 -54.085  28.950  1.00  0.00     0.062 A 
ATOM     18  C   UNL     1     -25.873 -53.981  30.212  1.00  0.00     0.158 A 
BRANCH  16  19
ATOM     19  O   UNL     1     -24.746 -52.612  31.887  1.00  0.00    -0.504 OA
ATOM     20  H   UNL     1     -24.839 -53.316  32.610  1.00  0.00     0.293 HD
ENDBRANCH  16  19
BRANCH  18  21
ATOM     21  O   UNL     1     -25.791 -55.097  31.044  1.00  0.00    -0.504 OA
ATOM     22  H   UNL     1     -26.446 -55.243  31.802  1.00  0.00     0.293 HD
ENDBRANCH  18  21
ENDBRANCH   3  13
BRANCH  11  23
ATOM     23  O   UNL     1     -29.158 -54.135  22.189  1.00  0.00    -0.507 OA
ATOM     24  H   UNL     1     -29.637 -54.980  22.479  1.00  0.00     0.293 HD
ENDBRANCH  11  23
ENDBRANCH   1   2
BRANCH   1  25
ATOM     25  C   UNL     1     -31.509 -49.185  22.602  1.00  0.00     0.339 C 
ATOM     26  C   UNL     1     -31.586 -48.210  21.399  1.00  0.00     0.214 C 
ATOM     27  O   UNL     1     -32.291 -48.709  23.686  1.00  0.00    -0.332 OA
ATOM     28  C   UNL     1     -31.237 -46.761  21.799  1.00  0.00     0.180 C 
ATOM     29  C   UNL     1     -31.795 -47.477  24.187  1.00  0.00     0.179 C 
ATOM     30  C   UNL     1     -31.921 -46.354  23.126  1.00  0.00     0.177 C 
BRANCH  26  31
ATOM     31  O   UNL     1     -30.747 -48.627  20.353  1.00  0.00    -0.384 OA
ATOM     32  H   UNL     1     -30.849 -47.966  19.619  1.00  0.00     0.211 HD
ENDBRANCH  26  31
BRANCH  28  33
ATOM     33  O   UNL     1     -29.845 -46.555  21.849  1.00  0.00    -0.387 OA
ATOM     34  H   UNL     1     -29.558 -46.573  22.796  1.00  0.00     0.211 HD
ENDBRANCH  28  33
BRANCH  29  35
ATOM     35  C   UNL     1     -32.562 -47.113  25.467  1.00  0.00     0.191 C 
BRANCH  35  36
ATOM     36  O   UNL     1     -33.930 -47.382  25.312  1.00  0.00    -0.394 OA
ATOM     37  H   UNL     1     -34.023 -47.918  24.482  1.00  0.00     0.210 HD
ENDBRANCH  35  36
ENDBRANCH  29  35
BRANCH  30  38
ATOM     38  O   UNL     1     -33.266 -46.003  22.900  1.00  0.00    -0.387 OA
ATOM     39  H   UNL     1     -33.837 -46.729  23.261  1.00  0.00     0.211 HD
ENDBRANCH  30  38
ENDBRANCH   1  25
TORSDOF 11
ENDMDL
MODEL 5
REMARK VINA RESULT:    -8.013      5.021      8.581
REMARK INTER + INTRA:         -12.527
REMARK INTER:                 -11.574
REMARK INTRA:                  -0.954
REMARK UNBOUND:                -1.001
REMARK SMILES O=c1cc(-c2ccc(O)c(O)c2)oc2cc(O[C@H]3O[C@H](CO)[C@H](O)[C@@H](O)[C@H]3O)cc(O)c12
REMARK SMILES IDX 17 1 16 2 4 3 3 4 13 5 2 6 14 7 1 8 32 9 15 10 30 11 29 12
REMARK SMILES IDX 5 13 6 14 7 15 8 16 12 17 10 18 9 19 11 21 31 23 18 25 27 26
REMARK SMILES IDX 19 27 25 28 20 29 23 30 28 31 26 33 21 35 22 36 24 38
REMARK H PARENT 9 20 11 22 31 24 28 32 26 34 22 37 24 39
REMARK Flexibility Score: inf
ROOT
ATOM      1  O   UNL     1     -30.753 -48.551  34.533  1.00  0.00    -0.462 OA
ENDROOT
BRANCH   1   2
ATOM      2  C   UNL     1     -29.437 -49.034  34.441  1.00  0.00     0.130 A 
ATOM      3  C   UNL     1     -26.290 -51.428  31.773  1.00  0.00     0.138 A 
ATOM      4  C   UNL     1     -25.275 -51.291  32.733  1.00  0.00     0.100 A 
ATOM      5  O   UNL     1     -27.492 -50.910  32.013  1.00  0.00    -0.456 OA
ATOM      6  C   UNL     1     -25.538 -50.599  33.917  1.00  0.00     0.197 A 
ATOM      7  C   UNL     1     -27.792 -50.244  33.124  1.00  0.00     0.146 A 
ATOM      8  O   UNL     1     -24.621 -50.482  34.773  1.00  0.00    -0.289 OA
ATOM      9  C   UNL     1     -26.820 -50.055  34.132  1.00  0.00     0.107 A 
ATOM     10  C   UNL     1     -29.082 -49.733  33.285  1.00  0.00     0.094 A 
ATOM     11  C   UNL     1     -27.170 -49.339  35.301  1.00  0.00     0.134 A 
ATOM     12  C   UNL     1     -28.470 -48.832  35.445  1.00  0.00     0.093 A 
BRANCH   3  13
ATOM     13  C   UNL     1     -26.068 -52.153  30.496  1.00  0.00     0.021 A 
ATOM     14  C   UNL     1     -25.811 -51.423  29.322  1.00  0.00     0.016 A 
ATOM     15  C   UNL     1     -25.592 -52.082  28.110  1.00  0.00     0.051 A 
ATOM     16  C   UNL     1     -25.614 -53.477  28.049  1.00  0.00     0.157 A 
ATOM     17  C   UNL     1     -26.077 -53.560  30.432  1.00  0.00     0.062 A 
ATOM     18  C   UNL     1     -25.855 -54.222  29.215  1.00  0.00     0.158 A 
BRANCH  16  19
ATOM     19  O   UNL     1     -25.393 -54.106  26.823  1.00  0.00    -0.504 OA
ATOM     20  H   UNL     1     -26.019 -53.983  26.036  1.00  0.00     0.293 HD
ENDBRANCH  16  19
BRANCH  18  21
ATOM     21  O   UNL     1     -25.868 -55.615  29.163  1.00  0.00    -0.504 OA
ATOM     22  H   UNL     1     -26.631 -56.154  29.555  1.00  0.00     0.293 HD
ENDBRANCH  18  21
ENDBRANCH   3  13
BRANCH  11  23
ATOM     23  O   UNL     1     -26.237 -49.126  36.316  1.00  0.00    -0.507 OA
ATOM     24  H   UNL     1     -25.471 -49.770  36.480  1.00  0.00     0.293 HD
ENDBRANCH  11  23
ENDBRANCH   1   2
BRANCH   1  25
ATOM     25  C   UNL     1     -31.311 -47.770  35.599  1.00  0.00     0.339 C 
ATOM     26  C   UNL     1     -32.629 -48.374  36.147  1.00  0.00     0.214 C 
ATOM     27  O   UNL     1     -31.510 -46.430  35.175  1.00  0.00    -0.332 OA
ATOM     28  C   UNL     1     -33.798 -48.228  35.150  1.00  0.00     0.180 C 
ATOM     29  C   UNL     1     -32.422 -46.354  34.089  1.00  0.00     0.179 C 
ATOM     30  C   UNL     1     -33.838 -46.815  34.519  1.00  0.00     0.177 C 
BRANCH  26  31
ATOM     31  O   UNL     1     -32.465 -49.726  36.487  1.00  0.00    -0.384 OA
ATOM     32  H   UNL     1     -31.892 -49.754  37.297  1.00  0.00     0.211 HD
ENDBRANCH  26  31
BRANCH  28  33
ATOM     33  O   UNL     1     -33.772 -49.234  34.165  1.00  0.00    -0.387 OA
ATOM     34  H   UNL     1     -34.645 -49.702  34.171  1.00  0.00     0.211 HD
ENDBRANCH  28  33
BRANCH  29  35
ATOM     35  C   UNL     1     -32.449 -44.913  33.559  1.00  0.00     0.191 C 
BRANCH  35  36
ATOM     36  O   UNL     1     -33.648 -44.665  32.876  1.00  0.00    -0.394 OA
ATOM     37  H   UNL     1     -34.282 -45.380  33.141  1.00  0.00     0.210 HD
ENDBRANCH  35  36
ENDBRANCH  29  35
BRANCH  30  38
ATOM     38  O   UNL     1     -34.435 -45.897  35.405  1.00  0.00    -0.387 OA
ATOM     39  H   UNL     1     -35.033 -45.306  34.878  1.00  0.00     0.211 HD
ENDBRANCH  30  38
ENDBRANCH   1  25
TORSDOF 11
ENDMDL
MODEL 6
REMARK VINA RESULT:    -8.009      5.982     10.080
REMARK INTER + INTRA:         -12.521
REMARK INTER:                 -11.575
REMARK INTRA:                  -0.947
REMARK UNBOUND:                -1.001
REMARK SMILES O=c1cc(-c2ccc(O)c(O)c2)oc2cc(O[C@H]3O[C@H](CO)[C@H](O)[C@@H](O)[C@H]3O)cc(O)c12
REMARK SMILES IDX 17 1 16 2 4 3 3 4 13 5 2 6 14 7 1 8 32 9 15 10 30 11 29 12
REMARK SMILES IDX 5 13 6 14 7 15 8 16 12 17 10 18 9 19 11 21 31 23 18 25 27 26
REMARK SMILES IDX 19 27 25 28 20 29 23 30 28 31 26 33 21 35 22 36 24 38
REMARK H PARENT 9 20 11 22 31 24 28 32 26 34 22 37 24 39
REMARK Flexibility Score: inf
ROOT
ATOM      1  O   UNL     1     -29.766 -49.297  23.587  1.00  0.00    -0.462 OA
ENDROOT
BRANCH   1   2
ATOM      2  C   UNL     1     -30.428 -48.062  23.675  1.00  0.00     0.130 A 
ATOM      3  C   UNL     1     -33.269 -45.290  26.322  1.00  0.00     0.138 A 
ATOM      4  C   UNL     1     -33.262 -44.261  25.366  1.00  0.00     0.100 A 
ATOM      5  O   UNL     1     -32.586 -46.408  26.085  1.00  0.00    -0.456 OA
ATOM      6  C   UNL     1     -32.527 -44.421  24.191  1.00  0.00     0.197 A 
ATOM      7  C   UNL     1     -31.872 -46.607  24.981  1.00  0.00     0.146 A 
ATOM      8  O   UNL     1     -32.527 -43.493  23.338  1.00  0.00    -0.289 OA
ATOM      9  C   UNL     1     -31.806 -45.614  23.978  1.00  0.00     0.107 A 
ATOM     10  C   UNL     1     -31.184 -47.813  24.824  1.00  0.00     0.094 A 
ATOM     11  C   UNL     1     -31.035 -45.855  22.818  1.00  0.00     0.134 A 
ATOM     12  C   UNL     1     -30.350 -47.072  22.677  1.00  0.00     0.093 A 
BRANCH   3  13
ATOM     13  C   UNL     1     -34.033 -45.177  27.589  1.00  0.00     0.021 A 
ATOM     14  C   UNL     1     -33.349 -44.912  28.789  1.00  0.00     0.016 A 
ATOM     15  C   UNL     1     -34.046 -44.793  29.993  1.00  0.00     0.051 A 
ATOM     16  C   UNL     1     -35.436 -44.926  30.022  1.00  0.00     0.157 A 
ATOM     17  C   UNL     1     -35.436 -45.297  27.622  1.00  0.00     0.062 A 
ATOM     18  C   UNL     1     -36.137 -45.176  28.831  1.00  0.00     0.158 A 
BRANCH  16  19
ATOM     19  O   UNL     1     -36.103 -44.804  31.241  1.00  0.00    -0.504 OA
ATOM     20  H   UNL     1     -37.078 -45.059  31.348  1.00  0.00     0.293 HD
ENDBRANCH  16  19
BRANCH  18  21
ATOM     21  O   UNL     1     -37.526 -45.299  28.852  1.00  0.00    -0.504 OA
ATOM     22  H   UNL     1     -38.007 -45.984  28.282  1.00  0.00     0.293 HD
ENDBRANCH  18  21
ENDBRANCH   3  13
BRANCH  11  23
ATOM     23  O   UNL     1     -30.941 -44.897  21.809  1.00  0.00    -0.507 OA
ATOM     24  H   UNL     1     -31.551 -44.914  20.999  1.00  0.00     0.293 HD
ENDBRANCH  11  23
ENDBRANCH   1   2
BRANCH   1  25
ATOM     25  C   UNL     1     -28.976 -49.774  22.488  1.00  0.00     0.339 C 
ATOM     26  C   UNL     1     -29.411 -51.184  22.014  1.00  0.00     0.214 C 
ATOM     27  O   UNL     1     -27.599 -49.762  22.831  1.00  0.00    -0.332 OA
ATOM     28  C   UNL     1     -29.037 -52.284  23.030  1.00  0.00     0.180 C 
ATOM     29  C   UNL     1     -27.326 -50.615  23.933  1.00  0.00     0.179 C 
ATOM     30  C   UNL     1     -27.599 -52.097  23.570  1.00  0.00     0.177 C 
BRANCH  26  31
ATOM     31  O   UNL     1     -30.791 -51.229  21.756  1.00  0.00    -0.384 OA
ATOM     32  H   UNL     1     -31.234 -50.679  22.454  1.00  0.00     0.211 HD
ENDBRANCH  26  31
BRANCH  28  33
ATOM     33  O   UNL     1     -29.976 -52.369  24.075  1.00  0.00    -0.387 OA
ATOM     34  H   UNL     1     -30.449 -51.502  24.145  1.00  0.00     0.211 HD
ENDBRANCH  28  33
BRANCH  29  35
ATOM     35  C   UNL     1     -25.867 -50.415  24.371  1.00  0.00     0.191 C 
BRANCH  35  36
ATOM     36  O   UNL     1     -25.433 -51.503  25.142  1.00  0.00    -0.394 OA
ATOM     37  H   UNL     1     -25.763 -52.322  24.690  1.00  0.00     0.210 HD
ENDBRANCH  35  36
ENDBRANCH  29  35
BRANCH  30  38
ATOM     38  O   UNL     1     -26.657 -52.585  22.644  1.00  0.00    -0.387 OA
ATOM     39  H   UNL     1     -26.999 -53.443  22.280  1.00  0.00     0.211 HD
ENDBRANCH  30  38
ENDBRANCH   1  25
TORSDOF 11
ENDMDL
MODEL 7
REMARK VINA RESULT:    -7.945      1.747      8.923
REMARK INTER + INTRA:         -12.430
REMARK INTER:                 -11.414
REMARK INTRA:                  -1.016
REMARK UNBOUND:                -1.001
REMARK SMILES O=c1cc(-c2ccc(O)c(O)c2)oc2cc(O[C@H]3O[C@H](CO)[C@H](O)[C@@H](O)[C@H]3O)cc(O)c12
REMARK SMILES IDX 17 1 16 2 4 3 3 4 13 5 2 6 14 7 1 8 32 9 15 10 30 11 29 12
REMARK SMILES IDX 5 13 6 14 7 15 8 16 12 17 10 18 9 19 11 21 31 23 18 25 27 26
REMARK SMILES IDX 19 27 25 28 20 29 23 30 28 31 26 33 21 35 22 36 24 38
REMARK H PARENT 9 20 11 22 31 24 28 32 26 34 22 37 24 39
REMARK Flexibility Score: inf
ROOT
ATOM      1  O   UNL     1     -30.635 -49.000  35.261  1.00  0.00    -0.462 OA
ENDROOT
BRANCH   1   2
ATOM      2  C   UNL     1     -31.951 -48.643  34.922  1.00  0.00     0.130 A 
ATOM      3  C   UNL     1     -34.759 -46.532  31.695  1.00  0.00     0.138 A 
ATOM      4  C   UNL     1     -35.917 -46.774  32.451  1.00  0.00     0.100 A 
ATOM      5  O   UNL     1     -33.578 -46.936  32.159  1.00  0.00    -0.456 OA
ATOM      6  C   UNL     1     -35.814 -47.448  33.668  1.00  0.00     0.197 A 
ATOM      7  C   UNL     1     -33.429 -47.581  33.312  1.00  0.00     0.146 A 
ATOM      8  O   UNL     1     -36.859 -47.660  34.340  1.00  0.00    -0.289 OA
ATOM      9  C   UNL     1     -34.549 -47.871  34.123  1.00  0.00     0.107 A 
ATOM     10  C   UNL     1     -32.149 -47.969  33.714  1.00  0.00     0.094 A 
ATOM     11  C   UNL     1     -34.357 -48.562  35.342  1.00  0.00     0.134 A 
ATOM     12  C   UNL     1     -33.064 -48.945  35.729  1.00  0.00     0.093 A 
BRANCH   3  13
ATOM     13  C   UNL     1     -34.807 -45.819  30.393  1.00  0.00     0.021 A 
ATOM     14  C   UNL     1     -33.667 -45.133  29.938  1.00  0.00     0.016 A 
ATOM     15  C   UNL     1     -33.685 -44.460  28.713  1.00  0.00     0.051 A 
ATOM     16  C   UNL     1     -34.833 -44.469  27.918  1.00  0.00     0.157 A 
ATOM     17  C   UNL     1     -35.958 -45.836  29.582  1.00  0.00     0.062 A 
ATOM     18  C   UNL     1     -35.975 -45.162  28.351  1.00  0.00     0.158 A 
BRANCH  16  19
ATOM     19  O   UNL     1     -34.820 -43.787  26.702  1.00  0.00    -0.504 OA
ATOM     20  H   UNL     1     -35.170 -42.840  26.612  1.00  0.00     0.293 HD
ENDBRANCH  16  19
BRANCH  18  21
ATOM     21  O   UNL     1     -37.121 -45.183  27.557  1.00  0.00    -0.504 OA
ATOM     22  H   UNL     1     -37.109 -44.856  26.599  1.00  0.00     0.293 HD
ENDBRANCH  18  21
ENDBRANCH   3  13
BRANCH  11  23
ATOM     23  O   UNL     1     -35.438 -48.872  36.167  1.00  0.00    -0.507 OA
ATOM     24  H   UNL     1     -35.338 -48.944  37.173  1.00  0.00     0.293 HD
ENDBRANCH  11  23
ENDBRANCH   1   2
BRANCH   1  25
ATOM     25  C   UNL     1     -30.144 -50.320  35.534  1.00  0.00     0.339 C 
ATOM     26  C   UNL     1     -29.120 -50.342  36.697  1.00  0.00     0.214 C 
ATOM     27  O   UNL     1     -29.585 -50.889  34.361  1.00  0.00    -0.332 OA
ATOM     28  C   UNL     1     -27.774 -49.699  36.302  1.00  0.00     0.180 C 
ATOM     29  C   UNL     1     -28.482 -50.132  33.885  1.00  0.00     0.179 C 
ATOM     30  C   UNL     1     -27.310 -50.160  34.899  1.00  0.00     0.177 C 
BRANCH  26  31
ATOM     31  O   UNL     1     -29.632 -49.701  37.837  1.00  0.00    -0.384 OA
ATOM     32  H   UNL     1     -29.453 -48.731  37.729  1.00  0.00     0.211 HD
ENDBRANCH  26  31
BRANCH  28  33
ATOM     33  O   UNL     1     -27.819 -48.295  36.397  1.00  0.00    -0.387 OA
ATOM     34  H   UNL     1     -27.728 -48.041  37.350  1.00  0.00     0.211 HD
ENDBRANCH  28  33
BRANCH  29  35
ATOM     35  C   UNL     1     -28.044 -50.688  32.522  1.00  0.00     0.191 C 
BRANCH  35  36
ATOM     36  O   UNL     1     -26.721 -50.317  32.244  1.00  0.00    -0.394 OA
ATOM     37  H   UNL     1     -26.345 -51.021  31.654  1.00  0.00     0.210 HD
ENDBRANCH  35  36
ENDBRANCH  29  35
BRANCH  30  38
ATOM     38  O   UNL     1     -26.718 -51.436  34.971  1.00  0.00    -0.387 OA
ATOM     39  H   UNL     1     -26.903 -51.909  34.118  1.00  0.00     0.211 HD
ENDBRANCH  30  38
ENDBRANCH   1  25
TORSDOF 11
ENDMDL
MODEL 8
REMARK VINA RESULT:    -7.942      7.585      9.333
REMARK INTER + INTRA:         -12.425
REMARK INTER:                 -11.535
REMARK INTRA:                  -0.891
REMARK UNBOUND:                -1.001
REMARK SMILES O=c1cc(-c2ccc(O)c(O)c2)oc2cc(O[C@H]3O[C@H](CO)[C@H](O)[C@@H](O)[C@H]3O)cc(O)c12
REMARK SMILES IDX 17 1 16 2 4 3 3 4 13 5 2 6 14 7 1 8 32 9 15 10 30 11 29 12
REMARK SMILES IDX 5 13 6 14 7 15 8 16 12 17 10 18 9 19 11 21 31 23 18 25 27 26
REMARK SMILES IDX 19 27 25 28 20 29 23 30 28 31 26 33 21 35 22 36 24 38
REMARK H PARENT 9 20 11 22 31 24 28 32 26 34 22 37 24 39
REMARK Flexibility Score: inf
ROOT
ATOM      1  O   UNL     1     -27.117 -50.434  25.348  1.00  0.00    -0.462 OA
ENDROOT
BRANCH   1   2
ATOM      2  C   UNL     1     -26.839 -51.336  26.389  1.00  0.00     0.130 A 
ATOM      3  C   UNL     1     -25.957 -51.829  31.051  1.00  0.00     0.138 A 
ATOM      4  C   UNL     1     -25.823 -53.224  30.943  1.00  0.00     0.100 A 
ATOM      5  O   UNL     1     -26.222 -51.111  29.962  1.00  0.00    -0.456 OA
ATOM      6  C   UNL     1     -25.987 -53.834  29.699  1.00  0.00     0.197 A 
ATOM      7  C   UNL     1     -26.386 -51.647  28.756  1.00  0.00     0.146 A 
ATOM      8  O   UNL     1     -25.864 -55.086  29.611  1.00  0.00    -0.289 OA
ATOM      9  C   UNL     1     -26.279 -53.044  28.569  1.00  0.00     0.107 A 
ATOM     10  C   UNL     1     -26.666 -50.811  27.672  1.00  0.00     0.094 A 
ATOM     11  C   UNL     1     -26.462 -53.582  27.274  1.00  0.00     0.134 A 
ATOM     12  C   UNL     1     -26.744 -52.728  26.198  1.00  0.00     0.093 A 
BRANCH   3  13
ATOM     13  C   UNL     1     -25.792 -51.125  32.347  1.00  0.00     0.021 A 
ATOM     14  C   UNL     1     -26.724 -50.141  32.722  1.00  0.00     0.016 A 
ATOM     15  C   UNL     1     -26.595 -49.468  33.940  1.00  0.00     0.051 A 
ATOM     16  C   UNL     1     -25.545 -49.772  34.808  1.00  0.00     0.157 A 
ATOM     17  C   UNL     1     -24.742 -51.437  33.232  1.00  0.00     0.062 A 
ATOM     18  C   UNL     1     -24.614 -50.763  34.456  1.00  0.00     0.158 A 
BRANCH  16  19
ATOM     19  O   UNL     1     -25.443 -49.082  36.016  1.00  0.00    -0.504 OA
ATOM     20  H   UNL     1     -25.440 -48.070  36.059  1.00  0.00     0.293 HD
ENDBRANCH  16  19
BRANCH  18  21
ATOM     21  O   UNL     1     -23.569 -51.079  35.324  1.00  0.00    -0.504 OA
ATOM     22  H   UNL     1     -23.637 -50.911  36.320  1.00  0.00     0.293 HD
ENDBRANCH  18  21
ENDBRANCH   3  13
BRANCH  11  23
ATOM     23  O   UNL     1     -26.370 -54.956  27.051  1.00  0.00    -0.507 OA
ATOM     24  H   UNL     1     -26.599 -55.367  26.154  1.00  0.00     0.293 HD
ENDBRANCH  11  23
ENDBRANCH   1   2
BRANCH   1  25
ATOM     25  C   UNL     1     -26.568 -50.453  24.023  1.00  0.00     0.339 C 
ATOM     26  C   UNL     1     -26.505 -49.039  23.389  1.00  0.00     0.214 C 
ATOM     27  O   UNL     1     -27.306 -51.341  23.198  1.00  0.00    -0.332 OA
ATOM     28  C   UNL     1     -27.904 -48.499  23.025  1.00  0.00     0.180 C 
ATOM     29  C   UNL     1     -28.661 -50.939  23.075  1.00  0.00     0.179 C 
ATOM     30  C   UNL     1     -28.773 -49.580  22.338  1.00  0.00     0.177 C 
BRANCH  26  31
ATOM     31  O   UNL     1     -25.854 -48.131  24.238  1.00  0.00    -0.384 OA
ATOM     32  H   UNL     1     -26.532 -47.464  24.523  1.00  0.00     0.211 HD
ENDBRANCH  26  31
BRANCH  28  33
ATOM     33  O   UNL     1     -28.555 -47.944  24.144  1.00  0.00    -0.387 OA
ATOM     34  H   UNL     1     -29.498 -47.764  23.901  1.00  0.00     0.211 HD
ENDBRANCH  28  33
BRANCH  29  35
ATOM     35  C   UNL     1     -29.442 -52.034  22.332  1.00  0.00     0.191 C 
BRANCH  35  36
ATOM     36  O   UNL     1     -30.419 -51.462  21.504  1.00  0.00    -0.394 OA
ATOM     37  H   UNL     1     -30.107 -50.547  21.283  1.00  0.00     0.210 HD
ENDBRANCH  35  36
ENDBRANCH  29  35
BRANCH  30  38
ATOM     38  O   UNL     1     -28.429 -49.698  20.978  1.00  0.00    -0.387 OA
ATOM     39  H   UNL     1     -27.766 -50.431  20.892  1.00  0.00     0.211 HD
ENDBRANCH  30  38
ENDBRANCH   1  25
TORSDOF 11
ENDMDL
MODEL 9
REMARK VINA RESULT:    -7.892      3.406      6.113
REMARK INTER + INTRA:         -12.353
REMARK INTER:                 -11.387
REMARK INTRA:                  -0.966
REMARK UNBOUND:                -1.001
REMARK SMILES O=c1cc(-c2ccc(O)c(O)c2)oc2cc(O[C@H]3O[C@H](CO)[C@H](O)[C@@H](O)[C@H]3O)cc(O)c12
REMARK SMILES IDX 17 1 16 2 4 3 3 4 13 5 2 6 14 7 1 8 32 9 15 10 30 11 29 12
REMARK SMILES IDX 5 13 6 14 7 15 8 16 12 17 10 18 9 19 11 21 31 23 18 25 27 26
REMARK SMILES IDX 19 27 25 28 20 29 23 30 28 31 26 33 21 35 22 36 24 38
REMARK H PARENT 9 20 11 22 31 24 28 32 26 34 22 37 24 39
REMARK Flexibility Score: inf
ROOT
ATOM      1  O   UNL     1     -33.346 -47.393  25.293  1.00  0.00    -0.462 OA
ENDROOT
BRANCH   1   2
ATOM      2  C   UNL     1     -33.742 -46.563  26.355  1.00  0.00     0.130 A 
ATOM      3  C   UNL     1     -34.893 -46.352  30.979  1.00  0.00     0.138 A 
ATOM      4  C   UNL     1     -35.123 -44.968  30.925  1.00  0.00     0.100 A 
ATOM      5  O   UNL     1     -34.521 -46.998  29.877  1.00  0.00    -0.456 OA
ATOM      6  C   UNL     1     -34.941 -44.289  29.719  1.00  0.00     0.197 A 
ATOM      7  C   UNL     1     -34.336 -46.396  28.705  1.00  0.00     0.146 A 
ATOM      8  O   UNL     1     -35.151 -43.047  29.679  1.00  0.00    -0.289 OA
ATOM      9  C   UNL     1     -34.536 -45.003  28.574  1.00  0.00     0.107 A 
ATOM     10  C   UNL     1     -33.941 -47.158  27.603  1.00  0.00     0.094 A 
ATOM     11  C   UNL     1     -34.327 -44.393  27.315  1.00  0.00     0.134 A 
ATOM     12  C   UNL     1     -33.929 -45.174  26.219  1.00  0.00     0.093 A 
BRANCH   3  13
ATOM     13  C   UNL     1     -35.071 -47.127  32.233  1.00  0.00     0.021 A 
ATOM     14  C   UNL     1     -34.205 -48.198  32.513  1.00  0.00     0.016 A 
ATOM     15  C   UNL     1     -34.347 -48.938  33.690  1.00  0.00     0.051 A 
ATOM     16  C   UNL     1     -35.345 -48.616  34.611  1.00  0.00     0.157 A 
ATOM     17  C   UNL     1     -36.069 -46.798  33.172  1.00  0.00     0.062 A 
ATOM     18  C   UNL     1     -36.210 -47.540  34.354  1.00  0.00     0.158 A 
BRANCH  16  19
ATOM     19  O   UNL     1     -35.463 -49.375  35.776  1.00  0.00    -0.504 OA
ATOM     20  H   UNL     1     -35.332 -50.380  35.779  1.00  0.00     0.293 HD
ENDBRANCH  16  19
BRANCH  18  21
ATOM     21  O   UNL     1     -37.203 -47.207  35.276  1.00  0.00    -0.504 OA
ATOM     22  H   UNL     1     -37.112 -47.434  36.258  1.00  0.00     0.293 HD
ENDBRANCH  18  21
ENDBRANCH   3  13
BRANCH  11  23
ATOM     23  O   UNL     1     -34.508 -43.021  27.146  1.00  0.00    -0.507 OA
ATOM     24  H   UNL     1     -35.269 -42.524  27.596  1.00  0.00     0.293 HD
ENDBRANCH  11  23
ENDBRANCH   1   2
BRANCH   1  25
ATOM     25  C   UNL     1     -33.745 -47.283  23.919  1.00  0.00     0.339 C 
ATOM     26  C   UNL     1     -34.074 -48.660  23.286  1.00  0.00     0.214 C 
ATOM     27  O   UNL     1     -32.744 -46.611  23.170  1.00  0.00    -0.332 OA
ATOM     28  C   UNL     1     -32.810 -49.518  23.067  1.00  0.00     0.180 C 
ATOM     29  C   UNL     1     -31.514 -47.320  23.185  1.00  0.00     0.179 C 
ATOM     30  C   UNL     1     -31.651 -48.687  22.467  1.00  0.00     0.177 C 
BRANCH  26  31
ATOM     31  O   UNL     1     -34.998 -49.370  24.069  1.00  0.00    -0.384 OA
ATOM     32  H   UNL     1     -35.508 -48.700  24.595  1.00  0.00     0.211 HD
ENDBRANCH  26  31
BRANCH  28  33
ATOM     33  O   UNL     1     -32.418 -50.179  24.247  1.00  0.00    -0.387 OA
ATOM     34  H   UNL     1     -31.829 -49.575  24.764  1.00  0.00     0.211 HD
ENDBRANCH  28  33
BRANCH  29  35
ATOM     35  C   UNL     1     -30.432 -46.455  22.521  1.00  0.00     0.191 C 
BRANCH  35  36
ATOM     36  O   UNL     1     -30.898 -45.935  21.305  1.00  0.00    -0.394 OA
ATOM     37  H   UNL     1     -31.018 -44.959  21.439  1.00  0.00     0.210 HD
ENDBRANCH  35  36
ENDBRANCH  29  35
BRANCH  30  38
ATOM     38  O   UNL     1     -31.825 -48.528  21.079  1.00  0.00    -0.387 OA
ATOM     39  H   UNL     1     -32.026 -49.419  20.690  1.00  0.00     0.211 HD
ENDBRANCH  30  38
ENDBRANCH   1  25
TORSDOF 11
ENDMDL
