MODEL 1
REMARK VINA RESULT:    -3.458      0.000      0.000
REMARK INTER + INTRA:          -3.869
REMARK INTER:                  -3.862
REMARK INTRA:                  -0.007
REMARK UNBOUND:                -0.007
REMARK SMILES CCCC(=O)[O-]
REMARK SMILES IDX 3 1 4 2 5 3 6 4 2 5 1 6
REMARK H PARENT
REMARK Flexibility Score: inf
ROOT
ATOM      1  C   UNL     1       6.680  12.587 -20.629  1.00  0.00     0.052 C 
ENDROOT
BRANCH   1   2
ATOM      2  C   UNL     1       7.809  11.686 -21.021  1.00  0.00     0.041 C 
ATOM      3  O   UNL     1       8.964  12.157 -21.194  1.00  0.00    -0.550 OA
ATOM      4  O   UNL     1       7.576  10.335 -21.243  1.00  0.00    -0.550 OA
ENDBRANCH   1   2
BRANCH   1   5
ATOM      5  C   UNL     1       6.735  12.893 -19.130  1.00  0.00     0.003 C 
ATOM      6  C   UNL     1       5.907  14.129 -18.790  1.00  0.00     0.004 C 
ENDBRANCH   1   5
TORSDOF 2
ENDMDL
MODEL 2
REMARK VINA RESULT:    -3.357     13.179     14.004
REMARK INTER + INTRA:          -3.757
REMARK INTER:                  -3.747
REMARK INTRA:                  -0.010
REMARK UNBOUND:                -0.007
REMARK SMILES CCCC(=O)[O-]
REMARK SMILES IDX 3 1 4 2 5 3 6 4 2 5 1 6
REMARK H PARENT
REMARK Flexibility Score: inf
ROOT
ATOM      1  C   UNL     1       1.366  10.152  -8.151  1.00  0.00     0.052 C 
ENDROOT
BRANCH   1   2
ATOM      2  C   UNL     1       0.861  11.467  -7.646  1.00  0.00     0.041 C 
ATOM      3  O   UNL     1      -0.132  12.017  -8.191  1.00  0.00    -0.550 OA
ATOM      4  O   UNL     1       1.518  12.111  -6.605  1.00  0.00    -0.550 OA
ENDBRANCH   1   2
BRANCH   1   5
ATOM      5  C   UNL     1       2.895  10.153  -8.211  1.00  0.00     0.003 C 
ATOM      6  C   UNL     1       3.394   9.610  -9.547  1.00  0.00     0.004 C 
ENDBRANCH   1   5
TORSDOF 2
ENDMDL
MODEL 3
REMARK VINA RESULT:    -3.350     13.163     13.959
REMARK INTER + INTRA:          -3.749
REMARK INTER:                  -3.738
REMARK INTRA:                  -0.010
REMARK UNBOUND:                -0.007
REMARK SMILES CCCC(=O)[O-]
REMARK SMILES IDX 3 1 4 2 5 3 6 4 2 5 1 6
REMARK H PARENT
REMARK Flexibility Score: inf
ROOT
ATOM      1  C   UNL     1       1.423  10.152  -8.132  1.00  0.00     0.052 C 
ENDROOT
BRANCH   1   2
ATOM      2  C   UNL     1       0.922  11.470  -7.632  1.00  0.00     0.041 C 
ATOM      3  O   UNL     1       1.514  12.056  -6.687  1.00  0.00    -0.550 OA
ATOM      4  O   UNL     1      -0.228  12.029  -8.175  1.00  0.00    -0.550 OA
ENDBRANCH   1   2
BRANCH   1   5
ATOM      5  C   UNL     1       2.950  10.169  -8.249  1.00  0.00     0.003 C 
ATOM      6  C   UNL     1       3.407   9.567  -9.574  1.00  0.00     0.004 C 
ENDBRANCH   1   5
TORSDOF 2
ENDMDL
MODEL 4
REMARK VINA RESULT:    -3.341      2.215      3.394
REMARK INTER + INTRA:          -3.739
REMARK INTER:                  -3.727
REMARK INTRA:                  -0.013
REMARK UNBOUND:                -0.007
REMARK SMILES CCCC(=O)[O-]
REMARK SMILES IDX 3 1 4 2 5 3 6 4 2 5 1 6
REMARK H PARENT
REMARK Flexibility Score: inf
ROOT
ATOM      1  C   UNL     1       6.649  12.320 -20.976  1.00  0.00     0.052 C 
ENDROOT
BRANCH   1   2
ATOM      2  C   UNL     1       6.789  13.071 -19.689  1.00  0.00     0.041 C 
ATOM      3  O   UNL     1       7.538  12.631 -18.777  1.00  0.00    -0.550 OA
ATOM      4  O   UNL     1       6.054  14.230 -19.477  1.00  0.00    -0.550 OA
ENDBRANCH   1   2
BRANCH   1   5
ATOM      5  C   UNL     1       7.388  10.981 -20.898  1.00  0.00     0.003 C 
ATOM      6  C   UNL     1       6.972  10.056 -22.038  1.00  0.00     0.004 C 
ENDBRANCH   1   5
TORSDOF 2
ENDMDL
MODEL 5
REMARK VINA RESULT:    -3.283     12.854     13.616
REMARK INTER + INTRA:          -3.674
REMARK INTER:                  -3.667
REMARK INTRA:                  -0.007
REMARK UNBOUND:                -0.007
REMARK SMILES CCCC(=O)[O-]
REMARK SMILES IDX 3 1 4 2 5 3 6 4 2 5 1 6
REMARK H PARENT
REMARK Flexibility Score: inf
ROOT
ATOM      1  C   UNL     1       1.224  10.024  -8.065  1.00  0.00     0.052 C 
ENDROOT
BRANCH   1   2
ATOM      2  C   UNL     1       2.710  10.160  -8.177  1.00  0.00     0.041 C 
ATOM      3  O   UNL     1       3.366  10.716  -7.257  1.00  0.00    -0.550 OA
ATOM      4  O   UNL     1       3.366   9.719  -9.319  1.00  0.00    -0.550 OA
ENDBRANCH   1   2
BRANCH   1   5
ATOM      5  C   UNL     1       0.583  11.380  -7.759  1.00  0.00     0.003 C 
ATOM      6  C   UNL     1      -0.897  11.385  -8.129  1.00  0.00     0.004 C 
ENDBRANCH   1   5
TORSDOF 2
ENDMDL
MODEL 6
REMARK VINA RESULT:    -3.243     13.609     14.426
REMARK INTER + INTRA:          -3.630
REMARK INTER:                  -3.613
REMARK INTRA:                  -0.016
REMARK UNBOUND:                -0.007
REMARK SMILES CCCC(=O)[O-]
REMARK SMILES IDX 3 1 4 2 5 3 6 4 2 5 1 6
REMARK H PARENT
REMARK Flexibility Score: inf
ROOT
ATOM      1  C   UNL     1       1.214  11.462  -7.742  1.00  0.00     0.052 C 
ENDROOT
BRANCH   1   2
ATOM      2  C   UNL     1      -0.253  11.728  -7.872  1.00  0.00     0.041 C 
ATOM      3  O   UNL     1      -1.036  10.805  -8.219  1.00  0.00    -0.550 OA
ATOM      4  O   UNL     1      -0.749  13.008  -7.659  1.00  0.00    -0.550 OA
ENDBRANCH   1   2
BRANCH   1   5
ATOM      5  C   UNL     1       1.539  10.028  -8.170  1.00  0.00     0.003 C 
ATOM      6  C   UNL     1       2.945   9.934  -8.755  1.00  0.00     0.004 C 
ENDBRANCH   1   5
TORSDOF 2
ENDMDL
MODEL 7
REMARK VINA RESULT:    -3.102     13.074     13.887
REMARK INTER + INTRA:          -3.472
REMARK INTER:                  -3.450
REMARK INTRA:                  -0.021
REMARK UNBOUND:                -0.007
REMARK SMILES CCCC(=O)[O-]
REMARK SMILES IDX 3 1 4 2 5 3 6 4 2 5 1 6
REMARK H PARENT
REMARK Flexibility Score: inf
ROOT
ATOM      1  C   UNL     1       3.003  10.756  -7.145  1.00  0.00     0.052 C 
ENDROOT
BRANCH   1   2
ATOM      2  C   UNL     1       2.621  10.022  -8.392  1.00  0.00     0.041 C 
ATOM      3  O   UNL     1       1.443   9.605  -8.546  1.00  0.00    -0.550 OA
ATOM      4  O   UNL     1       3.579   9.754  -9.362  1.00  0.00    -0.550 OA
ENDBRANCH   1   2
BRANCH   1   5
ATOM      5  C   UNL     1       1.855  11.657  -6.682  1.00  0.00     0.003 C 
ATOM      6  C   UNL     1       1.800  11.740  -5.160  1.00  0.00     0.004 C 
ENDBRANCH   1   5
TORSDOF 2
ENDMDL
MODEL 8
REMARK VINA RESULT:    -3.020      2.401      3.120
REMARK INTER + INTRA:          -3.381
REMARK INTER:                  -3.371
REMARK INTRA:                  -0.010
REMARK UNBOUND:                -0.007
REMARK SMILES CCCC(=O)[O-]
REMARK SMILES IDX 3 1 4 2 5 3 6 4 2 5 1 6
REMARK H PARENT
REMARK Flexibility Score: inf
ROOT
ATOM      1  C   UNL     1       7.797  12.620 -18.970  1.00  0.00     0.052 C 
ENDROOT
BRANCH   1   2
ATOM      2  C   UNL     1       6.733  13.043 -19.934  1.00  0.00     0.041 C 
ATOM      3  O   UNL     1       5.970  14.004 -19.653  1.00  0.00    -0.550 OA
ATOM      4  O   UNL     1       6.551  12.344 -21.120  1.00  0.00    -0.550 OA
ENDBRANCH   1   2
BRANCH   1   5
ATOM      5  C   UNL     1       8.918  11.878 -19.704  1.00  0.00     0.003 C 
ATOM      6  C   UNL     1       9.888  11.235 -18.718  1.00  0.00     0.004 C 
ENDBRANCH   1   5
TORSDOF 2
ENDMDL
MODEL 9
REMARK VINA RESULT:    -2.975     10.753     11.264
REMARK INTER + INTRA:          -3.330
REMARK INTER:                  -3.297
REMARK INTRA:                  -0.033
REMARK UNBOUND:                -0.007
REMARK SMILES CCCC(=O)[O-]
REMARK SMILES IDX 3 1 4 2 5 3 6 4 2 5 1 6
REMARK H PARENT
REMARK Flexibility Score: inf
ROOT
ATOM      1  C   UNL     1      -2.219   6.254 -18.972  1.00  0.00     0.052 C 
ENDROOT
BRANCH   1   2
ATOM      2  C   UNL     1      -0.927   5.535 -19.205  1.00  0.00     0.041 C 
ATOM      3  O   UNL     1      -0.036   5.529 -18.316  1.00  0.00    -0.550 OA
ATOM      4  O   UNL     1      -0.688   4.914 -20.424  1.00  0.00    -0.550 OA
ENDBRANCH   1   2
BRANCH   1   5
ATOM      5  C   UNL     1      -2.707   6.912 -20.266  1.00  0.00     0.003 C 
ATOM      6  C   UNL     1      -3.948   6.208 -20.807  1.00  0.00     0.004 C 
ENDBRANCH   1   5
TORSDOF 2
ENDMDL
