MODEL 1
REMARK VINA RESULT:    -3.013      0.000      0.000
REMARK INTER + INTRA:          -3.849
REMARK INTER:                  -3.717
REMARK INTRA:                  -0.132
REMARK UNBOUND:                -0.132
REMARK SMILES CCCCCC(=O)[O-]
REMARK SMILES IDX 4 1 5 2 6 3 7 4 8 5 3 6 2 7 1 8
REMARK H PARENT
REMARK Flexibility Score: inf
ROOT
ATOM      1  C   UNL     1      61.701  32.997  60.454  1.00  0.00     0.006 C 
ENDROOT
BRANCH   1   2
ATOM      2  C   UNL     1      62.510  31.715  60.673  1.00  0.00     0.053 C 
BRANCH   2   3
ATOM      3  C   UNL     1      61.739  30.747  61.514  1.00  0.00     0.041 C 
ATOM      4  O   UNL     1      60.564  31.020  61.877  1.00  0.00    -0.550 OA
ATOM      5  O   UNL     1      62.334  29.566  61.937  1.00  0.00    -0.550 OA
ENDBRANCH   2   3
ENDBRANCH   1   2
BRANCH   1   6
ATOM      6  C   UNL     1      62.602  34.235  60.526  1.00  0.00     0.000 C 
BRANCH   6   7
ATOM      7  C   UNL     1      64.041  33.850  60.885  1.00  0.00    -0.003 C 
ATOM      8  C   UNL     1      64.786  35.023  61.515  1.00  0.00     0.004 C 
ENDBRANCH   6   7
ENDBRANCH   1   6
TORSDOF 4
ENDMDL
MODEL 2
REMARK VINA RESULT:    -2.940     12.313     13.223
REMARK INTER + INTRA:          -3.759
REMARK INTER:                  -3.614
REMARK INTRA:                  -0.146
REMARK UNBOUND:                -0.132
REMARK SMILES CCCCCC(=O)[O-]
REMARK SMILES IDX 4 1 5 2 6 3 7 4 8 5 3 6 2 7 1 8
REMARK H PARENT
REMARK Flexibility Score: inf
ROOT
ATOM      1  C   UNL     1      58.346  29.175  50.717  1.00  0.00     0.006 C 
ENDROOT
BRANCH   1   2
ATOM      2  C   UNL     1      58.945  28.776  49.365  1.00  0.00     0.053 C 
BRANCH   2   3
ATOM      3  C   UNL     1      59.840  27.587  49.520  1.00  0.00     0.041 C 
ATOM      4  O   UNL     1      61.090  27.737  49.569  1.00  0.00    -0.550 OA
ATOM      5  O   UNL     1      59.298  26.309  49.561  1.00  0.00    -0.550 OA
ENDBRANCH   2   3
ENDBRANCH   1   2
BRANCH   1   6
ATOM      6  C   UNL     1      56.815  29.213  50.652  1.00  0.00     0.000 C 
BRANCH   6   7
ATOM      7  C   UNL     1      56.231  27.797  50.623  1.00  0.00    -0.003 C 
ATOM      8  C   UNL     1      54.721  27.827  50.396  1.00  0.00     0.004 C 
ENDBRANCH   6   7
ENDBRANCH   1   6
TORSDOF 4
ENDMDL
MODEL 3
REMARK VINA RESULT:    -2.883      2.865      4.282
REMARK INTER + INTRA:          -3.689
REMARK INTER:                  -3.614
REMARK INTRA:                  -0.075
REMARK UNBOUND:                -0.132
REMARK SMILES CCCCCC(=O)[O-]
REMARK SMILES IDX 4 1 5 2 6 3 7 4 8 5 3 6 2 7 1 8
REMARK H PARENT
REMARK Flexibility Score: inf
ROOT
ATOM      1  C   UNL     1      62.359  32.694  60.544  1.00  0.00     0.006 C 
ENDROOT
BRANCH   1   2
ATOM      2  C   UNL     1      62.162  34.208  60.417  1.00  0.00     0.053 C 
BRANCH   2   3
ATOM      3  C   UNL     1      63.325  34.938  61.011  1.00  0.00     0.041 C 
ATOM      4  O   UNL     1      63.231  36.166  61.280  1.00  0.00    -0.550 OA
ATOM      5  O   UNL     1      64.527  34.277  61.224  1.00  0.00    -0.550 OA
ENDBRANCH   2   3
ENDBRANCH   1   2
BRANCH   1   6
ATOM      6  C   UNL     1      61.013  31.962  60.538  1.00  0.00     0.000 C 
BRANCH   6   7
ATOM      7  C   UNL     1      60.932  30.948  61.684  1.00  0.00    -0.003 C 
ATOM      8  C   UNL     1      62.171  30.058  61.723  1.00  0.00     0.004 C 
ENDBRANCH   6   7
ENDBRANCH   1   6
TORSDOF 4
ENDMDL
MODEL 4
REMARK VINA RESULT:    -2.868     12.650     13.600
REMARK INTER + INTRA:          -3.671
REMARK INTER:                  -3.539
REMARK INTRA:                  -0.132
REMARK UNBOUND:                -0.132
REMARK SMILES CCCCCC(=O)[O-]
REMARK SMILES IDX 4 1 5 2 6 3 7 4 8 5 3 6 2 7 1 8
REMARK H PARENT
REMARK Flexibility Score: inf
ROOT
ATOM      1  C   UNL     1      56.825  29.262  50.941  1.00  0.00     0.006 C 
ENDROOT
BRANCH   1   2
ATOM      2  C   UNL     1      57.535  28.004  50.432  1.00  0.00     0.053 C 
BRANCH   2   3
ATOM      3  C   UNL     1      58.781  28.371  49.689  1.00  0.00     0.041 C 
ATOM      4  O   UNL     1      58.992  29.569  49.359  1.00  0.00    -0.550 OA
ATOM      5  O   UNL     1      59.686  27.385  49.318  1.00  0.00    -0.550 OA
ENDBRANCH   2   3
ENDBRANCH   1   2
BRANCH   1   6
ATOM      6  C   UNL     1      55.312  29.171  50.710  1.00  0.00     0.000 C 
BRANCH   6   7
ATOM      7  C   UNL     1      54.881  27.724  50.450  1.00  0.00    -0.003 C 
ATOM      8  C   UNL     1      53.426  27.656  49.991  1.00  0.00     0.004 C 
ENDBRANCH   6   7
ENDBRANCH   1   6
TORSDOF 4
ENDMDL
MODEL 5
REMARK VINA RESULT:    -2.853     12.660     13.320
REMARK INTER + INTRA:          -3.652
REMARK INTER:                  -3.488
REMARK INTRA:                  -0.164
REMARK UNBOUND:                -0.132
REMARK SMILES CCCCCC(=O)[O-]
REMARK SMILES IDX 4 1 5 2 6 3 7 4 8 5 3 6 2 7 1 8
REMARK H PARENT
REMARK Flexibility Score: inf
ROOT
ATOM      1  C   UNL     1      57.339  28.001  51.042  1.00  0.00     0.006 C 
ENDROOT
BRANCH   1   2
ATOM      2  C   UNL     1      55.944  27.576  50.575  1.00  0.00     0.053 C 
BRANCH   2   3
ATOM      3  C   UNL     1      55.914  26.109  50.285  1.00  0.00     0.041 C 
ATOM      4  O   UNL     1      55.001  25.624  49.564  1.00  0.00    -0.550 OA
ATOM      5  O   UNL     1      56.865  25.269  50.849  1.00  0.00    -0.550 OA
ENDBRANCH   2   3
ENDBRANCH   1   2
BRANCH   1   6
ATOM      6  C   UNL     1      57.781  29.296  50.349  1.00  0.00     0.000 C 
BRANCH   6   7
ATOM      7  C   UNL     1      58.904  29.026  49.342  1.00  0.00    -0.003 C 
ATOM      8  C   UNL     1      59.499  27.634  49.538  1.00  0.00     0.004 C 
ENDBRANCH   6   7
ENDBRANCH   1   6
TORSDOF 4
ENDMDL
MODEL 6
REMARK VINA RESULT:    -2.849     12.828     13.576
REMARK INTER + INTRA:          -3.647
REMARK INTER:                  -3.577
REMARK INTRA:                  -0.070
REMARK UNBOUND:                -0.132
REMARK SMILES CCCCCC(=O)[O-]
REMARK SMILES IDX 4 1 5 2 6 3 7 4 8 5 3 6 2 7 1 8
REMARK H PARENT
REMARK Flexibility Score: inf
ROOT
ATOM      1  C   UNL     1      56.817  28.153  50.584  1.00  0.00     0.006 C 
ENDROOT
BRANCH   1   2
ATOM      2  C   UNL     1      55.404  28.715  50.769  1.00  0.00     0.053 C 
BRANCH   2   3
ATOM      3  C   UNL     1      54.389  27.776  50.198  1.00  0.00     0.041 C 
ATOM      4  O   UNL     1      54.704  26.584  49.938  1.00  0.00    -0.550 OA
ATOM      5  O   UNL     1      53.108  28.228  49.908  1.00  0.00    -0.550 OA
ENDBRANCH   2   3
ENDBRANCH   1   2
BRANCH   1   6
ATOM      6  C   UNL     1      57.856  29.279  50.545  1.00  0.00     0.000 C 
BRANCH   6   7
ATOM      7  C   UNL     1      58.840  29.079  49.387  1.00  0.00    -0.003 C 
ATOM      8  C   UNL     1      59.570  27.744  49.507  1.00  0.00     0.004 C 
ENDBRANCH   6   7
ENDBRANCH   1   6
TORSDOF 4
ENDMDL
MODEL 7
REMARK VINA RESULT:    -2.832      1.521      1.806
REMARK INTER + INTRA:          -3.626
REMARK INTER:                  -3.504
REMARK INTRA:                  -0.122
REMARK UNBOUND:                -0.132
REMARK SMILES CCCCCC(=O)[O-]
REMARK SMILES IDX 4 1 5 2 6 3 7 4 8 5 3 6 2 7 1 8
REMARK H PARENT
REMARK Flexibility Score: inf
ROOT
ATOM      1  C   UNL     1      61.600  31.820  60.143  1.00  0.00     0.006 C 
ENDROOT
BRANCH   1   2
ATOM      2  C   UNL     1      61.384  30.970  61.399  1.00  0.00     0.053 C 
BRANCH   2   3
ATOM      3  C   UNL     1      62.530  30.029  61.597  1.00  0.00     0.041 C 
ATOM      4  O   UNL     1      63.714  30.458  61.572  1.00  0.00    -0.550 OA
ATOM      5  O   UNL     1      62.294  28.670  61.760  1.00  0.00    -0.550 OA
ENDBRANCH   2   3
ENDBRANCH   1   2
BRANCH   1   6
ATOM      6  C   UNL     1      61.388  33.308  60.442  1.00  0.00     0.000 C 
BRANCH   6   7
ATOM      7  C   UNL     1      62.728  34.041  60.569  1.00  0.00    -0.003 C 
ATOM      8  C   UNL     1      62.522  35.515  60.911  1.00  0.00     0.004 C 
ENDBRANCH   6   7
ENDBRANCH   1   6
TORSDOF 4
ENDMDL
MODEL 8
REMARK VINA RESULT:    -2.818      2.706      4.266
REMARK INTER + INTRA:          -3.609
REMARK INTER:                  -3.473
REMARK INTRA:                  -0.136
REMARK UNBOUND:                -0.132
REMARK SMILES CCCCCC(=O)[O-]
REMARK SMILES IDX 4 1 5 2 6 3 7 4 8 5 3 6 2 7 1 8
REMARK H PARENT
REMARK Flexibility Score: inf
ROOT
ATOM      1  C   UNL     1      63.250  31.642  60.469  1.00  0.00     0.006 C 
ENDROOT
BRANCH   1   2
ATOM      2  C   UNL     1      64.469  32.556  60.629  1.00  0.00     0.053 C 
BRANCH   2   3
ATOM      3  C   UNL     1      64.039  33.946  60.975  1.00  0.00     0.041 C 
ATOM      4  O   UNL     1      62.837  34.294  60.824  1.00  0.00    -0.550 OA
ATOM      5  O   UNL     1      64.973  34.873  61.419  1.00  0.00    -0.550 OA
ENDBRANCH   2   3
ENDBRANCH   1   2
BRANCH   1   6
ATOM      6  C   UNL     1      63.397  30.376  61.320  1.00  0.00     0.000 C 
BRANCH   6   7
ATOM      7  C   UNL     1      62.027  29.835  61.743  1.00  0.00    -0.003 C 
ATOM      8  C   UNL     1      60.955  30.919  61.657  1.00  0.00     0.004 C 
ENDBRANCH   6   7
ENDBRANCH   1   6
TORSDOF 4
ENDMDL
MODEL 9
REMARK VINA RESULT:    -2.816      1.202      1.781
REMARK INTER + INTRA:          -3.606
REMARK INTER:                  -3.486
REMARK INTRA:                  -0.120
REMARK UNBOUND:                -0.132
REMARK SMILES CCCCCC(=O)[O-]
REMARK SMILES IDX 4 1 5 2 6 3 7 4 8 5 3 6 2 7 1 8
REMARK H PARENT
REMARK Flexibility Score: inf
ROOT
ATOM      1  C   UNL     1      62.691  32.629  60.513  1.00  0.00     0.006 C 
ENDROOT
BRANCH   1   2
ATOM      2  C   UNL     1      61.206  32.257  60.561  1.00  0.00     0.053 C 
BRANCH   2   3
ATOM      3  C   UNL     1      61.024  30.904  61.172  1.00  0.00     0.041 C 
ATOM      4  O   UNL     1      59.911  30.319  61.096  1.00  0.00    -0.550 OA
ATOM      5  O   UNL     1      62.068  30.309  61.868  1.00  0.00    -0.550 OA
ENDBRANCH   2   3
ENDBRANCH   1   2
BRANCH   1   6
ATOM      6  C   UNL     1      62.878  34.150  60.528  1.00  0.00     0.000 C 
BRANCH   6   7
ATOM      7  C   UNL     1      61.527  34.872  60.489  1.00  0.00    -0.003 C 
ATOM      8  C   UNL     1      61.677  36.344  60.864  1.00  0.00     0.004 C 
ENDBRANCH   6   7
ENDBRANCH   1   6
TORSDOF 4
ENDMDL
