MODEL 1
REMARK VINA RESULT:    -3.943      0.000      0.000
REMARK INTER + INTRA:          -4.439
REMARK INTER:                  -4.404
REMARK INTRA:                  -0.035
REMARK UNBOUND:                -0.035
REMARK SMILES CCCC(=O)[O-]
REMARK SMILES IDX 3 1 4 2 5 3 6 4 2 5 1 6
REMARK H PARENT
REMARK Flexibility Score: inf
ROOT
ATOM      1  C   UNL     1      -4.575  27.510  55.309  1.00  0.00     0.052 C 
ENDROOT
BRANCH   1   2
ATOM      2  C   UNL     1      -4.190  28.581  56.283  1.00  0.00     0.041 C 
ATOM      3  O   UNL     1      -5.034  29.025  57.106  1.00  0.00    -0.550 OA
ATOM      4  O   UNL     1      -2.889  29.068  56.302  1.00  0.00    -0.550 OA
ENDBRANCH   1   2
BRANCH   1   5
ATOM      5  C   UNL     1      -3.424  26.525  55.066  1.00  0.00     0.003 C 
ATOM      6  C   UNL     1      -3.028  26.447  53.593  1.00  0.00     0.004 C 
ENDBRANCH   1   5
TORSDOF 2
ENDMDL
MODEL 2
REMARK VINA RESULT:    -3.866      0.173      1.328
REMARK INTER + INTRA:          -4.353
REMARK INTER:                  -4.315
REMARK INTRA:                  -0.037
REMARK UNBOUND:                -0.035
REMARK SMILES CCCC(=O)[O-]
REMARK SMILES IDX 3 1 4 2 5 3 6 4 2 5 1 6
REMARK H PARENT
REMARK Flexibility Score: inf
ROOT
ATOM      1  C   UNL     1      -4.584  27.541  55.450  1.00  0.00     0.052 C 
ENDROOT
BRANCH   1   2
ATOM      2  C   UNL     1      -4.120  28.694  56.287  1.00  0.00     0.041 C 
ATOM      3  O   UNL     1      -2.944  29.129  56.171  1.00  0.00    -0.550 OA
ATOM      4  O   UNL     1      -4.997  29.308  57.172  1.00  0.00    -0.550 OA
ENDBRANCH   1   2
BRANCH   1   5
ATOM      5  C   UNL     1      -3.443  26.562  55.149  1.00  0.00     0.003 C 
ATOM      6  C   UNL     1      -3.169  26.432  53.652  1.00  0.00     0.004 C 
ENDBRANCH   1   5
TORSDOF 2
ENDMDL
MODEL 3
REMARK VINA RESULT:    -3.851      2.313      3.214
REMARK INTER + INTRA:          -4.335
REMARK INTER:                  -4.330
REMARK INTRA:                  -0.005
REMARK UNBOUND:                -0.035
REMARK SMILES CCCC(=O)[O-]
REMARK SMILES IDX 3 1 4 2 5 3 6 4 2 5 1 6
REMARK H PARENT
REMARK Flexibility Score: inf
ROOT
ATOM      1  C   UNL     1      -3.658  29.730  57.332  1.00  0.00     0.052 C 
ENDROOT
BRANCH   1   2
ATOM      2  C   UNL     1      -4.211  30.720  58.311  1.00  0.00     0.041 C 
ATOM      3  O   UNL     1      -4.175  31.953  58.057  1.00  0.00    -0.550 OA
ATOM      4  O   UNL     1      -4.794  30.278  59.492  1.00  0.00    -0.550 OA
ENDBRANCH   1   2
BRANCH   1   5
ATOM      5  C   UNL     1      -4.765  28.869  56.710  1.00  0.00     0.003 C 
ATOM      6  C   UNL     1      -4.210  27.798  55.772  1.00  0.00     0.004 C 
ENDBRANCH   1   5
TORSDOF 2
ENDMDL
MODEL 4
REMARK VINA RESULT:    -3.787      1.960      3.409
REMARK INTER + INTRA:          -4.264
REMARK INTER:                  -4.255
REMARK INTRA:                  -0.009
REMARK UNBOUND:                -0.035
REMARK SMILES CCCC(=O)[O-]
REMARK SMILES IDX 3 1 4 2 5 3 6 4 2 5 1 6
REMARK H PARENT
REMARK Flexibility Score: inf
ROOT
ATOM      1  C   UNL     1      -3.367  28.795  56.253  1.00  0.00     0.052 C 
ENDROOT
BRANCH   1   2
ATOM      2  C   UNL     1      -4.133  27.670  55.628  1.00  0.00     0.041 C 
ATOM      3  O   UNL     1      -5.380  27.757  55.479  1.00  0.00    -0.550 OA
ATOM      4  O   UNL     1      -3.464  26.538  55.180  1.00  0.00    -0.550 OA
ENDBRANCH   1   2
BRANCH   1   5
ATOM      5  C   UNL     1      -4.249  29.633  57.187  1.00  0.00     0.003 C 
ATOM      6  C   UNL     1      -3.428  30.483  58.155  1.00  0.00     0.004 C 
ENDBRANCH   1   5
TORSDOF 2
ENDMDL
MODEL 5
REMARK VINA RESULT:    -3.740      2.694      3.514
REMARK INTER + INTRA:          -4.212
REMARK INTER:                  -4.197
REMARK INTRA:                  -0.014
REMARK UNBOUND:                -0.035
REMARK SMILES CCCC(=O)[O-]
REMARK SMILES IDX 3 1 4 2 5 3 6 4 2 5 1 6
REMARK H PARENT
REMARK Flexibility Score: inf
ROOT
ATOM      1  C   UNL     1      -3.269  26.546  55.395  1.00  0.00     0.052 C 
ENDROOT
BRANCH   1   2
ATOM      2  C   UNL     1      -2.601  26.380  54.064  1.00  0.00     0.041 C 
ATOM      3  O   UNL     1      -3.280  26.416  53.004  1.00  0.00    -0.550 OA
ATOM      4  O   UNL     1      -1.223  26.218  53.993  1.00  0.00    -0.550 OA
ENDBRANCH   1   2
BRANCH   1   5
ATOM      5  C   UNL     1      -4.490  27.470  55.306  1.00  0.00     0.003 C 
ATOM      6  C   UNL     1      -4.443  28.597  56.335  1.00  0.00     0.004 C 
ENDBRANCH   1   5
TORSDOF 2
ENDMDL
MODEL 6
REMARK VINA RESULT:    -3.696      1.014      1.174
REMARK INTER + INTRA:          -4.163
REMARK INTER:                  -4.132
REMARK INTRA:                  -0.031
REMARK UNBOUND:                -0.035
REMARK SMILES CCCC(=O)[O-]
REMARK SMILES IDX 3 1 4 2 5 3 6 4 2 5 1 6
REMARK H PARENT
REMARK Flexibility Score: inf
ROOT
ATOM      1  C   UNL     1      -3.005  27.864  55.893  1.00  0.00     0.052 C 
ENDROOT
BRANCH   1   2
ATOM      2  C   UNL     1      -4.267  28.570  56.283  1.00  0.00     0.041 C 
ATOM      3  O   UNL     1      -5.381  28.158  55.865  1.00  0.00    -0.550 OA
ATOM      4  O   UNL     1      -4.215  29.667  57.135  1.00  0.00    -0.550 OA
ENDBRANCH   1   2
BRANCH   1   5
ATOM      5  C   UNL     1      -3.291  26.485  55.284  1.00  0.00     0.003 C 
ATOM      6  C   UNL     1      -3.119  26.473  53.766  1.00  0.00     0.004 C 
ENDBRANCH   1   5
TORSDOF 2
ENDMDL
MODEL 7
REMARK VINA RESULT:    -3.678      2.512      3.511
REMARK INTER + INTRA:          -4.143
REMARK INTER:                  -4.134
REMARK INTRA:                  -0.009
REMARK UNBOUND:                -0.035
REMARK SMILES CCCC(=O)[O-]
REMARK SMILES IDX 3 1 4 2 5 3 6 4 2 5 1 6
REMARK H PARENT
REMARK Flexibility Score: inf
ROOT
ATOM      1  C   UNL     1      -3.508  26.722  55.750  1.00  0.00     0.052 C 
ENDROOT
BRANCH   1   2
ATOM      2  C   UNL     1      -2.689  26.570  54.504  1.00  0.00     0.041 C 
ATOM      3  O   UNL     1      -1.433  26.511  54.573  1.00  0.00    -0.550 OA
ATOM      4  O   UNL     1      -3.316  26.463  53.269  1.00  0.00    -0.550 OA
ENDBRANCH   1   2
BRANCH   1   5
ATOM      5  C   UNL     1      -4.658  27.719  55.554  1.00  0.00     0.003 C 
ATOM      6  C   UNL     1      -4.674  28.806  56.628  1.00  0.00     0.004 C 
ENDBRANCH   1   5
TORSDOF 2
ENDMDL
MODEL 8
REMARK VINA RESULT:    -3.597      1.292      1.783
REMARK INTER + INTRA:          -4.052
REMARK INTER:                  -4.041
REMARK INTRA:                  -0.011
REMARK UNBOUND:                -0.035
REMARK SMILES CCCC(=O)[O-]
REMARK SMILES IDX 3 1 4 2 5 3 6 4 2 5 1 6
REMARK H PARENT
REMARK Flexibility Score: inf
ROOT
ATOM      1  C   UNL     1      -3.119  26.788  55.890  1.00  0.00     0.052 C 
ENDROOT
BRANCH   1   2
ATOM      2  C   UNL     1      -4.041  27.968  55.910  1.00  0.00     0.041 C 
ATOM      3  O   UNL     1      -3.595  29.119  56.163  1.00  0.00    -0.550 OA
ATOM      4  O   UNL     1      -5.389  27.802  55.617  1.00  0.00    -0.550 OA
ENDBRANCH   1   2
BRANCH   1   5
ATOM      5  C   UNL     1      -2.798  26.342  54.458  1.00  0.00     0.003 C 
ATOM      6  C   UNL     1      -1.301  26.139  54.234  1.00  0.00     0.004 C 
ENDBRANCH   1   5
TORSDOF 2
ENDMDL
MODEL 9
REMARK VINA RESULT:    -3.350      2.770      3.940
REMARK INTER + INTRA:          -3.776
REMARK INTER:                  -3.761
REMARK INTRA:                  -0.015
REMARK UNBOUND:                -0.035
REMARK SMILES CCCC(=O)[O-]
REMARK SMILES IDX 3 1 4 2 5 3 6 4 2 5 1 6
REMARK H PARENT
REMARK Flexibility Score: inf
ROOT
ATOM      1  C   UNL     1      -3.143  26.314  52.149  1.00  0.00     0.052 C 
ENDROOT
BRANCH   1   2
ATOM      2  C   UNL     1      -2.976  26.441  53.633  1.00  0.00     0.041 C 
ATOM      3  O   UNL     1      -1.837  26.322  54.156  1.00  0.00    -0.550 OA
ATOM      4  O   UNL     1      -4.075  26.723  54.434  1.00  0.00    -0.550 OA
ENDBRANCH   1   2
BRANCH   1   5
ATOM      5  C   UNL     1      -1.791  26.299  51.425  1.00  0.00     0.003 C 
ATOM      6  C   UNL     1      -1.836  27.049  50.095  1.00  0.00     0.004 C 
ENDBRANCH   1   5
TORSDOF 2
ENDMDL
