MODEL 1
REMARK VINA RESULT:    -6.693      0.000      0.000
REMARK INTER + INTRA:         -11.109
REMARK INTER:                  -9.432
REMARK INTRA:                  -1.677
REMARK UNBOUND:                -1.677
REMARK SMILES OC[C@H]1O[C@H](O[C@H]2OC=C[C@H]3[C@@H](O)[C@@H]4O[C@]4(CO)[C@@H]23)[C@H](O)[C@H](O)[C@H]1O
REMARK SMILES IDX 6 1 7 2 10 3 9 4 11 5 8 6 19 7 12 8 16 9 14 10 15 11 13 12
REMARK SMILES IDX 17 14 18 15 5 17 20 18 4 19 22 20 3 21 24 22 21 23 23 25
REMARK SMILES IDX 2 27 1 28 25 30
REMARK H PARENT 13 13 18 16 21 24 23 26 1 29 25 31
REMARK Flexibility Score: inf
ROOT
ATOM      1  O   UNL     1     -26.142 -23.019 -12.522  1.00  0.00    -0.310 OA
ENDROOT
BRANCH   1   2
ATOM      2  C   UNL     1     -26.875 -23.536 -11.426  1.00  0.00     0.315 C 
ATOM      3  C   UNL     1     -27.585 -23.916  -8.705  1.00  0.00     0.018 C 
ATOM      4  C   UNL     1     -26.400 -24.334  -9.155  1.00  0.00     0.186 C 
ATOM      5  C   UNL     1     -28.486 -22.993  -9.515  1.00  0.00     0.059 C 
ATOM      6  O   UNL     1     -25.963 -24.000 -10.439  1.00  0.00    -0.472 OA
ATOM      7  C   UNL     1     -27.813 -22.473 -10.807  1.00  0.00     0.105 C 
ATOM      8  C   UNL     1     -28.841 -21.708  -8.735  1.00  0.00     0.154 C 
ATOM      9  C   UNL     1     -27.159 -21.141 -10.390  1.00  0.00     0.130 C 
ATOM     10  C   UNL     1     -27.787 -20.677  -9.135  1.00  0.00     0.183 C 
ATOM     11  O   UNL     1     -28.066 -20.061 -10.375  1.00  0.00    -0.360 OA
BRANCH   8  12
ATOM     12  O   UNL     1     -28.906 -21.897  -7.342  1.00  0.00    -0.390 OA
ATOM     13  H   UNL     1     -28.041 -21.612  -6.945  1.00  0.00     0.211 HD
ENDBRANCH   8  12
BRANCH   9  14
ATOM     14  C   UNL     1     -25.708 -20.732 -10.699  1.00  0.00     0.195 C 
BRANCH  14  15
ATOM     15  O   UNL     1     -25.528 -20.420 -12.057  1.00  0.00    -0.393 OA
ATOM     16  H   UNL     1     -25.659 -19.440 -12.148  1.00  0.00     0.210 HD
ENDBRANCH  14  15
ENDBRANCH   9  14
ENDBRANCH   1   2
BRANCH   1  17
ATOM     17  C   UNL     1     -25.362 -24.014 -13.177  1.00  0.00     0.286 C 
ATOM     18  C   UNL     1     -24.121 -23.401 -13.867  1.00  0.00     0.202 C 
ATOM     19  O   UNL     1     -26.161 -24.733 -14.104  1.00  0.00    -0.341 OA
ATOM     20  C   UNL     1     -24.485 -22.590 -15.132  1.00  0.00     0.179 C 
ATOM     21  C   UNL     1     -26.663 -23.892 -15.131  1.00  0.00     0.178 C 
ATOM     22  C   UNL     1     -25.510 -23.348 -16.005  1.00  0.00     0.177 C 
BRANCH  18  23
ATOM     23  O   UNL     1     -23.409 -22.601 -12.958  1.00  0.00    -0.385 OA
ATOM     24  H   UNL     1     -24.082 -22.155 -12.380  1.00  0.00     0.211 HD
ENDBRANCH  18  23
BRANCH  20  25
ATOM     25  O   UNL     1     -24.925 -21.289 -14.822  1.00  0.00    -0.387 OA
ATOM     26  H   UNL     1     -24.582 -21.044 -13.926  1.00  0.00     0.211 HD
ENDBRANCH  20  25
BRANCH  21  27
ATOM     27  C   UNL     1     -27.665 -24.689 -15.979  1.00  0.00     0.191 C 
BRANCH  27  28
ATOM     28  O   UNL     1     -27.245 -26.021 -16.109  1.00  0.00    -0.394 OA
ATOM     29  H   UNL     1     -26.286 -26.044 -15.849  1.00  0.00     0.210 HD
ENDBRANCH  27  28
ENDBRANCH  21  27
BRANCH  22  30
ATOM     30  O   UNL     1     -24.870 -24.416 -16.658  1.00  0.00    -0.387 OA
ATOM     31  H   UNL     1     -25.183 -24.406 -17.600  1.00  0.00     0.211 HD
ENDBRANCH  22  30
ENDBRANCH   1  17
TORSDOF 10
ENDMDL
MODEL 2
REMARK VINA RESULT:    -6.560      1.469      1.919
REMARK INTER + INTRA:         -10.921
REMARK INTER:                  -9.406
REMARK INTRA:                  -1.514
REMARK UNBOUND:                -1.677
REMARK SMILES OC[C@H]1O[C@H](O[C@H]2OC=C[C@H]3[C@@H](O)[C@@H]4O[C@]4(CO)[C@@H]23)[C@H](O)[C@H](O)[C@H]1O
REMARK SMILES IDX 6 1 7 2 10 3 9 4 11 5 8 6 19 7 12 8 16 9 14 10 15 11 13 12
REMARK SMILES IDX 17 14 18 15 5 17 20 18 4 19 22 20 3 21 24 22 21 23 23 25
REMARK SMILES IDX 2 27 1 28 25 30
REMARK H PARENT 13 13 18 16 21 24 23 26 1 29 25 31
REMARK Flexibility Score: inf
ROOT
ATOM      1  O   UNL     1     -26.674 -22.627 -11.765  1.00  0.00    -0.310 OA
ENDROOT
BRANCH   1   2
ATOM      2  C   UNL     1     -27.605 -22.729 -10.702  1.00  0.00     0.315 C 
ATOM      3  C   UNL     1     -28.675 -22.269  -8.114  1.00  0.00     0.018 C 
ATOM      4  C   UNL     1     -27.536 -22.950  -8.260  1.00  0.00     0.186 C 
ATOM      5  C   UNL     1     -29.306 -21.482  -9.254  1.00  0.00     0.059 C 
ATOM      6  O   UNL     1     -26.905 -23.033  -9.502  1.00  0.00    -0.472 OA
ATOM      7  C   UNL     1     -28.411 -21.421 -10.515  1.00  0.00     0.105 C 
ATOM      8  C   UNL     1     -29.521 -20.000  -8.877  1.00  0.00     0.154 C 
ATOM      9  C   UNL     1     -27.590 -20.128 -10.341  1.00  0.00     0.130 C 
ATOM     10  C   UNL     1     -28.267 -19.266  -9.350  1.00  0.00     0.183 C 
ATOM     11  O   UNL     1     -28.294 -18.971 -10.731  1.00  0.00    -0.360 OA
BRANCH   8  12
ATOM     12  O   UNL     1     -29.776 -19.800  -7.507  1.00  0.00    -0.390 OA
ATOM     13  H   UNL     1     -29.004 -19.316  -7.111  1.00  0.00     0.211 HD
ENDBRANCH   8  12
BRANCH   9  14
ATOM     14  C   UNL     1     -26.064 -20.019 -10.513  1.00  0.00     0.195 C 
BRANCH  14  15
ATOM     15  O   UNL     1     -25.703 -19.772 -11.848  1.00  0.00    -0.393 OA
ATOM     16  H   UNL     1     -24.829 -20.218 -11.999  1.00  0.00     0.210 HD
ENDBRANCH  14  15
ENDBRANCH   9  14
ENDBRANCH   1   2
BRANCH   1  17
ATOM     17  C   UNL     1     -26.069 -23.876 -12.083  1.00  0.00     0.286 C 
ATOM     18  C   UNL     1     -24.560 -23.879 -11.742  1.00  0.00     0.202 C 
ATOM     19  O   UNL     1     -26.287 -24.193 -13.449  1.00  0.00    -0.341 OA
ATOM     20  C   UNL     1     -23.729 -23.017 -12.721  1.00  0.00     0.179 C 
ATOM     21  C   UNL     1     -25.691 -23.239 -14.314  1.00  0.00     0.178 C 
ATOM     22  C   UNL     1     -24.151 -23.271 -14.185  1.00  0.00     0.177 C 
BRANCH  18  23
ATOM     23  O   UNL     1     -24.363 -23.451 -10.419  1.00  0.00    -0.385 OA
ATOM     24  H   UNL     1     -24.197 -22.472 -10.456  1.00  0.00     0.211 HD
ENDBRANCH  18  23
BRANCH  20  25
ATOM     25  O   UNL     1     -23.775 -21.648 -12.393  1.00  0.00    -0.387 OA
ATOM     26  H   UNL     1     -24.598 -21.257 -12.779  1.00  0.00     0.211 HD
ENDBRANCH  20  25
BRANCH  21  27
ATOM     27  C   UNL     1     -26.126 -23.538 -15.756  1.00  0.00     0.191 C 
BRANCH  27  28
ATOM     28  O   UNL     1     -25.152 -23.095 -16.663  1.00  0.00    -0.394 OA
ATOM     29  H   UNL     1     -24.454 -23.801 -16.699  1.00  0.00     0.210 HD
ENDBRANCH  27  28
ENDBRANCH  21  27
BRANCH  22  30
ATOM     30  O   UNL     1     -23.670 -24.524 -14.601  1.00  0.00    -0.387 OA
ATOM     31  H   UNL     1     -23.487 -24.453 -15.574  1.00  0.00     0.211 HD
ENDBRANCH  22  30
ENDBRANCH   1  17
TORSDOF 10
ENDMDL
MODEL 3
REMARK VINA RESULT:    -6.381      2.055      6.702
REMARK INTER + INTRA:         -10.670
REMARK INTER:                  -9.523
REMARK INTRA:                  -1.146
REMARK UNBOUND:                -1.677
REMARK SMILES OC[C@H]1O[C@H](O[C@H]2OC=C[C@H]3[C@@H](O)[C@@H]4O[C@]4(CO)[C@@H]23)[C@H](O)[C@H](O)[C@H]1O
REMARK SMILES IDX 6 1 7 2 10 3 9 4 11 5 8 6 19 7 12 8 16 9 14 10 15 11 13 12
REMARK SMILES IDX 17 14 18 15 5 17 20 18 4 19 22 20 3 21 24 22 21 23 23 25
REMARK SMILES IDX 2 27 1 28 25 30
REMARK H PARENT 13 13 18 16 21 24 23 26 1 29 25 31
REMARK Flexibility Score: inf
ROOT
ATOM      1  O   UNL     1     -27.343 -22.700 -10.244  1.00  0.00    -0.310 OA
ENDROOT
BRANCH   1   2
ATOM      2  C   UNL     1     -26.470 -21.799 -10.904  1.00  0.00     0.315 C 
ATOM      3  C   UNL     1     -24.005 -20.808 -11.899  1.00  0.00     0.018 C 
ATOM      4  C   UNL     1     -24.199 -20.929 -10.583  1.00  0.00     0.186 C 
ATOM      5  C   UNL     1     -24.944 -21.429 -12.923  1.00  0.00     0.059 C 
ATOM      6  O   UNL     1     -25.330 -21.577 -10.083  1.00  0.00    -0.472 OA
ATOM      7  C   UNL     1     -26.021 -22.338 -12.283  1.00  0.00     0.105 C 
ATOM      8  C   UNL     1     -24.195 -22.367 -13.894  1.00  0.00     0.154 C 
ATOM      9  C   UNL     1     -25.394 -23.746 -12.298  1.00  0.00     0.130 C 
ATOM     10  C   UNL     1     -24.289 -23.762 -13.279  1.00  0.00     0.183 C 
ATOM     11  O   UNL     1     -25.524 -24.395 -13.542  1.00  0.00    -0.360 OA
BRANCH   8  12
ATOM     12  O   UNL     1     -22.864 -21.976 -14.138  1.00  0.00    -0.390 OA
ATOM     13  H   UNL     1     -22.620 -21.268 -13.485  1.00  0.00     0.211 HD
ENDBRANCH   8  12
BRANCH   9  14
ATOM     14  C   UNL     1     -25.345 -24.706 -11.095  1.00  0.00     0.195 C 
BRANCH  14  15
ATOM     15  O   UNL     1     -24.510 -24.225 -10.073  1.00  0.00    -0.393 OA
ATOM     16  H   UNL     1     -23.847 -23.622 -10.501  1.00  0.00     0.210 HD
ENDBRANCH  14  15
ENDBRANCH   9  14
ENDBRANCH   1   2
BRANCH   1  17
ATOM     17  C   UNL     1     -27.328 -22.539  -8.829  1.00  0.00     0.286 C 
ATOM     18  C   UNL     1     -27.870 -23.796  -8.109  1.00  0.00     0.202 C 
ATOM     19  O   UNL     1     -28.059 -21.380  -8.459  1.00  0.00    -0.341 OA
ATOM     20  C   UNL     1     -29.401 -23.953  -8.260  1.00  0.00     0.179 C 
ATOM     21  C   UNL     1     -29.426 -21.480  -8.826  1.00  0.00     0.178 C 
ATOM     22  C   UNL     1     -30.125 -22.608  -8.033  1.00  0.00     0.177 C 
BRANCH  18  23
ATOM     23  O   UNL     1     -27.209 -24.944  -8.577  1.00  0.00    -0.385 OA
ATOM     24  H   UNL     1     -27.581 -25.143  -9.476  1.00  0.00     0.211 HD
ENDBRANCH  18  23
BRANCH  20  25
ATOM     25  O   UNL     1     -29.756 -24.536  -9.492  1.00  0.00    -0.387 OA
ATOM     26  H   UNL     1     -30.240 -25.380  -9.316  1.00  0.00     0.211 HD
ENDBRANCH  20  25
BRANCH  21  27
ATOM     27  C   UNL     1     -30.107 -20.127  -8.571  1.00  0.00     0.191 C 
BRANCH  27  28
ATOM     28  O   UNL     1     -29.531 -19.491  -7.463  1.00  0.00    -0.394 OA
ATOM     29  H   UNL     1     -29.963 -19.875  -6.656  1.00  0.00     0.210 HD
ENDBRANCH  27  28
ENDBRANCH  21  27
BRANCH  22  30
ATOM     30  O   UNL     1     -30.114 -22.295  -6.662  1.00  0.00    -0.387 OA
ATOM     31  H   UNL     1     -30.931 -21.761  -6.482  1.00  0.00     0.211 HD
ENDBRANCH  22  30
ENDBRANCH   1  17
TORSDOF 10
ENDMDL
MODEL 4
REMARK VINA RESULT:    -6.079      2.198      6.381
REMARK INTER + INTRA:         -10.243
REMARK INTER:                  -9.396
REMARK INTRA:                  -0.847
REMARK UNBOUND:                -1.677
REMARK SMILES OC[C@H]1O[C@H](O[C@H]2OC=C[C@H]3[C@@H](O)[C@@H]4O[C@]4(CO)[C@@H]23)[C@H](O)[C@H](O)[C@H]1O
REMARK SMILES IDX 6 1 7 2 10 3 9 4 11 5 8 6 19 7 12 8 16 9 14 10 15 11 13 12
REMARK SMILES IDX 17 14 18 15 5 17 20 18 4 19 22 20 3 21 24 22 21 23 23 25
REMARK SMILES IDX 2 27 1 28 25 30
REMARK H PARENT 13 13 18 16 21 24 23 26 1 29 25 31
REMARK Flexibility Score: inf
ROOT
ATOM      1  O   UNL     1     -26.725 -22.442  -9.761  1.00  0.00    -0.310 OA
ENDROOT
BRANCH   1   2
ATOM      2  C   UNL     1     -26.148 -21.678 -10.805  1.00  0.00     0.315 C 
ATOM      3  C   UNL     1     -24.077 -20.639 -12.444  1.00  0.00     0.018 C 
ATOM      4  C   UNL     1     -24.127 -20.329 -11.146  1.00  0.00     0.186 C 
ATOM      5  C   UNL     1     -24.926 -21.748 -13.051  1.00  0.00     0.059 C 
ATOM      6  O   UNL     1     -25.028 -20.968 -10.292  1.00  0.00    -0.472 OA
ATOM      7  C   UNL     1     -25.700 -22.566 -11.991  1.00  0.00     0.105 C 
ATOM      8  C   UNL     1     -24.059 -22.801 -13.775  1.00  0.00     0.154 C 
ATOM      9  C   UNL     1     -24.762 -23.741 -11.651  1.00  0.00     0.130 C 
ATOM     10  C   UNL     1     -23.770 -23.884 -12.737  1.00  0.00     0.183 C 
ATOM     11  O   UNL     1     -24.838 -24.795 -12.584  1.00  0.00    -0.360 OA
BRANCH   8  12
ATOM     12  O   UNL     1     -22.884 -22.270 -14.339  1.00  0.00    -0.390 OA
ATOM     13  H   UNL     1     -22.462 -21.664 -13.674  1.00  0.00     0.211 HD
ENDBRANCH   8  12
BRANCH   9  14
ATOM     14  C   UNL     1     -24.388 -24.192 -10.228  1.00  0.00     0.195 C 
BRANCH  14  15
ATOM     15  O   UNL     1     -24.394 -25.592 -10.103  1.00  0.00    -0.393 OA
ATOM     16  H   UNL     1     -24.084 -25.801  -9.183  1.00  0.00     0.210 HD
ENDBRANCH  14  15
ENDBRANCH   9  14
ENDBRANCH   1   2
BRANCH   1  17
ATOM     17  C   UNL     1     -27.892 -23.143 -10.178  1.00  0.00     0.286 C 
ATOM     18  C   UNL     1     -29.174 -22.521  -9.575  1.00  0.00     0.202 C 
ATOM     19  O   UNL     1     -27.784 -24.518  -9.844  1.00  0.00    -0.341 OA
ATOM     20  C   UNL     1     -29.318 -22.806  -8.063  1.00  0.00     0.179 C 
ATOM     21  C   UNL     1     -27.691 -24.715  -8.442  1.00  0.00     0.178 C 
ATOM     22  C   UNL     1     -28.998 -24.282  -7.740  1.00  0.00     0.177 C 
BRANCH  18  23
ATOM     23  O   UNL     1     -29.201 -21.138  -9.821  1.00  0.00    -0.385 OA
ATOM     24  H   UNL     1     -29.613 -21.013 -10.715  1.00  0.00     0.211 HD
ENDBRANCH  18  23
BRANCH  20  25
ATOM     25  O   UNL     1     -28.550 -21.922  -7.280  1.00  0.00    -0.387 OA
ATOM     26  H   UNL     1     -28.642 -22.179  -6.329  1.00  0.00     0.211 HD
ENDBRANCH  20  25
BRANCH  21  27
ATOM     27  C   UNL     1     -27.386 -26.195  -8.168  1.00  0.00     0.191 C 
BRANCH  27  28
ATOM     28  O   UNL     1     -26.004 -26.392  -8.027  1.00  0.00    -0.394 OA
ATOM     29  H   UNL     1     -25.783 -26.188  -7.080  1.00  0.00     0.210 HD
ENDBRANCH  27  28
ENDBRANCH  21  27
BRANCH  22  30
ATOM     30  O   UNL     1     -30.057 -25.098  -8.174  1.00  0.00    -0.387 OA
ATOM     31  H   UNL     1     -30.883 -24.747  -7.750  1.00  0.00     0.211 HD
ENDBRANCH  22  30
ENDBRANCH   1  17
TORSDOF 10
ENDMDL
MODEL 5
REMARK VINA RESULT:    -5.820      1.928      6.390
REMARK INTER + INTRA:          -9.879
REMARK INTER:                  -8.723
REMARK INTRA:                  -1.155
REMARK UNBOUND:                -1.677
REMARK SMILES OC[C@H]1O[C@H](O[C@H]2OC=C[C@H]3[C@@H](O)[C@@H]4O[C@]4(CO)[C@@H]23)[C@H](O)[C@H](O)[C@H]1O
REMARK SMILES IDX 6 1 7 2 10 3 9 4 11 5 8 6 19 7 12 8 16 9 14 10 15 11 13 12
REMARK SMILES IDX 17 14 18 15 5 17 20 18 4 19 22 20 3 21 24 22 21 23 23 25
REMARK SMILES IDX 2 27 1 28 25 30
REMARK H PARENT 13 13 18 16 21 24 23 26 1 29 25 31
REMARK Flexibility Score: inf
ROOT
ATOM      1  O   UNL     1     -27.520 -22.571 -10.730  1.00  0.00    -0.310 OA
ENDROOT
BRANCH   1   2
ATOM      2  C   UNL     1     -26.622 -23.358 -11.493  1.00  0.00     0.315 C 
ATOM      3  C   UNL     1     -25.006 -24.060 -13.717  1.00  0.00     0.018 C 
ATOM      4  C   UNL     1     -26.333 -23.993 -13.844  1.00  0.00     0.186 C 
ATOM      5  C   UNL     1     -24.275 -23.513 -12.498  1.00  0.00     0.059 C 
ATOM      6  O   UNL     1     -27.127 -23.480 -12.816  1.00  0.00    -0.472 OA
ATOM      7  C   UNL     1     -25.204 -22.739 -11.533  1.00  0.00     0.105 C 
ATOM      8  C   UNL     1     -23.199 -22.477 -12.890  1.00  0.00     0.154 C 
ATOM      9  C   UNL     1     -25.109 -21.274 -12.000  1.00  0.00     0.130 C 
ATOM     10  C   UNL     1     -23.890 -21.116 -12.820  1.00  0.00     0.183 C 
ATOM     11  O   UNL     1     -23.968 -20.609 -11.504  1.00  0.00    -0.360 OA
BRANCH   8  12
ATOM     12  O   UNL     1     -22.619 -22.721 -14.150  1.00  0.00    -0.390 OA
ATOM     13  H   UNL     1     -23.046 -23.527 -14.542  1.00  0.00     0.211 HD
ENDBRANCH   8  12
BRANCH   9  14
ATOM     14  C   UNL     1     -26.310 -20.345 -12.254  1.00  0.00     0.195 C 
BRANCH  14  15
ATOM     15  O   UNL     1     -26.662 -19.616 -11.106  1.00  0.00    -0.393 OA
ATOM     16  H   UNL     1     -25.950 -19.775 -10.433  1.00  0.00     0.210 HD
ENDBRANCH  14  15
ENDBRANCH   9  14
ENDBRANCH   1   2
BRANCH   1  17
ATOM     17  C   UNL     1     -27.201 -22.566  -9.342  1.00  0.00     0.286 C 
ATOM     18  C   UNL     1     -27.886 -23.736  -8.598  1.00  0.00     0.202 C 
ATOM     19  O   UNL     1     -27.546 -21.317  -8.763  1.00  0.00    -0.341 OA
ATOM     20  C   UNL     1     -29.409 -23.526  -8.437  1.00  0.00     0.179 C 
ATOM     21  C   UNL     1     -28.941 -21.067  -8.843  1.00  0.00     0.178 C 
ATOM     22  C   UNL     1     -29.730 -22.083  -7.988  1.00  0.00     0.177 C 
BRANCH  18  23
ATOM     23  O   UNL     1     -27.623 -24.948  -9.257  1.00  0.00    -0.385 OA
ATOM     24  H   UNL     1     -28.361 -25.570  -9.020  1.00  0.00     0.211 HD
ENDBRANCH  18  23
BRANCH  20  25
ATOM     25  O   UNL     1     -30.121 -23.882  -9.599  1.00  0.00    -0.387 OA
ATOM     26  H   UNL     1     -29.927 -23.217 -10.305  1.00  0.00     0.211 HD
ENDBRANCH  20  25
BRANCH  21  27
ATOM     27  C   UNL     1     -29.213 -19.629  -8.376  1.00  0.00     0.191 C 
BRANCH  27  28
ATOM     28  O   UNL     1     -28.617 -18.710  -9.252  1.00  0.00    -0.394 OA
ATOM     29  H   UNL     1     -28.901 -17.806  -8.953  1.00  0.00     0.210 HD
ENDBRANCH  27  28
ENDBRANCH  21  27
BRANCH  22  30
ATOM     30  O   UNL     1     -29.386 -21.926  -6.634  1.00  0.00    -0.387 OA
ATOM     31  H   UNL     1     -28.396 -21.984  -6.579  1.00  0.00     0.211 HD
ENDBRANCH  22  30
ENDBRANCH   1  17
TORSDOF 10
ENDMDL
MODEL 6
REMARK VINA RESULT:    -5.666      1.870      3.253
REMARK INTER + INTRA:          -9.662
REMARK INTER:                  -8.735
REMARK INTRA:                  -0.927
REMARK UNBOUND:                -1.677
REMARK SMILES OC[C@H]1O[C@H](O[C@H]2OC=C[C@H]3[C@@H](O)[C@@H]4O[C@]4(CO)[C@@H]23)[C@H](O)[C@H](O)[C@H]1O
REMARK SMILES IDX 6 1 7 2 10 3 9 4 11 5 8 6 19 7 12 8 16 9 14 10 15 11 13 12
REMARK SMILES IDX 17 14 18 15 5 17 20 18 4 19 22 20 3 21 24 22 21 23 23 25
REMARK SMILES IDX 2 27 1 28 25 30
REMARK H PARENT 13 13 18 16 21 24 23 26 1 29 25 31
REMARK Flexibility Score: inf
ROOT
ATOM      1  O   UNL     1     -26.221 -21.507 -11.242  1.00  0.00    -0.310 OA
ENDROOT
BRANCH   1   2
ATOM      2  C   UNL     1     -26.694 -20.823 -10.095  1.00  0.00     0.315 C 
ATOM      3  C   UNL     1     -28.609 -19.703  -8.326  1.00  0.00     0.018 C 
ATOM      4  C   UNL     1     -28.465 -19.212  -9.559  1.00  0.00     0.186 C 
ATOM      5  C   UNL     1     -27.983 -21.022  -7.894  1.00  0.00     0.059 C 
ATOM      6  O   UNL     1     -27.659 -19.859 -10.498  1.00  0.00    -0.472 OA
ATOM      7  C   UNL     1     -27.325 -21.790  -9.065  1.00  0.00     0.105 C 
ATOM      8  C   UNL     1     -29.039 -22.008  -7.349  1.00  0.00     0.154 C 
ATOM      9  C   UNL     1     -28.438 -22.719  -9.589  1.00  0.00     0.130 C 
ATOM     10  C   UNL     1     -29.474 -22.852  -8.545  1.00  0.00     0.183 C 
ATOM     11  O   UNL     1     -28.572 -23.901  -8.832  1.00  0.00    -0.360 OA
BRANCH   8  12
ATOM     12  O   UNL     1     -30.125 -21.373  -6.715  1.00  0.00    -0.390 OA
ATOM     13  H   UNL     1     -29.829 -21.065  -5.819  1.00  0.00     0.211 HD
ENDBRANCH   8  12
BRANCH   9  14
ATOM     14  C   UNL     1     -28.836 -22.876 -11.067  1.00  0.00     0.195 C 
BRANCH  14  15
ATOM     15  O   UNL     1     -27.867 -23.582 -11.800  1.00  0.00    -0.393 OA
ATOM     16  H   UNL     1     -27.376 -22.915 -12.347  1.00  0.00     0.210 HD
ENDBRANCH  14  15
ENDBRANCH   9  14
ENDBRANCH   1   2
BRANCH   1  17
ATOM     17  C   UNL     1     -24.848 -21.867 -11.137  1.00  0.00     0.286 C 
ATOM     18  C   UNL     1     -23.938 -20.857 -11.874  1.00  0.00     0.202 C 
ATOM     19  O   UNL     1     -24.648 -23.186 -11.622  1.00  0.00    -0.341 OA
ATOM     20  C   UNL     1     -24.043 -20.976 -13.412  1.00  0.00     0.179 C 
ATOM     21  C   UNL     1     -24.977 -23.298 -12.998  1.00  0.00     0.178 C 
ATOM     22  C   UNL     1     -24.012 -22.453 -13.861  1.00  0.00     0.177 C 
BRANCH  18  23
ATOM     23  O   UNL     1     -24.235 -19.548 -11.460  1.00  0.00    -0.385 OA
ATOM     24  H   UNL     1     -23.540 -18.958 -11.854  1.00  0.00     0.211 HD
ENDBRANCH  18  23
BRANCH  20  25
ATOM     25  O   UNL     1     -25.167 -20.298 -13.923  1.00  0.00    -0.387 OA
ATOM     26  H   UNL     1     -24.869 -19.684 -14.639  1.00  0.00     0.211 HD
ENDBRANCH  20  25
BRANCH  21  27
ATOM     27  C   UNL     1     -24.921 -24.779 -13.402  1.00  0.00     0.191 C 
BRANCH  27  28
ATOM     28  O   UNL     1     -24.322 -24.919 -14.662  1.00  0.00    -0.394 OA
ATOM     29  H   UNL     1     -24.472 -24.065 -15.146  1.00  0.00     0.210 HD
ENDBRANCH  27  28
ENDBRANCH  21  27
BRANCH  22  30
ATOM     30  O   UNL     1     -22.705 -22.955 -13.734  1.00  0.00    -0.387 OA
ATOM     31  H   UNL     1     -22.252 -22.407 -13.042  1.00  0.00     0.211 HD
ENDBRANCH  22  30
ENDBRANCH   1  17
TORSDOF 10
ENDMDL
MODEL 7
REMARK VINA RESULT:    -5.532      2.591      6.074
REMARK INTER + INTRA:          -9.472
REMARK INTER:                  -8.398
REMARK INTRA:                  -1.074
REMARK UNBOUND:                -1.677
REMARK SMILES OC[C@H]1O[C@H](O[C@H]2OC=C[C@H]3[C@@H](O)[C@@H]4O[C@]4(CO)[C@@H]23)[C@H](O)[C@H](O)[C@H]1O
REMARK SMILES IDX 6 1 7 2 10 3 9 4 11 5 8 6 19 7 12 8 16 9 14 10 15 11 13 12
REMARK SMILES IDX 17 14 18 15 5 17 20 18 4 19 22 20 3 21 24 22 21 23 23 25
REMARK SMILES IDX 2 27 1 28 25 30
REMARK H PARENT 13 13 18 16 21 24 23 26 1 29 25 31
REMARK Flexibility Score: inf
ROOT
ATOM      1  O   UNL     1     -26.537 -24.613  -9.689  1.00  0.00    -0.310 OA
ENDROOT
BRANCH   1   2
ATOM      2  C   UNL     1     -25.416 -23.871 -10.137  1.00  0.00     0.315 C 
ATOM      3  C   UNL     1     -23.893 -22.248 -11.896  1.00  0.00     0.018 C 
ATOM      4  C   UNL     1     -24.240 -23.486 -12.255  1.00  0.00     0.186 C 
ATOM      5  C   UNL     1     -24.500 -21.547 -10.688  1.00  0.00     0.059 C 
ATOM      6  O   UNL     1     -25.134 -24.231 -11.484  1.00  0.00    -0.472 OA
ATOM      7  C   UNL     1     -25.660 -22.346 -10.047  1.00  0.00     0.105 C 
ATOM      8  C   UNL     1     -25.145 -20.198 -11.072  1.00  0.00     0.154 C 
ATOM      9  C   UNL     1     -26.926 -21.812 -10.745  1.00  0.00     0.130 C 
ATOM     10  C   UNL     1     -26.613 -20.507 -11.362  1.00  0.00     0.183 C 
ATOM     11  O   UNL     1     -27.394 -20.603 -10.190  1.00  0.00    -0.360 OA
BRANCH   8  12
ATOM     12  O   UNL     1     -24.507 -19.558 -12.152  1.00  0.00    -0.390 OA
ATOM     13  H   UNL     1     -24.296 -18.625 -11.884  1.00  0.00     0.211 HD
ENDBRANCH   8  12
BRANCH   9  14
ATOM     14  C   UNL     1     -28.034 -22.687 -11.359  1.00  0.00     0.195 C 
BRANCH  14  15
ATOM     15  O   UNL     1     -27.556 -23.469 -12.423  1.00  0.00    -0.393 OA
ATOM     16  H   UNL     1     -28.088 -23.222 -13.225  1.00  0.00     0.210 HD
ENDBRANCH  14  15
ENDBRANCH   9  14
ENDBRANCH   1   2
BRANCH   1  17
ATOM     17  C   UNL     1     -26.669 -24.602  -8.271  1.00  0.00     0.286 C 
ATOM     18  C   UNL     1     -26.784 -26.035  -7.700  1.00  0.00     0.202 C 
ATOM     19  O   UNL     1     -27.780 -23.806  -7.888  1.00  0.00    -0.341 OA
ATOM     20  C   UNL     1     -28.152 -26.688  -8.008  1.00  0.00     0.179 C 
ATOM     21  C   UNL     1     -29.000 -24.328  -8.389  1.00  0.00     0.178 C 
ATOM     22  C   UNL     1     -29.312 -25.701  -7.751  1.00  0.00     0.177 C 
BRANCH  18  23
ATOM     23  O   UNL     1     -25.737 -26.834  -8.187  1.00  0.00    -0.385 OA
ATOM     24  H   UNL     1     -25.832 -26.862  -9.175  1.00  0.00     0.211 HD
ENDBRANCH  18  23
BRANCH  20  25
ATOM     25  O   UNL     1     -28.203 -27.228  -9.307  1.00  0.00    -0.387 OA
ATOM     26  H   UNL     1     -27.332 -27.653  -9.509  1.00  0.00     0.211 HD
ENDBRANCH  20  25
BRANCH  21  27
ATOM     27  C   UNL     1     -30.125 -23.322  -8.101  1.00  0.00     0.191 C 
BRANCH  27  28
ATOM     28  O   UNL     1     -29.820 -22.074  -8.664  1.00  0.00    -0.394 OA
ATOM     29  H   UNL     1     -28.975 -21.769  -8.241  1.00  0.00     0.210 HD
ENDBRANCH  27  28
ENDBRANCH  21  27
BRANCH  22  30
ATOM     30  O   UNL     1     -29.498 -25.545  -6.367  1.00  0.00    -0.387 OA
ATOM     31  H   UNL     1     -30.322 -26.044  -6.129  1.00  0.00     0.211 HD
ENDBRANCH  22  30
ENDBRANCH   1  17
TORSDOF 10
ENDMDL
MODEL 8
REMARK VINA RESULT:    -5.207      1.982      6.187
REMARK INTER + INTRA:          -9.015
REMARK INTER:                  -7.526
REMARK INTRA:                  -1.489
REMARK UNBOUND:                -1.677
REMARK SMILES OC[C@H]1O[C@H](O[C@H]2OC=C[C@H]3[C@@H](O)[C@@H]4O[C@]4(CO)[C@@H]23)[C@H](O)[C@H](O)[C@H]1O
REMARK SMILES IDX 6 1 7 2 10 3 9 4 11 5 8 6 19 7 12 8 16 9 14 10 15 11 13 12
REMARK SMILES IDX 17 14 18 15 5 17 20 18 4 19 22 20 3 21 24 22 21 23 23 25
REMARK SMILES IDX 2 27 1 28 25 30
REMARK H PARENT 13 13 18 16 21 24 23 26 1 29 25 31
REMARK Flexibility Score: inf
ROOT
ATOM      1  O   UNL     1     -27.195 -23.197 -10.170  1.00  0.00    -0.310 OA
ENDROOT
BRANCH   1   2
ATOM      2  C   UNL     1     -26.335 -23.556 -11.237  1.00  0.00     0.315 C 
ATOM      3  C   UNL     1     -25.077 -23.319 -13.770  1.00  0.00     0.018 C 
ATOM      4  C   UNL     1     -26.395 -23.521 -13.690  1.00  0.00     0.186 C 
ATOM      5  C   UNL     1     -24.235 -22.937 -12.560  1.00  0.00     0.059 C 
ATOM      6  O   UNL     1     -27.054 -23.462 -12.461  1.00  0.00    -0.472 OA
ATOM      7  C   UNL     1     -25.084 -22.647 -11.300  1.00  0.00     0.105 C 
ATOM      8  C   UNL     1     -23.457 -21.624 -12.795  1.00  0.00     0.154 C 
ATOM      9  C   UNL     1     -25.342 -21.128 -11.352  1.00  0.00     0.130 C 
ATOM     10  C   UNL     1     -24.351 -20.509 -12.256  1.00  0.00     0.183 C 
ATOM     11  O   UNL     1     -24.265 -20.368 -10.854  1.00  0.00    -0.360 OA
BRANCH   8  12
ATOM     12  O   UNL     1     -23.095 -21.419 -14.141  1.00  0.00    -0.390 OA
ATOM     13  H   UNL     1     -22.106 -21.478 -14.212  1.00  0.00     0.211 HD
ENDBRANCH   8  12
BRANCH   9  14
ATOM     14  C   UNL     1     -26.716 -20.457 -11.170  1.00  0.00     0.195 C 
BRANCH  14  15
ATOM     15  O   UNL     1     -27.157 -20.516  -9.838  1.00  0.00    -0.393 OA
ATOM     16  H   UNL     1     -26.365 -20.349  -9.264  1.00  0.00     0.210 HD
ENDBRANCH  14  15
ENDBRANCH   9  14
ENDBRANCH   1   2
BRANCH   1  17
ATOM     17  C   UNL     1     -28.362 -24.011 -10.111  1.00  0.00     0.286 C 
ATOM     18  C   UNL     1     -29.527 -23.283  -9.399  1.00  0.00     0.202 C 
ATOM     19  O   UNL     1     -28.067 -25.247  -9.479  1.00  0.00    -0.341 OA
ATOM     20  C   UNL     1     -29.307 -23.165  -7.873  1.00  0.00     0.179 C 
ATOM     21  C   UNL     1     -27.649 -25.066  -8.135  1.00  0.00     0.178 C 
ATOM     22  C   UNL     1     -28.801 -24.496  -7.276  1.00  0.00     0.177 C 
BRANCH  18  23
ATOM     23  O   UNL     1     -29.723 -22.014  -9.968  1.00  0.00    -0.385 OA
ATOM     24  H   UNL     1     -29.461 -22.085 -10.924  1.00  0.00     0.211 HD
ENDBRANCH  18  23
BRANCH  20  25
ATOM     25  O   UNL     1     -28.463 -22.088  -7.539  1.00  0.00    -0.387 OA
ATOM     26  H   UNL     1     -28.986 -21.421  -7.029  1.00  0.00     0.211 HD
ENDBRANCH  20  25
BRANCH  21  27
ATOM     27  C   UNL     1     -27.167 -26.415  -7.581  1.00  0.00     0.191 C 
BRANCH  27  28
ATOM     28  O   UNL     1     -25.862 -26.684  -8.016  1.00  0.00    -0.394 OA
ATOM     29  H   UNL     1     -25.727 -26.165  -8.852  1.00  0.00     0.210 HD
ENDBRANCH  27  28
ENDBRANCH  21  27
BRANCH  22  30
ATOM     30  O   UNL     1     -29.857 -25.422  -7.231  1.00  0.00    -0.387 OA
ATOM     31  H   UNL     1     -30.366 -25.320  -8.077  1.00  0.00     0.211 HD
ENDBRANCH  22  30
ENDBRANCH   1  17
TORSDOF 10
ENDMDL
MODEL 9
REMARK VINA RESULT:    -5.036      1.327      2.539
REMARK INTER + INTRA:          -8.773
REMARK INTER:                  -7.686
REMARK INTRA:                  -1.088
REMARK UNBOUND:                -1.677
REMARK SMILES OC[C@H]1O[C@H](O[C@H]2OC=C[C@H]3[C@@H](O)[C@@H]4O[C@]4(CO)[C@@H]23)[C@H](O)[C@H](O)[C@H]1O
REMARK SMILES IDX 6 1 7 2 10 3 9 4 11 5 8 6 19 7 12 8 16 9 14 10 15 11 13 12
REMARK SMILES IDX 17 14 18 15 5 17 20 18 4 19 22 20 3 21 24 22 21 23 23 25
REMARK SMILES IDX 2 27 1 28 25 30
REMARK H PARENT 13 13 18 16 21 24 23 26 1 29 25 31
REMARK Flexibility Score: inf
ROOT
ATOM      1  O   UNL     1     -25.690 -23.743 -12.210  1.00  0.00    -0.310 OA
ENDROOT
BRANCH   1   2
ATOM      2  C   UNL     1     -26.572 -24.124 -11.169  1.00  0.00     0.315 C 
ATOM      3  C   UNL     1     -27.589 -24.250  -8.523  1.00  0.00     0.018 C 
ATOM      4  C   UNL     1     -26.401 -24.785  -8.813  1.00  0.00     0.186 C 
ATOM      5  C   UNL     1     -28.325 -23.328  -9.485  1.00  0.00     0.059 C 
ATOM      6  O   UNL     1     -25.807 -24.578 -10.059  1.00  0.00    -0.472 OA
ATOM      7  C   UNL     1     -27.483 -22.953 -10.727  1.00  0.00     0.105 C 
ATOM      8  C   UNL     1     -28.656 -21.967  -8.835  1.00  0.00     0.154 C 
ATOM      9  C   UNL     1     -26.772 -21.645 -10.329  1.00  0.00     0.130 C 
ATOM     10  C   UNL     1     -27.488 -21.046  -9.184  1.00  0.00     0.183 C 
ATOM     11  O   UNL     1     -27.587 -20.505 -10.484  1.00  0.00    -0.360 OA
BRANCH   8  12
ATOM     12  O   UNL     1     -28.881 -22.047  -7.447  1.00  0.00    -0.390 OA
ATOM     13  H   UNL     1     -28.468 -22.886  -7.110  1.00  0.00     0.211 HD
ENDBRANCH   8  12
BRANCH   9  14
ATOM     14  C   UNL     1     -25.268 -21.365 -10.504  1.00  0.00     0.195 C 
BRANCH  14  15
ATOM     15  O   UNL     1     -24.481 -22.204  -9.697  1.00  0.00    -0.393 OA
ATOM     16  H   UNL     1     -24.056 -21.627  -9.010  1.00  0.00     0.210 HD
ENDBRANCH  14  15
ENDBRANCH   9  14
ENDBRANCH   1   2
BRANCH   1  17
ATOM     17  C   UNL     1     -26.367 -23.491 -13.437  1.00  0.00     0.286 C 
ATOM     18  C   UNL     1     -25.807 -24.363 -14.585  1.00  0.00     0.202 C 
ATOM     19  O   UNL     1     -26.299 -22.111 -13.760  1.00  0.00    -0.341 OA
ATOM     20  C   UNL     1     -24.407 -23.902 -15.050  1.00  0.00     0.179 C 
ATOM     21  C   UNL     1     -24.961 -21.681 -13.958  1.00  0.00     0.178 C 
ATOM     22  C   UNL     1     -24.344 -22.366 -15.198  1.00  0.00     0.177 C 
BRANCH  18  23
ATOM     23  O   UNL     1     -25.779 -25.712 -14.197  1.00  0.00    -0.385 OA
ATOM     24  H   UNL     1     -24.980 -25.827 -13.618  1.00  0.00     0.211 HD
ENDBRANCH  18  23
BRANCH  20  25
ATOM     25  O   UNL     1     -23.382 -24.389 -14.215  1.00  0.00    -0.387 OA
ATOM     26  H   UNL     1     -22.670 -23.705 -14.155  1.00  0.00     0.211 HD
ENDBRANCH  20  25
BRANCH  21  27
ATOM     27  C   UNL     1     -24.949 -20.153 -14.112  1.00  0.00     0.191 C 
BRANCH  27  28
ATOM     28  O   UNL     1     -23.772 -19.735 -14.749  1.00  0.00    -0.394 OA
ATOM     29  H   UNL     1     -23.066 -19.704 -14.051  1.00  0.00     0.210 HD
ENDBRANCH  27  28
ENDBRANCH  21  27
BRANCH  22  30
ATOM     30  O   UNL     1     -25.050 -21.976 -16.350  1.00  0.00    -0.387 OA
ATOM     31  H   UNL     1     -25.950 -22.390 -16.290  1.00  0.00     0.211 HD
ENDBRANCH  22  30
ENDBRANCH   1  17
TORSDOF 10
ENDMDL
