MODEL 1
REMARK VINA RESULT:    -3.680      0.000      0.000
REMARK INTER + INTRA:          -4.994
REMARK INTER:                  -4.755
REMARK INTRA:                  -0.238
REMARK UNBOUND:                -0.238
REMARK SMILES CCCCCCC(=O)[O-]
REMARK SMILES IDX 5 1 6 2 7 3 8 4 9 5 4 6 3 7 2 8 1 9
REMARK H PARENT
REMARK Flexibility Score: inf
ROOT
ATOM      1  C   UNL     1      33.937  44.749  21.566  1.00  0.00     0.006 C 
ENDROOT
BRANCH   1   2
ATOM      2  C   UNL     1      32.437  44.865  21.868  1.00  0.00     0.053 C 
BRANCH   2   3
ATOM      3  C   UNL     1      31.980  43.705  22.694  1.00  0.00     0.041 C 
ATOM      4  O   UNL     1      32.201  43.682  23.933  1.00  0.00    -0.550 OA
ATOM      5  O   UNL     1      31.352  42.624  22.087  1.00  0.00    -0.550 OA
ENDBRANCH   2   3
ENDBRANCH   1   2
BRANCH   1   6
ATOM      6  C   UNL     1      34.688  46.074  21.771  1.00  0.00     0.000 C 
BRANCH   6   7
ATOM      7  C   UNL     1      35.854  45.944  22.767  1.00  0.00    -0.000 C 
BRANCH   7   8
ATOM      8  C   UNL     1      35.617  44.842  23.810  1.00  0.00    -0.003 C 
ATOM      9  C   UNL     1      36.354  45.099  25.124  1.00  0.00     0.004 C 
ENDBRANCH   7   8
ENDBRANCH   6   7
ENDBRANCH   1   6
TORSDOF 5
ENDMDL
MODEL 2
REMARK VINA RESULT:    -3.529      3.002      4.714
REMARK INTER + INTRA:          -4.799
REMARK INTER:                  -4.611
REMARK INTRA:                  -0.188
REMARK UNBOUND:                -0.238
REMARK SMILES CCCCCCC(=O)[O-]
REMARK SMILES IDX 5 1 6 2 7 3 8 4 9 5 4 6 3 7 2 8 1 9
REMARK H PARENT
REMARK Flexibility Score: inf
ROOT
ATOM      1  C   UNL     1      34.017  44.892  22.448  1.00  0.00     0.006 C 
ENDROOT
BRANCH   1   2
ATOM      2  C   UNL     1      34.991  45.673  21.555  1.00  0.00     0.053 C 
BRANCH   2   3
ATOM      3  C   UNL     1      36.105  44.786  21.097  1.00  0.00     0.041 C 
ATOM      4  O   UNL     1      36.321  44.623  19.868  1.00  0.00    -0.550 OA
ATOM      5  O   UNL     1      36.873  44.099  22.029  1.00  0.00    -0.550 OA
ENDBRANCH   2   3
ENDBRANCH   1   2
BRANCH   1   6
ATOM      6  C   UNL     1      32.832  44.306  21.664  1.00  0.00     0.000 C 
BRANCH   6   7
ATOM      7  C   UNL     1      31.476  44.836  22.160  1.00  0.00    -0.000 C 
BRANCH   7   8
ATOM      8  C   UNL     1      31.201  46.274  21.697  1.00  0.00    -0.003 C 
ATOM      9  C   UNL     1      30.018  46.916  22.424  1.00  0.00     0.004 C 
ENDBRANCH   7   8
ENDBRANCH   6   7
ENDBRANCH   1   6
TORSDOF 5
ENDMDL
MODEL 3
REMARK VINA RESULT:    -3.370      2.505      4.141
REMARK INTER + INTRA:          -4.593
REMARK INTER:                  -4.307
REMARK INTRA:                  -0.286
REMARK UNBOUND:                -0.238
REMARK SMILES CCCCCCC(=O)[O-]
REMARK SMILES IDX 5 1 6 2 7 3 8 4 9 5 4 6 3 7 2 8 1 9
REMARK H PARENT
REMARK Flexibility Score: inf
ROOT
ATOM      1  C   UNL     1      34.763  45.021  21.180  1.00  0.00     0.006 C 
ENDROOT
BRANCH   1   2
ATOM      2  C   UNL     1      35.917  44.636  22.116  1.00  0.00     0.053 C 
BRANCH   2   3
ATOM      3  C   UNL     1      36.034  45.623  23.234  1.00  0.00     0.041 C 
ATOM      4  O   UNL     1      36.394  46.806  22.999  1.00  0.00    -0.550 OA
ATOM      5  O   UNL     1      35.793  45.223  24.542  1.00  0.00    -0.550 OA
ENDBRANCH   2   3
ENDBRANCH   1   2
BRANCH   1   6
ATOM      6  C   UNL     1      33.444  45.260  21.932  1.00  0.00     0.000 C 
BRANCH   6   7
ATOM      7  C   UNL     1      32.271  44.466  21.331  1.00  0.00    -0.000 C 
BRANCH   7   8
ATOM      8  C   UNL     1      31.723  43.405  22.298  1.00  0.00    -0.003 C 
ATOM      9  C   UNL     1      32.235  43.584  23.728  1.00  0.00     0.004 C 
ENDBRANCH   7   8
ENDBRANCH   6   7
ENDBRANCH   1   6
TORSDOF 5
ENDMDL
MODEL 4
REMARK VINA RESULT:    -3.253      1.187      2.026
REMARK INTER + INTRA:          -4.442
REMARK INTER:                  -4.267
REMARK INTRA:                  -0.176
REMARK UNBOUND:                -0.238
REMARK SMILES CCCCCCC(=O)[O-]
REMARK SMILES IDX 5 1 6 2 7 3 8 4 9 5 4 6 3 7 2 8 1 9
REMARK H PARENT
REMARK Flexibility Score: inf
ROOT
ATOM      1  C   UNL     1      33.199  44.766  21.277  1.00  0.00     0.006 C 
ENDROOT
BRANCH   1   2
ATOM      2  C   UNL     1      32.015  44.837  22.250  1.00  0.00     0.053 C 
BRANCH   2   3
ATOM      3  C   UNL     1      31.846  43.532  22.963  1.00  0.00     0.041 C 
ATOM      4  O   UNL     1      31.287  42.562  22.386  1.00  0.00    -0.550 OA
ATOM      5  O   UNL     1      32.261  43.403  24.282  1.00  0.00    -0.550 OA
ENDBRANCH   2   3
ENDBRANCH   1   2
BRANCH   1   6
ATOM      6  C   UNL     1      34.404  45.597  21.747  1.00  0.00     0.000 C 
BRANCH   6   7
ATOM      7  C   UNL     1      35.261  44.857  22.789  1.00  0.00    -0.000 C 
BRANCH   7   8
ATOM      8  C   UNL     1      36.669  44.532  22.269  1.00  0.00    -0.003 C 
ATOM      9  C   UNL     1      36.750  44.522  20.741  1.00  0.00     0.004 C 
ENDBRANCH   7   8
ENDBRANCH   6   7
ENDBRANCH   1   6
TORSDOF 5
ENDMDL
MODEL 5
REMARK VINA RESULT:    -3.220      3.156      4.588
REMARK INTER + INTRA:          -4.400
REMARK INTER:                  -4.191
REMARK INTRA:                  -0.210
REMARK UNBOUND:                -0.238
REMARK SMILES CCCCCCC(=O)[O-]
REMARK SMILES IDX 5 1 6 2 7 3 8 4 9 5 4 6 3 7 2 8 1 9
REMARK H PARENT
REMARK Flexibility Score: inf
ROOT
ATOM      1  C   UNL     1      34.644  44.972  22.663  1.00  0.00     0.006 C 
ENDROOT
BRANCH   1   2
ATOM      2  C   UNL     1      36.093  44.596  22.326  1.00  0.00     0.053 C 
BRANCH   2   3
ATOM      3  C   UNL     1      36.537  45.293  21.079  1.00  0.00     0.041 C 
ATOM      4  O   UNL     1      36.693  46.542  21.071  1.00  0.00    -0.550 OA
ATOM      5  O   UNL     1      36.729  44.568  19.909  1.00  0.00    -0.550 OA
ENDBRANCH   2   3
ENDBRANCH   1   2
BRANCH   1   6
ATOM      6  C   UNL     1      33.654  44.565  21.559  1.00  0.00     0.000 C 
BRANCH   6   7
ATOM      7  C   UNL     1      32.339  45.362  21.624  1.00  0.00    -0.000 C 
BRANCH   7   8
ATOM      8  C   UNL     1      31.245  44.627  22.413  1.00  0.00    -0.003 C 
ATOM      9  C   UNL     1      31.425  43.109  22.405  1.00  0.00     0.004 C 
ENDBRANCH   7   8
ENDBRANCH   6   7
ENDBRANCH   1   6
TORSDOF 5
ENDMDL
MODEL 6
REMARK VINA RESULT:    -3.120     17.501     18.460
REMARK INTER + INTRA:          -4.270
REMARK INTER:                  -3.973
REMARK INTRA:                  -0.297
REMARK UNBOUND:                -0.238
REMARK SMILES CCCCCCC(=O)[O-]
REMARK SMILES IDX 5 1 6 2 7 3 8 4 9 5 4 6 3 7 2 8 1 9
REMARK H PARENT
REMARK Flexibility Score: inf
ROOT
ATOM      1  C   UNL     1      34.876  26.961  14.487  1.00  0.00     0.006 C 
ENDROOT
BRANCH   1   2
ATOM      2  C   UNL     1      34.290  27.149  13.082  1.00  0.00     0.053 C 
BRANCH   2   3
ATOM      3  C   UNL     1      33.617  28.480  12.971  1.00  0.00     0.041 C 
ATOM      4  O   UNL     1      32.607  28.741  13.677  1.00  0.00    -0.550 OA
ATOM      5  O   UNL     1      34.074  29.416  12.052  1.00  0.00    -0.550 OA
ENDBRANCH   2   3
ENDBRANCH   1   2
BRANCH   1   6
ATOM      6  C   UNL     1      36.232  27.664  14.664  1.00  0.00     0.000 C 
BRANCH   6   7
ATOM      7  C   UNL     1      36.360  28.364  16.028  1.00  0.00    -0.000 C 
BRANCH   7   8
ATOM      8  C   UNL     1      35.007  28.845  16.572  1.00  0.00    -0.003 C 
ATOM      9  C   UNL     1      35.009  29.029  18.090  1.00  0.00     0.004 C 
ENDBRANCH   7   8
ENDBRANCH   6   7
ENDBRANCH   1   6
TORSDOF 5
ENDMDL
MODEL 7
REMARK VINA RESULT:    -3.057     17.280     18.466
REMARK INTER + INTRA:          -4.189
REMARK INTER:                  -4.017
REMARK INTRA:                  -0.171
REMARK UNBOUND:                -0.238
REMARK SMILES CCCCCCC(=O)[O-]
REMARK SMILES IDX 5 1 6 2 7 3 8 4 9 5 4 6 3 7 2 8 1 9
REMARK H PARENT
REMARK Flexibility Score: inf
ROOT
ATOM      1  C   UNL     1      35.340  27.500  15.584  1.00  0.00     0.006 C 
ENDROOT
BRANCH   1   2
ATOM      2  C   UNL     1      34.807  28.817  16.165  1.00  0.00     0.053 C 
BRANCH   2   3
ATOM      3  C   UNL     1      35.376  29.054  17.528  1.00  0.00     0.041 C 
ATOM      4  O   UNL     1      36.617  29.199  17.680  1.00  0.00    -0.550 OA
ATOM      5  O   UNL     1      34.540  29.064  18.638  1.00  0.00    -0.550 OA
ENDBRANCH   2   3
ENDBRANCH   1   2
BRANCH   1   6
ATOM      6  C   UNL     1      34.819  27.224  14.164  1.00  0.00     0.000 C 
BRANCH   6   7
ATOM      7  C   UNL     1      33.699  28.193  13.747  1.00  0.00    -0.000 C 
BRANCH   7   8
ATOM      8  C   UNL     1      33.889  28.734  12.322  1.00  0.00    -0.003 C 
ATOM      9  C   UNL     1      34.063  27.623  11.285  1.00  0.00     0.004 C 
ENDBRANCH   7   8
ENDBRANCH   6   7
ENDBRANCH   1   6
TORSDOF 5
ENDMDL
MODEL 8
REMARK VINA RESULT:    -3.056     17.907     19.061
REMARK INTER + INTRA:          -4.188
REMARK INTER:                  -3.889
REMARK INTRA:                  -0.299
REMARK UNBOUND:                -0.238
REMARK SMILES CCCCCCC(=O)[O-]
REMARK SMILES IDX 5 1 6 2 7 3 8 4 9 5 4 6 3 7 2 8 1 9
REMARK H PARENT
REMARK Flexibility Score: inf
ROOT
ATOM      1  C   UNL     1      35.696  27.083  13.693  1.00  0.00     0.006 C 
ENDROOT
BRANCH   1   2
ATOM      2  C   UNL     1      35.549  26.961  15.216  1.00  0.00     0.053 C 
BRANCH   2   3
ATOM      3  C   UNL     1      35.857  28.267  15.876  1.00  0.00     0.041 C 
ATOM      4  O   UNL     1      37.041  28.695  15.913  1.00  0.00    -0.550 OA
ATOM      5  O   UNL     1      34.844  28.988  16.495  1.00  0.00    -0.550 OA
ENDBRANCH   2   3
ENDBRANCH   1   2
BRANCH   1   6
ATOM      6  C   UNL     1      34.367  26.875  12.950  1.00  0.00     0.000 C 
BRANCH   6   7
ATOM      7  C   UNL     1      34.148  27.909  11.832  1.00  0.00    -0.000 C 
BRANCH   7   8
ATOM      8  C   UNL     1      33.643  29.258  12.367  1.00  0.00    -0.003 C 
ATOM      9  C   UNL     1      32.636  29.104  13.508  1.00  0.00     0.004 C 
ENDBRANCH   7   8
ENDBRANCH   6   7
ENDBRANCH   1   6
TORSDOF 5
ENDMDL
MODEL 9
REMARK VINA RESULT:    -2.752     16.795     17.978
REMARK INTER + INTRA:          -3.795
REMARK INTER:                  -3.617
REMARK INTRA:                  -0.178
REMARK UNBOUND:                -0.238
REMARK SMILES CCCCCCC(=O)[O-]
REMARK SMILES IDX 5 1 6 2 7 3 8 4 9 5 4 6 3 7 2 8 1 9
REMARK H PARENT
REMARK Flexibility Score: inf
ROOT
ATOM      1  C   UNL     1      35.030  28.698  16.278  1.00  0.00     0.006 C 
ENDROOT
BRANCH   1   2
ATOM      2  C   UNL     1      35.979  29.102  17.414  1.00  0.00     0.053 C 
BRANCH   2   3
ATOM      3  C   UNL     1      35.335  28.863  18.742  1.00  0.00     0.041 C 
ATOM      4  O   UNL     1      34.139  28.476  18.806  1.00  0.00    -0.550 OA
ATOM      5  O   UNL     1      36.040  29.115  19.912  1.00  0.00    -0.550 OA
ENDBRANCH   2   3
ENDBRANCH   1   2
BRANCH   1   6
ATOM      6  C   UNL     1      35.619  27.605  15.373  1.00  0.00     0.000 C 
BRANCH   6   7
ATOM      7  C   UNL     1      34.658  27.192  14.244  1.00  0.00    -0.000 C 
BRANCH   7   8
ATOM      8  C   UNL     1      33.691  28.319  13.853  1.00  0.00    -0.003 C 
ATOM      9  C   UNL     1      33.767  28.678  12.369  1.00  0.00     0.004 C 
ENDBRANCH   7   8
ENDBRANCH   6   7
ENDBRANCH   1   6
TORSDOF 5
ENDMDL
