MODEL 1
REMARK VINA RESULT:    -4.794      0.000      0.000
REMARK INTER + INTRA:          -4.794
REMARK INTER:                  -4.794
REMARK INTRA:                   0.000
REMARK UNBOUND:                 0.000
REMARK SMILES CC(C)=C1CC[C@@H](C)CC1=O
REMARK SMILES IDX 8 1 7 2 6 3 5 4 4 5 2 6 1 7 3 8 10 9 11 10 9 11
REMARK H PARENT
REMARK Flexibility Score: inf
ROOT
ATOM      1  C   UNL     1     -22.780  20.606 -31.129  1.00  0.00     0.008 C 
ATOM      2  C   UNL     1     -22.836  19.746 -32.402  1.00  0.00    -0.006 C 
ATOM      3  C   UNL     1     -23.309  20.550 -33.628  1.00  0.00     0.008 C 
ATOM      4  C   UNL     1     -24.775  21.000 -33.522  1.00  0.00     0.039 C 
ATOM      5  C   UNL     1     -25.718  19.869 -33.133  1.00  0.00    -0.006 C 
ATOM      6  C   UNL     1     -27.018  19.860 -33.549  1.00  0.00    -0.070 C 
ATOM      7  C   UNL     1     -27.951  18.718 -33.219  1.00  0.00     0.039 C 
ATOM      8  C   UNL     1     -27.578  20.979 -34.397  1.00  0.00     0.039 C 
ATOM      9  C   UNL     1     -25.175  18.853 -32.184  1.00  0.00     0.159 C 
ATOM     10  O   UNL     1     -25.918  18.281 -31.342  1.00  0.00    -0.295 OA
ATOM     11  C   UNL     1     -23.716  18.502 -32.211  1.00  0.00     0.084 C 
ENDROOT
TORSDOF 0
ENDMDL
MODEL 2
REMARK VINA RESULT:    -4.503     11.726     13.896
REMARK INTER + INTRA:          -4.503
REMARK INTER:                  -4.503
REMARK INTRA:                   0.000
REMARK UNBOUND:                 0.000
REMARK SMILES CC(C)=C1CC[C@@H](C)CC1=O
REMARK SMILES IDX 8 1 7 2 6 3 5 4 4 5 2 6 1 7 3 8 10 9 11 10 9 11
REMARK H PARENT
REMARK Flexibility Score: inf
ROOT
ATOM      1  C   UNL     1     -15.897  14.272 -31.742  1.00  0.00     0.008 C 
ATOM      2  C   UNL     1     -14.937  14.849 -30.690  1.00  0.00    -0.006 C 
ATOM      3  C   UNL     1     -14.208  16.108 -31.194  1.00  0.00     0.008 C 
ATOM      4  C   UNL     1     -13.230  15.817 -32.344  1.00  0.00     0.039 C 
ATOM      5  C   UNL     1     -12.298  14.648 -32.050  1.00  0.00    -0.006 C 
ATOM      6  C   UNL     1     -11.043  14.595 -32.586  1.00  0.00    -0.070 C 
ATOM      7  C   UNL     1     -10.086  13.471 -32.260  1.00  0.00     0.039 C 
ATOM      8  C   UNL     1     -10.536  15.683 -33.504  1.00  0.00     0.039 C 
ATOM      9  C   UNL     1     -12.875  13.526 -31.254  1.00  0.00     0.159 C 
ATOM     10  O   UNL     1     -12.512  12.334 -31.444  1.00  0.00    -0.295 OA
ATOM     11  C   UNL     1     -13.919  13.802 -30.212  1.00  0.00     0.084 C 
ENDROOT
TORSDOF 0
ENDMDL
MODEL 3
REMARK VINA RESULT:    -4.487     10.487     12.352
REMARK INTER + INTRA:          -4.487
REMARK INTER:                  -4.487
REMARK INTRA:                   0.000
REMARK UNBOUND:                 0.000
REMARK SMILES CC(C)=C1CC[C@@H](C)CC1=O
REMARK SMILES IDX 8 1 7 2 6 3 5 4 4 5 2 6 1 7 3 8 10 9 11 10 9 11
REMARK H PARENT
REMARK Flexibility Score: inf
ROOT
ATOM      1  C   UNL     1     -11.954  14.916 -33.139  1.00  0.00     0.008 C 
ATOM      2  C   UNL     1     -12.599  15.659 -31.958  1.00  0.00    -0.006 C 
ATOM      3  C   UNL     1     -12.566  14.830 -30.661  1.00  0.00     0.008 C 
ATOM      4  C   UNL     1     -13.452  13.574 -30.727  1.00  0.00     0.039 C 
ATOM      5  C   UNL     1     -14.860  13.866 -31.230  1.00  0.00    -0.006 C 
ATOM      6  C   UNL     1     -15.924  13.115 -30.822  1.00  0.00    -0.070 C 
ATOM      7  C   UNL     1     -17.335  13.425 -31.268  1.00  0.00     0.039 C 
ATOM      8  C   UNL     1     -15.746  11.955 -29.870  1.00  0.00     0.039 C 
ATOM      9  C   UNL     1     -14.983  14.927 -32.273  1.00  0.00     0.159 C 
ATOM     10  O   UNL     1     -15.865  14.863 -33.171  1.00  0.00    -0.295 OA
ATOM     11  C   UNL     1     -14.038  16.093 -32.275  1.00  0.00     0.084 C 
ENDROOT
TORSDOF 0
ENDMDL
MODEL 4
REMARK VINA RESULT:    -4.485     11.675     13.537
REMARK INTER + INTRA:          -4.485
REMARK INTER:                  -4.485
REMARK INTRA:                   0.000
REMARK UNBOUND:                 0.000
REMARK SMILES CC(C)=C1CC[C@@H](C)CC1=O
REMARK SMILES IDX 8 1 7 2 6 3 5 4 4 5 2 6 1 7 3 8 10 9 11 10 9 11
REMARK H PARENT
REMARK Flexibility Score: inf
ROOT
ATOM      1  C   UNL     1     -10.138  13.475 -30.907  1.00  0.00     0.008 C 
ATOM      2  C   UNL     1     -10.670  14.915 -30.986  1.00  0.00    -0.006 C 
ATOM      3  C   UNL     1     -11.537  15.283 -29.768  1.00  0.00     0.008 C 
ATOM      4  C   UNL     1     -12.855  14.494 -29.707  1.00  0.00     0.039 C 
ATOM      5  C   UNL     1     -13.618  14.508 -31.025  1.00  0.00    -0.006 C 
ATOM      6  C   UNL     1     -14.980  14.426 -31.053  1.00  0.00    -0.070 C 
ATOM      7  C   UNL     1     -15.756  14.494 -32.348  1.00  0.00     0.039 C 
ATOM      8  C   UNL     1     -15.784  14.301 -29.779  1.00  0.00     0.039 C 
ATOM      9  C   UNL     1     -12.791  14.492 -32.268  1.00  0.00     0.159 C 
ATOM     10  O   UNL     1     -13.191  13.912 -33.313  1.00  0.00    -0.295 OA
ATOM     11  C   UNL     1     -11.449  15.164 -32.287  1.00  0.00     0.084 C 
ENDROOT
TORSDOF 0
ENDMDL
MODEL 5
REMARK VINA RESULT:    -4.417     11.085     12.493
REMARK INTER + INTRA:          -4.417
REMARK INTER:                  -4.417
REMARK INTRA:                   0.000
REMARK UNBOUND:                 0.000
REMARK SMILES CC(C)=C1CC[C@@H](C)CC1=O
REMARK SMILES IDX 8 1 7 2 6 3 5 4 4 5 2 6 1 7 3 8 10 9 11 10 9 11
REMARK H PARENT
REMARK Flexibility Score: inf
ROOT
ATOM      1  C   UNL     1     -18.122  12.104 -30.143  1.00  0.00     0.008 C 
ATOM      2  C   UNL     1     -17.101  12.253 -29.004  1.00  0.00    -0.006 C 
ATOM      3  C   UNL     1     -16.913  13.721 -28.578  1.00  0.00     0.008 C 
ATOM      4  C   UNL     1     -16.254  14.583 -29.667  1.00  0.00     0.039 C 
ATOM      5  C   UNL     1     -14.996  13.950 -30.246  1.00  0.00    -0.006 C 
ATOM      6  C   UNL     1     -13.975  14.719 -30.726  1.00  0.00    -0.070 C 
ATOM      7  C   UNL     1     -12.697  14.108 -31.252  1.00  0.00     0.039 C 
ATOM      8  C   UNL     1     -14.060  16.228 -30.717  1.00  0.00     0.039 C 
ATOM      9  C   UNL     1     -15.000  12.462 -30.367  1.00  0.00     0.159 C 
ATOM     10  O   UNL     1     -14.394  11.880 -31.307  1.00  0.00    -0.295 OA
ATOM     11  C   UNL     1     -15.746  11.628 -29.367  1.00  0.00     0.084 C 
ENDROOT
TORSDOF 0
ENDMDL
MODEL 6
REMARK VINA RESULT:    -4.354     10.774     12.089
REMARK INTER + INTRA:          -4.354
REMARK INTER:                  -4.354
REMARK INTRA:                   0.000
REMARK UNBOUND:                 0.000
REMARK SMILES CC(C)=C1CC[C@@H](C)CC1=O
REMARK SMILES IDX 8 1 7 2 6 3 5 4 4 5 2 6 1 7 3 8 10 9 11 10 9 11
REMARK H PARENT
REMARK Flexibility Score: inf
ROOT
ATOM      1  C   UNL     1     -13.500  16.309 -32.358  1.00  0.00     0.008 C 
ATOM      2  C   UNL     1     -13.436  14.832 -32.775  1.00  0.00    -0.006 C 
ATOM      3  C   UNL     1     -14.768  14.335 -33.368  1.00  0.00     0.008 C 
ATOM      4  C   UNL     1     -15.906  14.291 -32.335  1.00  0.00     0.039 C 
ATOM      5  C   UNL     1     -15.511  13.584 -31.045  1.00  0.00    -0.006 C 
ATOM      6  C   UNL     1     -16.436  12.919 -30.293  1.00  0.00    -0.070 C 
ATOM      7  C   UNL     1     -16.051  12.166 -29.040  1.00  0.00     0.039 C 
ATOM      8  C   UNL     1     -17.890  12.871 -30.701  1.00  0.00     0.039 C 
ATOM      9  C   UNL     1     -14.099  13.766 -30.597  1.00  0.00     0.159 C 
ATOM     10  O   UNL     1     -13.798  13.798 -29.373  1.00  0.00    -0.295 OA
ATOM     11  C   UNL     1     -13.003  13.928 -31.611  1.00  0.00     0.084 C 
ENDROOT
TORSDOF 0
ENDMDL
MODEL 7
REMARK VINA RESULT:    -4.343      7.814      9.658
REMARK INTER + INTRA:          -4.343
REMARK INTER:                  -4.343
REMARK INTRA:                   0.000
REMARK UNBOUND:                 0.000
REMARK SMILES CC(C)=C1CC[C@@H](C)CC1=O
REMARK SMILES IDX 8 1 7 2 6 3 5 4 4 5 2 6 1 7 3 8 10 9 11 10 9 11
REMARK H PARENT
REMARK Flexibility Score: inf
ROOT
ATOM      1  C   UNL     1     -29.121  11.658 -30.462  1.00  0.00     0.008 C 
ATOM      2  C   UNL     1     -28.363  12.869 -29.895  1.00  0.00    -0.006 C 
ATOM      3  C   UNL     1     -27.056  13.149 -30.661  1.00  0.00     0.008 C 
ATOM      4  C   UNL     1     -26.004  12.042 -30.479  1.00  0.00     0.039 C 
ATOM      5  C   UNL     1     -25.787  11.662 -29.020  1.00  0.00    -0.006 C 
ATOM      6  C   UNL     1     -24.578  11.204 -28.582  1.00  0.00    -0.070 C 
ATOM      7  C   UNL     1     -24.330  10.876 -27.128  1.00  0.00     0.039 C 
ATOM      8  C   UNL     1     -23.412  11.040 -29.530  1.00  0.00     0.039 C 
ATOM      9  C   UNL     1     -26.992  11.704 -28.140  1.00  0.00     0.159 C 
ATOM     10  O   UNL     1     -27.131  10.897 -27.181  1.00  0.00    -0.295 OA
ATOM     11  C   UNL     1     -28.075  12.711 -28.395  1.00  0.00     0.084 C 
ENDROOT
TORSDOF 0
ENDMDL
MODEL 8
REMARK VINA RESULT:    -4.277     11.472     13.383
REMARK INTER + INTRA:          -4.277
REMARK INTER:                  -4.277
REMARK INTRA:                   0.000
REMARK UNBOUND:                 0.000
REMARK SMILES CC(C)=C1CC[C@@H](C)CC1=O
REMARK SMILES IDX 8 1 7 2 6 3 5 4 4 5 2 6 1 7 3 8 10 9 11 10 9 11
REMARK H PARENT
REMARK Flexibility Score: inf
ROOT
ATOM      1  C   UNL     1     -14.608  14.285 -33.621  1.00  0.00     0.008 C 
ATOM      2  C   UNL     1     -15.447  14.529 -32.357  1.00  0.00    -0.006 C 
ATOM      3  C   UNL     1     -14.874  15.662 -31.486  1.00  0.00     0.008 C 
ATOM      4  C   UNL     1     -13.512  15.312 -30.864  1.00  0.00     0.039 C 
ATOM      5  C   UNL     1     -13.505  13.952 -30.177  1.00  0.00    -0.006 C 
ATOM      6  C   UNL     1     -12.692  13.706 -29.108  1.00  0.00    -0.070 C 
ATOM      7  C   UNL     1     -12.712  12.381 -28.381  1.00  0.00     0.039 C 
ATOM      8  C   UNL     1     -11.756  14.766 -28.574  1.00  0.00     0.039 C 
ATOM      9  C   UNL     1     -14.335  12.887 -30.811  1.00  0.00     0.159 C 
ATOM     10  O   UNL     1     -13.987  11.676 -30.774  1.00  0.00    -0.295 OA
ATOM     11  C   UNL     1     -15.606  13.248 -31.523  1.00  0.00     0.084 C 
ENDROOT
TORSDOF 0
ENDMDL
MODEL 9
REMARK VINA RESULT:    -4.241     11.278     13.511
REMARK INTER + INTRA:          -4.241
REMARK INTER:                  -4.241
REMARK INTRA:                   0.000
REMARK UNBOUND:                 0.000
REMARK SMILES CC(C)=C1CC[C@@H](C)CC1=O
REMARK SMILES IDX 8 1 7 2 6 3 5 4 4 5 2 6 1 7 3 8 10 9 11 10 9 11
REMARK H PARENT
REMARK Flexibility Score: inf
ROOT
ATOM      1  C   UNL     1     -15.869  14.579 -30.009  1.00  0.00     0.008 C 
ATOM      2  C   UNL     1     -15.715  13.871 -31.364  1.00  0.00    -0.006 C 
ATOM      3  C   UNL     1     -14.703  12.711 -31.304  1.00  0.00     0.008 C 
ATOM      4  C   UNL     1     -13.261  13.183 -31.062  1.00  0.00     0.039 C 
ATOM      5  C   UNL     1     -12.841  14.311 -31.996  1.00  0.00    -0.006 C 
ATOM      6  C   UNL     1     -11.539  14.464 -32.377  1.00  0.00    -0.070 C 
ATOM      7  C   UNL     1     -11.114  15.543 -33.346  1.00  0.00     0.039 C 
ATOM      8  C   UNL     1     -10.460  13.530 -31.876  1.00  0.00     0.039 C 
ATOM      9  C   UNL     1     -13.901  15.296 -32.362  1.00  0.00     0.159 C 
ATOM     10  O   UNL     1     -13.626  16.509 -32.567  1.00  0.00    -0.295 OA
ATOM     11  C   UNL     1     -15.330  14.853 -32.480  1.00  0.00     0.084 C 
ENDROOT
TORSDOF 0
ENDMDL
