MODEL 1
REMARK VINA RESULT:    -6.589      0.000      0.000
REMARK INTER + INTRA:          -7.167
REMARK INTER:                  -7.167
REMARK INTRA:                   0.000
REMARK UNBOUND:                 0.000
REMARK SMILES Cc1cc(O)c2c(c1)C(=O)c1cc(O)cc(O)c1C2=O
REMARK SMILES IDX 1 1 2 2 8 3 7 4 6 5 4 6 3 7 19 8 20 9 18 10 11 11 9 12 10 13
REMARK SMILES IDX 12 14 13 15 15 16 16 17 5 18 17 20 14 22
REMARK H PARENT 5 19 17 21 14 23
REMARK Flexibility Score: inf
ROOT
ATOM      1  C   UNL     1     -42.743   2.244  76.846  1.00  0.00     0.044 C 
ATOM      2  C   UNL     1     -42.040   2.680  78.098  1.00  0.00    -0.047 A 
ATOM      3  C   UNL     1     -40.642   2.732  78.139  1.00  0.00     0.016 A 
ATOM      4  C   UNL     1     -39.972   3.098  79.319  1.00  0.00     0.038 A 
ATOM      5  C   UNL     1     -40.713   3.389  80.486  1.00  0.00     0.076 A 
ATOM      6  C   UNL     1     -42.130   3.379  80.427  1.00  0.00     0.127 A 
ATOM      7  C   UNL     1     -42.774   2.994  79.247  1.00  0.00     0.050 A 
ATOM      8  C   UNL     1     -39.967   3.626  81.750  1.00  0.00     0.201 C 
ATOM      9  O   UNL     1     -40.493   3.324  82.855  1.00  0.00    -0.288 OA
ATOM     10  C   UNL     1     -38.539   4.035  81.699  1.00  0.00     0.076 A 
ATOM     11  C   UNL     1     -37.803   3.741  80.528  1.00  0.00     0.041 A 
ATOM     12  C   UNL     1     -38.492   3.181  79.343  1.00  0.00     0.194 C 
ATOM     13  O   UNL     1     -37.822   2.798  78.345  1.00  0.00    -0.289 OA
ATOM     14  C   UNL     1     -36.420   3.987  80.494  1.00  0.00     0.059 A 
ATOM     15  C   UNL     1     -35.769   4.534  81.599  1.00  0.00     0.120 A 
ATOM     16  C   UNL     1     -36.500   4.864  82.744  1.00  0.00     0.093 A 
ATOM     17  C   UNL     1     -37.880   4.648  82.796  1.00  0.00     0.131 A 
ENDROOT
BRANCH   6  18
ATOM     18  O   UNL     1     -42.935   3.773  81.498  1.00  0.00    -0.507 OA
ATOM     19  H   UNL     1     -43.068   3.216  82.332  1.00  0.00     0.293 HD
ENDBRANCH   6  18
BRANCH  17  20
ATOM     20  O   UNL     1     -38.559   5.086  83.936  1.00  0.00    -0.507 OA
ATOM     21  H   UNL     1     -38.102   5.515  84.728  1.00  0.00     0.293 HD
ENDBRANCH  17  20
BRANCH  15  22
ATOM     22  O   UNL     1     -34.395   4.757  81.546  1.00  0.00    -0.508 OA
ATOM     23  H   UNL     1     -33.909   5.252  82.286  1.00  0.00     0.293 HD
ENDBRANCH  15  22
TORSDOF 3
ENDMDL
MODEL 2
REMARK VINA RESULT:    -6.567      2.701      3.360
REMARK INTER + INTRA:          -7.143
REMARK INTER:                  -7.143
REMARK INTRA:                   0.000
REMARK UNBOUND:                 0.000
REMARK SMILES Cc1cc(O)c2c(c1)C(=O)c1cc(O)cc(O)c1C2=O
REMARK SMILES IDX 1 1 2 2 8 3 7 4 6 5 4 6 3 7 19 8 20 9 18 10 11 11 9 12 10 13
REMARK SMILES IDX 12 14 13 15 15 16 16 17 5 18 17 20 14 22
REMARK H PARENT 5 19 17 21 14 23
REMARK Flexibility Score: inf
ROOT
ATOM      1  C   UNL     1     -38.612   7.515  75.921  1.00  0.00     0.044 C 
ATOM      2  C   UNL     1     -38.576   6.775  77.226  1.00  0.00    -0.047 A 
ATOM      3  C   UNL     1     -37.364   6.278  77.720  1.00  0.00     0.016 A 
ATOM      4  C   UNL     1     -37.326   5.546  78.919  1.00  0.00     0.038 A 
ATOM      5  C   UNL     1     -38.524   5.284  79.622  1.00  0.00     0.076 A 
ATOM      6  C   UNL     1     -39.741   5.829  79.140  1.00  0.00     0.127 A 
ATOM      7  C   UNL     1     -39.758   6.537  77.935  1.00  0.00     0.050 A 
ATOM      8  C   UNL     1     -38.461   4.383  80.802  1.00  0.00     0.201 C 
ATOM      9  O   UNL     1     -39.458   3.674  81.103  1.00  0.00    -0.288 OA
ATOM     10  C   UNL     1     -37.169   4.179  81.508  1.00  0.00     0.076 A 
ATOM     11  C   UNL     1     -35.974   4.443  80.800  1.00  0.00     0.041 A 
ATOM     12  C   UNL     1     -36.033   5.051  79.451  1.00  0.00     0.194 C 
ATOM     13  O   UNL     1     -34.981   5.170  78.764  1.00  0.00    -0.289 OA
ATOM     14  C   UNL     1     -34.734   4.132  81.384  1.00  0.00     0.059 A 
ATOM     15  C   UNL     1     -34.671   3.579  82.662  1.00  0.00     0.120 A 
ATOM     16  C   UNL     1     -35.848   3.354  83.382  1.00  0.00     0.093 A 
ATOM     17  C   UNL     1     -37.093   3.673  82.832  1.00  0.00     0.131 A 
ENDROOT
BRANCH   6  18
ATOM     18  O   UNL     1     -40.946   5.720  79.838  1.00  0.00    -0.507 OA
ATOM     19  H   UNL     1     -41.842   5.990  79.454  1.00  0.00     0.293 HD
ENDBRANCH   6  18
BRANCH  17  20
ATOM     20  O   UNL     1     -38.218   3.507  83.642  1.00  0.00    -0.507 OA
ATOM     21  H   UNL     1     -39.128   3.247  83.289  1.00  0.00     0.293 HD
ENDBRANCH  17  20
BRANCH  15  22
ATOM     22  O   UNL     1     -33.431   3.267  83.216  1.00  0.00    -0.508 OA
ATOM     23  H   UNL     1     -32.572   3.376  82.688  1.00  0.00     0.293 HD
ENDBRANCH  15  22
TORSDOF 3
ENDMDL
MODEL 3
REMARK VINA RESULT:    -6.508      1.450      6.328
REMARK INTER + INTRA:          -7.079
REMARK INTER:                  -7.079
REMARK INTRA:                   0.000
REMARK UNBOUND:                 0.000
REMARK SMILES Cc1cc(O)c2c(c1)C(=O)c1cc(O)cc(O)c1C2=O
REMARK SMILES IDX 1 1 2 2 8 3 7 4 6 5 4 6 3 7 19 8 20 9 18 10 11 11 9 12 10 13
REMARK SMILES IDX 12 14 13 15 15 16 16 17 5 18 17 20 14 22
REMARK H PARENT 5 19 17 21 14 23
REMARK Flexibility Score: inf
ROOT
ATOM      1  C   UNL     1     -33.723   4.390  83.723  1.00  0.00     0.044 C 
ATOM      2  C   UNL     1     -34.803   4.245  82.691  1.00  0.00    -0.047 A 
ATOM      3  C   UNL     1     -36.131   4.044  83.085  1.00  0.00     0.016 A 
ATOM      4  C   UNL     1     -37.143   3.864  82.128  1.00  0.00     0.038 A 
ATOM      5  C   UNL     1     -36.817   3.858  80.753  1.00  0.00     0.076 A 
ATOM      6  C   UNL     1     -35.478   4.107  80.358  1.00  0.00     0.127 A 
ATOM      7  C   UNL     1     -34.485   4.264  81.330  1.00  0.00     0.050 A 
ATOM      8  C   UNL     1     -37.888   3.517  79.780  1.00  0.00     0.201 C 
ATOM      9  O   UNL     1     -37.592   2.948  78.696  1.00  0.00    -0.288 OA
ATOM     10  C   UNL     1     -39.315   3.672  80.167  1.00  0.00     0.076 A 
ATOM     11  C   UNL     1     -39.635   3.679  81.544  1.00  0.00     0.041 A 
ATOM     12  C   UNL     1     -38.552   3.684  82.555  1.00  0.00     0.194 C 
ATOM     13  O   UNL     1     -38.830   3.560  83.780  1.00  0.00    -0.289 OA
ATOM     14  C   UNL     1     -40.981   3.686  81.947  1.00  0.00     0.059 A 
ATOM     15  C   UNL     1     -42.005   3.702  81.002  1.00  0.00     0.120 A 
ATOM     16  C   UNL     1     -41.693   3.737  79.640  1.00  0.00     0.093 A 
ATOM     17  C   UNL     1     -40.362   3.751  79.213  1.00  0.00     0.131 A 
ENDROOT
BRANCH   6  18
ATOM     18  O   UNL     1     -35.096   4.238  79.021  1.00  0.00    -0.507 OA
ATOM     19  H   UNL     1     -34.331   4.824  78.713  1.00  0.00     0.293 HD
ENDBRANCH   6  18
BRANCH  17  20
ATOM     20  O   UNL     1     -40.125   3.879  77.842  1.00  0.00    -0.507 OA
ATOM     21  H   UNL     1     -40.530   4.607  77.270  1.00  0.00     0.293 HD
ENDBRANCH  17  20
BRANCH  15  22
ATOM     22  O   UNL     1     -43.332   3.696  81.425  1.00  0.00    -0.508 OA
ATOM     23  H   UNL     1     -43.611   4.117  82.304  1.00  0.00     0.293 HD
ENDBRANCH  15  22
TORSDOF 3
ENDMDL
MODEL 4
REMARK VINA RESULT:    -6.488      1.865      5.605
REMARK INTER + INTRA:          -7.057
REMARK INTER:                  -7.057
REMARK INTRA:                   0.000
REMARK UNBOUND:                 0.000
REMARK SMILES Cc1cc(O)c2c(c1)C(=O)c1cc(O)cc(O)c1C2=O
REMARK SMILES IDX 1 1 2 2 8 3 7 4 6 5 4 6 3 7 19 8 20 9 18 10 11 11 9 12 10 13
REMARK SMILES IDX 12 14 13 15 15 16 16 17 5 18 17 20 14 22
REMARK H PARENT 5 19 17 21 14 23
REMARK Flexibility Score: inf
ROOT
ATOM      1  C   UNL     1     -33.454   5.073  79.271  1.00  0.00     0.044 C 
ATOM      2  C   UNL     1     -34.593   4.642  80.148  1.00  0.00    -0.047 A 
ATOM      3  C   UNL     1     -35.914   4.785  79.708  1.00  0.00     0.016 A 
ATOM      4  C   UNL     1     -36.989   4.426  80.538  1.00  0.00     0.038 A 
ATOM      5  C   UNL     1     -36.739   3.940  81.841  1.00  0.00     0.076 A 
ATOM      6  C   UNL     1     -35.398   3.754  82.265  1.00  0.00     0.127 A 
ATOM      7  C   UNL     1     -34.345   4.137  81.429  1.00  0.00     0.050 A 
ATOM      8  C   UNL     1     -37.901   3.711  82.739  1.00  0.00     0.201 C 
ATOM      9  O   UNL     1     -37.767   3.846  83.985  1.00  0.00    -0.288 OA
ATOM     10  C   UNL     1     -39.255   3.514  82.159  1.00  0.00     0.076 A 
ATOM     11  C   UNL     1     -39.499   4.001  80.855  1.00  0.00     0.041 A 
ATOM     12  C   UNL     1     -38.383   4.551  80.050  1.00  0.00     0.194 C 
ATOM     13  O   UNL     1     -38.617   5.104  78.940  1.00  0.00    -0.289 OA
ATOM     14  C   UNL     1     -40.800   3.957  80.325  1.00  0.00     0.059 A 
ATOM     15  C   UNL     1     -41.851   3.421  81.069  1.00  0.00     0.120 A 
ATOM     16  C   UNL     1     -41.607   2.901  82.343  1.00  0.00     0.093 A 
ATOM     17  C   UNL     1     -40.318   2.915  82.884  1.00  0.00     0.131 A 
ENDROOT
BRANCH   6  18
ATOM     18  O   UNL     1     -35.067   3.166  83.487  1.00  0.00    -0.507 OA
ATOM     19  H   UNL     1     -34.821   2.190  83.590  1.00  0.00     0.293 HD
ENDBRANCH   6  18
BRANCH  17  20
ATOM     20  O   UNL     1     -40.131   2.295  84.123  1.00  0.00    -0.507 OA
ATOM     21  H   UNL     1     -39.736   1.372  84.232  1.00  0.00     0.293 HD
ENDBRANCH  17  20
BRANCH  15  22
ATOM     22  O   UNL     1     -43.135   3.400  80.528  1.00  0.00    -0.508 OA
ATOM     23  H   UNL     1     -43.498   2.579  80.057  1.00  0.00     0.293 HD
ENDBRANCH  15  22
TORSDOF 3
ENDMDL
MODEL 5
REMARK VINA RESULT:    -6.422      1.311      5.479
REMARK INTER + INTRA:          -6.985
REMARK INTER:                  -6.985
REMARK INTRA:                   0.000
REMARK UNBOUND:                 0.000
REMARK SMILES Cc1cc(O)c2c(c1)C(=O)c1cc(O)cc(O)c1C2=O
REMARK SMILES IDX 1 1 2 2 8 3 7 4 6 5 4 6 3 7 19 8 20 9 18 10 11 11 9 12 10 13
REMARK SMILES IDX 12 14 13 15 15 16 16 17 5 18 17 20 14 22
REMARK H PARENT 5 19 17 21 14 23
REMARK Flexibility Score: inf
ROOT
ATOM      1  C   UNL     1     -34.381   3.991  82.049  1.00  0.00     0.044 C 
ATOM      2  C   UNL     1     -35.877   3.969  81.925  1.00  0.00    -0.047 A 
ATOM      3  C   UNL     1     -36.477   3.757  80.679  1.00  0.00     0.016 A 
ATOM      4  C   UNL     1     -37.875   3.777  80.544  1.00  0.00     0.038 A 
ATOM      5  C   UNL     1     -38.687   4.041  81.671  1.00  0.00     0.076 A 
ATOM      6  C   UNL     1     -38.075   4.210  82.939  1.00  0.00     0.127 A 
ATOM      7  C   UNL     1     -36.681   4.205  83.045  1.00  0.00     0.050 A 
ATOM      8  C   UNL     1     -40.149   4.201  81.460  1.00  0.00     0.201 C 
ATOM      9  O   UNL     1     -40.813   4.959  82.218  1.00  0.00    -0.288 OA
ATOM     10  C   UNL     1     -40.789   3.624  80.249  1.00  0.00     0.076 A 
ATOM     11  C   UNL     1     -39.972   3.361  79.125  1.00  0.00     0.041 A 
ATOM     12  C   UNL     1     -38.503   3.520  79.226  1.00  0.00     0.194 C 
ATOM     13  O   UNL     1     -37.784   3.412  78.194  1.00  0.00    -0.289 OA
ATOM     14  C   UNL     1     -40.560   2.945  77.919  1.00  0.00     0.059 A 
ATOM     15  C   UNL     1     -41.940   2.773  77.823  1.00  0.00     0.120 A 
ATOM     16  C   UNL     1     -42.747   2.992  78.943  1.00  0.00     0.093 A 
ATOM     17  C   UNL     1     -42.185   3.387  80.161  1.00  0.00     0.131 A 
ENDROOT
BRANCH   6  18
ATOM     18  O   UNL     1     -38.809   4.352  84.119  1.00  0.00    -0.507 OA
ATOM     19  H   UNL     1     -39.322   3.596  84.553  1.00  0.00     0.293 HD
ENDBRANCH   6  18
BRANCH  17  20
ATOM     20  O   UNL     1     -43.040   3.498  81.260  1.00  0.00    -0.507 OA
ATOM     21  H   UNL     1     -42.742   3.366  82.217  1.00  0.00     0.293 HD
ENDBRANCH  17  20
BRANCH  15  22
ATOM     22  O   UNL     1     -42.501   2.372  76.613  1.00  0.00    -0.508 OA
ATOM     23  H   UNL     1     -42.998   3.024  76.016  1.00  0.00     0.293 HD
ENDBRANCH  15  22
TORSDOF 3
ENDMDL
MODEL 6
REMARK VINA RESULT:    -6.301      3.353      6.599
REMARK INTER + INTRA:          -6.853
REMARK INTER:                  -6.853
REMARK INTRA:                   0.000
REMARK UNBOUND:                 0.000
REMARK SMILES Cc1cc(O)c2c(c1)C(=O)c1cc(O)cc(O)c1C2=O
REMARK SMILES IDX 1 1 2 2 8 3 7 4 6 5 4 6 3 7 19 8 20 9 18 10 11 11 9 12 10 13
REMARK SMILES IDX 12 14 13 15 15 16 16 17 5 18 17 20 14 22
REMARK H PARENT 5 19 17 21 14 23
REMARK Flexibility Score: inf
ROOT
ATOM      1  C   UNL     1     -34.127   9.344  77.593  1.00  0.00     0.044 C 
ATOM      2  C   UNL     1     -34.837   8.070  77.944  1.00  0.00    -0.047 A 
ATOM      3  C   UNL     1     -36.236   8.025  77.960  1.00  0.00     0.016 A 
ATOM      4  C   UNL     1     -36.911   6.850  78.329  1.00  0.00     0.038 A 
ATOM      5  C   UNL     1     -36.174   5.707  78.715  1.00  0.00     0.076 A 
ATOM      6  C   UNL     1     -34.758   5.744  78.652  1.00  0.00     0.127 A 
ATOM      7  C   UNL     1     -34.108   6.931  78.301  1.00  0.00     0.050 A 
ATOM      8  C   UNL     1     -36.923   4.535  79.239  1.00  0.00     0.201 C 
ATOM      9  O   UNL     1     -36.383   3.776  80.089  1.00  0.00    -0.288 OA
ATOM     10  C   UNL     1     -38.362   4.369  78.909  1.00  0.00     0.076 A 
ATOM     11  C   UNL     1     -39.094   5.515  78.523  1.00  0.00     0.041 A 
ATOM     12  C   UNL     1     -38.393   6.803  78.313  1.00  0.00     0.194 C 
ATOM     13  O   UNL     1     -39.056   7.855  78.095  1.00  0.00    -0.289 OA
ATOM     14  C   UNL     1     -40.484   5.425  78.336  1.00  0.00     0.059 A 
ATOM     15  C   UNL     1     -41.146   4.211  78.512  1.00  0.00     0.120 A 
ATOM     16  C   UNL     1     -40.421   3.066  78.854  1.00  0.00     0.093 A 
ATOM     17  C   UNL     1     -39.035   3.125  79.025  1.00  0.00     0.131 A 
ENDROOT
BRANCH   6  18
ATOM     18  O   UNL     1     -33.961   4.624  78.898  1.00  0.00    -0.507 OA
ATOM     19  H   UNL     1     -34.302   3.673  78.845  1.00  0.00     0.293 HD
ENDBRANCH   6  18
BRANCH  17  20
ATOM     20  O   UNL     1     -38.364   1.925  79.276  1.00  0.00    -0.507 OA
ATOM     21  H   UNL     1     -37.425   1.875  79.645  1.00  0.00     0.293 HD
ENDBRANCH  17  20
BRANCH  15  22
ATOM     22  O   UNL     1     -42.526   4.149  78.334  1.00  0.00    -0.508 OA
ATOM     23  H   UNL     1     -42.935   3.761  77.491  1.00  0.00     0.293 HD
ENDBRANCH  15  22
TORSDOF 3
ENDMDL
MODEL 7
REMARK VINA RESULT:    -6.253     11.155     12.495
REMARK INTER + INTRA:          -6.801
REMARK INTER:                  -6.801
REMARK INTRA:                   0.000
REMARK UNBOUND:                 0.000
REMARK SMILES Cc1cc(O)c2c(c1)C(=O)c1cc(O)cc(O)c1C2=O
REMARK SMILES IDX 1 1 2 2 8 3 7 4 6 5 4 6 3 7 19 8 20 9 18 10 11 11 9 12 10 13
REMARK SMILES IDX 12 14 13 15 15 16 16 17 5 18 17 20 14 22
REMARK H PARENT 5 19 17 21 14 23
REMARK Flexibility Score: inf
ROOT
ATOM      1  C   UNL     1     -48.551  -0.134  74.430  1.00  0.00     0.044 C 
ATOM      2  C   UNL     1     -48.156   0.920  73.437  1.00  0.00    -0.047 A 
ATOM      3  C   UNL     1     -47.987   2.247  73.847  1.00  0.00     0.016 A 
ATOM      4  C   UNL     1     -47.660   3.248  72.918  1.00  0.00     0.038 A 
ATOM      5  C   UNL     1     -47.525   2.921  71.550  1.00  0.00     0.076 A 
ATOM      6  C   UNL     1     -47.653   1.567  71.147  1.00  0.00     0.127 A 
ATOM      7  C   UNL     1     -47.998   0.591  72.086  1.00  0.00     0.050 A 
ATOM      8  C   UNL     1     -47.326   4.030  70.581  1.00  0.00     0.201 C 
ATOM      9  O   UNL     1     -47.757   3.917  69.402  1.00  0.00    -0.288 OA
ATOM     10  C   UNL     1     -46.793   5.335  71.050  1.00  0.00     0.076 A 
ATOM     11  C   UNL     1     -46.929   5.657  72.420  1.00  0.00     0.041 A 
ATOM     12  C   UNL     1     -47.452   4.646  73.368  1.00  0.00     0.194 C 
ATOM     13  O   UNL     1     -47.696   4.967  74.564  1.00  0.00    -0.289 OA
ATOM     14  C   UNL     1     -46.564   6.935  72.877  1.00  0.00     0.059 A 
ATOM     15  C   UNL     1     -46.052   7.884  71.993  1.00  0.00     0.120 A 
ATOM     16  C   UNL     1     -45.877   7.557  70.646  1.00  0.00     0.093 A 
ATOM     17  C   UNL     1     -46.214   6.286  70.170  1.00  0.00     0.131 A 
ENDROOT
BRANCH   6  18
ATOM     18  O   UNL     1     -47.415   1.144  69.837  1.00  0.00    -0.507 OA
ATOM     19  H   UNL     1     -46.879   1.677  69.165  1.00  0.00     0.293 HD
ENDBRANCH   6  18
BRANCH  17  20
ATOM     20  O   UNL     1     -45.927   6.000  68.833  1.00  0.00    -0.507 OA
ATOM     21  H   UNL     1     -46.620   6.008  68.098  1.00  0.00     0.293 HD
ENDBRANCH  17  20
BRANCH  15  22
ATOM     22  O   UNL     1     -45.708   9.148  72.466  1.00  0.00    -0.508 OA
ATOM     23  H   UNL     1     -46.142   9.541  73.294  1.00  0.00     0.293 HD
ENDBRANCH  15  22
TORSDOF 3
ENDMDL
MODEL 8
REMARK VINA RESULT:    -6.209      2.559      5.331
REMARK INTER + INTRA:          -6.753
REMARK INTER:                  -6.753
REMARK INTRA:                   0.000
REMARK UNBOUND:                 0.000
REMARK SMILES Cc1cc(O)c2c(c1)C(=O)c1cc(O)cc(O)c1C2=O
REMARK SMILES IDX 1 1 2 2 8 3 7 4 6 5 4 6 3 7 19 8 20 9 18 10 11 11 9 12 10 13
REMARK SMILES IDX 12 14 13 15 15 16 16 17 5 18 17 20 14 22
REMARK H PARENT 5 19 17 21 14 23
REMARK Flexibility Score: inf
ROOT
ATOM      1  C   UNL     1     -34.317   7.160  77.668  1.00  0.00     0.044 C 
ATOM      2  C   UNL     1     -35.669   6.578  77.961  1.00  0.00    -0.047 A 
ATOM      3  C   UNL     1     -35.869   5.808  79.112  1.00  0.00     0.016 A 
ATOM      4  C   UNL     1     -37.119   5.223  79.374  1.00  0.00     0.038 A 
ATOM      5  C   UNL     1     -38.180   5.389  78.455  1.00  0.00     0.076 A 
ATOM      6  C   UNL     1     -37.984   6.208  77.314  1.00  0.00     0.127 A 
ATOM      7  C   UNL     1     -36.726   6.764  77.064  1.00  0.00     0.050 A 
ATOM      8  C   UNL     1     -39.438   4.634  78.693  1.00  0.00     0.201 C 
ATOM      9  O   UNL     1     -40.148   4.275  77.715  1.00  0.00    -0.288 OA
ATOM     10  C   UNL     1     -39.757   4.141  80.057  1.00  0.00     0.076 A 
ATOM     11  C   UNL     1     -38.693   3.977  80.973  1.00  0.00     0.041 A 
ATOM     12  C   UNL     1     -37.331   4.435  80.612  1.00  0.00     0.194 C 
ATOM     13  O   UNL     1     -36.355   4.176  81.370  1.00  0.00    -0.289 OA
ATOM     14  C   UNL     1     -38.933   3.385  82.224  1.00  0.00     0.059 A 
ATOM     15  C   UNL     1     -40.217   2.971  82.579  1.00  0.00     0.120 A 
ATOM     16  C   UNL     1     -41.280   3.168  81.693  1.00  0.00     0.093 A 
ATOM     17  C   UNL     1     -41.071   3.773  80.450  1.00  0.00     0.131 A 
ENDROOT
BRANCH   6  18
ATOM     18  O   UNL     1     -39.013   6.522  76.423  1.00  0.00    -0.507 OA
ATOM     19  H   UNL     1     -39.720   7.221  76.610  1.00  0.00     0.293 HD
ENDBRANCH   6  18
BRANCH  17  20
ATOM     20  O   UNL     1     -42.193   4.021  79.655  1.00  0.00    -0.507 OA
ATOM     21  H   UNL     1     -42.870   4.744  79.854  1.00  0.00     0.293 HD
ENDBRANCH  17  20
BRANCH  15  22
ATOM     22  O   UNL     1     -40.429   2.375  83.820  1.00  0.00    -0.508 OA
ATOM     23  H   UNL     1     -39.734   2.421  84.556  1.00  0.00     0.293 HD
ENDBRANCH  15  22
TORSDOF 3
ENDMDL
MODEL 9
REMARK VINA RESULT:    -6.159      2.889      5.452
REMARK INTER + INTRA:          -6.699
REMARK INTER:                  -6.699
REMARK INTRA:                   0.000
REMARK UNBOUND:                 0.000
REMARK SMILES Cc1cc(O)c2c(c1)C(=O)c1cc(O)cc(O)c1C2=O
REMARK SMILES IDX 1 1 2 2 8 3 7 4 6 5 4 6 3 7 19 8 20 9 18 10 11 11 9 12 10 13
REMARK SMILES IDX 12 14 13 15 15 16 16 17 5 18 17 20 14 22
REMARK H PARENT 5 19 17 21 14 23
REMARK Flexibility Score: inf
ROOT
ATOM      1  C   UNL     1     -39.690   2.228  83.992  1.00  0.00     0.044 C 
ATOM      2  C   UNL     1     -38.899   2.902  82.909  1.00  0.00    -0.047 A 
ATOM      3  C   UNL     1     -39.545   3.408  81.775  1.00  0.00     0.016 A 
ATOM      4  C   UNL     1     -38.809   4.002  80.737  1.00  0.00     0.038 A 
ATOM      5  C   UNL     1     -37.399   4.067  80.822  1.00  0.00     0.076 A 
ATOM      6  C   UNL     1     -36.754   3.594  81.993  1.00  0.00     0.127 A 
ATOM      7  C   UNL     1     -37.506   2.989  83.005  1.00  0.00     0.050 A 
ATOM      8  C   UNL     1     -36.648   4.566  79.640  1.00  0.00     0.201 C 
ATOM      9  O   UNL     1     -35.485   4.139  79.410  1.00  0.00    -0.288 OA
ATOM     10  C   UNL     1     -37.335   5.417  78.634  1.00  0.00     0.076 A 
ATOM     11  C   UNL     1     -38.745   5.349  78.554  1.00  0.00     0.041 A 
ATOM     12  C   UNL     1     -39.505   4.563  79.554  1.00  0.00     0.194 C 
ATOM     13  O   UNL     1     -40.747   4.394  79.413  1.00  0.00    -0.289 OA
ATOM     14  C   UNL     1     -39.420   6.031  77.527  1.00  0.00     0.059 A 
ATOM     15  C   UNL     1     -38.712   6.789  76.595  1.00  0.00     0.120 A 
ATOM     16  C   UNL     1     -37.322   6.892  76.694  1.00  0.00     0.093 A 
ATOM     17  C   UNL     1     -36.629   6.240  77.718  1.00  0.00     0.131 A 
ENDROOT
BRANCH   6  18
ATOM     18  O   UNL     1     -35.381   3.732  82.207  1.00  0.00    -0.507 OA
ATOM     19  H   UNL     1     -34.982   4.378  82.875  1.00  0.00     0.293 HD
ENDBRANCH   6  18
BRANCH  17  20
ATOM     20  O   UNL     1     -35.253   6.462  77.810  1.00  0.00    -0.507 OA
ATOM     21  H   UNL     1     -34.844   7.237  78.314  1.00  0.00     0.293 HD
ENDBRANCH  17  20
BRANCH  15  22
ATOM     22  O   UNL     1     -39.402   7.447  75.578  1.00  0.00    -0.508 OA
ATOM     23  H   UNL     1     -38.927   8.062  74.928  1.00  0.00     0.293 HD
ENDBRANCH  15  22
TORSDOF 3
ENDMDL
