MODEL 1
REMARK VINA RESULT:    -5.914      0.000      0.000
REMARK INTER + INTRA:          -9.150
REMARK INTER:                  -7.815
REMARK INTRA:                  -1.334
REMARK UNBOUND:                -1.334
REMARK SMILES CC[C@@H](C=C[C@@H](C)[C@@H]1CC[C@@H]2C3=CC[C@H]4C[C@H](O)CC[C@@]4(C)[C@@H]3CC[C@]21C)C(C)C
REMARK SMILES IDX 6 1 7 2 5 3 4 4 3 5 2 6 1 7 28 8 29 9 30 10 8 11 9 12 26 13
REMARK SMILES IDX 10 14 11 15 25 16 27 17 12 18 24 19 23 20 13 21 21 22 14 23
REMARK SMILES IDX 15 24 20 25 22 26 16 27 19 28 17 29 18 30
REMARK H PARENT 18 31
REMARK Flexibility Score: inf
ROOT
ATOM      1  C   UNL     1      10.662   2.273  -9.660  1.00  0.00     0.012 C 
ATOM      2  C   UNL     1      11.781   2.427 -10.711  1.00  0.00     0.012 C 
ENDROOT
BRANCH   1   3
ATOM      3  C   UNL     1      11.155   2.856  -8.345  1.00  0.00    -0.028 C 
ATOM      4  C   UNL     1      10.374   2.922  -7.251  1.00  0.00    -0.027 C 
BRANCH   4   5
ATOM      5  C   UNL     1      10.879   3.270  -5.860  1.00  0.00     0.014 C 
BRANCH   5   6
ATOM      6  C   UNL     1      12.087   4.253  -5.904  1.00  0.00     0.004 C 
ATOM      7  C   UNL     1      11.871   5.612  -5.233  1.00  0.00     0.004 C 
ENDBRANCH   5   6
BRANCH   5   8
ATOM      8  C   UNL     1      11.055   2.001  -4.960  1.00  0.00    -0.011 C 
ATOM      9  C   UNL     1      10.220   0.823  -5.507  1.00  0.00     0.008 C 
ATOM     10  C   UNL     1      10.651   2.265  -3.497  1.00  0.00     0.008 C 
ENDBRANCH   5   8
ENDBRANCH   4   5
ENDBRANCH   1   3
BRANCH   1  11
ATOM     11  C   UNL     1      10.139   0.794  -9.498  1.00  0.00     0.002 C 
ATOM     12  C   UNL     1      10.679  -0.213 -10.552  1.00  0.00     0.005 C 
ATOM     13  C   UNL     1       8.583   0.580  -9.514  1.00  0.00    -0.023 C 
ATOM     14  C   UNL     1       9.575  -1.258 -10.786  1.00  0.00     0.009 C 
ATOM     15  C   UNL     1       8.531  -0.949  -9.714  1.00  0.00     0.021 C 
ATOM     16  C   UNL     1       7.827   0.960  -8.188  1.00  0.00     0.008 C 
ATOM     17  C   UNL     1       7.920   1.334 -10.713  1.00  0.00     0.012 C 
ATOM     18  C   UNL     1       7.103  -1.416  -9.839  1.00  0.00    -0.067 C 
ATOM     19  C   UNL     1       6.875  -0.137  -7.618  1.00  0.00     0.009 C 
ATOM     20  C   UNL     1       6.190  -1.109  -8.652  1.00  0.00     0.021 C 
ATOM     21  C   UNL     1       6.638  -2.098 -10.906  1.00  0.00    -0.027 C 
ATOM     22  C   UNL     1       4.657  -0.816  -9.041  1.00  0.00    -0.023 C 
ATOM     23  C   UNL     1       5.184  -2.429 -10.997  1.00  0.00     0.031 C 
ATOM     24  C   UNL     1       4.370  -1.194 -10.552  1.00  0.00     0.002 C 
ATOM     25  C   UNL     1       3.757  -1.689  -8.101  1.00  0.00     0.010 C 
ATOM     26  C   UNL     1       4.295   0.686  -8.836  1.00  0.00     0.012 C 
ATOM     27  C   UNL     1       2.866  -1.349 -10.906  1.00  0.00     0.036 C 
ATOM     28  C   UNL     1       2.275  -1.738  -8.502  1.00  0.00     0.032 C 
ATOM     29  C   UNL     1       2.105  -2.261  -9.933  1.00  0.00     0.114 C 
BRANCH  29  30
ATOM     30  O   UNL     1       0.743  -2.274 -10.282  1.00  0.00    -0.393 OA
ATOM     31  H   UNL     1       0.654  -2.852 -11.083  1.00  0.00     0.210 HD
ENDBRANCH  29  30
ENDBRANCH   1  11
TORSDOF 6
ENDMDL
MODEL 2
REMARK VINA RESULT:    -5.775      4.401      7.806
REMARK INTER + INTRA:          -8.967
REMARK INTER:                  -7.781
REMARK INTRA:                  -1.186
REMARK UNBOUND:                -1.334
REMARK SMILES CC[C@@H](C=C[C@@H](C)[C@@H]1CC[C@@H]2C3=CC[C@H]4C[C@H](O)CC[C@@]4(C)[C@@H]3CC[C@]21C)C(C)C
REMARK SMILES IDX 6 1 7 2 5 3 4 4 3 5 2 6 1 7 28 8 29 9 30 10 8 11 9 12 26 13
REMARK SMILES IDX 10 14 11 15 25 16 27 17 12 18 24 19 23 20 13 21 21 22 14 23
REMARK SMILES IDX 15 24 20 25 22 26 16 27 19 28 17 29 18 30
REMARK H PARENT 18 31
REMARK Flexibility Score: inf
ROOT
ATOM      1  C   UNL     1       5.856   0.369  -9.365  1.00  0.00     0.012 C 
ATOM      2  C   UNL     1       6.521   1.654  -9.901  1.00  0.00     0.012 C 
ENDROOT
BRANCH   1   3
ATOM      3  C   UNL     1       4.378   0.650  -9.141  1.00  0.00    -0.028 C 
ATOM      4  C   UNL     1       3.505  -0.319  -8.811  1.00  0.00    -0.027 C 
BRANCH   4   5
ATOM      5  C   UNL     1       2.080  -0.063  -8.346  1.00  0.00     0.014 C 
BRANCH   5   6
ATOM      6  C   UNL     1       1.128  -1.245  -8.697  1.00  0.00     0.004 C 
ATOM      7  C   UNL     1       0.127  -1.646  -7.610  1.00  0.00     0.004 C 
ENDBRANCH   5   6
BRANCH   5   8
ATOM      8  C   UNL     1       1.578   1.367  -8.737  1.00  0.00    -0.011 C 
ATOM      9  C   UNL     1       0.770   1.997  -7.582  1.00  0.00     0.008 C 
ATOM     10  C   UNL     1       0.708   1.352 -10.008  1.00  0.00     0.008 C 
ENDBRANCH   5   8
ENDBRANCH   4   5
ENDBRANCH   1   3
BRANCH   1  11
ATOM     11  C   UNL     1       6.553  -0.221  -8.079  1.00  0.00     0.002 C 
ATOM     12  C   UNL     1       7.808   0.560  -7.596  1.00  0.00     0.005 C 
ATOM     13  C   UNL     1       7.026  -1.717  -8.144  1.00  0.00    -0.023 C 
ATOM     14  C   UNL     1       8.762  -0.466  -6.962  1.00  0.00     0.009 C 
ATOM     15  C   UNL     1       7.945  -1.755  -6.906  1.00  0.00     0.021 C 
ATOM     16  C   UNL     1       5.894  -2.798  -7.988  1.00  0.00     0.008 C 
ATOM     17  C   UNL     1       7.825  -2.002  -9.457  1.00  0.00     0.012 C 
ATOM     18  C   UNL     1       8.602  -3.106  -6.779  1.00  0.00    -0.067 C 
ATOM     19  C   UNL     1       6.159  -3.901  -6.917  1.00  0.00     0.009 C 
ATOM     20  C   UNL     1       7.659  -4.302  -6.648  1.00  0.00     0.021 C 
ATOM     21  C   UNL     1       9.939  -3.278  -6.744  1.00  0.00    -0.027 C 
ATOM     22  C   UNL     1       8.196  -5.659  -7.322  1.00  0.00    -0.023 C 
ATOM     23  C   UNL     1      10.509  -4.659  -6.724  1.00  0.00     0.031 C 
ATOM     24  C   UNL     1       9.721  -5.529  -7.728  1.00  0.00     0.002 C 
ATOM     25  C   UNL     1       8.028  -6.807  -6.270  1.00  0.00     0.010 C 
ATOM     26  C   UNL     1       7.379  -6.021  -8.600  1.00  0.00     0.012 C 
ATOM     27  C   UNL     1      10.438  -6.882  -7.992  1.00  0.00     0.036 C 
ATOM     28  C   UNL     1       8.729  -8.123  -6.643  1.00  0.00     0.032 C 
ATOM     29  C   UNL     1      10.230  -7.906  -6.867  1.00  0.00     0.114 C 
BRANCH  29  30
ATOM     30  O   UNL     1      10.842  -9.120  -7.229  1.00  0.00    -0.393 OA
ATOM     31  H   UNL     1      11.230  -8.991  -8.133  1.00  0.00     0.210 HD
ENDBRANCH  29  30
ENDBRANCH   1  11
TORSDOF 6
ENDMDL
MODEL 3
REMARK VINA RESULT:    -5.755      2.940      5.332
REMARK INTER + INTRA:          -8.940
REMARK INTER:                  -7.970
REMARK INTRA:                  -0.970
REMARK UNBOUND:                -1.334
REMARK SMILES CC[C@@H](C=C[C@@H](C)[C@@H]1CC[C@@H]2C3=CC[C@H]4C[C@H](O)CC[C@@]4(C)[C@@H]3CC[C@]21C)C(C)C
REMARK SMILES IDX 6 1 7 2 5 3 4 4 3 5 2 6 1 7 28 8 29 9 30 10 8 11 9 12 26 13
REMARK SMILES IDX 10 14 11 15 25 16 27 17 12 18 24 19 23 20 13 21 21 22 14 23
REMARK SMILES IDX 15 24 20 25 22 26 16 27 19 28 17 29 18 30
REMARK H PARENT 18 31
REMARK Flexibility Score: inf
ROOT
ATOM      1  C   UNL     1       5.964   0.097  -9.777  1.00  0.00     0.012 C 
ATOM      2  C   UNL     1       6.426  -1.012 -10.746  1.00  0.00     0.012 C 
ENDROOT
BRANCH   1   3
ATOM      3  C   UNL     1       7.196   0.732  -9.151  1.00  0.00    -0.028 C 
ATOM      4  C   UNL     1       7.470   0.622  -7.839  1.00  0.00    -0.027 C 
BRANCH   4   5
ATOM      5  C   UNL     1       8.793   1.025  -7.206  1.00  0.00     0.014 C 
BRANCH   5   6
ATOM      6  C   UNL     1       9.520   2.134  -8.024  1.00  0.00     0.004 C 
ATOM      7  C   UNL     1      10.292   3.174  -7.208  1.00  0.00     0.004 C 
ENDBRANCH   5   6
BRANCH   5   8
ATOM      8  C   UNL     1       9.659  -0.215  -6.803  1.00  0.00    -0.011 C 
ATOM      9  C   UNL     1       8.787  -1.486  -6.719  1.00  0.00     0.008 C 
ATOM     10  C   UNL     1      10.379  -0.010  -5.456  1.00  0.00     0.008 C 
ENDBRANCH   5   8
ENDBRANCH   4   5
ENDBRANCH   1   3
BRANCH   1  11
ATOM     11  C   UNL     1       4.928  -0.394  -8.694  1.00  0.00     0.002 C 
ATOM     12  C   UNL     1       5.059  -1.889  -8.291  1.00  0.00     0.005 C 
ATOM     13  C   UNL     1       3.404  -0.212  -9.027  1.00  0.00    -0.023 C 
ATOM     14  C   UNL     1       3.647  -2.389  -7.942  1.00  0.00     0.009 C 
ATOM     15  C   UNL     1       2.789  -1.125  -7.947  1.00  0.00     0.021 C 
ATOM     16  C   UNL     1       2.838   1.248  -8.863  1.00  0.00     0.008 C 
ATOM     17  C   UNL     1       3.073  -0.726 -10.466  1.00  0.00     0.012 C 
ATOM     18  C   UNL     1       1.290  -1.184  -8.098  1.00  0.00    -0.067 C 
ATOM     19  C   UNL     1       1.546   1.375  -7.999  1.00  0.00     0.009 C 
ATOM     20  C   UNL     1       0.552   0.151  -8.000  1.00  0.00     0.021 C 
ATOM     21  C   UNL     1       0.609  -2.335  -8.275  1.00  0.00    -0.027 C 
ATOM     22  C   UNL     1      -0.761   0.263  -8.921  1.00  0.00    -0.023 C 
ATOM     23  C   UNL     1      -0.863  -2.294  -8.523  1.00  0.00     0.031 C 
ATOM     24  C   UNL     1      -1.163  -1.148  -9.516  1.00  0.00     0.002 C 
ATOM     25  C   UNL     1      -1.924   0.805  -8.021  1.00  0.00     0.010 C 
ATOM     26  C   UNL     1      -0.540   1.248 -10.109  1.00  0.00     0.012 C 
ATOM     27  C   UNL     1      -2.615  -1.233 -10.058  1.00  0.00     0.036 C 
ATOM     28  C   UNL     1      -3.317   0.728  -8.665  1.00  0.00     0.032 C 
ATOM     29  C   UNL     1      -3.664  -0.710  -9.065  1.00  0.00     0.114 C 
BRANCH  29  30
ATOM     30  O   UNL     1      -4.932  -0.748  -9.671  1.00  0.00    -0.393 OA
ATOM     31  H   UNL     1      -4.834  -0.353 -10.576  1.00  0.00     0.210 HD
ENDBRANCH  29  30
ENDBRANCH   1  11
TORSDOF 6
ENDMDL
MODEL 4
REMARK VINA RESULT:    -5.690      5.112     10.940
REMARK INTER + INTRA:          -8.854
REMARK INTER:                  -7.417
REMARK INTRA:                  -1.437
REMARK UNBOUND:                -1.334
REMARK SMILES CC[C@@H](C=C[C@@H](C)[C@@H]1CC[C@@H]2C3=CC[C@H]4C[C@H](O)CC[C@@]4(C)[C@@H]3CC[C@]21C)C(C)C
REMARK SMILES IDX 6 1 7 2 5 3 4 4 3 5 2 6 1 7 28 8 29 9 30 10 8 11 9 12 26 13
REMARK SMILES IDX 10 14 11 15 25 16 27 17 12 18 24 19 23 20 13 21 21 22 14 23
REMARK SMILES IDX 15 24 20 25 22 26 16 27 19 28 17 29 18 30
REMARK H PARENT 18 31
REMARK Flexibility Score: inf
ROOT
ATOM      1  C   UNL     1      -3.308   0.614  -9.065  1.00  0.00     0.012 C 
ATOM      2  C   UNL     1      -4.181   1.848  -9.374  1.00  0.00     0.012 C 
ENDROOT
BRANCH   1   3
ATOM      3  C   UNL     1      -4.161  -0.407  -8.329  1.00  0.00    -0.028 C 
ATOM      4  C   UNL     1      -3.988  -0.679  -7.024  1.00  0.00    -0.027 C 
BRANCH   4   5
ATOM      5  C   UNL     1      -4.955  -1.503  -6.187  1.00  0.00     0.014 C 
BRANCH   5   6
ATOM      6  C   UNL     1      -6.036  -0.618  -5.499  1.00  0.00     0.004 C 
ATOM      7  C   UNL     1      -7.273  -0.294  -6.341  1.00  0.00     0.004 C 
ENDBRANCH   5   6
BRANCH   5   8
ATOM      8  C   UNL     1      -4.214  -2.529  -5.266  1.00  0.00    -0.011 C 
ATOM      9  C   UNL     1      -3.749  -1.853  -3.959  1.00  0.00     0.008 C 
ATOM     10  C   UNL     1      -2.997  -3.165  -5.964  1.00  0.00     0.008 C 
ENDBRANCH   5   8
ENDBRANCH   4   5
ENDBRANCH   1   3
BRANCH   1  11
ATOM     11  C   UNL     1      -1.978   0.953  -8.287  1.00  0.00     0.002 C 
ATOM     12  C   UNL     1      -1.575   2.454  -8.299  1.00  0.00     0.005 C 
ATOM     13  C   UNL     1      -0.677   0.196  -8.732  1.00  0.00    -0.023 C 
ATOM     14  C   UNL     1      -0.038   2.510  -8.268  1.00  0.00     0.009 C 
ATOM     15  C   UNL     1       0.386   1.062  -8.025  1.00  0.00     0.021 C 
ATOM     16  C   UNL     1      -0.549  -1.293  -8.239  1.00  0.00     0.008 C 
ATOM     17  C   UNL     1      -0.501   0.234 -10.286  1.00  0.00     0.012 C 
ATOM     18  C   UNL     1       1.772   0.575  -8.360  1.00  0.00    -0.067 C 
ATOM     19  C   UNL     1       0.792  -1.656  -7.531  1.00  0.00     0.009 C 
ATOM     20  C   UNL     1       2.084  -0.874  -7.985  1.00  0.00     0.021 C 
ATOM     21  C   UNL     1       2.715   1.356  -8.925  1.00  0.00    -0.027 C 
ATOM     22  C   UNL     1       3.092  -1.626  -8.986  1.00  0.00    -0.023 C 
ATOM     23  C   UNL     1       4.028   0.765  -9.322  1.00  0.00     0.031 C 
ATOM     24  C   UNL     1       3.768  -0.605  -9.989  1.00  0.00     0.002 C 
ATOM     25  C   UNL     1       4.196  -2.315  -8.113  1.00  0.00     0.010 C 
ATOM     26  C   UNL     1       2.355  -2.716  -9.822  1.00  0.00     0.012 C 
ATOM     27  C   UNL     1       5.041  -1.140 -10.699  1.00  0.00     0.036 C 
ATOM     28  C   UNL     1       5.391  -2.861  -8.911  1.00  0.00     0.032 C 
ATOM     29  C   UNL     1       6.063  -1.752  -9.730  1.00  0.00     0.114 C 
BRANCH  29  30
ATOM     30  O   UNL     1       7.137  -2.282 -10.466  1.00  0.00    -0.393 OA
ATOM     31  H   UNL     1       7.070  -3.270 -10.408  1.00  0.00     0.210 HD
ENDBRANCH  29  30
ENDBRANCH   1  11
TORSDOF 6
ENDMDL
MODEL 5
REMARK VINA RESULT:    -5.677      3.094      5.814
REMARK INTER + INTRA:          -8.837
REMARK INTER:                  -7.456
REMARK INTRA:                  -1.381
REMARK UNBOUND:                -1.334
REMARK SMILES CC[C@@H](C=C[C@@H](C)[C@@H]1CC[C@@H]2C3=CC[C@H]4C[C@H](O)CC[C@@]4(C)[C@@H]3CC[C@]21C)C(C)C
REMARK SMILES IDX 6 1 7 2 5 3 4 4 3 5 2 6 1 7 28 8 29 9 30 10 8 11 9 12 26 13
REMARK SMILES IDX 10 14 11 15 25 16 27 17 12 18 24 19 23 20 13 21 21 22 14 23
REMARK SMILES IDX 15 24 20 25 22 26 16 27 19 28 17 29 18 30
REMARK H PARENT 18 31
REMARK Flexibility Score: inf
ROOT
ATOM      1  C   UNL     1       5.613   1.310 -10.077  1.00  0.00     0.012 C 
ATOM      2  C   UNL     1       6.187   2.096 -11.274  1.00  0.00     0.012 C 
ENDROOT
BRANCH   1   3
ATOM      3  C   UNL     1       6.771   0.698  -9.304  1.00  0.00    -0.028 C 
ATOM      4  C   UNL     1       6.654   0.317  -8.019  1.00  0.00    -0.027 C 
BRANCH   4   5
ATOM      5  C   UNL     1       7.692  -0.511  -7.276  1.00  0.00     0.014 C 
BRANCH   5   6
ATOM      6  C   UNL     1       9.102   0.149  -7.310  1.00  0.00     0.004 C 
ATOM      7  C   UNL     1       9.267   1.423  -6.478  1.00  0.00     0.004 C 
ENDBRANCH   5   6
BRANCH   5   8
ATOM      8  C   UNL     1       7.629  -2.026  -7.666  1.00  0.00    -0.011 C 
ATOM      9  C   UNL     1       6.166  -2.513  -7.733  1.00  0.00     0.008 C 
ATOM     10  C   UNL     1       8.409  -2.914  -6.676  1.00  0.00     0.008 C 
ENDBRANCH   5   8
ENDBRANCH   4   5
ENDBRANCH   1   3
BRANCH   1  11
ATOM     11  C   UNL     1       4.530   0.237 -10.479  1.00  0.00     0.002 C 
ATOM     12  C   UNL     1       4.148   0.223 -11.986  1.00  0.00     0.005 C 
ATOM     13  C   UNL     1       3.152   0.296  -9.728  1.00  0.00    -0.023 C 
ATOM     14  C   UNL     1       2.671  -0.197 -12.074  1.00  0.00     0.009 C 
ATOM     15  C   UNL     1       2.313  -0.614 -10.649  1.00  0.00     0.021 C 
ATOM     16  C   UNL     1       3.144  -0.289  -8.267  1.00  0.00     0.008 C 
ATOM     17  C   UNL     1       2.585   1.753  -9.695  1.00  0.00     0.012 C 
ATOM     18  C   UNL     1       0.883  -0.670 -10.174  1.00  0.00    -0.067 C 
ATOM     19  C   UNL     1       2.026  -1.335  -7.966  1.00  0.00     0.009 C 
ATOM     20  C   UNL     1       0.667  -1.186  -8.751  1.00  0.00     0.021 C 
ATOM     21  C   UNL     1      -0.167  -0.325 -10.947  1.00  0.00    -0.027 C 
ATOM     22  C   UNL     1      -0.569  -0.516  -7.973  1.00  0.00    -0.023 C 
ATOM     23  C   UNL     1      -1.542  -0.307 -10.363  1.00  0.00     0.031 C 
ATOM     24  C   UNL     1      -1.472   0.333  -8.959  1.00  0.00     0.002 C 
ATOM     25  C   UNL     1      -1.418  -1.675  -7.349  1.00  0.00     0.010 C 
ATOM     26  C   UNL     1      -0.079   0.424  -6.829  1.00  0.00     0.012 C 
ATOM     27  C   UNL     1      -2.888   0.666  -8.416  1.00  0.00     0.036 C 
ATOM     28  C   UNL     1      -2.782  -1.239  -6.790  1.00  0.00     0.032 C 
ATOM     29  C   UNL     1      -3.632  -0.562  -7.872  1.00  0.00     0.114 C 
BRANCH  29  30
ATOM     30  O   UNL     1      -4.863  -0.153  -7.329  1.00  0.00    -0.393 OA
ATOM     31  H   UNL     1      -4.659   0.430  -6.553  1.00  0.00     0.210 HD
ENDBRANCH  29  30
ENDBRANCH   1  11
TORSDOF 6
ENDMDL
MODEL 6
REMARK VINA RESULT:    -5.616      5.188      8.270
REMARK INTER + INTRA:          -8.757
REMARK INTER:                  -7.781
REMARK INTRA:                  -0.976
REMARK UNBOUND:                -1.334
REMARK SMILES CC[C@@H](C=C[C@@H](C)[C@@H]1CC[C@@H]2C3=CC[C@H]4C[C@H](O)CC[C@@]4(C)[C@@H]3CC[C@]21C)C(C)C
REMARK SMILES IDX 6 1 7 2 5 3 4 4 3 5 2 6 1 7 28 8 29 9 30 10 8 11 9 12 26 13
REMARK SMILES IDX 10 14 11 15 25 16 27 17 12 18 24 19 23 20 13 21 21 22 14 23
REMARK SMILES IDX 15 24 20 25 22 26 16 27 19 28 17 29 18 30
REMARK H PARENT 18 31
REMARK Flexibility Score: inf
ROOT
ATOM      1  C   UNL     1       3.095  -0.174  -9.459  1.00  0.00     0.012 C 
ATOM      2  C   UNL     1       3.453  -1.665  -9.633  1.00  0.00     0.012 C 
ENDROOT
BRANCH   1   3
ATOM      3  C   UNL     1       4.366   0.589  -9.120  1.00  0.00    -0.028 C 
ATOM      4  C   UNL     1       5.439  -0.011  -8.574  1.00  0.00    -0.027 C 
BRANCH   4   5
ATOM      5  C   UNL     1       6.805   0.642  -8.436  1.00  0.00     0.014 C 
BRANCH   5   6
ATOM      6  C   UNL     1       7.570   0.693  -9.793  1.00  0.00     0.004 C 
ATOM      7  C   UNL     1       7.710   2.076 -10.433  1.00  0.00     0.004 C 
ENDBRANCH   5   6
BRANCH   5   8
ATOM      8  C   UNL     1       7.607   0.086  -7.212  1.00  0.00    -0.011 C 
ATOM      9  C   UNL     1       8.914   0.881  -7.007  1.00  0.00     0.008 C 
ATOM     10  C   UNL     1       7.949  -1.408  -7.372  1.00  0.00     0.008 C 
ENDBRANCH   5   8
ENDBRANCH   4   5
ENDBRANCH   1   3
BRANCH   1  11
ATOM     11  C   UNL     1       1.944   0.087  -8.413  1.00  0.00     0.002 C 
ATOM     12  C   UNL     1       1.465  -1.171  -7.636  1.00  0.00     0.005 C 
ATOM     13  C   UNL     1       0.622   0.740  -8.952  1.00  0.00    -0.023 C 
ATOM     14  C   UNL     1      -0.031  -0.975  -7.337  1.00  0.00     0.009 C 
ATOM     15  C   UNL     1      -0.313   0.467  -7.756  1.00  0.00     0.021 C 
ATOM     16  C   UNL     1       0.685   2.289  -9.223  1.00  0.00     0.008 C 
ATOM     17  C   UNL     1       0.119   0.018 -10.245  1.00  0.00     0.012 C 
ATOM     18  C   UNL     1      -1.709   0.947  -8.057  1.00  0.00    -0.067 C 
ATOM     19  C   UNL     1      -0.453   3.134  -8.572  1.00  0.00     0.009 C 
ATOM     20  C   UNL     1      -1.853   2.435  -8.380  1.00  0.00     0.021 C 
ATOM     21  C   UNL     1      -2.793   0.145  -8.017  1.00  0.00    -0.027 C 
ATOM     22  C   UNL     1      -3.007   2.783  -9.444  1.00  0.00    -0.023 C 
ATOM     23  C   UNL     1      -4.125   0.677  -8.434  1.00  0.00     0.031 C 
ATOM     24  C   UNL     1      -3.937   1.529  -9.709  1.00  0.00     0.002 C 
ATOM     25  C   UNL     1      -3.861   3.953  -8.846  1.00  0.00     0.010 C 
ATOM     26  C   UNL     1      -2.405   3.241 -10.807  1.00  0.00     0.012 C 
ATOM     27  C   UNL     1      -5.300   1.862 -10.375  1.00  0.00     0.036 C 
ATOM     28  C   UNL     1      -5.166   4.243  -9.605  1.00  0.00     0.032 C 
ATOM     29  C   UNL     1      -6.057   2.997  -9.670  1.00  0.00     0.114 C 
BRANCH  29  30
ATOM     30  O   UNL     1      -7.232   3.283 -10.388  1.00  0.00    -0.393 OA
ATOM     31  H   UNL     1      -7.356   4.266 -10.361  1.00  0.00     0.210 HD
ENDBRANCH  29  30
ENDBRANCH   1  11
TORSDOF 6
ENDMDL
MODEL 7
REMARK VINA RESULT:    -5.608      4.990      8.704
REMARK INTER + INTRA:          -8.746
REMARK INTER:                  -7.744
REMARK INTRA:                  -1.003
REMARK UNBOUND:                -1.334
REMARK SMILES CC[C@@H](C=C[C@@H](C)[C@@H]1CC[C@@H]2C3=CC[C@H]4C[C@H](O)CC[C@@]4(C)[C@@H]3CC[C@]21C)C(C)C
REMARK SMILES IDX 6 1 7 2 5 3 4 4 3 5 2 6 1 7 28 8 29 9 30 10 8 11 9 12 26 13
REMARK SMILES IDX 10 14 11 15 25 16 27 17 12 18 24 19 23 20 13 21 21 22 14 23
REMARK SMILES IDX 15 24 20 25 22 26 16 27 19 28 17 29 18 30
REMARK H PARENT 18 31
REMARK Flexibility Score: inf
ROOT
ATOM      1  C   UNL     1       2.432  -1.991  -8.789  1.00  0.00     0.012 C 
ATOM      2  C   UNL     1       2.276  -3.518  -8.942  1.00  0.00     0.012 C 
ENDROOT
BRANCH   1   3
ATOM      3  C   UNL     1       3.811  -1.703  -8.217  1.00  0.00    -0.028 C 
ATOM      4  C   UNL     1       4.939  -2.130  -8.814  1.00  0.00    -0.027 C 
BRANCH   4   5
ATOM      5  C   UNL     1       6.337  -1.675  -8.424  1.00  0.00     0.014 C 
BRANCH   5   6
ATOM      6  C   UNL     1       7.010  -2.649  -7.412  1.00  0.00     0.004 C 
ATOM      7  C   UNL     1       6.315  -3.998  -7.216  1.00  0.00     0.004 C 
ENDBRANCH   5   6
BRANCH   5   8
ATOM      8  C   UNL     1       6.382  -0.154  -8.053  1.00  0.00    -0.011 C 
ATOM      9  C   UNL     1       6.301   0.721  -9.322  1.00  0.00     0.008 C 
ATOM     10  C   UNL     1       7.655   0.216  -7.268  1.00  0.00     0.008 C 
ENDBRANCH   5   8
ENDBRANCH   4   5
ENDBRANCH   1   3
BRANCH   1  11
ATOM     11  C   UNL     1       1.283  -1.314  -7.947  1.00  0.00     0.002 C 
ATOM     12  C   UNL     1       0.110  -2.257  -7.560  1.00  0.00     0.005 C 
ATOM     13  C   UNL     1       0.583  -0.056  -8.574  1.00  0.00    -0.023 C 
ATOM     14  C   UNL     1      -1.165  -1.397  -7.513  1.00  0.00     0.009 C 
ATOM     15  C   UNL     1      -0.657   0.036  -7.661  1.00  0.00     0.021 C 
ATOM     16  C   UNL     1       1.394   1.290  -8.493  1.00  0.00     0.008 C 
ATOM     17  C   UNL     1       0.177  -0.316 -10.062  1.00  0.00     0.012 C 
ATOM     18  C   UNL     1      -1.561   1.156  -8.111  1.00  0.00    -0.067 C 
ATOM     19  C   UNL     1       0.618   2.509  -7.903  1.00  0.00     0.009 C 
ATOM     20  C   UNL     1      -0.941   2.553  -8.132  1.00  0.00     0.021 C 
ATOM     21  C   UNL     1      -2.854   0.973  -8.447  1.00  0.00    -0.027 C 
ATOM     22  C   UNL     1      -1.492   3.516  -9.295  1.00  0.00    -0.023 C 
ATOM     23  C   UNL     1      -3.649   2.117  -8.985  1.00  0.00     0.031 C 
ATOM     24  C   UNL     1      -2.772   2.896  -9.990  1.00  0.00     0.002 C 
ATOM     25  C   UNL     1      -1.866   4.887  -8.634  1.00  0.00     0.010 C 
ATOM     26  C   UNL     1      -0.411   3.761 -10.391  1.00  0.00     0.012 C 
ATOM     27  C   UNL     1      -3.615   3.907 -10.815  1.00  0.00     0.036 C 
ATOM     28  C   UNL     1      -2.653   5.841  -9.545  1.00  0.00     0.032 C 
ATOM     29  C   UNL     1      -3.949   5.190 -10.041  1.00  0.00     0.114 C 
BRANCH  29  30
ATOM     30  O   UNL     1      -4.639   6.075 -10.889  1.00  0.00    -0.393 OA
ATOM     31  H   UNL     1      -5.464   5.611 -11.183  1.00  0.00     0.210 HD
ENDBRANCH  29  30
ENDBRANCH   1  11
TORSDOF 6
ENDMDL
MODEL 8
REMARK VINA RESULT:    -5.595      4.990      7.093
REMARK INTER + INTRA:          -8.729
REMARK INTER:                  -7.270
REMARK INTRA:                  -1.459
REMARK UNBOUND:                -1.334
REMARK SMILES CC[C@@H](C=C[C@@H](C)[C@@H]1CC[C@@H]2C3=CC[C@H]4C[C@H](O)CC[C@@]4(C)[C@@H]3CC[C@]21C)C(C)C
REMARK SMILES IDX 6 1 7 2 5 3 4 4 3 5 2 6 1 7 28 8 29 9 30 10 8 11 9 12 26 13
REMARK SMILES IDX 10 14 11 15 25 16 27 17 12 18 24 19 23 20 13 21 21 22 14 23
REMARK SMILES IDX 15 24 20 25 22 26 16 27 19 28 17 29 18 30
REMARK H PARENT 18 31
REMARK Flexibility Score: inf
ROOT
ATOM      1  C   UNL     1       5.239  -1.104  -8.829  1.00  0.00     0.012 C 
ATOM      2  C   UNL     1       3.899  -1.163  -9.592  1.00  0.00     0.012 C 
ENDROOT
BRANCH   1   3
ATOM      3  C   UNL     1       5.851   0.272  -9.038  1.00  0.00    -0.028 C 
ATOM      4  C   UNL     1       7.181   0.470  -9.062  1.00  0.00    -0.027 C 
BRANCH   4   5
ATOM      5  C   UNL     1       7.845   1.766  -9.500  1.00  0.00     0.014 C 
BRANCH   5   6
ATOM      6  C   UNL     1       7.331   2.247 -10.890  1.00  0.00     0.004 C 
ATOM      7  C   UNL     1       8.407   2.569 -11.929  1.00  0.00     0.004 C 
ENDBRANCH   5   6
BRANCH   5   8
ATOM      8  C   UNL     1       9.399   1.727  -9.315  1.00  0.00    -0.011 C 
ATOM      9  C   UNL     1       9.907   0.271  -9.262  1.00  0.00     0.008 C 
ATOM     10  C   UNL     1       9.852   2.464  -8.040  1.00  0.00     0.008 C 
ENDBRANCH   5   8
ENDBRANCH   4   5
ENDBRANCH   1   3
BRANCH   1  11
ATOM     11  C   UNL     1       6.238  -2.265  -9.206  1.00  0.00     0.002 C 
ATOM     12  C   UNL     1       5.659  -3.344 -10.164  1.00  0.00     0.005 C 
ATOM     13  C   UNL     1       6.857  -3.088  -8.020  1.00  0.00    -0.023 C 
ATOM     14  C   UNL     1       6.333  -4.679  -9.802  1.00  0.00     0.009 C 
ATOM     15  C   UNL     1       7.422  -4.291  -8.803  1.00  0.00     0.021 C 
ATOM     16  C   UNL     1       8.022  -2.382  -7.233  1.00  0.00     0.008 C 
ATOM     17  C   UNL     1       5.755  -3.536  -7.004  1.00  0.00     0.012 C 
ATOM     18  C   UNL     1       8.026  -5.298  -7.858  1.00  0.00    -0.067 C 
ATOM     19  C   UNL     1       9.324  -3.225  -7.059  1.00  0.00     0.009 C 
ATOM     20  C   UNL     1       9.166  -4.791  -6.974  1.00  0.00     0.021 C 
ATOM     21  C   UNL     1       7.631  -6.587  -7.798  1.00  0.00    -0.027 C 
ATOM     22  C   UNL     1       9.238  -5.465  -5.517  1.00  0.00    -0.023 C 
ATOM     23  C   UNL     1       8.209  -7.491  -6.759  1.00  0.00     0.031 C 
ATOM     24  C   UNL     1       8.279  -6.721  -5.421  1.00  0.00     0.002 C 
ATOM     25  C   UNL     1      10.719  -5.916  -5.279  1.00  0.00     0.010 C 
ATOM     26  C   UNL     1       8.831  -4.454  -4.402  1.00  0.00     0.012 C 
ATOM     27  C   UNL     1       8.577  -7.675  -4.233  1.00  0.00     0.036 C 
ATOM     28  C   UNL     1      10.923  -6.814  -4.048  1.00  0.00     0.032 C 
ATOM     29  C   UNL     1      10.056  -8.076  -4.134  1.00  0.00     0.114 C 
BRANCH  29  30
ATOM     30  O   UNL     1      10.244  -8.868  -2.987  1.00  0.00    -0.393 OA
ATOM     31  H   UNL     1       9.378  -8.892  -2.506  1.00  0.00     0.210 HD
ENDBRANCH  29  30
ENDBRANCH   1  11
TORSDOF 6
ENDMDL
MODEL 9
REMARK VINA RESULT:    -5.447      3.124      8.609
REMARK INTER + INTRA:          -8.533
REMARK INTER:                  -7.106
REMARK INTRA:                  -1.428
REMARK UNBOUND:                -1.334
REMARK SMILES CC[C@@H](C=C[C@@H](C)[C@@H]1CC[C@@H]2C3=CC[C@H]4C[C@H](O)CC[C@@]4(C)[C@@H]3CC[C@]21C)C(C)C
REMARK SMILES IDX 6 1 7 2 5 3 4 4 3 5 2 6 1 7 28 8 29 9 30 10 8 11 9 12 26 13
REMARK SMILES IDX 10 14 11 15 25 16 27 17 12 18 24 19 23 20 13 21 21 22 14 23
REMARK SMILES IDX 15 24 20 25 22 26 16 27 19 28 17 29 18 30
REMARK H PARENT 18 31
REMARK Flexibility Score: inf
ROOT
ATOM      1  C   UNL     1       1.796  -2.935  -8.769  1.00  0.00     0.012 C 
ATOM      2  C   UNL     1       1.301  -4.276  -9.351  1.00  0.00     0.012 C 
ENDROOT
BRANCH   1   3
ATOM      3  C   UNL     1       0.607  -2.203  -8.168  1.00  0.00    -0.028 C 
ATOM      4  C   UNL     1       0.720  -0.983  -7.613  1.00  0.00    -0.027 C 
BRANCH   4   5
ATOM      5  C   UNL     1      -0.461  -0.111  -7.217  1.00  0.00     0.014 C 
BRANCH   5   6
ATOM      6  C   UNL     1      -1.791  -0.594  -7.869  1.00  0.00     0.004 C 
ATOM      7  C   UNL     1      -2.804  -1.244  -6.924  1.00  0.00     0.004 C 
ENDBRANCH   5   6
BRANCH   5   8
ATOM      8  C   UNL     1      -0.141   1.416  -7.352  1.00  0.00    -0.011 C 
ATOM      9  C   UNL     1      -1.251   2.139  -8.145  1.00  0.00     0.008 C 
ATOM     10  C   UNL     1       1.214   1.668  -8.041  1.00  0.00     0.008 C 
ENDBRANCH   5   8
ENDBRANCH   4   5
ENDBRANCH   1   3
BRANCH   1  11
ATOM     11  C   UNL     1       2.586  -2.044  -9.803  1.00  0.00     0.002 C 
ATOM     12  C   UNL     1       2.757  -2.672 -11.214  1.00  0.00     0.005 C 
ATOM     13  C   UNL     1       4.034  -1.592  -9.399  1.00  0.00    -0.023 C 
ATOM     14  C   UNL     1       4.099  -2.168 -11.774  1.00  0.00     0.009 C 
ATOM     15  C   UNL     1       4.551  -1.109 -10.770  1.00  0.00     0.021 C 
ATOM     16  C   UNL     1       4.118  -0.410  -8.363  1.00  0.00     0.008 C 
ATOM     17  C   UNL     1       4.876  -2.797  -8.864  1.00  0.00     0.012 C 
ATOM     18  C   UNL     1       5.991  -0.676 -10.668  1.00  0.00    -0.067 C 
ATOM     19  C   UNL     1       5.038   0.781  -8.773  1.00  0.00     0.009 C 
ATOM     20  C   UNL     1       6.285   0.452  -9.680  1.00  0.00     0.021 C 
ATOM     21  C   UNL     1       6.979  -1.209 -11.417  1.00  0.00    -0.027 C 
ATOM     22  C   UNL     1       7.720   0.360  -8.961  1.00  0.00    -0.023 C 
ATOM     23  C   UNL     1       8.394  -0.798 -11.177  1.00  0.00     0.031 C 
ATOM     24  C   UNL     1       8.635  -0.732  -9.652  1.00  0.00     0.002 C 
ATOM     25  C   UNL     1       8.399   1.767  -9.080  1.00  0.00     0.010 C 
ATOM     26  C   UNL     1       7.578  -0.007  -7.452  1.00  0.00     0.012 C 
ATOM     27  C   UNL     1      10.148  -0.612  -9.321  1.00  0.00     0.036 C 
ATOM     28  C   UNL     1       9.883   1.796  -8.681  1.00  0.00     0.032 C 
ATOM     29  C   UNL     1      10.701   0.807  -9.519  1.00  0.00     0.114 C 
BRANCH  29  30
ATOM     30  O   UNL     1      12.049   0.837  -9.118  1.00  0.00    -0.393 OA
ATOM     31  H   UNL     1      12.056   0.867  -8.127  1.00  0.00     0.210 HD
ENDBRANCH  29  30
ENDBRANCH   1  11
TORSDOF 6
ENDMDL
