MODEL 1
REMARK VINA RESULT:    -4.565      0.000      0.000
REMARK INTER + INTRA:          -4.565
REMARK INTER:                  -4.565
REMARK INTRA:                   0.000
REMARK UNBOUND:                 0.000
REMARK SMILES CC(C)=C1CC[C@H](C)CC1=O
REMARK SMILES IDX 8 1 7 2 6 3 5 4 4 5 2 6 1 7 3 8 10 9 11 10 9 11
REMARK H PARENT
REMARK Flexibility Score: inf
ROOT
ATOM      1  C   UNL     1      19.481  54.430  33.434  1.00  0.00     0.008 C 
ATOM      2  C   UNL     1      19.604  52.991  33.962  1.00  0.00    -0.006 C 
ATOM      3  C   UNL     1      19.350  52.903  35.478  1.00  0.00     0.008 C 
ATOM      4  C   UNL     1      17.898  53.227  35.864  1.00  0.00     0.039 C 
ATOM      5  C   UNL     1      16.876  52.466  35.030  1.00  0.00    -0.006 C 
ATOM      6  C   UNL     1      15.658  52.127  35.544  1.00  0.00    -0.070 C 
ATOM      7  C   UNL     1      14.654  51.323  34.748  1.00  0.00     0.039 C 
ATOM      8  C   UNL     1      15.267  52.507  36.954  1.00  0.00     0.039 C 
ATOM      9  C   UNL     1      17.236  52.227  33.602  1.00  0.00     0.159 C 
ATOM     10  O   UNL     1      16.355  52.196  32.701  1.00  0.00    -0.295 OA
ATOM     11  C   UNL     1      18.672  52.028  33.211  1.00  0.00     0.084 C 
ENDROOT
TORSDOF 0
ENDMDL
MODEL 2
REMARK VINA RESULT:    -4.142     11.269     11.999
REMARK INTER + INTRA:          -4.142
REMARK INTER:                  -4.142
REMARK INTRA:                   0.000
REMARK UNBOUND:                 0.000
REMARK SMILES CC(C)=C1CC[C@H](C)CC1=O
REMARK SMILES IDX 8 1 7 2 6 3 5 4 4 5 2 6 1 7 3 8 10 9 11 10 9 11
REMARK H PARENT
REMARK Flexibility Score: inf
ROOT
ATOM      1  C   UNL     1      15.318  62.318  35.606  1.00  0.00     0.008 C 
ATOM      2  C   UNL     1      14.964  63.003  36.936  1.00  0.00    -0.006 C 
ATOM      3  C   UNL     1      14.435  64.434  36.733  1.00  0.00     0.008 C 
ATOM      4  C   UNL     1      13.075  64.476  36.018  1.00  0.00     0.039 C 
ATOM      5  C   UNL     1      12.052  63.528  36.632  1.00  0.00    -0.006 C 
ATOM      6  C   UNL     1      10.716  63.810  36.591  1.00  0.00    -0.070 C 
ATOM      7  C   UNL     1       9.692  62.909  37.243  1.00  0.00     0.039 C 
ATOM      8  C   UNL     1      10.198  65.062  35.921  1.00  0.00     0.039 C 
ATOM      9  C   UNL     1      12.580  62.238  37.162  1.00  0.00     0.159 C 
ATOM     10  O   UNL     1      11.894  61.181  37.118  1.00  0.00    -0.295 OA
ATOM     11  C   UNL     1      13.959  62.175  37.752  1.00  0.00     0.084 C 
ENDROOT
TORSDOF 0
ENDMDL
MODEL 3
REMARK VINA RESULT:    -4.057     14.503     15.921
REMARK INTER + INTRA:          -4.057
REMARK INTER:                  -4.057
REMARK INTRA:                   0.000
REMARK UNBOUND:                 0.000
REMARK SMILES CC(C)=C1CC[C@H](C)CC1=O
REMARK SMILES IDX 8 1 7 2 6 3 5 4 4 5 2 6 1 7 3 8 10 9 11 10 9 11
REMARK H PARENT
REMARK Flexibility Score: inf
ROOT
ATOM      1  C   UNL     1      17.406  58.722  21.624  1.00  0.00     0.008 C 
ATOM      2  C   UNL     1      17.555  60.239  21.427  1.00  0.00    -0.006 C 
ATOM      3  C   UNL     1      16.971  60.713  20.084  1.00  0.00     0.008 C 
ATOM      4  C   UNL     1      15.444  60.563  20.006  1.00  0.00     0.039 C 
ATOM      5  C   UNL     1      14.727  61.139  21.219  1.00  0.00    -0.006 C 
ATOM      6  C   UNL     1      13.465  61.652  21.116  1.00  0.00    -0.070 C 
ATOM      7  C   UNL     1      12.761  62.278  22.298  1.00  0.00     0.039 C 
ATOM      8  C   UNL     1      12.724  61.652  19.799  1.00  0.00     0.039 C 
ATOM      9  C   UNL     1      15.427  60.999  22.529  1.00  0.00     0.159 C 
ATOM     10  O   UNL     1      14.785  60.846  23.603  1.00  0.00    -0.295 OA
ATOM     11  C   UNL     1      16.927  61.028  22.587  1.00  0.00     0.084 C 
ENDROOT
TORSDOF 0
ENDMDL
MODEL 4
REMARK VINA RESULT:    -4.053     11.996     12.829
REMARK INTER + INTRA:          -4.053
REMARK INTER:                  -4.053
REMARK INTRA:                   0.000
REMARK UNBOUND:                 0.000
REMARK SMILES CC(C)=C1CC[C@H](C)CC1=O
REMARK SMILES IDX 8 1 7 2 6 3 5 4 4 5 2 6 1 7 3 8 10 9 11 10 9 11
REMARK H PARENT
REMARK Flexibility Score: inf
ROOT
ATOM      1  C   UNL     1      14.202  61.371  36.139  1.00  0.00     0.008 C 
ATOM      2  C   UNL     1      13.629  62.280  37.239  1.00  0.00    -0.006 C 
ATOM      3  C   UNL     1      14.482  63.544  37.454  1.00  0.00     0.008 C 
ATOM      4  C   UNL     1      14.454  64.499  36.250  1.00  0.00     0.039 C 
ATOM      5  C   UNL     1      13.044  64.792  35.756  1.00  0.00    -0.006 C 
ATOM      6  C   UNL     1      12.737  65.985  35.167  1.00  0.00    -0.070 C 
ATOM      7  C   UNL     1      11.330  66.313  34.720  1.00  0.00     0.039 C 
ATOM      8  C   UNL     1      13.786  67.054  34.965  1.00  0.00     0.039 C 
ATOM      9  C   UNL     1      12.067  63.669  35.843  1.00  0.00     0.159 C 
ATOM     10  O   UNL     1      11.149  63.531  34.989  1.00  0.00    -0.295 OA
ATOM     11  C   UNL     1      12.169  62.666  36.956  1.00  0.00     0.084 C 
ENDROOT
TORSDOF 0
ENDMDL
MODEL 5
REMARK VINA RESULT:    -4.044     14.479     16.122
REMARK INTER + INTRA:          -4.044
REMARK INTER:                  -4.044
REMARK INTRA:                   0.000
REMARK UNBOUND:                 0.000
REMARK SMILES CC(C)=C1CC[C@H](C)CC1=O
REMARK SMILES IDX 8 1 7 2 6 3 5 4 4 5 2 6 1 7 3 8 10 9 11 10 9 11
REMARK H PARENT
REMARK Flexibility Score: inf
ROOT
ATOM      1  C   UNL     1      12.750  62.242  19.740  1.00  0.00     0.008 C 
ATOM      2  C   UNL     1      13.252  60.883  20.254  1.00  0.00    -0.006 C 
ATOM      3  C   UNL     1      14.762  60.694  20.021  1.00  0.00     0.008 C 
ATOM      4  C   UNL     1      15.624  61.653  20.856  1.00  0.00     0.039 C 
ATOM      5  C   UNL     1      15.233  61.675  22.328  1.00  0.00    -0.006 C 
ATOM      6  C   UNL     1      16.156  61.934  23.300  1.00  0.00    -0.070 C 
ATOM      7  C   UNL     1      15.796  61.905  24.768  1.00  0.00     0.039 C 
ATOM      8  C   UNL     1      17.599  62.227  22.954  1.00  0.00     0.039 C 
ATOM      9  C   UNL     1      13.780  61.519  22.628  1.00  0.00     0.159 C 
ATOM     10  O   UNL     1      13.249  62.094  23.617  1.00  0.00    -0.295 OA
ATOM     11  C   UNL     1      12.914  60.675  21.738  1.00  0.00     0.084 C 
ENDROOT
TORSDOF 0
ENDMDL
MODEL 6
REMARK VINA RESULT:    -3.963      2.274      4.314
REMARK INTER + INTRA:          -3.963
REMARK INTER:                  -3.963
REMARK INTRA:                   0.000
REMARK UNBOUND:                 0.000
REMARK SMILES CC(C)=C1CC[C@H](C)CC1=O
REMARK SMILES IDX 8 1 7 2 6 3 5 4 4 5 2 6 1 7 3 8 10 9 11 10 9 11
REMARK H PARENT
REMARK Flexibility Score: inf
ROOT
ATOM      1  C   UNL     1      15.301  52.108  36.997  1.00  0.00     0.008 C 
ATOM      2  C   UNL     1      15.453  52.009  35.470  1.00  0.00    -0.006 C 
ATOM      3  C   UNL     1      14.660  53.103  34.733  1.00  0.00     0.008 C 
ATOM      4  C   UNL     1      15.209  54.516  34.984  1.00  0.00     0.039 C 
ATOM      5  C   UNL     1      16.715  54.614  34.782  1.00  0.00    -0.006 C 
ATOM      6  C   UNL     1      17.297  55.776  34.364  1.00  0.00    -0.070 C 
ATOM      7  C   UNL     1      18.783  55.875  34.105  1.00  0.00     0.039 C 
ATOM      8  C   UNL     1      16.473  57.017  34.103  1.00  0.00     0.039 C 
ATOM      9  C   UNL     1      17.514  53.418  35.178  1.00  0.00     0.159 C 
ATOM     10  O   UNL     1      18.681  53.534  35.640  1.00  0.00    -0.295 OA
ATOM     11  C   UNL     1      16.928  52.043  35.042  1.00  0.00     0.084 C 
ENDROOT
TORSDOF 0
ENDMDL
MODEL 7
REMARK VINA RESULT:    -3.935      1.603      3.819
REMARK INTER + INTRA:          -3.935
REMARK INTER:                  -3.935
REMARK INTRA:                   0.000
REMARK UNBOUND:                 0.000
REMARK SMILES CC(C)=C1CC[C@H](C)CC1=O
REMARK SMILES IDX 8 1 7 2 6 3 5 4 4 5 2 6 1 7 3 8 10 9 11 10 9 11
REMARK H PARENT
REMARK Flexibility Score: inf
ROOT
ATOM      1  C   UNL     1      15.349  51.585  36.644  1.00  0.00     0.008 C 
ATOM      2  C   UNL     1      15.637  52.916  35.932  1.00  0.00    -0.006 C 
ATOM      3  C   UNL     1      17.145  53.166  35.752  1.00  0.00     0.008 C 
ATOM      4  C   UNL     1      17.807  52.175  34.783  1.00  0.00     0.039 C 
ATOM      5  C   UNL     1      17.051  52.033  33.468  1.00  0.00    -0.006 C 
ATOM      6  C   UNL     1      17.704  51.731  32.308  1.00  0.00    -0.070 C 
ATOM      7  C   UNL     1      16.977  51.642  30.985  1.00  0.00     0.039 C 
ATOM      8  C   UNL     1      19.199  51.507  32.284  1.00  0.00     0.039 C 
ATOM      9  C   UNL     1      15.565  52.124  33.548  1.00  0.00     0.159 C 
ATOM     10  O   UNL     1      14.825  51.463  32.769  1.00  0.00    -0.295 OA
ATOM     11  C   UNL     1      14.918  53.005  34.577  1.00  0.00     0.084 C 
ENDROOT
TORSDOF 0
ENDMDL
MODEL 8
REMARK VINA RESULT:    -3.912     11.766     12.489
REMARK INTER + INTRA:          -3.912
REMARK INTER:                  -3.912
REMARK INTRA:                   0.000
REMARK UNBOUND:                 0.000
REMARK SMILES CC(C)=C1CC[C@H](C)CC1=O
REMARK SMILES IDX 8 1 7 2 6 3 5 4 4 5 2 6 1 7 3 8 10 9 11 10 9 11
REMARK H PARENT
REMARK Flexibility Score: inf
ROOT
ATOM      1  C   UNL     1      15.048  62.567  38.096  1.00  0.00     0.008 C 
ATOM      2  C   UNL     1      14.630  62.229  36.656  1.00  0.00    -0.006 C 
ATOM      3  C   UNL     1      13.209  61.641  36.583  1.00  0.00     0.008 C 
ATOM      4  C   UNL     1      12.119  62.654  36.967  1.00  0.00     0.039 C 
ATOM      5  C   UNL     1      12.265  63.986  36.244  1.00  0.00    -0.006 C 
ATOM      6  C   UNL     1      11.175  64.756  35.955  1.00  0.00    -0.070 C 
ATOM      7  C   UNL     1      11.296  66.054  35.189  1.00  0.00     0.039 C 
ATOM      8  C   UNL     1       9.782  64.325  36.356  1.00  0.00     0.039 C 
ATOM      9  C   UNL     1      13.660  64.448  35.984  1.00  0.00     0.159 C 
ATOM     10  O   UNL     1      13.955  65.674  35.985  1.00  0.00    -0.295 OA
ATOM     11  C   UNL     1      14.749  63.447  35.727  1.00  0.00     0.084 C 
ENDROOT
TORSDOF 0
ENDMDL
MODEL 9
REMARK VINA RESULT:    -3.891      1.624      4.371
REMARK INTER + INTRA:          -3.891
REMARK INTER:                  -3.891
REMARK INTRA:                   0.000
REMARK UNBOUND:                 0.000
REMARK SMILES CC(C)=C1CC[C@H](C)CC1=O
REMARK SMILES IDX 8 1 7 2 6 3 5 4 4 5 2 6 1 7 3 8 10 9 11 10 9 11
REMARK H PARENT
REMARK Flexibility Score: inf
ROOT
ATOM      1  C   UNL     1      13.640  53.094  33.603  1.00  0.00     0.008 C 
ATOM      2  C   UNL     1      14.313  51.730  33.825  1.00  0.00    -0.006 C 
ATOM      3  C   UNL     1      15.263  51.354  32.673  1.00  0.00     0.008 C 
ATOM      4  C   UNL     1      16.494  52.271  32.586  1.00  0.00     0.039 C 
ATOM      5  C   UNL     1      17.199  52.449  33.924  1.00  0.00    -0.006 C 
ATOM      6  C   UNL     1      18.544  52.675  33.988  1.00  0.00    -0.070 C 
ATOM      7  C   UNL     1      19.269  52.799  35.309  1.00  0.00     0.039 C 
ATOM      8  C   UNL     1      19.384  52.776  32.734  1.00  0.00     0.039 C 
ATOM      9  C   UNL     1      16.325  52.481  35.132  1.00  0.00     0.159 C 
ATOM     10  O   UNL     1      16.620  53.185  36.135  1.00  0.00    -0.295 OA
ATOM     11  C   UNL     1      15.059  51.675  35.168  1.00  0.00     0.084 C 
ENDROOT
TORSDOF 0
ENDMDL
