MODEL 1
REMARK VINA RESULT:    -3.362      0.000      0.000
REMARK INTER + INTRA:          -3.783
REMARK INTER:                  -3.657
REMARK INTRA:                  -0.126
REMARK UNBOUND:                -0.126
REMARK SMILES Cc1ccc(C(C)C)cc1O
REMARK SMILES IDX 1 1 2 2 10 3 9 4 5 5 4 6 3 7 11 8 6 10 7 11 8 12
REMARK H PARENT 11 9
REMARK Flexibility Score: inf
ROOT
ATOM      1  C   UNL     1      77.639   5.697  62.931  1.00  0.00     0.048 C 
ATOM      2  C   UNL     1      78.282   4.735  63.892  1.00  0.00    -0.009 A 
ATOM      3  C   UNL     1      79.670   4.475  63.850  1.00  0.00     0.118 A 
ATOM      4  C   UNL     1      80.238   3.574  64.758  1.00  0.00     0.050 A 
ATOM      5  C   UNL     1      79.446   2.919  65.717  1.00  0.00    -0.042 A 
ATOM      6  C   UNL     1      78.066   3.183  65.752  1.00  0.00     0.004 A 
ATOM      7  C   UNL     1      77.492   4.080  64.851  1.00  0.00     0.007 A 
ENDROOT
BRANCH   3   8
ATOM      8  O   UNL     1      80.509   5.094  62.921  1.00  0.00    -0.508 OA
ATOM      9  H   UNL     1      81.034   5.934  63.126  1.00  0.00     0.293 HD
ENDBRANCH   3   8
BRANCH   5  10
ATOM     10  C   UNL     1      80.083   1.947  66.691  1.00  0.00     0.013 C 
ATOM     11  C   UNL     1      81.055   2.666  67.634  1.00  0.00     0.012 C 
ATOM     12  C   UNL     1      79.017   1.176  67.480  1.00  0.00     0.012 C 
ENDBRANCH   5  10
TORSDOF 2
ENDMDL
MODEL 2
REMARK VINA RESULT:    -3.347      1.810      4.216
REMARK INTER + INTRA:          -3.767
REMARK INTER:                  -3.642
REMARK INTRA:                  -0.125
REMARK UNBOUND:                -0.126
REMARK SMILES Cc1ccc(C(C)C)cc1O
REMARK SMILES IDX 1 1 2 2 10 3 9 4 5 5 4 6 3 7 11 8 6 10 7 11 8 12
REMARK H PARENT 11 9
REMARK Flexibility Score: inf
ROOT
ATOM      1  C   UNL     1      79.720   2.485  68.752  1.00  0.00     0.048 C 
ATOM      2  C   UNL     1      79.432   2.766  67.304  1.00  0.00    -0.009 A 
ATOM      3  C   UNL     1      80.472   3.053  66.392  1.00  0.00     0.118 A 
ATOM      4  C   UNL     1      80.171   3.311  65.050  1.00  0.00     0.050 A 
ATOM      5  C   UNL     1      78.843   3.287  64.590  1.00  0.00    -0.042 A 
ATOM      6  C   UNL     1      77.814   3.000  65.503  1.00  0.00     0.004 A 
ATOM      7  C   UNL     1      78.105   2.742  66.843  1.00  0.00     0.007 A 
ENDROOT
BRANCH   3   8
ATOM      8  O   UNL     1      81.811   3.092  66.788  1.00  0.00    -0.508 OA
ATOM      9  H   UNL     1      82.311   3.955  66.959  1.00  0.00     0.293 HD
ENDBRANCH   3   8
BRANCH   5  10
ATOM     10  C   UNL     1      78.540   3.569  63.131  1.00  0.00     0.013 C 
ATOM     11  C   UNL     1      77.253   4.389  62.982  1.00  0.00     0.012 C 
ATOM     12  C   UNL     1      79.721   4.265  62.444  1.00  0.00     0.012 C 
ENDBRANCH   5  10
TORSDOF 2
ENDMDL
MODEL 3
REMARK VINA RESULT:    -3.311     19.785     20.419
REMARK INTER + INTRA:          -3.727
REMARK INTER:                  -3.601
REMARK INTRA:                  -0.126
REMARK UNBOUND:                -0.126
REMARK SMILES Cc1ccc(C(C)C)cc1O
REMARK SMILES IDX 1 1 2 2 10 3 9 4 5 5 4 6 3 7 11 8 6 10 7 11 8 12
REMARK H PARENT 11 9
REMARK Flexibility Score: inf
ROOT
ATOM      1  C   UNL     1      68.045  -8.452  54.539  1.00  0.00     0.048 C 
ATOM      2  C   UNL     1      69.205  -8.832  53.661  1.00  0.00    -0.009 A 
ATOM      3  C   UNL     1      69.907 -10.042  53.859  1.00  0.00     0.118 A 
ATOM      4  C   UNL     1      70.982 -10.368  53.025  1.00  0.00     0.050 A 
ATOM      5  C   UNL     1      71.378  -9.507  51.986  1.00  0.00    -0.042 A 
ATOM      6  C   UNL     1      70.674  -8.305  51.796  1.00  0.00     0.004 A 
ATOM      7  C   UNL     1      69.600  -7.973  52.623  1.00  0.00     0.007 A 
ENDROOT
BRANCH   3   8
ATOM      8  O   UNL     1      69.563 -10.938  54.873  1.00  0.00    -0.508 OA
ATOM      9  H   UNL     1      68.756 -10.811  55.471  1.00  0.00     0.293 HD
ENDBRANCH   3   8
BRANCH   5  10
ATOM     10  C   UNL     1      72.546  -9.880  51.093  1.00  0.00     0.013 C 
ATOM     11  C   UNL     1      72.191 -11.063  50.184  1.00  0.00     0.012 C 
ATOM     12  C   UNL     1      73.021  -8.676  50.272  1.00  0.00     0.012 C 
ENDBRANCH   5  10
TORSDOF 2
ENDMDL
MODEL 4
REMARK VINA RESULT:    -3.234      2.222      2.851
REMARK INTER + INTRA:          -3.644
REMARK INTER:                  -3.543
REMARK INTRA:                  -0.101
REMARK UNBOUND:                -0.126
REMARK SMILES Cc1ccc(C(C)C)cc1O
REMARK SMILES IDX 1 1 2 2 10 3 9 4 5 5 4 6 3 7 11 8 6 10 7 11 8 12
REMARK H PARENT 11 9
REMARK Flexibility Score: inf
ROOT
ATOM      1  C   UNL     1      76.789   3.860  64.193  1.00  0.00     0.048 C 
ATOM      2  C   UNL     1      77.908   3.467  65.116  1.00  0.00    -0.009 A 
ATOM      3  C   UNL     1      77.651   3.040  66.438  1.00  0.00     0.118 A 
ATOM      4  C   UNL     1      78.715   2.680  67.273  1.00  0.00     0.050 A 
ATOM      5  C   UNL     1      80.043   2.737  66.817  1.00  0.00    -0.042 A 
ATOM      6  C   UNL     1      80.291   3.163  65.500  1.00  0.00     0.004 A 
ATOM      7  C   UNL     1      79.235   3.522  64.661  1.00  0.00     0.007 A 
ENDROOT
BRANCH   3   8
ATOM      8  O   UNL     1      76.354   2.962  66.950  1.00  0.00    -0.508 OA
ATOM      9  H   UNL     1      75.818   2.104  66.967  1.00  0.00     0.293 HD
ENDBRANCH   3   8
BRANCH   5  10
ATOM     10  C   UNL     1      81.181   2.342  67.739  1.00  0.00     0.013 C 
ATOM     11  C   UNL     1      81.037   3.010  69.112  1.00  0.00     0.012 C 
ATOM     12  C   UNL     1      81.281   0.818  67.874  1.00  0.00     0.012 C 
ENDBRANCH   5  10
TORSDOF 2
ENDMDL
MODEL 5
REMARK VINA RESULT:    -3.211      2.294      4.790
REMARK INTER + INTRA:          -3.619
REMARK INTER:                  -3.492
REMARK INTRA:                  -0.127
REMARK UNBOUND:                -0.126
REMARK SMILES Cc1ccc(C(C)C)cc1O
REMARK SMILES IDX 1 1 2 2 10 3 9 4 5 5 4 6 3 7 11 8 6 10 7 11 8 12
REMARK H PARENT 11 9
REMARK Flexibility Score: inf
ROOT
ATOM      1  C   UNL     1      80.315   1.887  69.125  1.00  0.00     0.048 C 
ATOM      2  C   UNL     1      79.892   2.400  67.777  1.00  0.00    -0.009 A 
ATOM      3  C   UNL     1      78.531   2.628  67.474  1.00  0.00     0.118 A 
ATOM      4  C   UNL     1      78.169   3.106  66.210  1.00  0.00     0.050 A 
ATOM      5  C   UNL     1      79.142   3.367  65.230  1.00  0.00    -0.042 A 
ATOM      6  C   UNL     1      80.494   3.138  65.539  1.00  0.00     0.004 A 
ATOM      7  C   UNL     1      80.864   2.662  66.797  1.00  0.00     0.007 A 
ENDROOT
BRANCH   3   8
ATOM      8  O   UNL     1      77.518   2.387  68.405  1.00  0.00    -0.508 OA
ATOM      9  H   UNL     1      76.956   3.125  68.811  1.00  0.00     0.293 HD
ENDBRANCH   3   8
BRANCH   5  10
ATOM     10  C   UNL     1      78.727   3.885  63.866  1.00  0.00     0.013 C 
ATOM     11  C   UNL     1      77.579   4.895  63.984  1.00  0.00     0.012 C 
ATOM     12  C   UNL     1      79.921   4.492  63.118  1.00  0.00     0.012 C 
ENDBRANCH   5  10
TORSDOF 2
ENDMDL
MODEL 6
REMARK VINA RESULT:    -3.159     19.811     20.375
REMARK INTER + INTRA:          -3.562
REMARK INTER:                  -3.439
REMARK INTRA:                  -0.123
REMARK UNBOUND:                -0.126
REMARK SMILES Cc1ccc(C(C)C)cc1O
REMARK SMILES IDX 1 1 2 2 10 3 9 4 5 5 4 6 3 7 11 8 6 10 7 11 8 12
REMARK H PARENT 11 9
REMARK Flexibility Score: inf
ROOT
ATOM      1  C   UNL     1      72.816  -8.597  49.030  1.00  0.00     0.048 C 
ATOM      2  C   UNL     1      72.027  -8.787  50.296  1.00  0.00    -0.009 A 
ATOM      3  C   UNL     1      72.208  -9.929  51.107  1.00  0.00     0.118 A 
ATOM      4  C   UNL     1      71.459 -10.075  52.280  1.00  0.00     0.050 A 
ATOM      5  C   UNL     1      70.524  -9.100  52.668  1.00  0.00    -0.042 A 
ATOM      6  C   UNL     1      70.350  -7.967  51.855  1.00  0.00     0.004 A 
ATOM      7  C   UNL     1      71.094  -7.812  50.684  1.00  0.00     0.007 A 
ENDROOT
BRANCH   3   8
ATOM      8  O   UNL     1      73.121 -10.933  50.776  1.00  0.00    -0.508 OA
ATOM      9  H   UNL     1      73.331 -11.194  49.822  1.00  0.00     0.293 HD
ENDBRANCH   3   8
BRANCH   5  10
ATOM     10  C   UNL     1      69.723  -9.280  53.943  1.00  0.00     0.013 C 
ATOM     11  C   UNL     1      68.245  -8.936  53.721  1.00  0.00     0.012 C 
ATOM     12  C   UNL     1      69.881 -10.700  54.501  1.00  0.00     0.012 C 
ENDBRANCH   5  10
TORSDOF 2
ENDMDL
MODEL 7
REMARK VINA RESULT:    -3.141      1.662      2.099
REMARK INTER + INTRA:          -3.542
REMARK INTER:                  -3.442
REMARK INTRA:                  -0.100
REMARK UNBOUND:                -0.126
REMARK SMILES Cc1ccc(C(C)C)cc1O
REMARK SMILES IDX 1 1 2 2 10 3 9 4 5 5 4 6 3 7 11 8 6 10 7 11 8 12
REMARK H PARENT 11 9
REMARK Flexibility Score: inf
ROOT
ATOM      1  C   UNL     1      79.578   3.204  60.954  1.00  0.00     0.048 C 
ATOM      2  C   UNL     1      79.698   2.953  62.431  1.00  0.00    -0.009 A 
ATOM      3  C   UNL     1      79.788   4.022  63.350  1.00  0.00     0.118 A 
ATOM      4  C   UNL     1      79.898   3.755  64.720  1.00  0.00     0.050 A 
ATOM      5  C   UNL     1      79.920   2.434  65.200  1.00  0.00    -0.042 A 
ATOM      6  C   UNL     1      79.830   1.376  64.279  1.00  0.00     0.004 A 
ATOM      7  C   UNL     1      79.719   1.633  62.911  1.00  0.00     0.007 A 
ENDROOT
BRANCH   3   8
ATOM      8  O   UNL     1      79.772   5.355  62.936  1.00  0.00    -0.508 OA
ATOM      9  H   UNL     1      78.996   5.768  62.434  1.00  0.00     0.293 HD
ENDBRANCH   3   8
BRANCH   5  10
ATOM     10  C   UNL     1      80.040   2.169  66.688  1.00  0.00     0.013 C 
ATOM     11  C   UNL     1      81.202   2.961  67.300  1.00  0.00     0.012 C 
ATOM     12  C   UNL     1      78.723   2.473  67.412  1.00  0.00     0.012 C 
ENDBRANCH   5  10
TORSDOF 2
ENDMDL
MODEL 8
REMARK VINA RESULT:    -3.097     19.921     20.514
REMARK INTER + INTRA:          -3.494
REMARK INTER:                  -3.395
REMARK INTRA:                  -0.100
REMARK UNBOUND:                -0.126
REMARK SMILES Cc1ccc(C(C)C)cc1O
REMARK SMILES IDX 1 1 2 2 10 3 9 4 5 5 4 6 3 7 11 8 6 10 7 11 8 12
REMARK H PARENT 11 9
REMARK Flexibility Score: inf
ROOT
ATOM      1  C   UNL     1      69.113  -7.844  54.132  1.00  0.00     0.048 C 
ATOM      2  C   UNL     1      70.021  -8.545  53.161  1.00  0.00    -0.009 A 
ATOM      3  C   UNL     1      70.266  -8.017  51.874  1.00  0.00     0.118 A 
ATOM      4  C   UNL     1      71.117  -8.694  50.994  1.00  0.00     0.050 A 
ATOM      5  C   UNL     1      71.737  -9.898  51.370  1.00  0.00    -0.042 A 
ATOM      6  C   UNL     1      71.489 -10.417  52.652  1.00  0.00     0.004 A 
ATOM      7  C   UNL     1      70.642  -9.748  53.537  1.00  0.00     0.007 A 
ENDROOT
BRANCH   3   8
ATOM      8  O   UNL     1      69.679  -6.826  51.441  1.00  0.00    -0.508 OA
ATOM      9  H   UNL     1      69.969  -6.342  50.601  1.00  0.00     0.293 HD
ENDBRANCH   3   8
BRANCH   5  10
ATOM     10  C   UNL     1      72.656 -10.615  50.399  1.00  0.00     0.013 C 
ATOM     11  C   UNL     1      71.930 -10.944  49.090  1.00  0.00     0.012 C 
ATOM     12  C   UNL     1      73.927  -9.798  50.135  1.00  0.00     0.012 C 
ENDBRANCH   5  10
TORSDOF 2
ENDMDL
