MODEL 1
REMARK VINA RESULT:    -4.917      0.000      0.000
REMARK INTER + INTRA:          -8.115
REMARK INTER:                  -6.641
REMARK INTRA:                  -1.474
REMARK UNBOUND:                -1.474
REMARK SMILES CC(=O)CCC=C(C)CCC=C(C)C
REMARK SMILES IDX 7 1 6 2 8 3 9 4 10 5 11 6 13 7 12 8 14 9 5 10 4 11 2 12 3 13
REMARK SMILES IDX 1 14
REMARK H PARENT
REMARK Flexibility Score: inf
ROOT
ATOM      1  C   UNL     1     212.377 153.616 183.113  1.00  0.00    -0.077 C 
ATOM      2  C   UNL     1     211.423 152.667 183.257  1.00  0.00    -0.028 C 
ATOM      3  C   UNL     1     212.770 154.150 181.755  1.00  0.00     0.039 C 
ENDROOT
BRANCH   1   4
ATOM      4  C   UNL     1     213.084 154.141 184.341  1.00  0.00     0.034 C 
BRANCH   4   5
ATOM      5  C   UNL     1     213.741 152.998 185.123  1.00  0.00     0.032 C 
BRANCH   5   6
ATOM      6  C   UNL     1     214.897 152.416 184.350  1.00  0.00    -0.028 C 
ATOM      7  C   UNL     1     213.990 150.083 184.437  1.00  0.00     0.039 C 
ATOM      8  C   UNL     1     215.011 151.113 184.012  1.00  0.00    -0.080 C 
ATOM      9  C   UNL     1     216.205 150.682 183.199  1.00  0.00     0.039 C 
ENDBRANCH   5   6
ENDBRANCH   4   5
ENDBRANCH   1   4
BRANCH   2  10
ATOM     10  C   UNL     1     210.618 152.085 182.122  1.00  0.00     0.035 C 
BRANCH  10  11
ATOM     11  C   UNL     1     211.158 150.709 181.724  1.00  0.00     0.079 C 
BRANCH  11  12
ATOM     12  C   UNL     1     212.097 150.825 180.551  1.00  0.00     0.130 C 
ATOM     13  O   UNL     1     211.672 151.225 179.479  1.00  0.00    -0.300 OA
ATOM     14  C   UNL     1     213.548 150.467 180.675  1.00  0.00     0.087 C 
ENDBRANCH  11  12
ENDBRANCH  10  11
ENDBRANCH   2  10
TORSDOF 6
ENDMDL
MODEL 2
REMARK VINA RESULT:    -4.822      1.963      3.737
REMARK INTER + INTRA:          -7.987
REMARK INTER:                  -6.774
REMARK INTRA:                  -1.213
REMARK UNBOUND:                -1.474
REMARK SMILES CC(=O)CCC=C(C)CCC=C(C)C
REMARK SMILES IDX 7 1 6 2 8 3 9 4 10 5 11 6 13 7 12 8 14 9 5 10 4 11 2 12 3 13
REMARK SMILES IDX 1 14
REMARK H PARENT
REMARK Flexibility Score: inf
ROOT
ATOM      1  C   UNL     1     214.264 153.320 182.373  1.00  0.00    -0.077 C 
ATOM      2  C   UNL     1     214.153 154.083 181.262  1.00  0.00    -0.028 C 
ATOM      3  C   UNL     1     215.260 152.187 182.467  1.00  0.00     0.039 C 
ENDROOT
BRANCH   1   4
ATOM      4  C   UNL     1     213.352 153.593 183.548  1.00  0.00     0.034 C 
BRANCH   4   5
ATOM      5  C   UNL     1     212.542 152.344 183.912  1.00  0.00     0.032 C 
BRANCH   5   6
ATOM      6  C   UNL     1     211.306 152.239 183.056  1.00  0.00    -0.028 C 
ATOM      7  C   UNL     1     212.166 150.269 181.772  1.00  0.00     0.039 C 
ATOM      8  C   UNL     1     211.111 151.297 182.107  1.00  0.00    -0.080 C 
ATOM      9  C   UNL     1     209.804 151.291 181.357  1.00  0.00     0.039 C 
ENDBRANCH   5   6
ENDBRANCH   4   5
ENDBRANCH   1   4
BRANCH   2  10
ATOM     10  C   UNL     1     215.023 153.941 180.038  1.00  0.00     0.035 C 
BRANCH  10  11
ATOM     11  C   UNL     1     214.212 153.400 178.857  1.00  0.00     0.079 C 
BRANCH  11  12
ATOM     12  C   UNL     1     214.382 151.908 178.733  1.00  0.00     0.130 C 
ATOM     13  O   UNL     1     213.405 151.207 178.524  1.00  0.00    -0.300 OA
ATOM     14  C   UNL     1     215.732 151.264 178.853  1.00  0.00     0.087 C 
ENDBRANCH  11  12
ENDBRANCH  10  11
ENDBRANCH   2  10
TORSDOF 6
ENDMDL
MODEL 3
REMARK VINA RESULT:    -4.802      1.825      2.842
REMARK INTER + INTRA:          -7.960
REMARK INTER:                  -6.519
REMARK INTRA:                  -1.441
REMARK UNBOUND:                -1.474
REMARK SMILES CC(=O)CCC=C(C)CCC=C(C)C
REMARK SMILES IDX 7 1 6 2 8 3 9 4 10 5 11 6 13 7 12 8 14 9 5 10 4 11 2 12 3 13
REMARK SMILES IDX 1 14
REMARK H PARENT
REMARK Flexibility Score: inf
ROOT
ATOM      1  C   UNL     1     211.616 152.226 181.855  1.00  0.00    -0.077 C 
ATOM      2  C   UNL     1     212.463 153.019 181.159  1.00  0.00    -0.028 C 
ATOM      3  C   UNL     1     211.166 150.883 181.326  1.00  0.00     0.039 C 
ENDROOT
BRANCH   1   4
ATOM      4  C   UNL     1     211.088 152.704 183.189  1.00  0.00     0.034 C 
BRANCH   4   5
ATOM      5  C   UNL     1     212.231 152.889 184.193  1.00  0.00     0.032 C 
BRANCH   5   6
ATOM      6  C   UNL     1     212.946 151.584 184.436  1.00  0.00    -0.028 C 
ATOM      7  C   UNL     1     215.168 152.480 183.706  1.00  0.00     0.039 C 
ATOM      8  C   UNL     1     214.270 151.391 184.246  1.00  0.00    -0.080 C 
ATOM      9  C   UNL     1     214.854 150.041 184.571  1.00  0.00     0.039 C 
ENDBRANCH   5   6
ENDBRANCH   4   5
ENDBRANCH   1   4
BRANCH   2  10
ATOM     10  C   UNL     1     213.089 152.649 179.838  1.00  0.00     0.035 C 
BRANCH  10  11
ATOM     11  C   UNL     1     214.616 152.720 179.923  1.00  0.00     0.079 C 
BRANCH  11  12
ATOM     12  C   UNL     1     215.224 151.354 179.734  1.00  0.00     0.130 C 
ATOM     13  O   UNL     1     215.933 151.141 178.763  1.00  0.00    -0.300 OA
ATOM     14  C   UNL     1     214.982 150.249 180.719  1.00  0.00     0.087 C 
ENDBRANCH  11  12
ENDBRANCH  10  11
ENDBRANCH   2  10
TORSDOF 6
ENDMDL
MODEL 4
REMARK VINA RESULT:    -4.790      2.035      3.866
REMARK INTER + INTRA:          -7.943
REMARK INTER:                  -6.721
REMARK INTRA:                  -1.222
REMARK UNBOUND:                -1.474
REMARK SMILES CC(=O)CCC=C(C)CCC=C(C)C
REMARK SMILES IDX 7 1 6 2 8 3 9 4 10 5 11 6 13 7 12 8 14 9 5 10 4 11 2 12 3 13
REMARK SMILES IDX 1 14
REMARK H PARENT
REMARK Flexibility Score: inf
ROOT
ATOM      1  C   UNL     1     211.842 150.830 180.790  1.00  0.00    -0.077 C 
ATOM      2  C   UNL     1     211.841 151.372 179.551  1.00  0.00    -0.028 C 
ATOM      3  C   UNL     1     212.922 149.875 181.243  1.00  0.00     0.039 C 
ENDROOT
BRANCH   1   4
ATOM      4  C   UNL     1     210.719 151.172 181.744  1.00  0.00     0.034 C 
BRANCH   4   5
ATOM      5  C   UNL     1     210.959 152.535 182.403  1.00  0.00     0.032 C 
BRANCH   5   6
ATOM      6  C   UNL     1     211.758 152.383 183.672  1.00  0.00    -0.028 C 
ATOM      7  C   UNL     1     213.849 153.318 182.660  1.00  0.00     0.039 C 
ATOM      8  C   UNL     1     213.050 152.753 183.811  1.00  0.00    -0.080 C 
ATOM      9  C   UNL     1     213.708 152.577 185.156  1.00  0.00     0.039 C 
ENDBRANCH   5   6
ENDBRANCH   4   5
ENDBRANCH   1   4
BRANCH   2  10
ATOM     10  C   UNL     1     212.916 151.144 178.518  1.00  0.00     0.035 C 
BRANCH  10  11
ATOM     11  C   UNL     1     213.751 152.411 178.315  1.00  0.00     0.079 C 
BRANCH  11  12
ATOM     12  C   UNL     1     215.074 152.296 179.026  1.00  0.00     0.130 C 
ATOM     13  O   UNL     1     215.548 153.276 179.578  1.00  0.00    -0.300 OA
ATOM     14  C   UNL     1     215.821 150.996 179.079  1.00  0.00     0.087 C 
ENDBRANCH  11  12
ENDBRANCH  10  11
ENDBRANCH   2  10
TORSDOF 6
ENDMDL
MODEL 5
REMARK VINA RESULT:    -4.753      2.120      4.299
REMARK INTER + INTRA:          -7.894
REMARK INTER:                  -6.966
REMARK INTRA:                  -0.928
REMARK UNBOUND:                -1.474
REMARK SMILES CC(=O)CCC=C(C)CCC=C(C)C
REMARK SMILES IDX 7 1 6 2 8 3 9 4 10 5 11 6 13 7 12 8 14 9 5 10 4 11 2 12 3 13
REMARK SMILES IDX 1 14
REMARK H PARENT
REMARK Flexibility Score: inf
ROOT
ATOM      1  C   UNL     1     211.668 152.611 183.540  1.00  0.00    -0.077 C 
ATOM      2  C   UNL     1     212.634 151.763 183.961  1.00  0.00    -0.028 C 
ATOM      3  C   UNL     1     211.541 154.012 184.094  1.00  0.00     0.039 C 
ENDROOT
BRANCH   1   4
ATOM      4  C   UNL     1     210.675 152.139 182.503  1.00  0.00     0.034 C 
BRANCH   4   5
ATOM      5  C   UNL     1     211.342 151.188 181.503  1.00  0.00     0.032 C 
BRANCH   5   6
ATOM      6  C   UNL     1     212.220 151.949 180.544  1.00  0.00    -0.028 C 
ATOM      7  C   UNL     1     213.111 149.875 179.459  1.00  0.00     0.039 C 
ATOM      8  C   UNL     1     213.002 151.375 179.603  1.00  0.00    -0.080 C 
ATOM      9  C   UNL     1     213.797 152.268 178.685  1.00  0.00     0.039 C 
ENDBRANCH   5   6
ENDBRANCH   4   5
ENDBRANCH   1   4
BRANCH   2  10
ATOM     10  C   UNL     1     213.707 152.118 184.961  1.00  0.00     0.035 C 
BRANCH  10  11
ATOM     11  C   UNL     1     215.054 152.321 184.263  1.00  0.00     0.079 C 
BRANCH  11  12
ATOM     12  C   UNL     1     215.529 151.035 183.638  1.00  0.00     0.130 C 
ATOM     13  O   UNL     1     215.825 150.092 184.354  1.00  0.00    -0.300 OA
ATOM     14  C   UNL     1     215.638 150.884 182.149  1.00  0.00     0.087 C 
ENDBRANCH  11  12
ENDBRANCH  10  11
ENDBRANCH   2  10
TORSDOF 6
ENDMDL
MODEL 6
REMARK VINA RESULT:    -4.738      2.009      3.859
REMARK INTER + INTRA:          -7.873
REMARK INTER:                  -6.700
REMARK INTRA:                  -1.173
REMARK UNBOUND:                -1.474
REMARK SMILES CC(=O)CCC=C(C)CCC=C(C)C
REMARK SMILES IDX 7 1 6 2 8 3 9 4 10 5 11 6 13 7 12 8 14 9 5 10 4 11 2 12 3 13
REMARK SMILES IDX 1 14
REMARK H PARENT
REMARK Flexibility Score: inf
ROOT
ATOM      1  C   UNL     1     214.448 151.132 181.391  1.00  0.00    -0.077 C 
ATOM      2  C   UNL     1     213.956 150.255 180.487  1.00  0.00    -0.028 C 
ATOM      3  C   UNL     1     214.911 152.514 180.991  1.00  0.00     0.039 C 
ENDROOT
BRANCH   1   4
ATOM      4  C   UNL     1     214.559 150.712 182.839  1.00  0.00     0.034 C 
BRANCH   4   5
ATOM      5  C   UNL     1     213.170 150.547 183.466  1.00  0.00     0.032 C 
BRANCH   5   6
ATOM      6  C   UNL     1     212.636 151.874 183.941  1.00  0.00    -0.028 C 
ATOM      7  C   UNL     1     210.830 151.951 182.208  1.00  0.00     0.039 C 
ATOM      8  C   UNL     1     211.570 152.506 183.403  1.00  0.00    -0.080 C 
ATOM      9  C   UNL     1     211.124 153.811 184.011  1.00  0.00     0.039 C 
ENDBRANCH   5   6
ENDBRANCH   4   5
ENDBRANCH   1   4
BRANCH   2  10
ATOM     10  C   UNL     1     213.760 150.557 179.022  1.00  0.00     0.035 C 
BRANCH  10  11
ATOM     11  C   UNL     1     212.332 151.039 178.754  1.00  0.00     0.079 C 
BRANCH  11  12
ATOM     12  C   UNL     1     212.309 152.030 177.619  1.00  0.00     0.130 C 
ATOM     13  O   UNL     1     211.538 151.859 176.688  1.00  0.00    -0.300 OA
ATOM     14  C   UNL     1     213.210 153.229 177.611  1.00  0.00     0.087 C 
ENDBRANCH  11  12
ENDBRANCH  10  11
ENDBRANCH   2  10
TORSDOF 6
ENDMDL
MODEL 7
REMARK VINA RESULT:    -4.732      2.597      4.735
REMARK INTER + INTRA:          -7.865
REMARK INTER:                  -6.842
REMARK INTRA:                  -1.023
REMARK UNBOUND:                -1.474
REMARK SMILES CC(=O)CCC=C(C)CCC=C(C)C
REMARK SMILES IDX 7 1 6 2 8 3 9 4 10 5 11 6 13 7 12 8 14 9 5 10 4 11 2 12 3 13
REMARK SMILES IDX 1 14
REMARK H PARENT
REMARK Flexibility Score: inf
ROOT
ATOM      1  C   UNL     1     213.265 151.051 179.676  1.00  0.00    -0.077 C 
ATOM      2  C   UNL     1     214.187 152.040 179.668  1.00  0.00    -0.028 C 
ATOM      3  C   UNL     1     212.119 151.021 178.691  1.00  0.00     0.039 C 
ENDROOT
BRANCH   1   4
ATOM      4  C   UNL     1     213.371 149.954 180.712  1.00  0.00     0.034 C 
BRANCH   4   5
ATOM      5  C   UNL     1     212.207 150.030 181.706  1.00  0.00     0.032 C 
BRANCH   5   6
ATOM      6  C   UNL     1     212.516 150.997 182.820  1.00  0.00    -0.028 C 
ATOM      7  C   UNL     1     210.546 152.459 182.316  1.00  0.00     0.039 C 
ATOM      8  C   UNL     1     211.766 152.079 183.123  1.00  0.00    -0.080 C 
ATOM      9  C   UNL     1     212.177 152.935 184.294  1.00  0.00     0.039 C 
ENDBRANCH   5   6
ENDBRANCH   4   5
ENDBRANCH   1   4
BRANCH   2  10
ATOM     10  C   UNL     1     214.219 153.171 178.670  1.00  0.00     0.035 C 
BRANCH  10  11
ATOM     11  C   UNL     1     213.785 154.485 179.325  1.00  0.00     0.079 C 
BRANCH  11  12
ATOM     12  C   UNL     1     212.756 155.187 178.478  1.00  0.00     0.130 C 
ATOM     13  O   UNL     1     212.409 156.321 178.769  1.00  0.00    -0.300 OA
ATOM     14  C   UNL     1     212.152 154.525 177.275  1.00  0.00     0.087 C 
ENDBRANCH  11  12
ENDBRANCH  10  11
ENDBRANCH   2  10
TORSDOF 6
ENDMDL
MODEL 8
REMARK VINA RESULT:    -4.718      2.128      4.087
REMARK INTER + INTRA:          -7.846
REMARK INTER:                  -6.791
REMARK INTRA:                  -1.055
REMARK UNBOUND:                -1.474
REMARK SMILES CC(=O)CCC=C(C)CCC=C(C)C
REMARK SMILES IDX 7 1 6 2 8 3 9 4 10 5 11 6 13 7 12 8 14 9 5 10 4 11 2 12 3 13
REMARK SMILES IDX 1 14
REMARK H PARENT
REMARK Flexibility Score: inf
ROOT
ATOM      1  C   UNL     1     215.028 151.117 181.495  1.00  0.00    -0.077 C 
ATOM      2  C   UNL     1     214.899 152.410 181.121  1.00  0.00    -0.028 C 
ATOM      3  C   UNL     1     215.448 150.042 180.519  1.00  0.00     0.039 C 
ENDROOT
BRANCH   1   4
ATOM      4  C   UNL     1     214.726 150.731 182.926  1.00  0.00     0.034 C 
BRANCH   4   5
ATOM      5  C   UNL     1     213.214 150.614 183.151  1.00  0.00     0.032 C 
BRANCH   5   6
ATOM      6  C   UNL     1     212.672 151.862 183.800  1.00  0.00    -0.028 C 
ATOM      7  C   UNL     1     210.781 152.081 182.174  1.00  0.00     0.039 C 
ATOM      8  C   UNL     1     211.565 152.519 183.389  1.00  0.00    -0.080 C 
ATOM      9  C   UNL     1     211.119 153.732 184.163  1.00  0.00     0.039 C 
ENDBRANCH   5   6
ENDBRANCH   4   5
ENDBRANCH   1   4
BRANCH   2  10
ATOM     10  C   UNL     1     215.202 152.934 179.739  1.00  0.00     0.035 C 
BRANCH  10  11
ATOM     11  C   UNL     1     213.910 153.276 178.993  1.00  0.00     0.079 C 
BRANCH  11  12
ATOM     12  C   UNL     1     213.396 152.077 178.241  1.00  0.00     0.130 C 
ATOM     13  O   UNL     1     213.922 151.757 177.186  1.00  0.00    -0.300 OA
ATOM     14  C   UNL     1     212.254 151.257 178.765  1.00  0.00     0.087 C 
ENDBRANCH  11  12
ENDBRANCH  10  11
ENDBRANCH   2  10
TORSDOF 6
ENDMDL
MODEL 9
REMARK VINA RESULT:    -4.650      1.892      3.445
REMARK INTER + INTRA:          -7.754
REMARK INTER:                  -6.501
REMARK INTRA:                  -1.253
REMARK UNBOUND:                -1.474
REMARK SMILES CC(=O)CCC=C(C)CCC=C(C)C
REMARK SMILES IDX 7 1 6 2 8 3 9 4 10 5 11 6 13 7 12 8 14 9 5 10 4 11 2 12 3 13
REMARK SMILES IDX 1 14
REMARK H PARENT
REMARK Flexibility Score: inf
ROOT
ATOM      1  C   UNL     1     211.495 152.256 183.161  1.00  0.00    -0.077 C 
ATOM      2  C   UNL     1     212.531 151.389 183.219  1.00  0.00    -0.028 C 
ATOM      3  C   UNL     1     210.384 152.104 182.149  1.00  0.00     0.039 C 
ENDROOT
BRANCH   1   4
ATOM      4  C   UNL     1     211.458 153.423 184.123  1.00  0.00     0.034 C 
BRANCH   4   5
ATOM      5  C   UNL     1     212.766 154.219 184.065  1.00  0.00     0.032 C 
BRANCH   5   6
ATOM      6  C   UNL     1     212.708 155.265 182.980  1.00  0.00    -0.028 C 
ATOM      7  C   UNL     1     214.300 154.036 181.488  1.00  0.00     0.039 C 
ATOM      8  C   UNL     1     213.372 155.185 181.806  1.00  0.00    -0.080 C 
ATOM      9  C   UNL     1     213.185 156.290 180.798  1.00  0.00     0.039 C 
ENDBRANCH   5   6
ENDBRANCH   4   5
ENDBRANCH   1   4
BRANCH   2  10
ATOM     10  C   UNL     1     212.673 150.167 182.345  1.00  0.00     0.035 C 
BRANCH  10  11
ATOM     11  C   UNL     1     214.058 150.124 181.693  1.00  0.00     0.079 C 
BRANCH  11  12
ATOM     12  C   UNL     1     213.956 150.377 180.212  1.00  0.00     0.130 C 
ATOM     13  O   UNL     1     214.969 150.374 179.530  1.00  0.00    -0.300 OA
ATOM     14  C   UNL     1     212.632 150.625 179.551  1.00  0.00     0.087 C 
ENDBRANCH  11  12
ENDBRANCH  10  11
ENDBRANCH   2  10
TORSDOF 6
ENDMDL
