MODEL 1
REMARK VINA RESULT:    -4.382      0.000      0.000
REMARK INTER + INTRA:          -8.749
REMARK INTER:                  -7.712
REMARK INTRA:                  -1.037
REMARK UNBOUND:                -1.037
REMARK SMILES CCCCCCCCCCCCCCC(=O)[O-]
REMARK SMILES IDX 9 1 10 2 11 3 12 4 13 5 14 6 15 7 16 8 17 9 8 10 7 11 6 12
REMARK SMILES IDX 5 13 4 14 3 15 2 16 1 17
REMARK H PARENT
REMARK Flexibility Score: inf
ROOT
ATOM      1  C   UNL     1      -2.969  -3.931   0.687  1.00  0.00     0.000 C 
ENDROOT
BRANCH   1   2
ATOM      2  C   UNL     1      -2.859  -5.141   1.630  1.00  0.00     0.000 C 
BRANCH   2   3
ATOM      3  C   UNL     1      -2.537  -4.797   3.099  1.00  0.00     0.000 C 
BRANCH   3   4
ATOM      4  C   UNL     1      -3.697  -5.013   4.089  1.00  0.00     0.000 C 
BRANCH   4   5
ATOM      5  C   UNL     1      -4.058  -3.742   4.872  1.00  0.00     0.006 C 
BRANCH   5   6
ATOM      6  C   UNL     1      -5.575  -3.545   4.928  1.00  0.00     0.053 C 
BRANCH   6   7
ATOM      7  C   UNL     1      -5.989  -3.042   6.274  1.00  0.00     0.041 C 
ATOM      8  O   UNL     1      -6.154  -1.809   6.466  1.00  0.00    -0.550 OA
ATOM      9  O   UNL     1      -6.145  -3.931   7.331  1.00  0.00    -0.550 OA
ENDBRANCH   6   7
ENDBRANCH   5   6
ENDBRANCH   4   5
ENDBRANCH   3   4
ENDBRANCH   2   3
ENDBRANCH   1   2
BRANCH   1  10
ATOM     10  C   UNL     1      -1.730  -3.760  -0.209  1.00  0.00     0.000 C 
BRANCH  10  11
ATOM     11  C   UNL     1      -1.502  -4.964  -1.136  1.00  0.00    -0.000 C 
BRANCH  11  12
ATOM     12  C   UNL     1      -2.482  -4.991  -2.320  1.00  0.00    -0.000 C 
BRANCH  12  13
ATOM     13  C   UNL     1      -3.079  -6.394  -2.505  1.00  0.00    -0.000 C 
BRANCH  13  14
ATOM     14  C   UNL     1      -4.403  -6.581  -1.744  1.00  0.00    -0.000 C 
BRANCH  14  15
ATOM     15  C   UNL     1      -5.335  -5.364  -1.873  1.00  0.00    -0.000 C 
BRANCH  15  16
ATOM     16  C   UNL     1      -6.607  -5.680  -2.677  1.00  0.00    -0.003 C 
ATOM     17  C   UNL     1      -7.752  -4.711  -2.379  1.00  0.00     0.004 C 
ENDBRANCH  15  16
ENDBRANCH  14  15
ENDBRANCH  13  14
ENDBRANCH  12  13
ENDBRANCH  11  12
ENDBRANCH  10  11
ENDBRANCH   1  10
TORSDOF 13
ENDMDL
MODEL 2
REMARK VINA RESULT:    -4.360     12.736     15.014
REMARK INTER + INTRA:          -8.710
REMARK INTER:                  -7.532
REMARK INTRA:                  -1.178
REMARK UNBOUND:                -1.037
REMARK SMILES CCCCCCCCCCCCCCC(=O)[O-]
REMARK SMILES IDX 9 1 10 2 11 3 12 4 13 5 14 6 15 7 16 8 17 9 8 10 7 11 6 12
REMARK SMILES IDX 5 13 4 14 3 15 2 16 1 17
REMARK H PARENT
REMARK Flexibility Score: inf
ROOT
ATOM      1  C   UNL     1       1.180   5.326   1.483  1.00  0.00     0.000 C 
ENDROOT
BRANCH   1   2
ATOM      2  C   UNL     1       2.715   5.232   1.489  1.00  0.00     0.000 C 
BRANCH   2   3
ATOM      3  C   UNL     1       3.372   5.185   0.095  1.00  0.00     0.000 C 
BRANCH   3   4
ATOM      4  C   UNL     1       2.415   5.437  -1.086  1.00  0.00     0.000 C 
BRANCH   4   5
ATOM      5  C   UNL     1       3.032   6.324  -2.176  1.00  0.00     0.006 C 
BRANCH   5   6
ATOM      6  C   UNL     1       4.480   6.687  -1.832  1.00  0.00     0.053 C 
BRANCH   6   7
ATOM      7  C   UNL     1       5.405   6.237  -2.917  1.00  0.00     0.041 C 
ATOM      8  O   UNL     1       6.528   6.787  -3.061  1.00  0.00    -0.550 OA
ATOM      9  O   UNL     1       5.007   5.242  -3.802  1.00  0.00    -0.550 OA
ENDBRANCH   6   7
ENDBRANCH   5   6
ENDBRANCH   4   5
ENDBRANCH   3   4
ENDBRANCH   2   3
ENDBRANCH   1   2
BRANCH   1  10
ATOM     10  C   UNL     1       0.649   6.452   2.387  1.00  0.00     0.000 C 
BRANCH  10  11
ATOM     11  C   UNL     1       1.680   6.904   3.433  1.00  0.00    -0.000 C 
BRANCH  11  12
ATOM     12  C   UNL     1       1.086   7.874   4.467  1.00  0.00    -0.000 C 
BRANCH  12  13
ATOM     13  C   UNL     1       1.265   7.331   5.893  1.00  0.00    -0.000 C 
BRANCH  13  14
ATOM     14  C   UNL     1       1.628   5.837   5.919  1.00  0.00    -0.000 C 
BRANCH  14  15
ATOM     15  C   UNL     1       2.681   5.503   6.989  1.00  0.00    -0.000 C 
BRANCH  15  16
ATOM     16  C   UNL     1       3.835   4.653   6.433  1.00  0.00    -0.003 C 
ATOM     17  C   UNL     1       3.589   4.186   4.998  1.00  0.00     0.004 C 
ENDBRANCH  15  16
ENDBRANCH  14  15
ENDBRANCH  13  14
ENDBRANCH  12  13
ENDBRANCH  11  12
ENDBRANCH  10  11
ENDBRANCH   1  10
TORSDOF 13
ENDMDL
MODEL 3
REMARK VINA RESULT:    -4.342      4.242      7.558
REMARK INTER + INTRA:          -8.678
REMARK INTER:                  -7.595
REMARK INTRA:                  -1.084
REMARK UNBOUND:                -1.037
REMARK SMILES CCCCCCCCCCCCCCC(=O)[O-]
REMARK SMILES IDX 9 1 10 2 11 3 12 4 13 5 14 6 15 7 16 8 17 9 8 10 7 11 6 12
REMARK SMILES IDX 5 13 4 14 3 15 2 16 1 17
REMARK H PARENT
REMARK Flexibility Score: inf
ROOT
ATOM      1  C   UNL     1      -1.167  -4.102  -0.253  1.00  0.00     0.000 C 
ENDROOT
BRANCH   1   2
ATOM      2  C   UNL     1      -1.093  -4.532  -1.728  1.00  0.00     0.000 C 
BRANCH   2   3
ATOM      3  C   UNL     1      -2.450  -4.862  -2.381  1.00  0.00     0.000 C 
BRANCH   3   4
ATOM      4  C   UNL     1      -2.791  -6.362  -2.457  1.00  0.00     0.000 C 
BRANCH   4   5
ATOM      5  C   UNL     1      -4.221  -6.673  -1.995  1.00  0.00     0.006 C 
BRANCH   5   6
ATOM      6  C   UNL     1      -5.031  -5.386  -1.814  1.00  0.00     0.053 C 
BRANCH   6   7
ATOM      7  C   UNL     1      -6.197  -5.363  -2.749  1.00  0.00     0.041 C 
ATOM      8  O   UNL     1      -7.357  -5.145  -2.311  1.00  0.00    -0.550 OA
ATOM      9  O   UNL     1      -6.011  -5.633  -4.100  1.00  0.00    -0.550 OA
ENDBRANCH   6   7
ENDBRANCH   5   6
ENDBRANCH   4   5
ENDBRANCH   3   4
ENDBRANCH   2   3
ENDBRANCH   1   2
BRANCH   1  10
ATOM     10  C   UNL     1      -1.481  -5.274   0.694  1.00  0.00     0.000 C 
BRANCH  10  11
ATOM     11  C   UNL     1      -2.900  -5.196   1.278  1.00  0.00    -0.000 C 
BRANCH  11  12
ATOM     12  C   UNL     1      -2.930  -5.449   2.794  1.00  0.00    -0.000 C 
BRANCH  12  13
ATOM     13  C   UNL     1      -1.558  -5.921   3.297  1.00  0.00    -0.000 C 
BRANCH  13  14
ATOM     14  C   UNL     1      -1.590  -7.353   3.857  1.00  0.00    -0.000 C 
BRANCH  14  15
ATOM     15  C   UNL     1      -0.826  -7.486   5.185  1.00  0.00    -0.000 C 
BRANCH  15  16
ATOM     16  C   UNL     1       0.157  -8.668   5.183  1.00  0.00    -0.003 C 
ATOM     17  C   UNL     1       1.620  -8.223   5.160  1.00  0.00     0.004 C 
ENDBRANCH  15  16
ENDBRANCH  14  15
ENDBRANCH  13  14
ENDBRANCH  12  13
ENDBRANCH  11  12
ENDBRANCH  10  11
ENDBRANCH   1  10
TORSDOF 13
ENDMDL
MODEL 4
REMARK VINA RESULT:    -4.336     12.388     15.070
REMARK INTER + INTRA:          -8.668
REMARK INTER:                  -7.688
REMARK INTRA:                  -0.980
REMARK UNBOUND:                -1.037
REMARK SMILES CCCCCCCCCCCCCCC(=O)[O-]
REMARK SMILES IDX 9 1 10 2 11 3 12 4 13 5 14 6 15 7 16 8 17 9 8 10 7 11 6 12
REMARK SMILES IDX 5 13 4 14 3 15 2 16 1 17
REMARK H PARENT
REMARK Flexibility Score: inf
ROOT
ATOM      1  C   UNL     1       1.375   5.008   1.568  1.00  0.00     0.000 C 
ENDROOT
BRANCH   1   2
ATOM      2  C   UNL     1       1.127   4.898   0.054  1.00  0.00     0.000 C 
BRANCH   2   3
ATOM      3  C   UNL     1       2.395   4.973  -0.821  1.00  0.00     0.000 C 
BRANCH   3   4
ATOM      4  C   UNL     1       2.202   5.650  -2.192  1.00  0.00     0.000 C 
BRANCH   4   5
ATOM      5  C   UNL     1       3.248   6.739  -2.472  1.00  0.00     0.006 C 
BRANCH   5   6
ATOM      6  C   UNL     1       4.538   6.473  -1.691  1.00  0.00     0.053 C 
BRANCH   6   7
ATOM      7  C   UNL     1       5.588   5.902  -2.590  1.00  0.00     0.041 C 
ATOM      8  O   UNL     1       6.629   5.388  -2.102  1.00  0.00    -0.550 OA
ATOM      9  O   UNL     1       5.440   5.982  -3.969  1.00  0.00    -0.550 OA
ENDBRANCH   6   7
ENDBRANCH   5   6
ENDBRANCH   4   5
ENDBRANCH   3   4
ENDBRANCH   2   3
ENDBRANCH   1   2
BRANCH   1  10
ATOM     10  C   UNL     1       2.828   5.381   1.909  1.00  0.00     0.000 C 
BRANCH  10  11
ATOM     11  C   UNL     1       2.934   6.252   3.170  1.00  0.00    -0.000 C 
BRANCH  11  12
ATOM     12  C   UNL     1       2.157   5.666   4.359  1.00  0.00    -0.000 C 
BRANCH  12  13
ATOM     13  C   UNL     1       1.492   6.780   5.181  1.00  0.00    -0.000 C 
BRANCH  13  14
ATOM     14  C   UNL     1       0.939   7.916   4.305  1.00  0.00    -0.000 C 
BRANCH  14  15
ATOM     15  C   UNL     1       0.018   8.870   5.086  1.00  0.00    -0.000 C 
BRANCH  15  16
ATOM     16  C   UNL     1       0.190   8.738   6.608  1.00  0.00    -0.003 C 
ATOM     17  C   UNL     1      -1.133   8.493   7.334  1.00  0.00     0.004 C 
ENDBRANCH  15  16
ENDBRANCH  14  15
ENDBRANCH  13  14
ENDBRANCH  12  13
ENDBRANCH  11  12
ENDBRANCH  10  11
ENDBRANCH   1  10
TORSDOF 13
ENDMDL
MODEL 5
REMARK VINA RESULT:    -4.334     12.606     15.116
REMARK INTER + INTRA:          -8.665
REMARK INTER:                  -7.717
REMARK INTRA:                  -0.948
REMARK UNBOUND:                -1.037
REMARK SMILES CCCCCCCCCCCCCCC(=O)[O-]
REMARK SMILES IDX 9 1 10 2 11 3 12 4 13 5 14 6 15 7 16 8 17 9 8 10 7 11 6 12
REMARK SMILES IDX 5 13 4 14 3 15 2 16 1 17
REMARK H PARENT
REMARK Flexibility Score: inf
ROOT
ATOM      1  C   UNL     1       2.171   4.632  -1.197  1.00  0.00     0.000 C 
ENDROOT
BRANCH   1   2
ATOM      2  C   UNL     1       2.195   5.490  -2.473  1.00  0.00     0.000 C 
BRANCH   2   3
ATOM      3  C   UNL     1       3.203   6.656  -2.457  1.00  0.00     0.000 C 
BRANCH   3   4
ATOM      4  C   UNL     1       4.504   6.384  -1.677  1.00  0.00     0.000 C 
BRANCH   4   5
ATOM      5  C   UNL     1       5.765   6.748  -2.474  1.00  0.00     0.006 C 
BRANCH   5   6
ATOM      6  C   UNL     1       6.726   5.559  -2.551  1.00  0.00     0.053 C 
BRANCH   6   7
ATOM      7  C   UNL     1       6.842   5.069  -3.959  1.00  0.00     0.041 C 
ATOM      8  O   UNL     1       5.982   5.398  -4.818  1.00  0.00    -0.550 OA
ATOM      9  O   UNL     1       7.873   4.206  -4.313  1.00  0.00    -0.550 OA
ENDBRANCH   6   7
ENDBRANCH   5   6
ENDBRANCH   4   5
ENDBRANCH   3   4
ENDBRANCH   2   3
ENDBRANCH   1   2
BRANCH   1  10
ATOM     10  C   UNL     1       1.231   5.197  -0.118  1.00  0.00     0.000 C 
BRANCH  10  11
ATOM     11  C   UNL     1       1.614   4.738   1.297  1.00  0.00    -0.000 C 
BRANCH  11  12
ATOM     12  C   UNL     1       2.967   5.304   1.756  1.00  0.00    -0.000 C 
BRANCH  12  13
ATOM     13  C   UNL     1       2.836   6.003   3.117  1.00  0.00    -0.000 C 
BRANCH  13  14
ATOM     14  C   UNL     1       1.415   6.530   3.380  1.00  0.00    -0.000 C 
BRANCH  14  15
ATOM     15  C   UNL     1       1.411   7.950   3.972  1.00  0.00    -0.000 C 
BRANCH  15  16
ATOM     16  C   UNL     1       0.097   8.280   4.698  1.00  0.00    -0.003 C 
ATOM     17  C   UNL     1      -0.974   7.206   4.504  1.00  0.00     0.004 C 
ENDBRANCH  15  16
ENDBRANCH  14  15
ENDBRANCH  13  14
ENDBRANCH  12  13
ENDBRANCH  11  12
ENDBRANCH  10  11
ENDBRANCH   1  10
TORSDOF 13
ENDMDL
MODEL 6
REMARK VINA RESULT:    -4.286      4.352      7.541
REMARK INTER + INTRA:          -8.579
REMARK INTER:                  -7.630
REMARK INTRA:                  -0.949
REMARK UNBOUND:                -1.037
REMARK SMILES CCCCCCCCCCCCCCC(=O)[O-]
REMARK SMILES IDX 9 1 10 2 11 3 12 4 13 5 14 6 15 7 16 8 17 9 8 10 7 11 6 12
REMARK SMILES IDX 5 13 4 14 3 15 2 16 1 17
REMARK H PARENT
REMARK Flexibility Score: inf
ROOT
ATOM      1  C   UNL     1      -2.210  -4.832  -2.388  1.00  0.00     0.000 C 
ENDROOT
BRANCH   1   2
ATOM      2  C   UNL     1      -2.917  -6.198  -2.416  1.00  0.00     0.000 C 
BRANCH   2   3
ATOM      3  C   UNL     1      -4.269  -6.249  -1.676  1.00  0.00     0.000 C 
BRANCH   3   4
ATOM      4  C   UNL     1      -5.511  -6.269  -2.587  1.00  0.00     0.000 C 
BRANCH   4   5
ATOM      5  C   UNL     1      -5.317  -5.460  -3.878  1.00  0.00     0.006 C 
BRANCH   5   6
ATOM      6  C   UNL     1      -6.399  -4.385  -4.018  1.00  0.00     0.053 C 
BRANCH   6   7
ATOM      7  C   UNL     1      -7.725  -5.010  -4.310  1.00  0.00     0.041 C 
ATOM      8  O   UNL     1      -8.670  -4.908  -3.485  1.00  0.00    -0.550 OA
ATOM      9  O   UNL     1      -7.904  -5.750  -5.474  1.00  0.00    -0.550 OA
ENDBRANCH   6   7
ENDBRANCH   5   6
ENDBRANCH   4   5
ENDBRANCH   3   4
ENDBRANCH   2   3
ENDBRANCH   1   2
BRANCH   1  10
ATOM     10  C   UNL     1      -1.020  -4.796  -1.414  1.00  0.00     0.000 C 
BRANCH  10  11
ATOM     11  C   UNL     1      -1.383  -4.161  -0.063  1.00  0.00    -0.000 C 
BRANCH  11  12
ATOM     12  C   UNL     1      -1.505  -5.198   1.064  1.00  0.00    -0.000 C 
BRANCH  12  13
ATOM     13  C   UNL     1      -2.937  -5.240   1.617  1.00  0.00    -0.000 C 
BRANCH  13  14
ATOM     14  C   UNL     1      -2.988  -5.610   3.109  1.00  0.00    -0.000 C 
BRANCH  14  15
ATOM     15  C   UNL     1      -1.628  -6.086   3.646  1.00  0.00    -0.000 C 
BRANCH  15  16
ATOM     16  C   UNL     1      -1.613  -7.591   3.956  1.00  0.00    -0.003 C 
ATOM     17  C   UNL     1      -0.282  -8.063   4.543  1.00  0.00     0.004 C 
ENDBRANCH  15  16
ENDBRANCH  14  15
ENDBRANCH  13  14
ENDBRANCH  12  13
ENDBRANCH  11  12
ENDBRANCH  10  11
ENDBRANCH   1  10
TORSDOF 13
ENDMDL
MODEL 7
REMARK VINA RESULT:    -4.262      3.673      4.545
REMARK INTER + INTRA:          -8.538
REMARK INTER:                  -7.644
REMARK INTRA:                  -0.894
REMARK UNBOUND:                -1.037
REMARK SMILES CCCCCCCCCCCCCCC(=O)[O-]
REMARK SMILES IDX 9 1 10 2 11 3 12 4 13 5 14 6 15 7 16 8 17 9 8 10 7 11 6 12
REMARK SMILES IDX 5 13 4 14 3 15 2 16 1 17
REMARK H PARENT
REMARK Flexibility Score: inf
ROOT
ATOM      1  C   UNL     1      -1.793  -4.620   1.503  1.00  0.00     0.000 C 
ENDROOT
BRANCH   1   2
ATOM      2  C   UNL     1      -2.650  -5.535   2.394  1.00  0.00     0.000 C 
BRANCH   2   3
ATOM      3  C   UNL     1      -2.583  -5.226   3.904  1.00  0.00     0.000 C 
BRANCH   3   4
ATOM      4  C   UNL     1      -1.929  -6.322   4.766  1.00  0.00     0.000 C 
BRANCH   4   5
ATOM      5  C   UNL     1      -1.176  -7.368   3.931  1.00  0.00     0.006 C 
BRANCH   5   6
ATOM      6  C   UNL     1       0.339  -7.210   4.092  1.00  0.00     0.053 C 
BRANCH   6   7
ATOM      7  C   UNL     1       0.887  -8.281   4.981  1.00  0.00     0.041 C 
ATOM      8  O   UNL     1       0.130  -8.887   5.784  1.00  0.00    -0.550 OA
ATOM      9  O   UNL     1       2.245  -8.575   4.958  1.00  0.00    -0.550 OA
ENDBRANCH   6   7
ENDBRANCH   5   6
ENDBRANCH   4   5
ENDBRANCH   3   4
ENDBRANCH   2   3
ENDBRANCH   1   2
BRANCH   1  10
ATOM     10  C   UNL     1      -1.596  -5.185   0.086  1.00  0.00     0.000 C 
BRANCH  10  11
ATOM     11  C   UNL     1      -2.661  -4.685  -0.901  1.00  0.00    -0.000 C 
BRANCH  11  12
ATOM     12  C   UNL     1      -2.427  -5.195  -2.332  1.00  0.00    -0.000 C 
BRANCH  12  13
ATOM     13  C   UNL     1      -3.107  -6.555  -2.547  1.00  0.00    -0.000 C 
BRANCH  13  14
ATOM     14  C   UNL     1      -4.461  -6.664  -1.826  1.00  0.00    -0.000 C 
BRANCH  14  15
ATOM     15  C   UNL     1      -5.629  -6.144  -2.681  1.00  0.00    -0.000 C 
BRANCH  15  16
ATOM     16  C   UNL     1      -6.191  -4.812  -2.161  1.00  0.00    -0.003 C 
ATOM     17  C   UNL     1      -7.719  -4.786  -2.125  1.00  0.00     0.004 C 
ENDBRANCH  15  16
ENDBRANCH  14  15
ENDBRANCH  13  14
ENDBRANCH  12  13
ENDBRANCH  11  12
ENDBRANCH  10  11
ENDBRANCH   1  10
TORSDOF 13
ENDMDL
MODEL 8
REMARK VINA RESULT:    -4.247     12.934     15.591
REMARK INTER + INTRA:          -8.511
REMARK INTER:                  -6.734
REMARK INTRA:                  -1.777
REMARK UNBOUND:                -1.037
REMARK SMILES CCCCCCCCCCCCCCC(=O)[O-]
REMARK SMILES IDX 9 1 10 2 11 3 12 4 13 5 14 6 15 7 16 8 17 9 8 10 7 11 6 12
REMARK SMILES IDX 5 13 4 14 3 15 2 16 1 17
REMARK H PARENT
REMARK Flexibility Score: inf
ROOT
ATOM      1  C   UNL     1       6.801   5.702  -2.411  1.00  0.00     0.000 C 
ENDROOT
BRANCH   1   2
ATOM      2  C   UNL     1       6.199   4.311  -2.149  1.00  0.00     0.000 C 
BRANCH   2   3
ATOM      3  C   UNL     1       6.239   3.345  -3.351  1.00  0.00     0.000 C 
BRANCH   3   4
ATOM      4  C   UNL     1       5.119   3.548  -4.388  1.00  0.00     0.000 C 
BRANCH   4   5
ATOM      5  C   UNL     1       5.444   4.644  -5.413  1.00  0.00     0.006 C 
BRANCH   5   6
ATOM      6  C   UNL     1       6.348   4.103  -6.525  1.00  0.00     0.053 C 
BRANCH   6   7
ATOM      7  C   UNL     1       7.635   4.864  -6.572  1.00  0.00     0.041 C 
ATOM      8  O   UNL     1       7.969   5.604  -5.610  1.00  0.00    -0.550 OA
ATOM      9  O   UNL     1       8.443   4.794  -7.700  1.00  0.00    -0.550 OA
ENDBRANCH   6   7
ENDBRANCH   5   6
ENDBRANCH   4   5
ENDBRANCH   3   4
ENDBRANCH   2   3
ENDBRANCH   1   2
BRANCH   1  10
ATOM     10  C   UNL     1       5.739   6.815  -2.434  1.00  0.00     0.000 C 
BRANCH  10  11
ATOM     11  C   UNL     1       4.455   6.420  -1.689  1.00  0.00    -0.000 C 
BRANCH  11  12
ATOM     12  C   UNL     1       3.185   6.700  -2.509  1.00  0.00    -0.000 C 
BRANCH  12  13
ATOM     13  C   UNL     1       2.290   5.454  -2.576  1.00  0.00    -0.000 C 
BRANCH  13  14
ATOM     14  C   UNL     1       2.388   4.583  -1.312  1.00  0.00    -0.000 C 
BRANCH  14  15
ATOM     15  C   UNL     1       1.129   4.675  -0.433  1.00  0.00    -0.000 C 
BRANCH  15  16
ATOM     16  C   UNL     1       1.398   5.375   0.909  1.00  0.00    -0.003 C 
ATOM     17  C   UNL     1       2.828   5.167   1.410  1.00  0.00     0.004 C 
ENDBRANCH  15  16
ENDBRANCH  14  15
ENDBRANCH  13  14
ENDBRANCH  12  13
ENDBRANCH  11  12
ENDBRANCH  10  11
ENDBRANCH   1  10
TORSDOF 13
ENDMDL
MODEL 9
REMARK VINA RESULT:    -4.243     11.551     13.100
REMARK INTER + INTRA:          -8.504
REMARK INTER:                  -7.314
REMARK INTRA:                  -1.189
REMARK UNBOUND:                -1.037
REMARK SMILES CCCCCCCCCCCCCCC(=O)[O-]
REMARK SMILES IDX 9 1 10 2 11 3 12 4 13 5 14 6 15 7 16 8 17 9 8 10 7 11 6 12
REMARK SMILES IDX 5 13 4 14 3 15 2 16 1 17
REMARK H PARENT
REMARK Flexibility Score: inf
ROOT
ATOM      1  C   UNL     1       0.693   7.158   2.760  1.00  0.00     0.000 C 
ENDROOT
BRANCH   1   2
ATOM      2  C   UNL     1       1.482   7.636   3.991  1.00  0.00     0.000 C 
BRANCH   2   3
ATOM      3  C   UNL     1       1.422   6.696   5.212  1.00  0.00     0.000 C 
BRANCH   3   4
ATOM      4  C   UNL     1       1.182   7.394   6.563  1.00  0.00     0.000 C 
BRANCH   4   5
ATOM      5  C   UNL     1       0.216   8.583   6.457  1.00  0.00     0.006 C 
BRANCH   5   6
ATOM      6  C   UNL     1      -1.222   8.150   6.758  1.00  0.00     0.053 C 
BRANCH   6   7
ATOM      7  C   UNL     1      -2.007   8.022   5.492  1.00  0.00     0.041 C 
ATOM      8  O   UNL     1      -2.094   6.908   4.910  1.00  0.00    -0.550 OA
ATOM      9  O   UNL     1      -2.601   9.143   4.925  1.00  0.00    -0.550 OA
ENDBRANCH   6   7
ENDBRANCH   5   6
ENDBRANCH   4   5
ENDBRANCH   3   4
ENDBRANCH   2   3
ENDBRANCH   1   2
BRANCH   1  10
ATOM     10  C   UNL     1       0.560   5.626   2.697  1.00  0.00     0.000 C 
BRANCH  10  11
ATOM     11  C   UNL     1       1.055   5.046   1.364  1.00  0.00    -0.000 C 
BRANCH  11  12
ATOM     12  C   UNL     1       2.546   4.672   1.399  1.00  0.00    -0.000 C 
BRANCH  12  13
ATOM     13  C   UNL     1       3.283   5.245   0.180  1.00  0.00    -0.000 C 
BRANCH  13  14
ATOM     14  C   UNL     1       2.354   5.467  -1.026  1.00  0.00    -0.000 C 
BRANCH  14  15
ATOM     15  C   UNL     1       3.053   6.204  -2.181  1.00  0.00    -0.000 C 
BRANCH  15  16
ATOM     16  C   UNL     1       4.469   6.672  -1.809  1.00  0.00    -0.003 C 
ATOM     17  C   UNL     1       5.527   6.218  -2.816  1.00  0.00     0.004 C 
ENDBRANCH  15  16
ENDBRANCH  14  15
ENDBRANCH  13  14
ENDBRANCH  12  13
ENDBRANCH  11  12
ENDBRANCH  10  11
ENDBRANCH   1  10
TORSDOF 13
ENDMDL
