MODEL 1
REMARK VINA RESULT:    -4.770      0.000      0.000
REMARK INTER + INTRA:          -6.105
REMARK INTER:                  -5.746
REMARK INTRA:                  -0.360
REMARK UNBOUND:                -0.360
REMARK SMILES CCCCc1oc(O)c2ccccc12
REMARK SMILES IDX 4 1 5 2 7 3 6 4 9 5 14 6 10 7 13 8 11 9 12 10 8 11 3 13 2 14
REMARK SMILES IDX 1 15
REMARK H PARENT 8 12
REMARK Flexibility Score: inf
ROOT
ATOM      1  C   UNL     1     -48.875  27.620  -3.232  1.00  0.00     0.076 C 
ENDROOT
BRANCH   1   2
ATOM      2  C   UNL     1     -47.637  26.966  -2.696  1.00  0.00     0.116 A 
ATOM      3  C   UNL     1     -46.095  25.502  -2.417  1.00  0.00     0.290 A 
ATOM      4  O   UNL     1     -47.178  25.797  -3.109  1.00  0.00    -0.430 OA
ATOM      5  C   UNL     1     -45.831  26.507  -1.514  1.00  0.00     0.066 A 
ATOM      6  C   UNL     1     -46.815  27.443  -1.689  1.00  0.00     0.027 A 
ATOM      7  C   UNL     1     -44.822  26.662  -0.567  1.00  0.00     0.016 A 
ATOM      8  C   UNL     1     -46.863  28.608  -0.923  1.00  0.00     0.012 A 
ATOM      9  C   UNL     1     -44.841  27.829   0.221  1.00  0.00     0.001 A 
ATOM     10  C   UNL     1     -45.857  28.796   0.044  1.00  0.00     0.001 A 
BRANCH   3  11
ATOM     11  O   UNL     1     -45.346  24.344  -2.585  1.00  0.00    -0.480 OA
ATOM     12  H   UNL     1     -45.754  23.437  -2.393  1.00  0.00     0.297 HD
ENDBRANCH   3  11
ENDBRANCH   1   2
BRANCH   1  13
ATOM     13  C   UNL     1     -50.147  26.912  -2.748  1.00  0.00     0.008 C 
BRANCH  13  14
ATOM     14  C   UNL     1     -50.586  27.391  -1.357  1.00  0.00    -0.003 C 
ATOM     15  C   UNL     1     -52.067  27.757  -1.343  1.00  0.00     0.004 C 
ENDBRANCH  13  14
ENDBRANCH   1  13
TORSDOF 4
ENDMDL
MODEL 2
REMARK VINA RESULT:    -4.629      9.926     11.859
REMARK INTER + INTRA:          -5.935
REMARK INTER:                  -5.575
REMARK INTRA:                  -0.360
REMARK UNBOUND:                -0.360
REMARK SMILES CCCCc1oc(O)c2ccccc12
REMARK SMILES IDX 4 1 5 2 7 3 6 4 9 5 14 6 10 7 13 8 11 9 12 10 8 11 3 13 2 14
REMARK SMILES IDX 1 15
REMARK H PARENT 8 12
REMARK Flexibility Score: inf
ROOT
ATOM      1  C   UNL     1     -45.999  27.859  11.182  1.00  0.00     0.076 C 
ENDROOT
BRANCH   1   2
ATOM      2  C   UNL     1     -46.656  27.191  10.011  1.00  0.00     0.116 A 
ATOM      3  C   UNL     1     -46.993  25.790   8.423  1.00  0.00     0.290 A 
ATOM      4  O   UNL     1     -46.200  26.093   9.433  1.00  0.00    -0.430 OA
ATOM      5  C   UNL     1     -48.003  26.720   8.329  1.00  0.00     0.066 A 
ATOM      6  C   UNL     1     -47.790  27.616   9.341  1.00  0.00     0.027 A 
ATOM      7  C   UNL     1     -49.070  26.844   7.443  1.00  0.00     0.016 A 
ATOM      8  C   UNL     1     -48.632  28.711   9.540  1.00  0.00     0.012 A 
ATOM      9  C   UNL     1     -49.939  27.938   7.617  1.00  0.00     0.001 A 
ATOM     10  C   UNL     1     -49.720  28.867   8.661  1.00  0.00     0.001 A 
BRANCH   3  11
ATOM     11  O   UNL     1     -46.818  24.694   7.588  1.00  0.00    -0.480 OA
ATOM     12  H   UNL     1     -47.581  24.049   7.421  1.00  0.00     0.297 HD
ENDBRANCH   3  11
ENDBRANCH   1   2
BRANCH   1  13
ATOM     13  C   UNL     1     -45.241  29.125  10.763  1.00  0.00     0.008 C 
BRANCH  13  14
ATOM     14  C   UNL     1     -43.886  28.805  10.117  1.00  0.00    -0.003 C 
ATOM     15  C   UNL     1     -43.161  27.699  10.877  1.00  0.00     0.004 C 
ENDBRANCH  13  14
ENDBRANCH   1  13
TORSDOF 4
ENDMDL
MODEL 3
REMARK VINA RESULT:    -4.388     10.018     11.049
REMARK INTER + INTRA:          -5.645
REMARK INTER:                  -5.358
REMARK INTRA:                  -0.287
REMARK UNBOUND:                -0.360
REMARK SMILES CCCCc1oc(O)c2ccccc12
REMARK SMILES IDX 4 1 5 2 7 3 6 4 9 5 14 6 10 7 13 8 11 9 12 10 8 11 3 13 2 14
REMARK SMILES IDX 1 15
REMARK H PARENT 8 12
REMARK Flexibility Score: inf
ROOT
ATOM      1  C   UNL     1     -48.968  29.037   8.659  1.00  0.00     0.076 C 
ENDROOT
BRANCH   1   2
ATOM      2  C   UNL     1     -48.045  27.859   8.755  1.00  0.00     0.116 A 
ATOM      3  C   UNL     1     -47.184  25.940   8.342  1.00  0.00     0.290 A 
ATOM      4  O   UNL     1     -48.119  26.794   7.975  1.00  0.00    -0.430 OA
ATOM      5  C   UNL     1     -46.471  26.455   9.400  1.00  0.00     0.066 A 
ATOM      6  C   UNL     1     -47.019  27.680   9.667  1.00  0.00     0.027 A 
ATOM      7  C   UNL     1     -45.405  25.945  10.137  1.00  0.00     0.016 A 
ATOM      8  C   UNL     1     -46.541  28.488  10.700  1.00  0.00     0.012 A 
ATOM      9  C   UNL     1     -44.897  26.737  11.184  1.00  0.00     0.001 A 
ATOM     10  C   UNL     1     -45.463  28.002  11.464  1.00  0.00     0.001 A 
BRANCH   3  11
ATOM     11  O   UNL     1     -46.966  24.707   7.740  1.00  0.00    -0.480 OA
ATOM     12  H   UNL     1     -46.574  24.653   6.807  1.00  0.00     0.297 HD
ENDBRANCH   3  11
ENDBRANCH   1   2
BRANCH   1  13
ATOM     13  C   UNL     1     -50.258  28.816   9.461  1.00  0.00     0.008 C 
BRANCH  13  14
ATOM     14  C   UNL     1     -51.513  28.921   8.584  1.00  0.00    -0.003 C 
ATOM     15  C   UNL     1     -51.382  28.062   7.330  1.00  0.00     0.004 C 
ENDBRANCH  13  14
ENDBRANCH   1  13
TORSDOF 4
ENDMDL
MODEL 4
REMARK VINA RESULT:    -4.259      9.319     10.959
REMARK INTER + INTRA:          -5.490
REMARK INTER:                  -5.113
REMARK INTRA:                  -0.377
REMARK UNBOUND:                -0.360
REMARK SMILES CCCCc1oc(O)c2ccccc12
REMARK SMILES IDX 4 1 5 2 7 3 6 4 9 5 14 6 10 7 13 8 11 9 12 10 8 11 3 13 2 14
REMARK SMILES IDX 1 15
REMARK H PARENT 8 12
REMARK Flexibility Score: inf
ROOT
ATOM      1  C   UNL     1     -47.171  27.564   7.918  1.00  0.00     0.076 C 
ENDROOT
BRANCH   1   2
ATOM      2  C   UNL     1     -48.559  27.820   7.412  1.00  0.00     0.116 A 
ATOM      3  C   UNL     1     -50.198  28.012   6.043  1.00  0.00     0.290 A 
ATOM      4  O   UNL     1     -48.925  27.684   6.149  1.00  0.00    -0.430 OA
ATOM      5  C   UNL     1     -50.688  28.381   7.275  1.00  0.00     0.066 A 
ATOM      6  C   UNL     1     -49.644  28.260   8.151  1.00  0.00     0.027 A 
ATOM      7  C   UNL     1     -51.949  28.810   7.680  1.00  0.00     0.016 A 
ATOM      8  C   UNL     1     -49.785  28.565   9.505  1.00  0.00     0.012 A 
ATOM      9  C   UNL     1     -52.125  29.123   9.042  1.00  0.00     0.001 A 
ATOM     10  C   UNL     1     -51.047  29.001   9.949  1.00  0.00     0.001 A 
BRANCH   3  11
ATOM     11  O   UNL     1     -50.919  27.987   4.855  1.00  0.00    -0.480 OA
ATOM     12  H   UNL     1     -51.030  28.830   4.305  1.00  0.00     0.297 HD
ENDBRANCH   3  11
ENDBRANCH   1   2
BRANCH   1  13
ATOM     13  C   UNL     1     -46.989  26.110   8.370  1.00  0.00     0.008 C 
BRANCH  13  14
ATOM     14  C   UNL     1     -45.957  25.976   9.498  1.00  0.00    -0.003 C 
ATOM     15  C   UNL     1     -46.471  26.599  10.792  1.00  0.00     0.004 C 
ENDBRANCH  13  14
ENDBRANCH   1  13
TORSDOF 4
ENDMDL
MODEL 5
REMARK VINA RESULT:    -4.052     10.638     12.497
REMARK INTER + INTRA:          -5.240
REMARK INTER:                  -5.073
REMARK INTRA:                  -0.167
REMARK UNBOUND:                -0.360
REMARK SMILES CCCCc1oc(O)c2ccccc12
REMARK SMILES IDX 4 1 5 2 7 3 6 4 9 5 14 6 10 7 13 8 11 9 12 10 8 11 3 13 2 14
REMARK SMILES IDX 1 15
REMARK H PARENT 8 12
REMARK Flexibility Score: inf
ROOT
ATOM      1  C   UNL     1     -43.537  24.452   9.846  1.00  0.00     0.076 C 
ENDROOT
BRANCH   1   2
ATOM      2  C   UNL     1     -44.822  25.161   9.534  1.00  0.00     0.116 A 
ATOM      3  C   UNL     1     -46.687  25.617   8.582  1.00  0.00     0.290 A 
ATOM      4  O   UNL     1     -45.687  24.758   8.621  1.00  0.00    -0.430 OA
ATOM      5  C   UNL     1     -46.473  26.623   9.497  1.00  0.00     0.066 A 
ATOM      6  C   UNL     1     -45.282  26.335  10.107  1.00  0.00     0.027 A 
ATOM      7  C   UNL     1     -47.221  27.749   9.829  1.00  0.00     0.016 A 
ATOM      8  C   UNL     1     -44.746  27.160  11.096  1.00  0.00     0.012 A 
ATOM      9  C   UNL     1     -46.709  28.602  10.826  1.00  0.00     0.001 A 
ATOM     10  C   UNL     1     -45.477  28.308  11.456  1.00  0.00     0.001 A 
BRANCH   3  11
ATOM     11  O   UNL     1     -47.784  25.510   7.735  1.00  0.00    -0.480 OA
ATOM     12  H   UNL     1     -48.151  26.328   7.265  1.00  0.00     0.297 HD
ENDBRANCH   3  11
ENDBRANCH   1   2
BRANCH   1  13
ATOM     13  C   UNL     1     -43.359  23.194   8.987  1.00  0.00     0.008 C 
BRANCH  13  14
ATOM     14  C   UNL     1     -42.355  22.208   9.600  1.00  0.00    -0.003 C 
ATOM     15  C   UNL     1     -42.812  20.766   9.408  1.00  0.00     0.004 C 
ENDBRANCH  13  14
ENDBRANCH   1  13
TORSDOF 4
ENDMDL
MODEL 6
REMARK VINA RESULT:    -3.957      9.824     11.632
REMARK INTER + INTRA:          -5.126
REMARK INTER:                  -4.749
REMARK INTRA:                  -0.377
REMARK UNBOUND:                -0.360
REMARK SMILES CCCCc1oc(O)c2ccccc12
REMARK SMILES IDX 4 1 5 2 7 3 6 4 9 5 14 6 10 7 13 8 11 9 12 10 8 11 3 13 2 14
REMARK SMILES IDX 1 15
REMARK H PARENT 8 12
REMARK Flexibility Score: inf
ROOT
ATOM      1  C   UNL     1     -46.849  29.118  10.914  1.00  0.00     0.076 C 
ENDROOT
BRANCH   1   2
ATOM      2  C   UNL     1     -47.209  28.836   9.485  1.00  0.00     0.116 A 
ATOM      3  C   UNL     1     -46.972  28.485   7.384  1.00  0.00     0.290 A 
ATOM      4  O   UNL     1     -46.324  28.696   8.513  1.00  0.00    -0.430 OA
ATOM      5  C   UNL     1     -48.328  28.490   7.617  1.00  0.00     0.066 A 
ATOM      6  C   UNL     1     -48.483  28.715   8.958  1.00  0.00     0.027 A 
ATOM      7  C   UNL     1     -49.417  28.321   6.765  1.00  0.00     0.016 A 
ATOM      8  C   UNL     1     -49.745  28.792   9.548  1.00  0.00     0.012 A 
ATOM      9  C   UNL     1     -50.704  28.391   7.329  1.00  0.00     0.001 A 
ATOM     10  C   UNL     1     -50.867  28.626   8.714  1.00  0.00     0.001 A 
BRANCH   3  11
ATOM     11  O   UNL     1     -46.360  28.292   6.151  1.00  0.00    -0.480 OA
ATOM     12  H   UNL     1     -46.902  28.340   5.297  1.00  0.00     0.297 HD
ENDBRANCH   3  11
ENDBRANCH   1   2
BRANCH   1  13
ATOM     13  C   UNL     1     -45.618  28.319  11.359  1.00  0.00     0.008 C 
BRANCH  13  14
ATOM     14  C   UNL     1     -45.879  26.806  11.368  1.00  0.00    -0.003 C 
ATOM     15  C   UNL     1     -44.873  26.070  10.489  1.00  0.00     0.004 C 
ENDBRANCH  13  14
ENDBRANCH   1  13
TORSDOF 4
ENDMDL
MODEL 7
REMARK VINA RESULT:    -3.940     11.007     13.011
REMARK INTER + INTRA:          -5.106
REMARK INTER:                  -4.924
REMARK INTRA:                  -0.181
REMARK UNBOUND:                -0.360
REMARK SMILES CCCCc1oc(O)c2ccccc12
REMARK SMILES IDX 4 1 5 2 7 3 6 4 9 5 14 6 10 7 13 8 11 9 12 10 8 11 3 13 2 14
REMARK SMILES IDX 1 15
REMARK H PARENT 8 12
REMARK Flexibility Score: inf
ROOT
ATOM      1  C   UNL     1     -43.880  23.389   8.761  1.00  0.00     0.076 C 
ENDROOT
BRANCH   1   2
ATOM      2  C   UNL     1     -44.212  24.617   9.556  1.00  0.00     0.116 A 
ATOM      3  C   UNL     1     -44.062  26.147  11.050  1.00  0.00     0.290 A 
ATOM      4  O   UNL     1     -43.475  25.075  10.554  1.00  0.00    -0.430 OA
ATOM      5  C   UNL     1     -45.225  26.404  10.361  1.00  0.00     0.066 A 
ATOM      6  C   UNL     1     -45.324  25.428   9.406  1.00  0.00     0.027 A 
ATOM      7  C   UNL     1     -46.187  27.401  10.503  1.00  0.00     0.016 A 
ATOM      8  C   UNL     1     -46.401  25.375   8.521  1.00  0.00     0.012 A 
ATOM      9  C   UNL     1     -47.285  27.377   9.623  1.00  0.00     0.001 A 
ATOM     10  C   UNL     1     -47.392  26.369   8.637  1.00  0.00     0.001 A 
BRANCH   3  11
ATOM     11  O   UNL     1     -43.566  26.892  12.113  1.00  0.00    -0.480 OA
ATOM     12  H   UNL     1     -43.705  26.581  13.067  1.00  0.00     0.297 HD
ENDBRANCH   3  11
ENDBRANCH   1   2
BRANCH   1  13
ATOM     13  C   UNL     1     -42.628  22.685   9.297  1.00  0.00     0.008 C 
BRANCH  13  14
ATOM     14  C   UNL     1     -42.848  21.180   9.500  1.00  0.00    -0.003 C 
ATOM     15  C   UNL     1     -41.804  20.592  10.443  1.00  0.00     0.004 C 
ENDBRANCH  13  14
ENDBRANCH   1  13
TORSDOF 4
ENDMDL
MODEL 8
REMARK VINA RESULT:    -3.867      9.970     11.697
REMARK INTER + INTRA:          -5.018
REMARK INTER:                  -4.722
REMARK INTRA:                  -0.296
REMARK UNBOUND:                -0.360
REMARK SMILES CCCCc1oc(O)c2ccccc12
REMARK SMILES IDX 4 1 5 2 7 3 6 4 9 5 14 6 10 7 13 8 11 9 12 10 8 11 3 13 2 14
REMARK SMILES IDX 1 15
REMARK H PARENT 8 12
REMARK Flexibility Score: inf
ROOT
ATOM      1  C   UNL     1     -46.961  27.496   8.250  1.00  0.00     0.076 C 
ENDROOT
BRANCH   1   2
ATOM      2  C   UNL     1     -48.344  27.969   8.588  1.00  0.00     0.116 A 
ATOM      3  C   UNL     1     -50.003  28.662   9.754  1.00  0.00     0.290 A 
ATOM      4  O   UNL     1     -48.728  28.330   9.800  1.00  0.00    -0.430 OA
ATOM      5  C   UNL     1     -50.479  28.513   8.471  1.00  0.00     0.066 A 
ATOM      6  C   UNL     1     -49.421  28.069   7.724  1.00  0.00     0.027 A 
ATOM      7  C   UNL     1     -51.739  28.725   7.918  1.00  0.00     0.016 A 
ATOM      8  C   UNL     1     -49.549  27.801   6.361  1.00  0.00     0.012 A 
ATOM      9  C   UNL     1     -51.900  28.466   6.544  1.00  0.00     0.001 A 
ATOM     10  C   UNL     1     -50.810  28.005   5.769  1.00  0.00     0.001 A 
BRANCH   3  11
ATOM     11  O   UNL     1     -50.742  29.094  10.849  1.00  0.00    -0.480 OA
ATOM     12  H   UNL     1     -50.367  29.011  11.786  1.00  0.00     0.297 HD
ENDBRANCH   3  11
ENDBRANCH   1   2
BRANCH   1  13
ATOM     13  C   UNL     1     -46.555  26.278   9.089  1.00  0.00     0.008 C 
BRANCH  13  14
ATOM     14  C   UNL     1     -45.543  26.638  10.185  1.00  0.00    -0.003 C 
ATOM     15  C   UNL     1     -46.167  26.517  11.572  1.00  0.00     0.004 C 
ENDBRANCH  13  14
ENDBRANCH   1  13
TORSDOF 4
ENDMDL
MODEL 9
REMARK VINA RESULT:    -3.763      9.987     10.998
REMARK INTER + INTRA:          -4.892
REMARK INTER:                  -4.616
REMARK INTRA:                  -0.277
REMARK UNBOUND:                -0.360
REMARK SMILES CCCCc1oc(O)c2ccccc12
REMARK SMILES IDX 4 1 5 2 7 3 6 4 9 5 14 6 10 7 13 8 11 9 12 10 8 11 3 13 2 14
REMARK SMILES IDX 1 15
REMARK H PARENT 8 12
REMARK Flexibility Score: inf
ROOT
ATOM      1  C   UNL     1     -49.133  26.869   7.232  1.00  0.00     0.076 C 
ENDROOT
BRANCH   1   2
ATOM      2  C   UNL     1     -48.323  27.189   8.453  1.00  0.00     0.116 A 
ATOM      3  C   UNL     1     -47.670  28.205  10.224  1.00  0.00     0.290 A 
ATOM      4  O   UNL     1     -48.586  28.190   9.275  1.00  0.00    -0.430 OA
ATOM      5  C   UNL     1     -46.771  27.183  10.020  1.00  0.00     0.066 A 
ATOM      6  C   UNL     1     -47.185  26.533   8.889  1.00  0.00     0.027 A 
ATOM      7  C   UNL     1     -45.639  26.789  10.728  1.00  0.00     0.016 A 
ATOM      8  C   UNL     1     -46.491  25.435   8.379  1.00  0.00     0.012 A 
ATOM      9  C   UNL     1     -44.917  25.683  10.241  1.00  0.00     0.001 A 
ATOM     10  C   UNL     1     -45.341  25.010   9.072  1.00  0.00     0.001 A 
BRANCH   3  11
ATOM     11  O   UNL     1     -47.632  29.125  11.265  1.00  0.00    -0.480 OA
ATOM     12  H   UNL     1     -48.364  29.139  11.964  1.00  0.00     0.297 HD
ENDBRANCH   3  11
ENDBRANCH   1   2
BRANCH   1  13
ATOM     13  C   UNL     1     -49.684  28.137   6.567  1.00  0.00     0.008 C 
BRANCH  13  14
ATOM     14  C   UNL     1     -51.215  28.118   6.457  1.00  0.00    -0.003 C 
ATOM     15  C   UNL     1     -51.868  28.429   7.800  1.00  0.00     0.004 C 
ENDBRANCH  13  14
ENDBRANCH   1  13
TORSDOF 4
ENDMDL
