MODEL 1
REMARK VINA RESULT:    -4.685      0.000      0.000
REMARK INTER + INTRA:         -12.876
REMARK INTER:                 -10.712
REMARK INTRA:                  -2.164
REMARK UNBOUND:                -2.164
REMARK SMILES CCCCCCCCCCCCCCCCCCCCCCCC(=O)[O-]
REMARK SMILES IDX 13 1 14 2 15 3 16 4 17 5 18 6 19 7 20 8 21 9 22 10 23 11
REMARK SMILES IDX 24 12 25 13 26 14 12 15 11 16 10 17 9 18 8 19 7 20 6 21 5 22
REMARK SMILES IDX 4 23 3 24 2 25 1 26
REMARK H PARENT
REMARK Flexibility Score: inf
ROOT
ATOM      1  C   UNL     1       2.560  53.706  21.538  1.00  0.00     0.000 C 
ENDROOT
BRANCH   1   2
ATOM      2  C   UNL     1       1.507  53.322  22.593  1.00  0.00     0.000 C 
BRANCH   2   3
ATOM      3  C   UNL     1       1.058  51.859  22.484  1.00  0.00     0.000 C 
BRANCH   3   4
ATOM      4  C   UNL     1       2.207  50.906  22.849  1.00  0.00     0.000 C 
BRANCH   4   5
ATOM      5  C   UNL     1       1.764  49.436  22.893  1.00  0.00     0.000 C 
BRANCH   5   6
ATOM      6  C   UNL     1       2.921  48.464  22.600  1.00  0.00     0.000 C 
BRANCH   6   7
ATOM      7  C   UNL     1       2.823  47.167  23.419  1.00  0.00     0.000 C 
BRANCH   7   8
ATOM      8  C   UNL     1       2.176  47.382  24.799  1.00  0.00     0.000 C 
BRANCH   8   9
ATOM      9  C   UNL     1       3.209  47.684  25.896  1.00  0.00     0.000 C 
BRANCH   9  10
ATOM     10  C   UNL     1       4.622  47.209  25.524  1.00  0.00     0.006 C 
BRANCH  10  11
ATOM     11  C   UNL     1       5.611  48.380  25.508  1.00  0.00     0.053 C 
BRANCH  11  12
ATOM     12  C   UNL     1       6.574  48.245  24.368  1.00  0.00     0.041 C 
ATOM     13  O   UNL     1       7.626  48.938  24.344  1.00  0.00    -0.550 OA
ATOM     14  O   UNL     1       6.294  47.378  23.316  1.00  0.00    -0.550 OA
ENDBRANCH  11  12
ENDBRANCH  10  11
ENDBRANCH   9  10
ENDBRANCH   8   9
ENDBRANCH   7   8
ENDBRANCH   6   7
ENDBRANCH   5   6
ENDBRANCH   4   5
ENDBRANCH   3   4
ENDBRANCH   2   3
ENDBRANCH   1   2
BRANCH   1  15
ATOM     15  C   UNL     1       2.428  55.138  20.980  1.00  0.00     0.000 C 
BRANCH  15  16
ATOM     16  C   UNL     1       1.905  56.189  21.979  1.00  0.00     0.000 C 
BRANCH  16  17
ATOM     17  C   UNL     1       2.722  57.493  22.045  1.00  0.00     0.000 C 
BRANCH  17  18
ATOM     18  C   UNL     1       3.399  57.703  23.409  1.00  0.00    -0.000 C 
BRANCH  18  19
ATOM     19  C   UNL     1       2.908  56.704  24.471  1.00  0.00    -0.000 C 
BRANCH  19  20
ATOM     20  C   UNL     1       1.972  57.352  25.506  1.00  0.00    -0.000 C 
BRANCH  20  21
ATOM     21  C   UNL     1       0.584  57.671  24.929  1.00  0.00    -0.000 C 
BRANCH  21  22
ATOM     22  C   UNL     1       0.132  59.112  25.230  1.00  0.00    -0.000 C 
BRANCH  22  23
ATOM     23  C   UNL     1       0.175  60.011  23.976  1.00  0.00    -0.000 C 
BRANCH  23  24
ATOM     24  C   UNL     1       1.133  61.209  24.106  1.00  0.00    -0.000 C 
BRANCH  24  25
ATOM     25  C   UNL     1       2.397  61.063  23.249  1.00  0.00    -0.003 C 
ATOM     26  C   UNL     1       3.341  62.245  23.456  1.00  0.00     0.004 C 
ENDBRANCH  24  25
ENDBRANCH  23  24
ENDBRANCH  22  23
ENDBRANCH  21  22
ENDBRANCH  20  21
ENDBRANCH  19  20
ENDBRANCH  18  19
ENDBRANCH  17  18
ENDBRANCH  16  17
ENDBRANCH  15  16
ENDBRANCH   1  15
TORSDOF 22
ENDMDL
MODEL 2
REMARK VINA RESULT:    -4.622      6.658     12.618
REMARK INTER + INTRA:         -12.732
REMARK INTER:                  -9.811
REMARK INTRA:                  -2.920
REMARK UNBOUND:                -2.164
REMARK SMILES CCCCCCCCCCCCCCCCCCCCCCCC(=O)[O-]
REMARK SMILES IDX 13 1 14 2 15 3 16 4 17 5 18 6 19 7 20 8 21 9 22 10 23 11
REMARK SMILES IDX 24 12 25 13 26 14 12 15 11 16 10 17 9 18 8 19 7 20 6 21 5 22
REMARK SMILES IDX 4 23 3 24 2 25 1 26
REMARK H PARENT
REMARK Flexibility Score: inf
ROOT
ATOM      1  C   UNL     1       0.485  58.610  25.196  1.00  0.00     0.000 C 
ENDROOT
BRANCH   1   2
ATOM      2  C   UNL     1      -0.504  59.740  25.537  1.00  0.00     0.000 C 
BRANCH   2   3
ATOM      3  C   UNL     1       0.055  61.136  25.231  1.00  0.00     0.000 C 
BRANCH   3   4
ATOM      4  C   UNL     1       0.149  61.365  23.714  1.00  0.00     0.000 C 
BRANCH   4   5
ATOM      5  C   UNL     1      -1.230  61.532  23.056  1.00  0.00     0.000 C 
BRANCH   5   6
ATOM      6  C   UNL     1      -1.681  63.002  23.001  1.00  0.00     0.000 C 
BRANCH   6   7
ATOM      7  C   UNL     1      -0.583  63.973  23.466  1.00  0.00     0.000 C 
BRANCH   7   8
ATOM      8  C   UNL     1      -1.071  65.430  23.542  1.00  0.00     0.000 C 
BRANCH   8   9
ATOM      9  C   UNL     1      -1.117  66.112  22.165  1.00  0.00     0.000 C 
BRANCH   9  10
ATOM     10  C   UNL     1      -2.518  66.636  21.813  1.00  0.00     0.006 C 
BRANCH  10  11
ATOM     11  C   UNL     1      -3.529  66.288  22.911  1.00  0.00     0.053 C 
BRANCH  11  12
ATOM     12  C   UNL     1      -4.634  65.436  22.364  1.00  0.00     0.041 C 
ATOM     13  O   UNL     1      -5.444  65.913  21.525  1.00  0.00    -0.550 OA
ATOM     14  O   UNL     1      -4.788  64.125  22.804  1.00  0.00    -0.550 OA
ENDBRANCH  11  12
ENDBRANCH  10  11
ENDBRANCH   9  10
ENDBRANCH   8   9
ENDBRANCH   7   8
ENDBRANCH   6   7
ENDBRANCH   5   6
ENDBRANCH   4   5
ENDBRANCH   3   4
ENDBRANCH   2   3
ENDBRANCH   1   2
BRANCH   1  15
ATOM     15  C   UNL     1      -0.166  57.319  24.658  1.00  0.00     0.000 C 
BRANCH  15  16
ATOM     16  C   UNL     1       0.284  56.893  23.246  1.00  0.00     0.000 C 
BRANCH  16  17
ATOM     17  C   UNL     1       0.996  57.986  22.428  1.00  0.00     0.000 C 
BRANCH  17  18
ATOM     18  C   UNL     1       2.317  57.500  21.809  1.00  0.00    -0.000 C 
BRANCH  18  19
ATOM     19  C   UNL     1       3.532  58.298  22.312  1.00  0.00    -0.000 C 
BRANCH  19  20
ATOM     20  C   UNL     1       3.622  58.333  23.848  1.00  0.00    -0.000 C 
BRANCH  20  21
ATOM     21  C   UNL     1       4.107  57.002  24.442  1.00  0.00    -0.000 C 
BRANCH  21  22
ATOM     22  C   UNL     1       3.090  56.378  25.415  1.00  0.00    -0.000 C 
BRANCH  22  23
ATOM     23  C   UNL     1       2.807  54.896  25.092  1.00  0.00    -0.000 C 
BRANCH  23  24
ATOM     24  C   UNL     1       3.405  54.429  23.753  1.00  0.00    -0.000 C 
BRANCH  24  25
ATOM     25  C   UNL     1       2.416  53.621  22.903  1.00  0.00    -0.003 C 
ATOM     26  C   UNL     1       2.524  53.997  21.427  1.00  0.00     0.004 C 
ENDBRANCH  24  25
ENDBRANCH  23  24
ENDBRANCH  22  23
ENDBRANCH  21  22
ENDBRANCH  20  21
ENDBRANCH  19  20
ENDBRANCH  18  19
ENDBRANCH  17  18
ENDBRANCH  16  17
ENDBRANCH  15  16
ENDBRANCH   1  15
TORSDOF 22
ENDMDL
MODEL 3
REMARK VINA RESULT:    -4.618      3.740     10.681
REMARK INTER + INTRA:         -12.721
REMARK INTER:                 -11.025
REMARK INTRA:                  -1.696
REMARK UNBOUND:                -2.164
REMARK SMILES CCCCCCCCCCCCCCCCCCCCCCCC(=O)[O-]
REMARK SMILES IDX 13 1 14 2 15 3 16 4 17 5 18 6 19 7 20 8 21 9 22 10 23 11
REMARK SMILES IDX 24 12 25 13 26 14 12 15 11 16 10 17 9 18 8 19 7 20 6 21 5 22
REMARK SMILES IDX 4 23 3 24 2 25 1 26
REMARK H PARENT
REMARK Flexibility Score: inf
ROOT
ATOM      1  C   UNL     1       2.384  53.247  21.927  1.00  0.00     0.000 C 
ENDROOT
BRANCH   1   2
ATOM      2  C   UNL     1       2.122  54.578  22.655  1.00  0.00     0.000 C 
BRANCH   2   3
ATOM      3  C   UNL     1       2.045  55.777  21.699  1.00  0.00     0.000 C 
BRANCH   3   4
ATOM      4  C   UNL     1       2.243  57.096  22.463  1.00  0.00     0.000 C 
BRANCH   4   5
ATOM      5  C   UNL     1       2.936  56.895  23.819  1.00  0.00     0.000 C 
BRANCH   5   6
ATOM      6  C   UNL     1       2.029  57.271  25.004  1.00  0.00     0.000 C 
BRANCH   6   7
ATOM      7  C   UNL     1       0.621  57.695  24.557  1.00  0.00     0.000 C 
BRANCH   7   8
ATOM      8  C   UNL     1      -0.102  58.559  25.606  1.00  0.00     0.000 C 
BRANCH   8   9
ATOM      9  C   UNL     1      -0.161  60.043  25.212  1.00  0.00     0.000 C 
BRANCH   9  10
ATOM     10  C   UNL     1       0.487  60.318  23.846  1.00  0.00     0.006 C 
BRANCH  10  11
ATOM     11  C   UNL     1       1.250  61.647  23.856  1.00  0.00     0.053 C 
BRANCH  11  12
ATOM     12  C   UNL     1       2.657  61.454  23.379  1.00  0.00     0.041 C 
ATOM     13  O   UNL     1       3.544  62.302  23.668  1.00  0.00    -0.550 OA
ATOM     14  O   UNL     1       2.983  60.357  22.588  1.00  0.00    -0.550 OA
ENDBRANCH  11  12
ENDBRANCH  10  11
ENDBRANCH   9  10
ENDBRANCH   8   9
ENDBRANCH   7   8
ENDBRANCH   6   7
ENDBRANCH   5   6
ENDBRANCH   4   5
ENDBRANCH   3   4
ENDBRANCH   2   3
ENDBRANCH   1   2
BRANCH   1  15
ATOM     15  C   UNL     1       1.633  52.031  22.507  1.00  0.00     0.000 C 
BRANCH  15  16
ATOM     16  C   UNL     1       2.518  50.823  22.872  1.00  0.00     0.000 C 
BRANCH  16  17
ATOM     17  C   UNL     1       1.806  49.457  22.843  1.00  0.00     0.000 C 
BRANCH  17  18
ATOM     18  C   UNL     1       2.740  48.310  22.425  1.00  0.00    -0.000 C 
BRANCH  18  19
ATOM     19  C   UNL     1       2.621  47.086  23.348  1.00  0.00    -0.000 C 
BRANCH  19  20
ATOM     20  C   UNL     1       1.976  47.427  24.703  1.00  0.00    -0.000 C 
BRANCH  20  21
ATOM     21  C   UNL     1       3.007  47.539  25.836  1.00  0.00    -0.000 C 
BRANCH  21  22
ATOM     22  C   UNL     1       4.213  48.420  25.459  1.00  0.00    -0.000 C 
BRANCH  22  23
ATOM     23  C   UNL     1       5.541  47.860  26.013  1.00  0.00    -0.000 C 
BRANCH  23  24
ATOM     24  C   UNL     1       6.786  48.616  25.516  1.00  0.00    -0.000 C 
BRANCH  24  25
ATOM     25  C   UNL     1       6.747  48.910  24.010  1.00  0.00    -0.003 C 
ATOM     26  C   UNL     1       6.843  47.623  23.195  1.00  0.00     0.004 C 
ENDBRANCH  24  25
ENDBRANCH  23  24
ENDBRANCH  22  23
ENDBRANCH  21  22
ENDBRANCH  20  21
ENDBRANCH  19  20
ENDBRANCH  18  19
ENDBRANCH  17  18
ENDBRANCH  16  17
ENDBRANCH  15  16
ENDBRANCH   1  15
TORSDOF 22
ENDMDL
MODEL 4
REMARK VINA RESULT:    -4.612      4.322     10.715
REMARK INTER + INTRA:         -12.707
REMARK INTER:                 -10.392
REMARK INTRA:                  -2.315
REMARK UNBOUND:                -2.164
REMARK SMILES CCCCCCCCCCCCCCCCCCCCCCCC(=O)[O-]
REMARK SMILES IDX 13 1 14 2 15 3 16 4 17 5 18 6 19 7 20 8 21 9 22 10 23 11
REMARK SMILES IDX 24 12 25 13 26 14 12 15 11 16 10 17 9 18 8 19 7 20 6 21 5 22
REMARK SMILES IDX 4 23 3 24 2 25 1 26
REMARK H PARENT
REMARK Flexibility Score: inf
ROOT
ATOM      1  C   UNL     1       1.755  51.688  22.648  1.00  0.00     0.000 C 
ENDROOT
BRANCH   1   2
ATOM      2  C   UNL     1       2.351  53.001  22.107  1.00  0.00     0.000 C 
BRANCH   2   3
ATOM      3  C   UNL     1       2.189  54.176  23.081  1.00  0.00     0.000 C 
BRANCH   3   4
ATOM      4  C   UNL     1       3.438  54.329  23.963  1.00  0.00     0.000 C 
BRANCH   4   5
ATOM      5  C   UNL     1       3.103  54.828  25.378  1.00  0.00     0.000 C 
BRANCH   5   6
ATOM      6  C   UNL     1       3.058  56.364  25.464  1.00  0.00     0.000 C 
BRANCH   6   7
ATOM      7  C   UNL     1       3.668  57.041  24.226  1.00  0.00     0.000 C 
BRANCH   7   8
ATOM      8  C   UNL     1       3.179  58.488  24.038  1.00  0.00     0.000 C 
BRANCH   8   9
ATOM      9  C   UNL     1       2.044  58.600  23.009  1.00  0.00     0.000 C 
BRANCH   9  10
ATOM     10  C   UNL     1       0.667  58.274  23.609  1.00  0.00     0.006 C 
BRANCH  10  11
ATOM     11  C   UNL     1       0.432  59.056  24.906  1.00  0.00     0.053 C 
BRANCH  11  12
ATOM     12  C   UNL     1      -0.051  60.443  24.608  1.00  0.00     0.041 C 
ATOM     13  O   UNL     1      -0.138  61.294  25.534  1.00  0.00    -0.550 OA
ATOM     14  O   UNL     1      -0.434  60.788  23.316  1.00  0.00    -0.550 OA
ENDBRANCH  11  12
ENDBRANCH  10  11
ENDBRANCH   9  10
ENDBRANCH   8   9
ENDBRANCH   7   8
ENDBRANCH   6   7
ENDBRANCH   5   6
ENDBRANCH   4   5
ENDBRANCH   3   4
ENDBRANCH   2   3
ENDBRANCH   1   2
BRANCH   1  15
ATOM     15  C   UNL     1       2.699  50.470  22.579  1.00  0.00     0.000 C 
BRANCH  15  16
ATOM     16  C   UNL     1       2.178  49.193  23.268  1.00  0.00     0.000 C 
BRANCH  16  17
ATOM     17  C   UNL     1       1.099  48.421  22.486  1.00  0.00     0.000 C 
BRANCH  17  18
ATOM     18  C   UNL     1       1.674  47.238  21.690  1.00  0.00    -0.000 C 
BRANCH  18  19
ATOM     19  C   UNL     1       3.107  46.880  22.117  1.00  0.00    -0.000 C 
BRANCH  19  20
ATOM     20  C   UNL     1       4.151  47.237  21.044  1.00  0.00    -0.000 C 
BRANCH  20  21
ATOM     21  C   UNL     1       5.369  47.972  21.627  1.00  0.00    -0.000 C 
BRANCH  21  22
ATOM     22  C   UNL     1       5.887  47.329  22.926  1.00  0.00    -0.000 C 
BRANCH  22  23
ATOM     23  C   UNL     1       6.397  48.380  23.935  1.00  0.00    -0.000 C 
BRANCH  23  24
ATOM     24  C   UNL     1       5.448  48.606  25.125  1.00  0.00    -0.000 C 
BRANCH  24  25
ATOM     25  C   UNL     1       4.686  47.338  25.534  1.00  0.00    -0.003 C 
ATOM     26  C   UNL     1       3.387  47.686  26.256  1.00  0.00     0.004 C 
ENDBRANCH  24  25
ENDBRANCH  23  24
ENDBRANCH  22  23
ENDBRANCH  21  22
ENDBRANCH  20  21
ENDBRANCH  19  20
ENDBRANCH  18  19
ENDBRANCH  17  18
ENDBRANCH  16  17
ENDBRANCH  15  16
ENDBRANCH   1  15
TORSDOF 22
ENDMDL
MODEL 5
REMARK VINA RESULT:    -4.599      1.604      2.664
REMARK INTER + INTRA:         -12.677
REMARK INTER:                 -10.644
REMARK INTRA:                  -2.033
REMARK UNBOUND:                -2.164
REMARK SMILES CCCCCCCCCCCCCCCCCCCCCCCC(=O)[O-]
REMARK SMILES IDX 13 1 14 2 15 3 16 4 17 5 18 6 19 7 20 8 21 9 22 10 23 11
REMARK SMILES IDX 24 12 25 13 26 14 12 15 11 16 10 17 9 18 8 19 7 20 6 21 5 22
REMARK SMILES IDX 4 23 3 24 2 25 1 26
REMARK H PARENT
REMARK Flexibility Score: inf
ROOT
ATOM      1  C   UNL     1       2.370  52.878  22.142  1.00  0.00     0.000 C 
ENDROOT
BRANCH   1   2
ATOM      2  C   UNL     1       1.662  51.650  22.741  1.00  0.00     0.000 C 
BRANCH   2   3
ATOM      3  C   UNL     1       2.573  50.418  22.829  1.00  0.00     0.000 C 
BRANCH   3   4
ATOM      4  C   UNL     1       1.743  49.125  22.848  1.00  0.00     0.000 C 
BRANCH   4   5
ATOM      5  C   UNL     1       2.536  47.907  22.347  1.00  0.00     0.000 C 
BRANCH   5   6
ATOM      6  C   UNL     1       3.538  47.389  23.394  1.00  0.00     0.000 C 
BRANCH   6   7
ATOM      7  C   UNL     1       2.873  47.083  24.745  1.00  0.00     0.000 C 
BRANCH   7   8
ATOM      8  C   UNL     1       3.748  47.489  25.945  1.00  0.00     0.000 C 
BRANCH   8   9
ATOM      9  C   UNL     1       5.236  47.178  25.724  1.00  0.00     0.000 C 
BRANCH   9  10
ATOM     10  C   UNL     1       6.154  48.321  26.184  1.00  0.00     0.006 C 
BRANCH  10  11
ATOM     11  C   UNL     1       6.938  48.907  25.005  1.00  0.00     0.053 C 
BRANCH  11  12
ATOM     12  C   UNL     1       8.215  49.533  25.477  1.00  0.00     0.041 C 
ATOM     13  O   UNL     1       8.217  50.719  25.905  1.00  0.00    -0.550 OA
ATOM     14  O   UNL     1       9.408  48.820  25.414  1.00  0.00    -0.550 OA
ENDBRANCH  11  12
ENDBRANCH  10  11
ENDBRANCH   9  10
ENDBRANCH   8   9
ENDBRANCH   7   8
ENDBRANCH   6   7
ENDBRANCH   5   6
ENDBRANCH   4   5
ENDBRANCH   3   4
ENDBRANCH   2   3
ENDBRANCH   1   2
BRANCH   1  15
ATOM     15  C   UNL     1       2.308  54.151  23.011  1.00  0.00     0.000 C 
BRANCH  15  16
ATOM     16  C   UNL     1       3.458  54.313  24.027  1.00  0.00     0.000 C 
BRANCH  16  17
ATOM     17  C   UNL     1       3.047  54.888  25.395  1.00  0.00     0.000 C 
BRANCH  17  18
ATOM     18  C   UNL     1       2.900  56.418  25.376  1.00  0.00    -0.000 C 
BRANCH  18  19
ATOM     19  C   UNL     1       3.910  57.096  24.435  1.00  0.00    -0.000 C 
BRANCH  19  20
ATOM     20  C   UNL     1       3.311  58.308  23.698  1.00  0.00    -0.000 C 
BRANCH  20  21
ATOM     21  C   UNL     1       2.840  57.960  22.277  1.00  0.00    -0.000 C 
BRANCH  21  22
ATOM     22  C   UNL     1       1.417  57.371  22.250  1.00  0.00    -0.000 C 
BRANCH  22  23
ATOM     23  C   UNL     1       0.409  58.241  23.030  1.00  0.00    -0.000 C 
BRANCH  23  24
ATOM     24  C   UNL     1       0.038  57.672  24.411  1.00  0.00    -0.000 C 
BRANCH  24  25
ATOM     25  C   UNL     1       0.023  58.737  25.515  1.00  0.00    -0.003 C 
ATOM     26  C   UNL     1       0.067  60.144  24.923  1.00  0.00     0.004 C 
ENDBRANCH  24  25
ENDBRANCH  23  24
ENDBRANCH  22  23
ENDBRANCH  21  22
ENDBRANCH  20  21
ENDBRANCH  19  20
ENDBRANCH  18  19
ENDBRANCH  17  18
ENDBRANCH  16  17
ENDBRANCH  15  16
ENDBRANCH   1  15
TORSDOF 22
ENDMDL
MODEL 6
REMARK VINA RESULT:    -4.534      1.195      1.747
REMARK INTER + INTRA:         -12.530
REMARK INTER:                 -10.612
REMARK INTRA:                  -1.918
REMARK UNBOUND:                -2.164
REMARK SMILES CCCCCCCCCCCCCCCCCCCCCCCC(=O)[O-]
REMARK SMILES IDX 13 1 14 2 15 3 16 4 17 5 18 6 19 7 20 8 21 9 22 10 23 11
REMARK SMILES IDX 24 12 25 13 26 14 12 15 11 16 10 17 9 18 8 19 7 20 6 21 5 22
REMARK SMILES IDX 4 23 3 24 2 25 1 26
REMARK H PARENT
REMARK Flexibility Score: inf
ROOT
ATOM      1  C   UNL     1       1.902  54.145  22.327  1.00  0.00     0.000 C 
ENDROOT
BRANCH   1   2
ATOM      2  C   UNL     1       2.551  52.852  22.852  1.00  0.00     0.000 C 
BRANCH   2   3
ATOM      3  C   UNL     1       1.716  51.600  22.552  1.00  0.00     0.000 C 
BRANCH   3   4
ATOM      4  C   UNL     1       2.527  50.324  22.829  1.00  0.00     0.000 C 
BRANCH   4   5
ATOM      5  C   UNL     1       1.642  49.069  22.912  1.00  0.00     0.000 C 
BRANCH   5   6
ATOM      6  C   UNL     1       2.449  47.804  23.254  1.00  0.00     0.000 C 
BRANCH   6   7
ATOM      7  C   UNL     1       2.325  47.409  24.734  1.00  0.00     0.000 C 
BRANCH   7   8
ATOM      8  C   UNL     1       3.579  47.764  25.552  1.00  0.00     0.000 C 
BRANCH   8   9
ATOM      9  C   UNL     1       4.766  48.177  24.667  1.00  0.00     0.000 C 
BRANCH   9  10
ATOM     10  C   UNL     1       6.057  48.390  25.471  1.00  0.00     0.006 C 
BRANCH  10  11
ATOM     11  C   UNL     1       7.184  48.916  24.576  1.00  0.00     0.053 C 
BRANCH  11  12
ATOM     12  C   UNL     1       8.269  49.540  25.400  1.00  0.00     0.041 C 
ATOM     13  O   UNL     1       8.108  50.691  25.887  1.00  0.00    -0.550 OA
ATOM     14  O   UNL     1       9.469  48.865  25.603  1.00  0.00    -0.550 OA
ENDBRANCH  11  12
ENDBRANCH  10  11
ENDBRANCH   9  10
ENDBRANCH   8   9
ENDBRANCH   7   8
ENDBRANCH   6   7
ENDBRANCH   5   6
ENDBRANCH   4   5
ENDBRANCH   3   4
ENDBRANCH   2   3
ENDBRANCH   1   2
BRANCH   1  15
ATOM     15  C   UNL     1       2.353  54.572  20.915  1.00  0.00     0.000 C 
BRANCH  15  16
ATOM     16  C   UNL     1       2.314  56.089  20.641  1.00  0.00     0.000 C 
BRANCH  16  17
ATOM     17  C   UNL     1       1.991  56.967  21.863  1.00  0.00     0.000 C 
BRANCH  17  18
ATOM     18  C   UNL     1       3.068  58.031  22.131  1.00  0.00    -0.000 C 
BRANCH  18  19
ATOM     19  C   UNL     1       3.559  58.019  23.589  1.00  0.00    -0.000 C 
BRANCH  19  20
ATOM     20  C   UNL     1       2.976  56.850  24.401  1.00  0.00    -0.000 C 
BRANCH  20  21
ATOM     21  C   UNL     1       1.956  57.312  25.453  1.00  0.00    -0.000 C 
BRANCH  21  22
ATOM     22  C   UNL     1       0.595  57.688  24.838  1.00  0.00    -0.000 C 
BRANCH  22  23
ATOM     23  C   UNL     1      -0.133  58.778  25.654  1.00  0.00    -0.000 C 
BRANCH  23  24
ATOM     24  C   UNL     1       0.163  60.211  25.174  1.00  0.00    -0.000 C 
BRANCH  24  25
ATOM     25  C   UNL     1       0.701  60.264  23.738  1.00  0.00    -0.003 C 
ATOM     26  C   UNL     1       1.723  61.386  23.574  1.00  0.00     0.004 C 
ENDBRANCH  24  25
ENDBRANCH  23  24
ENDBRANCH  22  23
ENDBRANCH  21  22
ENDBRANCH  20  21
ENDBRANCH  19  20
ENDBRANCH  18  19
ENDBRANCH  17  18
ENDBRANCH  16  17
ENDBRANCH  15  16
ENDBRANCH   1  15
TORSDOF 22
ENDMDL
MODEL 7
REMARK VINA RESULT:    -4.525      3.796     10.832
REMARK INTER + INTRA:         -12.509
REMARK INTER:                 -10.812
REMARK INTRA:                  -1.696
REMARK UNBOUND:                -2.164
REMARK SMILES CCCCCCCCCCCCCCCCCCCCCCCC(=O)[O-]
REMARK SMILES IDX 13 1 14 2 15 3 16 4 17 5 18 6 19 7 20 8 21 9 22 10 23 11
REMARK SMILES IDX 24 12 25 13 26 14 12 15 11 16 10 17 9 18 8 19 7 20 6 21 5 22
REMARK SMILES IDX 4 23 3 24 2 25 1 26
REMARK H PARENT
REMARK Flexibility Score: inf
ROOT
ATOM      1  C   UNL     1       2.437  51.452  22.815  1.00  0.00     0.000 C 
ENDROOT
BRANCH   1   2
ATOM      2  C   UNL     1       1.771  52.749  22.322  1.00  0.00     0.000 C 
BRANCH   2   3
ATOM      3  C   UNL     1       2.640  53.526  21.324  1.00  0.00     0.000 C 
BRANCH   3   4
ATOM      4  C   UNL     1       2.400  55.038  21.453  1.00  0.00     0.000 C 
BRANCH   4   5
ATOM      5  C   UNL     1       1.885  55.436  22.846  1.00  0.00     0.000 C 
BRANCH   5   6
ATOM      6  C   UNL     1       1.792  56.963  23.023  1.00  0.00     0.000 C 
BRANCH   6   7
ATOM      7  C   UNL     1       0.479  57.399  23.693  1.00  0.00     0.000 C 
BRANCH   7   8
ATOM      8  C   UNL     1       0.699  58.021  25.083  1.00  0.00     0.000 C 
BRANCH   8   9
ATOM      9  C   UNL     1       0.168  59.461  25.178  1.00  0.00     0.000 C 
BRANCH   9  10
ATOM     10  C   UNL     1       0.233  60.204  23.834  1.00  0.00     0.006 C 
BRANCH  10  11
ATOM     11  C   UNL     1       1.079  61.476  23.948  1.00  0.00     0.053 C 
BRANCH  11  12
ATOM     12  C   UNL     1       2.476  61.229  23.464  1.00  0.00     0.041 C 
ATOM     13  O   UNL     1       2.759  60.151  22.877  1.00  0.00    -0.550 OA
ATOM     14  O   UNL     1       3.471  62.175  23.690  1.00  0.00    -0.550 OA
ENDBRANCH  11  12
ENDBRANCH  10  11
ENDBRANCH   9  10
ENDBRANCH   8   9
ENDBRANCH   7   8
ENDBRANCH   6   7
ENDBRANCH   5   6
ENDBRANCH   4   5
ENDBRANCH   3   4
ENDBRANCH   2   3
ENDBRANCH   1   2
BRANCH   1  15
ATOM     15  C   UNL     1       1.522  50.210  22.814  1.00  0.00     0.000 C 
BRANCH  15  16
ATOM     16  C   UNL     1       2.252  48.852  22.825  1.00  0.00     0.000 C 
BRANCH  16  17
ATOM     17  C   UNL     1       1.354  47.627  23.076  1.00  0.00     0.000 C 
BRANCH  17  18
ATOM     18  C   UNL     1       1.629  46.957  24.432  1.00  0.00    -0.000 C 
BRANCH  18  19
ATOM     19  C   UNL     1       2.701  47.697  25.250  1.00  0.00    -0.000 C 
BRANCH  19  20
ATOM     20  C   UNL     1       3.992  46.875  25.414  1.00  0.00    -0.000 C 
BRANCH  20  21
ATOM     21  C   UNL     1       5.111  47.667  26.108  1.00  0.00    -0.000 C 
BRANCH  21  22
ATOM     22  C   UNL     1       5.948  48.503  25.123  1.00  0.00    -0.000 C 
BRANCH  22  23
ATOM     23  C   UNL     1       6.547  47.643  23.990  1.00  0.00    -0.000 C 
BRANCH  23  24
ATOM     24  C   UNL     1       6.095  48.071  22.583  1.00  0.00    -0.000 C 
BRANCH  24  25
ATOM     25  C   UNL     1       5.048  47.128  21.975  1.00  0.00    -0.003 C 
ATOM     26  C   UNL     1       4.482  47.697  20.677  1.00  0.00     0.004 C 
ENDBRANCH  24  25
ENDBRANCH  23  24
ENDBRANCH  22  23
ENDBRANCH  21  22
ENDBRANCH  20  21
ENDBRANCH  19  20
ENDBRANCH  18  19
ENDBRANCH  17  18
ENDBRANCH  16  17
ENDBRANCH  15  16
ENDBRANCH   1  15
TORSDOF 22
ENDMDL
MODEL 8
REMARK VINA RESULT:    -4.500      4.323     10.714
REMARK INTER + INTRA:         -12.452
REMARK INTER:                 -10.401
REMARK INTRA:                  -2.051
REMARK UNBOUND:                -2.164
REMARK SMILES CCCCCCCCCCCCCCCCCCCCCCCC(=O)[O-]
REMARK SMILES IDX 13 1 14 2 15 3 16 4 17 5 18 6 19 7 20 8 21 9 22 10 23 11
REMARK SMILES IDX 24 12 25 13 26 14 12 15 11 16 10 17 9 18 8 19 7 20 6 21 5 22
REMARK SMILES IDX 4 23 3 24 2 25 1 26
REMARK H PARENT
REMARK Flexibility Score: inf
ROOT
ATOM      1  C   UNL     1       2.242  50.767  22.892  1.00  0.00     0.000 C 
ENDROOT
BRANCH   1   2
ATOM      2  C   UNL     1       1.441  51.986  22.400  1.00  0.00     0.000 C 
BRANCH   2   3
ATOM      3  C   UNL     1       2.334  53.102  21.841  1.00  0.00     0.000 C 
BRANCH   3   4
ATOM      4  C   UNL     1       2.409  54.283  22.822  1.00  0.00     0.000 C 
BRANCH   4   5
ATOM      5  C   UNL     1       3.360  54.013  23.999  1.00  0.00     0.000 C 
BRANCH   5   6
ATOM      6  C   UNL     1       3.437  55.200  24.976  1.00  0.00     0.000 C 
BRANCH   6   7
ATOM      7  C   UNL     1       2.535  56.370  24.553  1.00  0.00     0.000 C 
BRANCH   7   8
ATOM      8  C   UNL     1       3.125  57.741  24.929  1.00  0.00     0.000 C 
BRANCH   8   9
ATOM      9  C   UNL     1       3.130  58.727  23.750  1.00  0.00     0.000 C 
BRANCH   9  10
ATOM     10  C   UNL     1       1.713  59.130  23.310  1.00  0.00     0.006 C 
BRANCH  10  11
ATOM     11  C   UNL     1       1.519  60.647  23.400  1.00  0.00     0.053 C 
BRANCH  11  12
ATOM     12  C   UNL     1       0.200  60.976  24.030  1.00  0.00     0.041 C 
ATOM     13  O   UNL     1       0.024  60.788  25.264  1.00  0.00    -0.550 OA
ATOM     14  O   UNL     1      -0.846  61.461  23.250  1.00  0.00    -0.550 OA
ENDBRANCH  11  12
ENDBRANCH  10  11
ENDBRANCH   9  10
ENDBRANCH   8   9
ENDBRANCH   7   8
ENDBRANCH   6   7
ENDBRANCH   5   6
ENDBRANCH   4   5
ENDBRANCH   3   4
ENDBRANCH   2   3
ENDBRANCH   1   2
BRANCH   1  15
ATOM     15  C   UNL     1       1.470  49.432  22.872  1.00  0.00     0.000 C 
BRANCH  15  16
ATOM     16  C   UNL     1       2.144  48.269  23.628  1.00  0.00     0.000 C 
BRANCH  16  17
ATOM     17  C   UNL     1       2.172  46.927  22.875  1.00  0.00     0.000 C 
BRANCH  17  18
ATOM     18  C   UNL     1       2.721  47.059  21.445  1.00  0.00    -0.000 C 
BRANCH  18  19
ATOM     19  C   UNL     1       4.246  46.875  21.380  1.00  0.00    -0.000 C 
BRANCH  19  20
ATOM     20  C   UNL     1       5.000  48.212  21.261  1.00  0.00    -0.000 C 
BRANCH  20  21
ATOM     21  C   UNL     1       6.144  48.337  22.279  1.00  0.00    -0.000 C 
BRANCH  21  22
ATOM     22  C   UNL     1       6.049  47.299  23.412  1.00  0.00    -0.000 C 
BRANCH  22  23
ATOM     23  C   UNL     1       5.796  47.956  24.786  1.00  0.00    -0.000 C 
BRANCH  23  24
ATOM     24  C   UNL     1       6.362  49.383  24.902  1.00  0.00    -0.000 C 
BRANCH  24  25
ATOM     25  C   UNL     1       7.712  49.435  25.632  1.00  0.00    -0.003 C 
ATOM     26  C   UNL     1       7.627  48.753  26.995  1.00  0.00     0.004 C 
ENDBRANCH  24  25
ENDBRANCH  23  24
ENDBRANCH  22  23
ENDBRANCH  21  22
ENDBRANCH  20  21
ENDBRANCH  19  20
ENDBRANCH  18  19
ENDBRANCH  17  18
ENDBRANCH  16  17
ENDBRANCH  15  16
ENDBRANCH   1  15
TORSDOF 22
ENDMDL
MODEL 9
REMARK VINA RESULT:    -4.478      1.334      2.419
REMARK INTER + INTRA:         -12.400
REMARK INTER:                 -10.483
REMARK INTRA:                  -1.917
REMARK UNBOUND:                -2.164
REMARK SMILES CCCCCCCCCCCCCCCCCCCCCCCC(=O)[O-]
REMARK SMILES IDX 13 1 14 2 15 3 16 4 17 5 18 6 19 7 20 8 21 9 22 10 23 11
REMARK SMILES IDX 24 12 25 13 26 14 12 15 11 16 10 17 9 18 8 19 7 20 6 21 5 22
REMARK SMILES IDX 4 23 3 24 2 25 1 26
REMARK H PARENT
REMARK Flexibility Score: inf
ROOT
ATOM      1  C   UNL     1       2.751  53.906  23.348  1.00  0.00     0.000 C 
ENDROOT
BRANCH   1   2
ATOM      2  C   UNL     1       2.001  53.312  22.143  1.00  0.00     0.000 C 
BRANCH   2   3
ATOM      3  C   UNL     1       1.337  51.964  22.458  1.00  0.00     0.000 C 
BRANCH   3   4
ATOM      4  C   UNL     1       2.389  50.921  22.869  1.00  0.00     0.000 C 
BRANCH   4   5
ATOM      5  C   UNL     1       1.827  49.490  22.880  1.00  0.00     0.000 C 
BRANCH   5   6
ATOM      6  C   UNL     1       2.918  48.433  23.126  1.00  0.00     0.000 C 
BRANCH   6   7
ATOM      7  C   UNL     1       2.504  47.393  24.179  1.00  0.00     0.000 C 
BRANCH   7   8
ATOM      8  C   UNL     1       3.192  47.615  25.537  1.00  0.00     0.000 C 
BRANCH   8   9
ATOM      9  C   UNL     1       4.344  48.629  25.458  1.00  0.00     0.000 C 
BRANCH   9  10
ATOM     10  C   UNL     1       5.721  47.954  25.366  1.00  0.00     0.006 C 
BRANCH  10  11
ATOM     11  C   UNL     1       6.783  48.934  24.856  1.00  0.00     0.053 C 
BRANCH  11  12
ATOM     12  C   UNL     1       7.756  49.274  25.944  1.00  0.00     0.041 C 
ATOM     13  O   UNL     1       7.641  48.747  27.082  1.00  0.00    -0.550 OA
ATOM     14  O   UNL     1       8.772  50.196  25.710  1.00  0.00    -0.550 OA
ENDBRANCH  11  12
ENDBRANCH  10  11
ENDBRANCH   9  10
ENDBRANCH   8   9
ENDBRANCH   7   8
ENDBRANCH   6   7
ENDBRANCH   5   6
ENDBRANCH   4   5
ENDBRANCH   3   4
ENDBRANCH   2   3
ENDBRANCH   1   2
BRANCH   1  15
ATOM     15  C   UNL     1       2.614  55.434  23.509  1.00  0.00     0.000 C 
BRANCH  15  16
ATOM     16  C   UNL     1       3.033  55.993  24.884  1.00  0.00     0.000 C 
BRANCH  16  17
ATOM     17  C   UNL     1       2.390  57.339  25.267  1.00  0.00     0.000 C 
BRANCH  17  18
ATOM     18  C   UNL     1       1.029  57.562  24.588  1.00  0.00    -0.000 C 
BRANCH  18  19
ATOM     19  C   UNL     1       0.023  58.278  25.505  1.00  0.00    -0.000 C 
BRANCH  19  20
ATOM     20  C   UNL     1      -0.122  59.773  25.170  1.00  0.00    -0.000 C 
BRANCH  20  21
ATOM     21  C   UNL     1       0.310  60.101  23.732  1.00  0.00    -0.000 C 
BRANCH  21  22
ATOM     22  C   UNL     1       1.187  61.364  23.648  1.00  0.00    -0.000 C 
BRANCH  22  23
ATOM     23  C   UNL     1       2.694  61.032  23.671  1.00  0.00    -0.000 C 
BRANCH  23  24
ATOM     24  C   UNL     1       3.407  61.301  22.334  1.00  0.00    -0.000 C 
BRANCH  24  25
ATOM     25  C   UNL     1       3.360  60.103  21.376  1.00  0.00    -0.003 C 
ATOM     26  C   UNL     1       3.561  58.789  22.128  1.00  0.00     0.004 C 
ENDBRANCH  24  25
ENDBRANCH  23  24
ENDBRANCH  22  23
ENDBRANCH  21  22
ENDBRANCH  20  21
ENDBRANCH  19  20
ENDBRANCH  18  19
ENDBRANCH  17  18
ENDBRANCH  16  17
ENDBRANCH  15  16
ENDBRANCH   1  15
TORSDOF 22
ENDMDL
