MODEL 1
REMARK VINA RESULT:    -3.361      0.000      0.000
REMARK INTER + INTRA:          -4.772
REMARK INTER:                  -4.442
REMARK INTRA:                  -0.330
REMARK UNBOUND:                -0.330
REMARK SMILES CCCCCCCO
REMARK SMILES IDX 5 1 4 2 3 3 2 4 1 5 6 6 7 7 8 8
REMARK H PARENT 8 9
REMARK Flexibility Score: inf
ROOT
ATOM      1  C   UNL     1     177.223 177.833 180.153  1.00  0.00     0.002 C 
ENDROOT
BRANCH   1   2
ATOM      2  C   UNL     1     177.202 177.657 181.679  1.00  0.00     0.000 C 
BRANCH   2   3
ATOM      3  C   UNL     1     175.916 176.983 182.181  1.00  0.00    -0.000 C 
BRANCH   3   4
ATOM      4  C   UNL     1     176.196 175.801 183.123  1.00  0.00    -0.003 C 
ATOM      5  C   UNL     1     176.866 174.651 182.377  1.00  0.00     0.004 C 
ENDBRANCH   3   4
ENDBRANCH   2   3
ENDBRANCH   1   2
BRANCH   1   6
ATOM      6  C   UNL     1     176.059 177.076 179.499  1.00  0.00     0.028 C 
BRANCH   6   7
ATOM      7  C   UNL     1     176.522 176.256 178.293  1.00  0.00     0.156 C 
BRANCH   7   8
ATOM      8  O   UNL     1     177.215 175.117 178.721  1.00  0.00    -0.396 OA
ATOM      9  H   UNL     1     178.116 175.174 178.310  1.00  0.00     0.210 HD
ENDBRANCH   7   8
ENDBRANCH   6   7
ENDBRANCH   1   6
TORSDOF 6
ENDMDL
MODEL 2
REMARK VINA RESULT:    -3.319      1.191      1.697
REMARK INTER + INTRA:          -4.716
REMARK INTER:                  -4.491
REMARK INTRA:                  -0.225
REMARK UNBOUND:                -0.330
REMARK SMILES CCCCCCCO
REMARK SMILES IDX 5 1 4 2 3 3 2 4 1 5 6 6 7 7 8 8
REMARK H PARENT 8 9
REMARK Flexibility Score: inf
ROOT
ATOM      1  C   UNL     1     177.029 176.303 180.891  1.00  0.00     0.002 C 
ENDROOT
BRANCH   1   2
ATOM      2  C   UNL     1     176.995 177.160 182.167  1.00  0.00     0.000 C 
BRANCH   2   3
ATOM      3  C   UNL     1     176.096 176.561 183.259  1.00  0.00    -0.000 C 
BRANCH   3   4
ATOM      4  C   UNL     1     174.804 175.950 182.692  1.00  0.00    -0.003 C 
ATOM      5  C   UNL     1     173.700 176.999 182.590  1.00  0.00     0.004 C 
ENDBRANCH   3   4
ENDBRANCH   2   3
ENDBRANCH   1   2
BRANCH   1   6
ATOM      6  C   UNL     1     176.700 177.150 179.654  1.00  0.00     0.028 C 
BRANCH   6   7
ATOM      7  C   UNL     1     176.503 176.282 178.410  1.00  0.00     0.156 C 
BRANCH   7   8
ATOM      8  O   UNL     1     177.279 175.120 178.504  1.00  0.00    -0.396 OA
ATOM      9  H   UNL     1     176.643 174.379 178.680  1.00  0.00     0.210 HD
ENDBRANCH   7   8
ENDBRANCH   6   7
ENDBRANCH   1   6
TORSDOF 6
ENDMDL
MODEL 3
REMARK VINA RESULT:    -3.215      1.851      3.573
REMARK INTER + INTRA:          -4.578
REMARK INTER:                  -4.351
REMARK INTRA:                  -0.228
REMARK UNBOUND:                -0.330
REMARK SMILES CCCCCCCO
REMARK SMILES IDX 5 1 4 2 3 3 2 4 1 5 6 6 7 7 8 8
REMARK H PARENT 8 9
REMARK Flexibility Score: inf
ROOT
ATOM      1  C   UNL     1     175.874 174.494 182.127  1.00  0.00     0.002 C 
ENDROOT
BRANCH   1   2
ATOM      2  C   UNL     1     176.235 175.522 183.211  1.00  0.00     0.000 C 
BRANCH   2   3
ATOM      3  C   UNL     1     175.978 176.969 182.763  1.00  0.00    -0.000 C 
BRANCH   3   4
ATOM      4  C   UNL     1     177.214 177.618 182.122  1.00  0.00    -0.003 C 
ATOM      5  C   UNL     1     177.069 177.695 180.605  1.00  0.00     0.004 C 
ENDBRANCH   3   4
ENDBRANCH   2   3
ENDBRANCH   1   2
BRANCH   1   6
ATOM      6  C   UNL     1     177.130 173.779 181.611  1.00  0.00     0.028 C 
BRANCH   6   7
ATOM      7  C   UNL     1     176.988 172.257 181.685  1.00  0.00     0.156 C 
BRANCH   7   8
ATOM      8  O   UNL     1     177.463 171.670 180.506  1.00  0.00    -0.396 OA
ATOM      9  H   UNL     1     177.867 172.405 179.976  1.00  0.00     0.210 HD
ENDBRANCH   7   8
ENDBRANCH   6   7
ENDBRANCH   1   6
TORSDOF 6
ENDMDL
MODEL 4
REMARK VINA RESULT:    -3.187      1.804      2.849
REMARK INTER + INTRA:          -4.541
REMARK INTER:                  -4.383
REMARK INTRA:                  -0.158
REMARK UNBOUND:                -0.330
REMARK SMILES CCCCCCCO
REMARK SMILES IDX 5 1 4 2 3 3 2 4 1 5 6 6 7 7 8 8
REMARK H PARENT 8 9
REMARK Flexibility Score: inf
ROOT
ATOM      1  C   UNL     1     176.856 175.045 182.370  1.00  0.00     0.002 C 
ENDROOT
BRANCH   1   2
ATOM      2  C   UNL     1     175.950 175.898 183.270  1.00  0.00     0.000 C 
BRANCH   2   3
ATOM      3  C   UNL     1     175.073 176.876 182.473  1.00  0.00    -0.000 C 
BRANCH   3   4
ATOM      4  C   UNL     1     173.606 176.426 182.395  1.00  0.00    -0.003 C 
ATOM      5  C   UNL     1     172.660 177.591 182.671  1.00  0.00     0.004 C 
ENDBRANCH   3   4
ENDBRANCH   2   3
ENDBRANCH   1   2
BRANCH   1   6
ATOM      6  C   UNL     1     176.975 175.663 180.970  1.00  0.00     0.028 C 
BRANCH   6   7
ATOM      7  C   UNL     1     176.578 174.671 179.876  1.00  0.00     0.156 C 
BRANCH   7   8
ATOM      8  O   UNL     1     177.267 174.958 178.690  1.00  0.00    -0.396 OA
ATOM      9  H   UNL     1     177.903 174.209 178.555  1.00  0.00     0.210 HD
ENDBRANCH   7   8
ENDBRANCH   6   7
ENDBRANCH   1   6
TORSDOF 6
ENDMDL
MODEL 5
REMARK VINA RESULT:    -3.034      2.552      3.559
REMARK INTER + INTRA:          -4.340
REMARK INTER:                  -4.196
REMARK INTRA:                  -0.144
REMARK UNBOUND:                -0.330
REMARK SMILES CCCCCCCO
REMARK SMILES IDX 5 1 4 2 3 3 2 4 1 5 6 6 7 7 8 8
REMARK H PARENT 8 9
REMARK Flexibility Score: inf
ROOT
ATOM      1  C   UNL     1     176.674 174.726 182.638  1.00  0.00     0.002 C 
ENDROOT
BRANCH   1   2
ATOM      2  C   UNL     1     176.922 176.206 182.307  1.00  0.00     0.000 C 
BRANCH   2   3
ATOM      3  C   UNL     1     175.665 177.071 182.486  1.00  0.00    -0.000 C 
BRANCH   3   4
ATOM      4  C   UNL     1     174.385 176.232 182.628  1.00  0.00    -0.003 C 
ATOM      5  C   UNL     1     173.140 177.103 182.488  1.00  0.00     0.004 C 
ENDBRANCH   3   4
ENDBRANCH   2   3
ENDBRANCH   1   2
BRANCH   1   6
ATOM      6  C   UNL     1     177.527 173.815 181.744  1.00  0.00     0.028 C 
BRANCH   6   7
ATOM      7  C   UNL     1     176.914 172.420 181.606  1.00  0.00     0.156 C 
BRANCH   7   8
ATOM      8  O   UNL     1     177.550 171.713 180.578  1.00  0.00    -0.396 OA
ATOM      9  H   UNL     1     178.405 172.186 180.408  1.00  0.00     0.210 HD
ENDBRANCH   7   8
ENDBRANCH   6   7
ENDBRANCH   1   6
TORSDOF 6
ENDMDL
MODEL 6
REMARK VINA RESULT:    -3.022      2.314      3.566
REMARK INTER + INTRA:          -4.323
REMARK INTER:                  -4.002
REMARK INTRA:                  -0.321
REMARK UNBOUND:                -0.330
REMARK SMILES CCCCCCCO
REMARK SMILES IDX 5 1 4 2 3 3 2 4 1 5 6 6 7 7 8 8
REMARK H PARENT 8 9
REMARK Flexibility Score: inf
ROOT
ATOM      1  C   UNL     1     174.322 175.583 182.675  1.00  0.00     0.002 C 
ENDROOT
BRANCH   1   2
ATOM      2  C   UNL     1     175.843 175.691 182.486  1.00  0.00     0.000 C 
BRANCH   2   3
ATOM      3  C   UNL     1     176.439 176.929 183.173  1.00  0.00    -0.000 C 
BRANCH   3   4
ATOM      4  C   UNL     1     177.317 177.764 182.227  1.00  0.00    -0.003 C 
ATOM      5  C   UNL     1     176.997 177.456 180.767  1.00  0.00     0.004 C 
ENDBRANCH   3   4
ENDBRANCH   2   3
ENDBRANCH   1   2
BRANCH   1   6
ATOM      6  C   UNL     1     173.648 176.949 182.482  1.00  0.00     0.028 C 
BRANCH   6   7
ATOM      7  C   UNL     1     172.839 177.003 181.185  1.00  0.00     0.156 C 
BRANCH   7   8
ATOM      8  O   UNL     1     173.625 177.521 180.147  1.00  0.00    -0.396 OA
ATOM      9  H   UNL     1     174.364 176.872 180.012  1.00  0.00     0.210 HD
ENDBRANCH   7   8
ENDBRANCH   6   7
ENDBRANCH   1   6
TORSDOF 6
ENDMDL
MODEL 7
REMARK VINA RESULT:    -2.945     15.329     15.913
REMARK INTER + INTRA:          -4.222
REMARK INTER:                  -4.112
REMARK INTRA:                  -0.110
REMARK UNBOUND:                -0.330
REMARK SMILES CCCCCCCO
REMARK SMILES IDX 5 1 4 2 3 3 2 4 1 5 6 6 7 7 8 8
REMARK H PARENT 8 9
REMARK Flexibility Score: inf
ROOT
ATOM      1  C   UNL     1     160.870 175.371 181.122  1.00  0.00     0.002 C 
ENDROOT
BRANCH   1   2
ATOM      2  C   UNL     1     161.019 176.168 182.427  1.00  0.00     0.000 C 
BRANCH   2   3
ATOM      3  C   UNL     1     161.706 177.526 182.217  1.00  0.00    -0.000 C 
BRANCH   3   4
ATOM      4  C   UNL     1     162.777 177.817 183.280  1.00  0.00    -0.003 C 
ATOM      5  C   UNL     1     164.027 176.973 183.046  1.00  0.00     0.004 C 
ENDBRANCH   3   4
ENDBRANCH   2   3
ENDBRANCH   1   2
BRANCH   1   6
ATOM      6  C   UNL     1     159.931 174.173 181.316  1.00  0.00     0.028 C 
BRANCH   6   7
ATOM      7  C   UNL     1     159.590 173.498 179.986  1.00  0.00     0.156 C 
BRANCH   7   8
ATOM      8  O   UNL     1     158.287 173.833 179.595  1.00  0.00    -0.396 OA
ATOM      9  H   UNL     1     157.900 174.353 180.345  1.00  0.00     0.210 HD
ENDBRANCH   7   8
ENDBRANCH   6   7
ENDBRANCH   1   6
TORSDOF 6
ENDMDL
MODEL 8
REMARK VINA RESULT:    -2.927      1.751      2.773
REMARK INTER + INTRA:          -4.198
REMARK INTER:                  -3.939
REMARK INTRA:                  -0.259
REMARK UNBOUND:                -0.330
REMARK SMILES CCCCCCCO
REMARK SMILES IDX 5 1 4 2 3 3 2 4 1 5 6 6 7 7 8 8
REMARK H PARENT 8 9
REMARK Flexibility Score: inf
ROOT
ATOM      1  C   UNL     1     177.008 176.293 182.045  1.00  0.00     0.002 C 
ENDROOT
BRANCH   1   2
ATOM      2  C   UNL     1     175.960 176.365 183.166  1.00  0.00     0.000 C 
BRANCH   2   3
ATOM      3  C   UNL     1     174.580 175.859 182.719  1.00  0.00    -0.000 C 
BRANCH   3   4
ATOM      4  C   UNL     1     173.550 176.991 182.582  1.00  0.00    -0.003 C 
ATOM      5  C   UNL     1     172.978 177.043 181.168  1.00  0.00     0.004 C 
ENDBRANCH   3   4
ENDBRANCH   2   3
ENDBRANCH   1   2
BRANCH   1   6
ATOM      6  C   UNL     1     177.315 177.691 181.491  1.00  0.00     0.028 C 
BRANCH   6   7
ATOM      7  C   UNL     1     176.780 177.868 180.069  1.00  0.00     0.156 C 
BRANCH   7   8
ATOM      8  O   UNL     1     177.487 177.047 179.182  1.00  0.00    -0.396 OA
ATOM      9  H   UNL     1     177.189 177.306 178.271  1.00  0.00     0.210 HD
ENDBRANCH   7   8
ENDBRANCH   6   7
ENDBRANCH   1   6
TORSDOF 6
ENDMDL
MODEL 9
REMARK VINA RESULT:    -2.913     12.681     13.333
REMARK INTER + INTRA:          -4.180
REMARK INTER:                  -3.904
REMARK INTRA:                  -0.276
REMARK UNBOUND:                -0.330
REMARK SMILES CCCCCCCO
REMARK SMILES IDX 5 1 4 2 3 3 2 4 1 5 6 6 7 7 8 8
REMARK H PARENT 8 9
REMARK Flexibility Score: inf
ROOT
ATOM      1  C   UNL     1     164.398 177.103 182.645  1.00  0.00     0.002 C 
ENDROOT
BRANCH   1   2
ATOM      2  C   UNL     1     163.386 178.048 183.310  1.00  0.00     0.000 C 
BRANCH   2   3
ATOM      3  C   UNL     1     161.969 177.899 182.736  1.00  0.00    -0.000 C 
BRANCH   3   4
ATOM      4  C   UNL     1     161.624 176.443 182.383  1.00  0.00    -0.003 C 
ATOM      5  C   UNL     1     161.253 176.308 180.910  1.00  0.00     0.004 C 
ENDBRANCH   3   4
ENDBRANCH   2   3
ENDBRANCH   1   2
BRANCH   1   6
ATOM      6  C   UNL     1     165.295 177.865 181.660  1.00  0.00     0.028 C 
BRANCH   6   7
ATOM      7  C   UNL     1     164.796 177.733 180.220  1.00  0.00     0.156 C 
BRANCH   7   8
ATOM      8  O   UNL     1     165.881 177.621 179.342  1.00  0.00    -0.396 OA
ATOM      9  H   UNL     1     165.503 177.319 178.476  1.00  0.00     0.210 HD
ENDBRANCH   7   8
ENDBRANCH   6   7
ENDBRANCH   1   6
TORSDOF 6
ENDMDL
