MODEL 1
REMARK VINA RESULT:    -3.430      0.000      0.000
REMARK INTER + INTRA:          -9.286
REMARK INTER:                  -6.438
REMARK INTRA:                  -2.849
REMARK UNBOUND:                -2.849
REMARK SMILES CCCCCCCCC=CCCCCCCCC(=O)[O-]
REMARK SMILES IDX 10 1 9 2 11 3 12 4 13 5 14 6 15 7 16 8 17 9 18 10 19 11
REMARK SMILES IDX 20 12 8 13 7 14 6 15 5 16 4 17 3 18 2 19 1 20
REMARK H PARENT
REMARK Flexibility Score: inf
ROOT
ATOM      1  C   UNL     1       5.668   6.707  -5.105  1.00  0.00    -0.031 C 
ATOM      2  C   UNL     1       5.308   7.881  -5.659  1.00  0.00    -0.031 C 
ENDROOT
BRANCH   1   3
ATOM      3  C   UNL     1       7.078   6.307  -4.748  1.00  0.00     0.027 C 
BRANCH   3   4
ATOM      4  C   UNL     1       7.155   5.711  -3.338  1.00  0.00     0.004 C 
BRANCH   4   5
ATOM      5  C   UNL     1       8.293   6.353  -2.529  1.00  0.00     0.000 C 
BRANCH   5   6
ATOM      6  C   UNL     1       9.488   5.395  -2.342  1.00  0.00     0.000 C 
BRANCH   6   7
ATOM      7  C   UNL     1       9.088   3.911  -2.298  1.00  0.00     0.000 C 
BRANCH   7   8
ATOM      8  C   UNL     1       9.596   3.120  -3.515  1.00  0.00     0.006 C 
BRANCH   8   9
ATOM      9  C   UNL     1       8.582   2.068  -3.986  1.00  0.00     0.053 C 
BRANCH   9  10
ATOM     10  C   UNL     1       7.696   2.596  -5.073  1.00  0.00     0.041 C 
ATOM     11  O   UNL     1       8.196   3.028  -6.145  1.00  0.00    -0.550 OA
ATOM     12  O   UNL     1       6.319   2.635  -4.889  1.00  0.00    -0.550 OA
ENDBRANCH   9  10
ENDBRANCH   8   9
ENDBRANCH   7   8
ENDBRANCH   6   7
ENDBRANCH   5   6
ENDBRANCH   4   5
ENDBRANCH   3   4
ENDBRANCH   1   3
BRANCH   2  13
ATOM     13  C   UNL     1       6.254   8.994  -6.042  1.00  0.00     0.027 C 
BRANCH  13  14
ATOM     14  C   UNL     1       6.380  10.052  -4.932  1.00  0.00     0.004 C 
BRANCH  14  15
ATOM     15  C   UNL     1       7.531   9.817  -3.933  1.00  0.00     0.000 C 
BRANCH  15  16
ATOM     16  C   UNL     1       7.118   9.779  -2.451  1.00  0.00     0.000 C 
BRANCH  16  17
ATOM     17  C   UNL     1       5.607   9.552  -2.256  1.00  0.00    -0.000 C 
BRANCH  17  18
ATOM     18  C   UNL     1       5.301   8.232  -1.518  1.00  0.00    -0.000 C 
BRANCH  18  19
ATOM     19  C   UNL     1       4.095   7.467  -2.088  1.00  0.00    -0.003 C 
ATOM     20  C   UNL     1       3.005   8.387  -2.635  1.00  0.00     0.004 C 
ENDBRANCH  18  19
ENDBRANCH  17  18
ENDBRANCH  16  17
ENDBRANCH  15  16
ENDBRANCH  14  15
ENDBRANCH  13  14
ENDBRANCH   2  13
TORSDOF 15
ENDMDL
MODEL 2
REMARK VINA RESULT:    -3.393      2.828      5.475
REMARK INTER + INTRA:          -9.217
REMARK INTER:                  -6.345
REMARK INTRA:                  -2.872
REMARK UNBOUND:                -2.849
REMARK SMILES CCCCCCCCC=CCCCCCCCC(=O)[O-]
REMARK SMILES IDX 10 1 9 2 11 3 12 4 13 5 14 6 15 7 16 8 17 9 18 10 19 11
REMARK SMILES IDX 20 12 8 13 7 14 6 15 5 16 4 17 3 18 2 19 1 20
REMARK H PARENT
REMARK Flexibility Score: inf
ROOT
ATOM      1  C   UNL     1       9.155   6.807  -3.831  1.00  0.00    -0.031 C 
ATOM      2  C   UNL     1       9.546   7.543  -4.889  1.00  0.00    -0.031 C 
ENDROOT
BRANCH   1   3
ATOM      3  C   UNL     1       7.829   6.098  -3.704  1.00  0.00     0.027 C 
BRANCH   3   4
ATOM      4  C   UNL     1       6.852   6.886  -2.824  1.00  0.00     0.004 C 
BRANCH   4   5
ATOM      5  C   UNL     1       7.588   7.580  -1.668  1.00  0.00     0.000 C 
BRANCH   5   6
ATOM      6  C   UNL     1       6.934   8.924  -1.284  1.00  0.00     0.000 C 
BRANCH   6   7
ATOM      7  C   UNL     1       6.262   9.643  -2.464  1.00  0.00     0.000 C 
BRANCH   7   8
ATOM      8  C   UNL     1       4.753   9.851  -2.256  1.00  0.00     0.006 C 
BRANCH   8   9
ATOM      9  C   UNL     1       3.912   8.909  -3.130  1.00  0.00     0.053 C 
BRANCH   9  10
ATOM     10  C   UNL     1       2.956   8.097  -2.312  1.00  0.00     0.041 C 
ATOM     11  O   UNL     1       3.251   6.921  -1.971  1.00  0.00    -0.550 OA
ATOM     12  O   UNL     1       1.724   8.630  -1.951  1.00  0.00    -0.550 OA
ENDBRANCH   9  10
ENDBRANCH   8   9
ENDBRANCH   7   8
ENDBRANCH   6   7
ENDBRANCH   5   6
ENDBRANCH   4   5
ENDBRANCH   3   4
ENDBRANCH   1   3
BRANCH   2  13
ATOM     13  C   UNL     1       8.719   7.808  -6.125  1.00  0.00     0.027 C 
BRANCH  13  14
ATOM     14  C   UNL     1       8.010   9.172  -6.062  1.00  0.00     0.004 C 
BRANCH  14  15
ATOM     15  C   UNL     1       6.477   9.105  -5.909  1.00  0.00     0.000 C 
BRANCH  15  16
ATOM     16  C   UNL     1       5.763   8.132  -6.865  1.00  0.00     0.000 C 
BRANCH  16  17
ATOM     17  C   UNL     1       4.938   7.063  -6.125  1.00  0.00    -0.000 C 
BRANCH  17  18
ATOM     18  C   UNL     1       4.928   5.710  -6.867  1.00  0.00    -0.000 C 
BRANCH  18  19
ATOM     19  C   UNL     1       5.795   4.629  -6.199  1.00  0.00    -0.003 C 
ATOM     20  C   UNL     1       7.145   4.433  -6.888  1.00  0.00     0.004 C 
ENDBRANCH  18  19
ENDBRANCH  17  18
ENDBRANCH  16  17
ENDBRANCH  15  16
ENDBRANCH  14  15
ENDBRANCH  13  14
ENDBRANCH   2  13
TORSDOF 15
ENDMDL
MODEL 3
REMARK VINA RESULT:    -3.385      2.405      4.424
REMARK INTER + INTRA:          -9.203
REMARK INTER:                  -6.641
REMARK INTRA:                  -2.562
REMARK UNBOUND:                -2.849
REMARK SMILES CCCCCCCCC=CCCCCCCCC(=O)[O-]
REMARK SMILES IDX 10 1 9 2 11 3 12 4 13 5 14 6 15 7 16 8 17 9 18 10 19 11
REMARK SMILES IDX 20 12 8 13 7 14 6 15 5 16 4 17 3 18 2 19 1 20
REMARK H PARENT
REMARK Flexibility Score: inf
ROOT
ATOM      1  C   UNL     1       6.691   6.325  -4.583  1.00  0.00    -0.031 C 
ATOM      2  C   UNL     1       7.441   5.562  -3.764  1.00  0.00    -0.031 C 
ENDROOT
BRANCH   1   3
ATOM      3  C   UNL     1       7.115   7.646  -5.174  1.00  0.00     0.027 C 
BRANCH   3   4
ATOM      4  C   UNL     1       5.906   8.467  -5.641  1.00  0.00     0.004 C 
BRANCH   4   5
ATOM      5  C   UNL     1       4.785   7.553  -6.158  1.00  0.00     0.000 C 
BRANCH   5   6
ATOM      6  C   UNL     1       4.788   7.439  -7.697  1.00  0.00     0.000 C 
BRANCH   6   7
ATOM      7  C   UNL     1       4.998   6.006  -8.210  1.00  0.00     0.000 C 
BRANCH   7   8
ATOM      8  C   UNL     1       4.430   4.941  -7.257  1.00  0.00     0.006 C 
BRANCH   8   9
ATOM      9  C   UNL     1       3.331   4.098  -7.919  1.00  0.00     0.053 C 
BRANCH   9  10
ATOM     10  C   UNL     1       3.493   2.639  -7.620  1.00  0.00     0.041 C 
ATOM     11  O   UNL     1       4.162   2.266  -6.620  1.00  0.00    -0.550 OA
ATOM     12  O   UNL     1       2.927   1.690  -8.463  1.00  0.00    -0.550 OA
ENDBRANCH   9  10
ENDBRANCH   8   9
ENDBRANCH   7   8
ENDBRANCH   6   7
ENDBRANCH   5   6
ENDBRANCH   4   5
ENDBRANCH   3   4
ENDBRANCH   1   3
BRANCH   2  13
ATOM     13  C   UNL     1       8.828   5.905  -3.275  1.00  0.00     0.027 C 
BRANCH  13  14
ATOM     14  C   UNL     1       8.801   6.587  -1.896  1.00  0.00     0.004 C 
BRANCH  14  15
ATOM     15  C   UNL     1       8.666   8.123  -1.929  1.00  0.00     0.000 C 
BRANCH  15  16
ATOM     16  C   UNL     1       7.544   8.703  -1.048  1.00  0.00     0.000 C 
BRANCH  16  17
ATOM     17  C   UNL     1       6.178   8.728  -1.757  1.00  0.00    -0.000 C 
BRANCH  17  18
ATOM     18  C   UNL     1       5.290   7.528  -1.363  1.00  0.00    -0.000 C 
BRANCH  18  19
ATOM     19  C   UNL     1       3.997   7.415  -2.189  1.00  0.00    -0.003 C 
ATOM     20  C   UNL     1       3.511   8.759  -2.728  1.00  0.00     0.004 C 
ENDBRANCH  18  19
ENDBRANCH  17  18
ENDBRANCH  16  17
ENDBRANCH  15  16
ENDBRANCH  14  15
ENDBRANCH  13  14
ENDBRANCH   2  13
TORSDOF 15
ENDMDL
MODEL 4
REMARK VINA RESULT:    -3.376      2.169      6.014
REMARK INTER + INTRA:          -9.184
REMARK INTER:                  -6.603
REMARK INTRA:                  -2.581
REMARK UNBOUND:                -2.849
REMARK SMILES CCCCCCCCC=CCCCCCCCC(=O)[O-]
REMARK SMILES IDX 10 1 9 2 11 3 12 4 13 5 14 6 15 7 16 8 17 9 18 10 19 11
REMARK SMILES IDX 20 12 8 13 7 14 6 15 5 16 4 17 3 18 2 19 1 20
REMARK H PARENT
REMARK Flexibility Score: inf
ROOT
ATOM      1  C   UNL     1       5.447   5.925  -6.069  1.00  0.00    -0.031 C 
ATOM      2  C   UNL     1       6.580   5.344  -5.630  1.00  0.00    -0.031 C 
ENDROOT
BRANCH   1   3
ATOM      3  C   UNL     1       4.996   7.324  -5.729  1.00  0.00     0.027 C 
BRANCH   3   4
ATOM      4  C   UNL     1       5.648   8.364  -6.648  1.00  0.00     0.004 C 
BRANCH   4   5
ATOM      5  C   UNL     1       6.675   9.211  -5.880  1.00  0.00     0.000 C 
BRANCH   5   6
ATOM      6  C   UNL     1       6.083   9.818  -4.591  1.00  0.00     0.000 C 
BRANCH   6   7
ATOM      7  C   UNL     1       6.842   9.418  -3.316  1.00  0.00     0.000 C 
BRANCH   7   8
ATOM      8  C   UNL     1       5.906   9.059  -2.151  1.00  0.00     0.006 C 
BRANCH   8   9
ATOM      9  C   UNL     1       4.428   9.280  -2.505  1.00  0.00     0.053 C 
BRANCH   9  10
ATOM     10  C   UNL     1       3.616   8.037  -2.306  1.00  0.00     0.041 C 
ATOM     11  O   UNL     1       2.359   8.088  -2.341  1.00  0.00    -0.550 OA
ATOM     12  O   UNL     1       4.250   6.827  -2.052  1.00  0.00    -0.550 OA
ENDBRANCH   9  10
ENDBRANCH   8   9
ENDBRANCH   7   8
ENDBRANCH   6   7
ENDBRANCH   5   6
ENDBRANCH   4   5
ENDBRANCH   3   4
ENDBRANCH   1   3
BRANCH   2  13
ATOM     13  C   UNL     1       7.588   5.981  -4.703  1.00  0.00     0.027 C 
BRANCH  13  14
ATOM     14  C   UNL     1       7.256   5.722  -3.224  1.00  0.00     0.004 C 
BRANCH  14  15
ATOM     15  C   UNL     1       8.419   5.962  -2.241  1.00  0.00     0.000 C 
BRANCH  15  16
ATOM     16  C   UNL     1       9.645   5.053  -2.438  1.00  0.00     0.000 C 
BRANCH  16  17
ATOM     17  C   UNL     1       9.303   3.556  -2.332  1.00  0.00    -0.000 C 
BRANCH  17  18
ATOM     18  C   UNL     1       9.979   2.718  -3.439  1.00  0.00    -0.000 C 
BRANCH  18  19
ATOM     19  C   UNL     1       9.198   2.694  -4.764  1.00  0.00    -0.003 C 
ATOM     20  C   UNL     1       7.847   1.992  -4.650  1.00  0.00     0.004 C 
ENDBRANCH  18  19
ENDBRANCH  17  18
ENDBRANCH  16  17
ENDBRANCH  15  16
ENDBRANCH  14  15
ENDBRANCH  13  14
ENDBRANCH   2  13
TORSDOF 15
ENDMDL
MODEL 5
REMARK VINA RESULT:    -3.337      2.548      5.287
REMARK INTER + INTRA:          -9.113
REMARK INTER:                  -6.252
REMARK INTRA:                  -2.861
REMARK UNBOUND:                -2.849
REMARK SMILES CCCCCCCCC=CCCCCCCCC(=O)[O-]
REMARK SMILES IDX 10 1 9 2 11 3 12 4 13 5 14 6 15 7 16 8 17 9 18 10 19 11
REMARK SMILES IDX 20 12 8 13 7 14 6 15 5 16 4 17 3 18 2 19 1 20
REMARK H PARENT
REMARK Flexibility Score: inf
ROOT
ATOM      1  C   UNL     1       7.456   5.617  -2.990  1.00  0.00    -0.031 C 
ATOM      2  C   UNL     1       7.440   5.483  -4.330  1.00  0.00    -0.031 C 
ENDROOT
BRANCH   1   3
ATOM      3  C   UNL     1       8.698   5.701  -2.137  1.00  0.00     0.027 C 
BRANCH   3   4
ATOM      4  C   UNL     1       9.075   7.156  -1.834  1.00  0.00     0.004 C 
BRANCH   4   5
ATOM      5  C   UNL     1       7.821   8.035  -1.703  1.00  0.00     0.000 C 
BRANCH   5   6
ATOM      6  C   UNL     1       7.988   9.397  -2.407  1.00  0.00     0.000 C 
BRANCH   6   7
ATOM      7  C   UNL     1       6.666   9.994  -2.918  1.00  0.00     0.000 C 
BRANCH   7   8
ATOM      8  C   UNL     1       5.641   8.919  -3.317  1.00  0.00     0.006 C 
BRANCH   8   9
ATOM      9  C   UNL     1       4.251   9.197  -2.727  1.00  0.00     0.053 C 
BRANCH   9  10
ATOM     10  C   UNL     1       3.552   7.932  -2.331  1.00  0.00     0.041 C 
ATOM     11  O   UNL     1       2.296   7.900  -2.248  1.00  0.00    -0.550 OA
ATOM     12  O   UNL     1       4.292   6.795  -2.027  1.00  0.00    -0.550 OA
ENDBRANCH   9  10
ENDBRANCH   8   9
ENDBRANCH   7   8
ENDBRANCH   6   7
ENDBRANCH   5   6
ENDBRANCH   4   5
ENDBRANCH   3   4
ENDBRANCH   1   3
BRANCH   2  13
ATOM     13  C   UNL     1       8.661   5.371  -5.213  1.00  0.00     0.027 C 
BRANCH  13  14
ATOM     14  C   UNL     1       9.213   6.751  -5.611  1.00  0.00     0.004 C 
BRANCH  14  15
ATOM     15  C   UNL     1       8.162   7.878  -5.686  1.00  0.00     0.000 C 
BRANCH  15  16
ATOM     16  C   UNL     1       7.527   8.092  -7.072  1.00  0.00     0.000 C 
BRANCH  16  17
ATOM     17  C   UNL     1       6.247   8.945  -7.018  1.00  0.00    -0.000 C 
BRANCH  17  18
ATOM     18  C   UNL     1       4.979   8.123  -7.336  1.00  0.00    -0.000 C 
BRANCH  18  19
ATOM     19  C   UNL     1       4.752   6.937  -6.384  1.00  0.00    -0.003 C 
ATOM     20  C   UNL     1       4.796   5.584  -7.090  1.00  0.00     0.004 C 
ENDBRANCH  18  19
ENDBRANCH  17  18
ENDBRANCH  16  17
ENDBRANCH  15  16
ENDBRANCH  14  15
ENDBRANCH  13  14
ENDBRANCH   2  13
TORSDOF 15
ENDMDL
MODEL 6
REMARK VINA RESULT:    -3.291      2.098      4.209
REMARK INTER + INTRA:          -9.026
REMARK INTER:                  -6.543
REMARK INTRA:                  -2.483
REMARK UNBOUND:                -2.849
REMARK SMILES CCCCCCCCC=CCCCCCCCC(=O)[O-]
REMARK SMILES IDX 10 1 9 2 11 3 12 4 13 5 14 6 15 7 16 8 17 9 18 10 19 11
REMARK SMILES IDX 20 12 8 13 7 14 6 15 5 16 4 17 3 18 2 19 1 20
REMARK H PARENT
REMARK Flexibility Score: inf
ROOT
ATOM      1  C   UNL     1       6.993   6.349  -5.832  1.00  0.00    -0.031 C 
ATOM      2  C   UNL     1       7.884   5.701  -5.056  1.00  0.00    -0.031 C 
ENDROOT
BRANCH   1   3
ATOM      3  C   UNL     1       5.508   6.427  -5.575  1.00  0.00     0.027 C 
BRANCH   3   4
ATOM      4  C   UNL     1       4.805   7.320  -6.605  1.00  0.00     0.004 C 
BRANCH   4   5
ATOM      5  C   UNL     1       4.761   6.641  -7.983  1.00  0.00     0.000 C 
BRANCH   5   6
ATOM      6  C   UNL     1       3.736   5.489  -8.033  1.00  0.00     0.000 C 
BRANCH   6   7
ATOM      7  C   UNL     1       4.368   4.113  -8.300  1.00  0.00     0.000 C 
BRANCH   7   8
ATOM      8  C   UNL     1       4.359   3.201  -7.062  1.00  0.00     0.006 C 
BRANCH   8   9
ATOM      9  C   UNL     1       5.776   2.833  -6.603  1.00  0.00     0.053 C 
BRANCH   9  10
ATOM     10  C   UNL     1       5.760   1.773  -5.544  1.00  0.00     0.041 C 
ATOM     11  O   UNL     1       6.799   1.527  -4.876  1.00  0.00    -0.550 OA
ATOM     12  O   UNL     1       4.604   1.038  -5.314  1.00  0.00    -0.550 OA
ENDBRANCH   9  10
ENDBRANCH   8   9
ENDBRANCH   7   8
ENDBRANCH   6   7
ENDBRANCH   5   6
ENDBRANCH   4   5
ENDBRANCH   3   4
ENDBRANCH   1   3
BRANCH   2  13
ATOM     13  C   UNL     1       7.552   4.921  -3.807  1.00  0.00     0.027 C 
BRANCH  13  14
ATOM     14  C   UNL     1       7.698   5.777  -2.537  1.00  0.00     0.004 C 
BRANCH  14  15
ATOM     15  C   UNL     1       6.444   6.584  -2.145  1.00  0.00     0.000 C 
BRANCH  15  16
ATOM     16  C   UNL     1       6.695   8.067  -1.816  1.00  0.00     0.000 C 
BRANCH  16  17
ATOM     17  C   UNL     1       6.852   8.941  -3.073  1.00  0.00    -0.000 C 
BRANCH  17  18
ATOM     18  C   UNL     1       5.503   9.501  -3.573  1.00  0.00    -0.000 C 
BRANCH  18  19
ATOM     19  C   UNL     1       4.412   9.552  -2.491  1.00  0.00    -0.003 C 
ATOM     20  C   UNL     1       3.219   8.649  -2.799  1.00  0.00     0.004 C 
ENDBRANCH  18  19
ENDBRANCH  17  18
ENDBRANCH  16  17
ENDBRANCH  15  16
ENDBRANCH  14  15
ENDBRANCH  13  14
ENDBRANCH   2  13
TORSDOF 15
ENDMDL
MODEL 7
REMARK VINA RESULT:    -3.267      1.870      4.342
REMARK INTER + INTRA:          -8.981
REMARK INTER:                  -6.052
REMARK INTRA:                  -2.929
REMARK UNBOUND:                -2.849
REMARK SMILES CCCCCCCCC=CCCCCCCCC(=O)[O-]
REMARK SMILES IDX 10 1 9 2 11 3 12 4 13 5 14 6 15 7 16 8 17 9 18 10 19 11
REMARK SMILES IDX 20 12 8 13 7 14 6 15 5 16 4 17 3 18 2 19 1 20
REMARK H PARENT
REMARK Flexibility Score: inf
ROOT
ATOM      1  C   UNL     1       4.608   7.827  -4.341  1.00  0.00    -0.031 C 
ATOM      2  C   UNL     1       5.616   8.410  -5.018  1.00  0.00    -0.031 C 
ENDROOT
BRANCH   1   3
ATOM      3  C   UNL     1       3.888   8.429  -3.160  1.00  0.00     0.027 C 
BRANCH   3   4
ATOM      4  C   UNL     1       3.902   7.484  -1.952  1.00  0.00     0.004 C 
BRANCH   4   5
ATOM      5  C   UNL     1       5.338   7.078  -1.586  1.00  0.00     0.000 C 
BRANCH   5   6
ATOM      6  C   UNL     1       6.210   8.294  -1.209  1.00  0.00     0.000 C 
BRANCH   6   7
ATOM      7  C   UNL     1       7.648   8.211  -1.744  1.00  0.00     0.000 C 
BRANCH   7   8
ATOM      8  C   UNL     1       8.079   6.773  -2.079  1.00  0.00     0.006 C 
BRANCH   8   9
ATOM      9  C   UNL     1       8.463   6.612  -3.556  1.00  0.00     0.053 C 
BRANCH   9  10
ATOM     10  C   UNL     1       7.957   5.322  -4.126  1.00  0.00     0.041 C 
ATOM     11  O   UNL     1       6.736   5.027  -4.041  1.00  0.00    -0.550 OA
ATOM     12  O   UNL     1       8.841   4.433  -4.726  1.00  0.00    -0.550 OA
ENDBRANCH   9  10
ENDBRANCH   8   9
ENDBRANCH   7   8
ENDBRANCH   6   7
ENDBRANCH   5   6
ENDBRANCH   4   5
ENDBRANCH   3   4
ENDBRANCH   1   3
BRANCH   2  13
ATOM     13  C   UNL     1       6.218   9.759  -4.701  1.00  0.00     0.027 C 
BRANCH  13  14
ATOM     14  C   UNL     1       7.643   9.901  -5.264  1.00  0.00     0.004 C 
BRANCH  14  15
ATOM     15  C   UNL     1       7.915   9.110  -6.559  1.00  0.00     0.000 C 
BRANCH  15  16
ATOM     16  C   UNL     1       8.038   9.963  -7.836  1.00  0.00     0.000 C 
BRANCH  16  17
ATOM     17  C   UNL     1       6.950   9.644  -8.876  1.00  0.00    -0.000 C 
BRANCH  17  18
ATOM     18  C   UNL     1       5.533   9.987  -8.369  1.00  0.00    -0.000 C 
BRANCH  18  19
ATOM     19  C   UNL     1       4.498   8.877  -8.616  1.00  0.00    -0.003 C 
ATOM     20  C   UNL     1       5.093   7.473  -8.531  1.00  0.00     0.004 C 
ENDBRANCH  18  19
ENDBRANCH  17  18
ENDBRANCH  16  17
ENDBRANCH  15  16
ENDBRANCH  14  15
ENDBRANCH  13  14
ENDBRANCH   2  13
TORSDOF 15
ENDMDL
MODEL 8
REMARK VINA RESULT:    -3.257      2.169      5.952
REMARK INTER + INTRA:          -8.962
REMARK INTER:                  -6.578
REMARK INTRA:                  -2.384
REMARK UNBOUND:                -2.849
REMARK SMILES CCCCCCCCC=CCCCCCCCC(=O)[O-]
REMARK SMILES IDX 10 1 9 2 11 3 12 4 13 5 14 6 15 7 16 8 17 9 18 10 19 11
REMARK SMILES IDX 20 12 8 13 7 14 6 15 5 16 4 17 3 18 2 19 1 20
REMARK H PARENT
REMARK Flexibility Score: inf
ROOT
ATOM      1  C   UNL     1       8.857   5.415  -1.899  1.00  0.00    -0.031 C 
ATOM      2  C   UNL     1       8.767   4.112  -2.229  1.00  0.00    -0.031 C 
ENDROOT
BRANCH   1   3
ATOM      3  C   UNL     1       9.931   6.363  -2.374  1.00  0.00     0.027 C 
BRANCH   3   4
ATOM      4  C   UNL     1       9.406   7.308  -3.461  1.00  0.00     0.004 C 
BRANCH   4   5
ATOM      5  C   UNL     1       8.355   8.274  -2.892  1.00  0.00     0.000 C 
BRANCH   5   6
ATOM      6  C   UNL     1       7.796   9.227  -3.968  1.00  0.00     0.000 C 
BRANCH   6   7
ATOM      7  C   UNL     1       6.537   9.989  -3.523  1.00  0.00     0.000 C 
BRANCH   7   8
ATOM      8  C   UNL     1       5.831   9.329  -2.326  1.00  0.00     0.006 C 
BRANCH   8   9
ATOM      9  C   UNL     1       4.323   9.165  -2.561  1.00  0.00     0.053 C 
BRANCH   9  10
ATOM     10  C   UNL     1       3.867   7.764  -2.287  1.00  0.00     0.041 C 
ATOM     11  O   UNL     1       2.643   7.514  -2.134  1.00  0.00    -0.550 OA
ATOM     12  O   UNL     1       4.799   6.740  -2.175  1.00  0.00    -0.550 OA
ENDBRANCH   9  10
ENDBRANCH   8   9
ENDBRANCH   7   8
ENDBRANCH   6   7
ENDBRANCH   5   6
ENDBRANCH   4   5
ENDBRANCH   3   4
ENDBRANCH   1   3
BRANCH   2  13
ATOM     13  C   UNL     1       9.736   3.365  -3.114  1.00  0.00     0.027 C 
BRANCH  13  14
ATOM     14  C   UNL     1       9.037   2.730  -4.328  1.00  0.00     0.004 C 
BRANCH  14  15
ATOM     15  C   UNL     1       7.534   3.051  -4.457  1.00  0.00     0.000 C 
BRANCH  15  16
ATOM     16  C   UNL     1       7.176   4.112  -5.514  1.00  0.00     0.000 C 
BRANCH  16  17
ATOM     17  C   UNL     1       6.617   5.406  -4.896  1.00  0.00    -0.000 C 
BRANCH  17  18
ATOM     18  C   UNL     1       6.524   6.555  -5.923  1.00  0.00    -0.000 C 
BRANCH  18  19
ATOM     19  C   UNL     1       5.167   7.280  -5.924  1.00  0.00    -0.003 C 
ATOM     20  C   UNL     1       4.829   7.919  -7.270  1.00  0.00     0.004 C 
ENDBRANCH  18  19
ENDBRANCH  17  18
ENDBRANCH  16  17
ENDBRANCH  15  16
ENDBRANCH  14  15
ENDBRANCH  13  14
ENDBRANCH   2  13
TORSDOF 15
ENDMDL
MODEL 9
REMARK VINA RESULT:    -3.246      1.922      4.159
REMARK INTER + INTRA:          -8.941
REMARK INTER:                  -6.058
REMARK INTRA:                  -2.883
REMARK UNBOUND:                -2.849
REMARK SMILES CCCCCCCCC=CCCCCCCCC(=O)[O-]
REMARK SMILES IDX 10 1 9 2 11 3 12 4 13 5 14 6 15 7 16 8 17 9 18 10 19 11
REMARK SMILES IDX 20 12 8 13 7 14 6 15 5 16 4 17 3 18 2 19 1 20
REMARK H PARENT
REMARK Flexibility Score: inf
ROOT
ATOM      1  C   UNL     1       6.036   7.720  -1.405  1.00  0.00    -0.031 C 
ATOM      2  C   UNL     1       5.058   7.226  -2.189  1.00  0.00    -0.031 C 
ENDROOT
BRANCH   1   3
ATOM      3  C   UNL     1       6.558   9.134  -1.448  1.00  0.00     0.027 C 
BRANCH   3   4
ATOM      4  C   UNL     1       7.907   9.258  -0.731  1.00  0.00     0.004 C 
BRANCH   4   5
ATOM      5  C   UNL     1       8.985   8.419  -1.434  1.00  0.00     0.000 C 
BRANCH   5   6
ATOM      6  C   UNL     1       9.381   9.009  -2.804  1.00  0.00     0.000 C 
BRANCH   6   7
ATOM      7  C   UNL     1       9.143   8.049  -3.981  1.00  0.00     0.000 C 
BRANCH   7   8
ATOM      8  C   UNL     1       8.877   6.603  -3.528  1.00  0.00     0.006 C 
BRANCH   8   9
ATOM      9  C   UNL     1       8.323   5.733  -4.665  1.00  0.00     0.053 C 
BRANCH   9  10
ATOM     10  C   UNL     1       7.222   4.834  -4.191  1.00  0.00     0.041 C 
ATOM     11  O   UNL     1       6.358   4.408  -5.002  1.00  0.00    -0.550 OA
ATOM     12  O   UNL     1       7.136   4.490  -2.848  1.00  0.00    -0.550 OA
ENDBRANCH   9  10
ENDBRANCH   8   9
ENDBRANCH   7   8
ENDBRANCH   6   7
ENDBRANCH   5   6
ENDBRANCH   4   5
ENDBRANCH   3   4
ENDBRANCH   1   3
BRANCH   2  13
ATOM     13  C   UNL     1       4.327   7.995  -3.264  1.00  0.00     0.027 C 
BRANCH  13  14
ATOM     14  C   UNL     1       4.904   7.721  -4.663  1.00  0.00     0.004 C 
BRANCH  14  15
ATOM     15  C   UNL     1       5.888   8.787  -5.185  1.00  0.00     0.000 C 
BRANCH  15  16
ATOM     16  C   UNL     1       6.018   8.868  -6.717  1.00  0.00     0.000 C 
BRANCH  16  17
ATOM     17  C   UNL     1       7.114   7.942  -7.275  1.00  0.00    -0.000 C 
BRANCH  17  18
ATOM     18  C   UNL     1       6.543   6.607  -7.800  1.00  0.00    -0.000 C 
BRANCH  18  19
ATOM     19  C   UNL     1       5.067   6.686  -8.223  1.00  0.00    -0.003 C 
ATOM     20  C   UNL     1       4.211   5.572  -7.622  1.00  0.00     0.004 C 
ENDBRANCH  18  19
ENDBRANCH  17  18
ENDBRANCH  16  17
ENDBRANCH  15  16
ENDBRANCH  14  15
ENDBRANCH  13  14
ENDBRANCH   2  13
TORSDOF 15
ENDMDL
