MODEL 1
REMARK VINA RESULT:    -5.636      0.000      0.000
REMARK INTER + INTRA:         -12.922
REMARK INTER:                 -10.579
REMARK INTRA:                  -2.343
REMARK UNBOUND:                -2.343
REMARK SMILES O=C([O-])CCCCCCCCCCCCCCC(=O)[O-]
REMARK SMILES IDX 10 1 9 2 8 3 7 4 6 5 5 6 4 7 2 8 1 9 3 10 11 11 12 12 13 13
REMARK SMILES IDX 14 14 15 15 16 16 17 17 18 18 19 19 20 20
REMARK H PARENT
REMARK Flexibility Score: inf
ROOT
ATOM      1  C   UNL     1      55.518  17.280  -1.020  1.00  0.00     0.000 C 
ENDROOT
BRANCH   1   2
ATOM      2  C   UNL     1      55.990  17.107   0.432  1.00  0.00     0.000 C 
BRANCH   2   3
ATOM      3  C   UNL     1      55.102  17.862   1.436  1.00  0.00     0.000 C 
BRANCH   3   4
ATOM      4  C   UNL     1      54.421  16.929   2.453  1.00  0.00     0.000 C 
BRANCH   4   5
ATOM      5  C   UNL     1      52.930  16.655   2.185  1.00  0.00     0.000 C 
BRANCH   5   6
ATOM      6  C   UNL     1      52.047  17.901   2.372  1.00  0.00     0.006 C 
BRANCH   6   7
ATOM      7  C   UNL     1      51.118  18.138   1.175  1.00  0.00     0.053 C 
BRANCH   7   8
ATOM      8  C   UNL     1      49.703  18.373   1.608  1.00  0.00     0.041 C 
ATOM      9  O   UNL     1      49.045  19.336   1.134  1.00  0.00    -0.550 OA
ATOM     10  O   UNL     1      49.120  17.541   2.556  1.00  0.00    -0.550 OA
ENDBRANCH   7   8
ENDBRANCH   6   7
ENDBRANCH   5   6
ENDBRANCH   4   5
ENDBRANCH   3   4
ENDBRANCH   2   3
ENDBRANCH   1   2
BRANCH   1  11
ATOM     11  C   UNL     1      54.122  17.920  -1.112  1.00  0.00     0.000 C 
BRANCH  11  12
ATOM     12  C   UNL     1      53.053  16.931  -1.600  1.00  0.00     0.000 C 
BRANCH  12  13
ATOM     13  C   UNL     1      53.620  15.520  -1.837  1.00  0.00     0.000 C 
BRANCH  13  14
ATOM     14  C   UNL     1      53.205  14.521  -0.742  1.00  0.00     0.000 C 
BRANCH  14  15
ATOM     15  C   UNL     1      54.205  13.372  -0.497  1.00  0.00     0.000 C 
BRANCH  15  16
ATOM     16  C   UNL     1      55.197  13.602   0.660  1.00  0.00     0.006 C 
BRANCH  16  17
ATOM     17  C   UNL     1      56.674  13.433   0.273  1.00  0.00     0.053 C 
BRANCH  17  18
ATOM     18  C   UNL     1      57.189  12.068   0.616  1.00  0.00     0.041 C 
ATOM     19  O   UNL     1      56.902  11.543   1.724  1.00  0.00    -0.550 OA
ATOM     20  O   UNL     1      58.014  11.392  -0.274  1.00  0.00    -0.550 OA
ENDBRANCH  17  18
ENDBRANCH  16  17
ENDBRANCH  15  16
ENDBRANCH  14  15
ENDBRANCH  13  14
ENDBRANCH  12  13
ENDBRANCH  11  12
ENDBRANCH   1  11
TORSDOF 15
ENDMDL
MODEL 2
REMARK VINA RESULT:    -5.581      1.503      7.031
REMARK INTER + INTRA:         -12.817
REMARK INTER:                 -10.388
REMARK INTRA:                  -2.429
REMARK UNBOUND:                -2.343
REMARK SMILES O=C([O-])CCCCCCCCCCCCCCC(=O)[O-]
REMARK SMILES IDX 10 1 9 2 8 3 7 4 6 5 5 6 4 7 2 8 1 9 3 10 11 11 12 12 13 13
REMARK SMILES IDX 14 14 15 15 16 16 17 17 18 18 19 19 20 20
REMARK H PARENT
REMARK Flexibility Score: inf
ROOT
ATOM      1  C   UNL     1      53.577  15.611  -1.871  1.00  0.00     0.000 C 
ENDROOT
BRANCH   1   2
ATOM      2  C   UNL     1      53.153  17.050  -1.538  1.00  0.00     0.000 C 
BRANCH   2   3
ATOM      3  C   UNL     1      54.337  17.927  -1.097  1.00  0.00     0.000 C 
BRANCH   3   4
ATOM      4  C   UNL     1      55.597  17.107  -0.764  1.00  0.00     0.000 C 
BRANCH   4   5
ATOM      5  C   UNL     1      56.235  17.422   0.601  1.00  0.00     0.000 C 
BRANCH   5   6
ATOM      6  C   UNL     1      57.459  16.543   0.909  1.00  0.00     0.006 C 
BRANCH   6   7
ATOM      7  C   UNL     1      57.406  15.198   0.174  1.00  0.00     0.053 C 
BRANCH   7   8
ATOM      8  C   UNL     1      58.775  14.708  -0.187  1.00  0.00     0.041 C 
ATOM      9  O   UNL     1      59.091  13.505   0.006  1.00  0.00    -0.550 OA
ATOM     10  O   UNL     1      59.712  15.590  -0.714  1.00  0.00    -0.550 OA
ENDBRANCH   7   8
ENDBRANCH   6   7
ENDBRANCH   5   6
ENDBRANCH   4   5
ENDBRANCH   3   4
ENDBRANCH   2   3
ENDBRANCH   1   2
BRANCH   1  11
ATOM     11  C   UNL     1      52.942  14.576  -0.925  1.00  0.00     0.000 C 
BRANCH  11  12
ATOM     12  C   UNL     1      53.977  13.901  -0.013  1.00  0.00     0.000 C 
BRANCH  12  13
ATOM     13  C   UNL     1      53.974  14.481   1.413  1.00  0.00     0.000 C 
BRANCH  13  14
ATOM     14  C   UNL     1      52.792  15.434   1.665  1.00  0.00     0.000 C 
BRANCH  14  15
ATOM     15  C   UNL     1      53.170  16.785   2.304  1.00  0.00     0.000 C 
BRANCH  15  16
ATOM     16  C   UNL     1      52.039  17.831   2.343  1.00  0.00     0.006 C 
BRANCH  16  17
ATOM     17  C   UNL     1      50.968  17.648   1.257  1.00  0.00     0.053 C 
BRANCH  17  18
ATOM     18  C   UNL     1      49.655  18.247   1.660  1.00  0.00     0.041 C 
ATOM     19  O   UNL     1      49.251  19.310   1.119  1.00  0.00    -0.550 OA
ATOM     20  O   UNL     1      48.894  17.650   2.657  1.00  0.00    -0.550 OA
ENDBRANCH  17  18
ENDBRANCH  16  17
ENDBRANCH  15  16
ENDBRANCH  14  15
ENDBRANCH  13  14
ENDBRANCH  12  13
ENDBRANCH  11  12
ENDBRANCH   1  11
TORSDOF 15
ENDMDL
MODEL 3
REMARK VINA RESULT:    -5.494      2.255      4.016
REMARK INTER + INTRA:         -12.654
REMARK INTER:                 -10.716
REMARK INTRA:                  -1.937
REMARK UNBOUND:                -2.343
REMARK SMILES O=C([O-])CCCCCCCCCCCCCCC(=O)[O-]
REMARK SMILES IDX 10 1 9 2 8 3 7 4 6 5 5 6 4 7 2 8 1 9 3 10 11 11 12 12 13 13
REMARK SMILES IDX 14 14 15 15 16 16 17 17 18 18 19 19 20 20
REMARK H PARENT
REMARK Flexibility Score: inf
ROOT
ATOM      1  C   UNL     1      54.117  14.046   0.110  1.00  0.00     0.000 C 
ENDROOT
BRANCH   1   2
ATOM      2  C   UNL     1      53.080  14.546  -0.907  1.00  0.00     0.000 C 
BRANCH   2   3
ATOM      3  C   UNL     1      53.593  15.736  -1.736  1.00  0.00     0.000 C 
BRANCH   3   4
ATOM      4  C   UNL     1      52.492  16.764  -2.051  1.00  0.00     0.000 C 
BRANCH   4   5
ATOM      5  C   UNL     1      52.526  18.038  -1.187  1.00  0.00     0.000 C 
BRANCH   5   6
ATOM      6  C   UNL     1      51.143  18.434  -0.646  1.00  0.00     0.006 C 
BRANCH   6   7
ATOM      7  C   UNL     1      50.485  19.536  -1.488  1.00  0.00     0.053 C 
BRANCH   7   8
ATOM      8  C   UNL     1      49.046  19.233  -1.773  1.00  0.00     0.041 C 
ATOM      9  O   UNL     1      48.737  18.316  -2.579  1.00  0.00    -0.550 OA
ATOM     10  O   UNL     1      48.045  19.982  -1.166  1.00  0.00    -0.550 OA
ENDBRANCH   7   8
ENDBRANCH   6   7
ENDBRANCH   5   6
ENDBRANCH   4   5
ENDBRANCH   3   4
ENDBRANCH   2   3
ENDBRANCH   1   2
BRANCH   1  11
ATOM     11  C   UNL     1      53.866  14.596   1.525  1.00  0.00     0.000 C 
BRANCH  11  12
ATOM     12  C   UNL     1      52.660  15.547   1.580  1.00  0.00     0.000 C 
BRANCH  12  13
ATOM     13  C   UNL     1      52.997  16.889   2.254  1.00  0.00     0.000 C 
BRANCH  13  14
ATOM     14  C   UNL     1      54.509  17.090   2.456  1.00  0.00     0.000 C 
BRANCH  14  15
ATOM     15  C   UNL     1      55.251  17.700   1.250  1.00  0.00     0.000 C 
BRANCH  15  16
ATOM     16  C   UNL     1      56.716  17.251   1.086  1.00  0.00     0.006 C 
BRANCH  16  17
ATOM     17  C   UNL     1      56.935  16.180   0.006  1.00  0.00     0.053 C 
BRANCH  17  18
ATOM     18  C   UNL     1      58.303  15.574   0.087  1.00  0.00     0.041 C 
ATOM     19  O   UNL     1      58.502  14.402  -0.327  1.00  0.00    -0.550 OA
ATOM     20  O   UNL     1      59.349  16.292   0.653  1.00  0.00    -0.550 OA
ENDBRANCH  17  18
ENDBRANCH  16  17
ENDBRANCH  15  16
ENDBRANCH  14  15
ENDBRANCH  13  14
ENDBRANCH  12  13
ENDBRANCH  11  12
ENDBRANCH   1  11
TORSDOF 15
ENDMDL
MODEL 4
REMARK VINA RESULT:    -5.490      1.753      7.004
REMARK INTER + INTRA:         -12.647
REMARK INTER:                 -10.616
REMARK INTRA:                  -2.031
REMARK UNBOUND:                -2.343
REMARK SMILES O=C([O-])CCCCCCCCCCCCCCC(=O)[O-]
REMARK SMILES IDX 10 1 9 2 8 3 7 4 6 5 5 6 4 7 2 8 1 9 3 10 11 11 12 12 13 13
REMARK SMILES IDX 14 14 15 15 16 16 17 17 18 18 19 19 20 20
REMARK H PARENT
REMARK Flexibility Score: inf
ROOT
ATOM      1  C   UNL     1      52.954  16.697   2.179  1.00  0.00     0.000 C 
ENDROOT
BRANCH   1   2
ATOM      2  C   UNL     1      54.435  16.977   2.479  1.00  0.00     0.000 C 
BRANCH   2   3
ATOM      3  C   UNL     1      55.122  17.777   1.359  1.00  0.00     0.000 C 
BRANCH   3   4
ATOM      4  C   UNL     1      56.575  17.333   1.111  1.00  0.00     0.000 C 
BRANCH   4   5
ATOM      5  C   UNL     1      56.778  16.436  -0.123  1.00  0.00     0.000 C 
BRANCH   5   6
ATOM      6  C   UNL     1      58.023  15.539  -0.015  1.00  0.00     0.006 C 
BRANCH   6   7
ATOM      7  C   UNL     1      57.676  14.119   0.448  1.00  0.00     0.053 C 
BRANCH   7   8
ATOM      8  C   UNL     1      58.841  13.188   0.307  1.00  0.00     0.041 C 
ATOM      9  O   UNL     1      58.653  11.952   0.159  1.00  0.00    -0.550 OA
ATOM     10  O   UNL     1      60.138  13.684   0.364  1.00  0.00    -0.550 OA
ENDBRANCH   7   8
ENDBRANCH   6   7
ENDBRANCH   5   6
ENDBRANCH   4   5
ENDBRANCH   3   4
ENDBRANCH   2   3
ENDBRANCH   1   2
BRANCH   1  11
ATOM     11  C   UNL     1      52.711  15.250   1.714  1.00  0.00     0.000 C 
BRANCH  11  12
ATOM     12  C   UNL     1      54.020  14.496   1.435  1.00  0.00     0.000 C 
BRANCH  12  13
ATOM     13  C   UNL     1      54.086  13.938   0.002  1.00  0.00     0.000 C 
BRANCH  13  14
ATOM     14  C   UNL     1      53.048  14.581  -0.935  1.00  0.00     0.000 C 
BRANCH  14  15
ATOM     15  C   UNL     1      53.566  15.780  -1.755  1.00  0.00     0.000 C 
BRANCH  15  16
ATOM     16  C   UNL     1      52.490  16.801  -2.174  1.00  0.00     0.006 C 
BRANCH  16  17
ATOM     17  C   UNL     1      51.988  17.700  -1.033  1.00  0.00     0.053 C 
BRANCH  17  18
ATOM     18  C   UNL     1      50.710  18.395  -1.390  1.00  0.00     0.041 C 
ATOM     19  O   UNL     1      49.777  18.477  -0.547  1.00  0.00    -0.550 OA
ATOM     20  O   UNL     1      50.535  18.921  -2.663  1.00  0.00    -0.550 OA
ENDBRANCH  17  18
ENDBRANCH  16  17
ENDBRANCH  15  16
ENDBRANCH  14  15
ENDBRANCH  13  14
ENDBRANCH  12  13
ENDBRANCH  11  12
ENDBRANCH   1  11
TORSDOF 15
ENDMDL
MODEL 5
REMARK VINA RESULT:    -5.383      1.515      2.770
REMARK INTER + INTRA:         -12.446
REMARK INTER:                 -10.089
REMARK INTRA:                  -2.357
REMARK UNBOUND:                -2.343
REMARK SMILES O=C([O-])CCCCCCCCCCCCCCC(=O)[O-]
REMARK SMILES IDX 10 1 9 2 8 3 7 4 6 5 5 6 4 7 2 8 1 9 3 10 11 11 12 12 13 13
REMARK SMILES IDX 14 14 15 15 16 16 17 17 18 18 19 19 20 20
REMARK H PARENT
REMARK Flexibility Score: inf
ROOT
ATOM      1  C   UNL     1      52.955  14.571  -0.920  1.00  0.00     0.000 C 
ENDROOT
BRANCH   1   2
ATOM      2  C   UNL     1      53.979  13.885  -0.003  1.00  0.00     0.000 C 
BRANCH   2   3
ATOM      3  C   UNL     1      53.974  14.462   1.423  1.00  0.00     0.000 C 
BRANCH   3   4
ATOM      4  C   UNL     1      52.879  15.524   1.635  1.00  0.00     0.000 C 
BRANCH   4   5
ATOM      5  C   UNL     1      53.335  16.784   2.392  1.00  0.00     0.000 C 
BRANCH   5   6
ATOM      6  C   UNL     1      52.250  17.873   2.454  1.00  0.00     0.006 C 
BRANCH   6   7
ATOM      7  C   UNL     1      51.141  17.645   1.419  1.00  0.00     0.053 C 
BRANCH   7   8
ATOM      8  C   UNL     1      50.460  18.925   1.044  1.00  0.00     0.041 C 
ATOM      9  O   UNL     1      49.764  19.546   1.890  1.00  0.00    -0.550 OA
ATOM     10  O   UNL     1      50.573  19.420  -0.250  1.00  0.00    -0.550 OA
ENDBRANCH   7   8
ENDBRANCH   6   7
ENDBRANCH   5   6
ENDBRANCH   4   5
ENDBRANCH   3   4
ENDBRANCH   2   3
ENDBRANCH   1   2
BRANCH   1  11
ATOM     11  C   UNL     1      53.605  15.608  -1.854  1.00  0.00     0.000 C 
BRANCH  11  12
ATOM     12  C   UNL     1      53.164  17.045  -1.533  1.00  0.00     0.000 C 
BRANCH  12  13
ATOM     13  C   UNL     1      54.331  17.926  -1.051  1.00  0.00     0.000 C 
BRANCH  13  14
ATOM     14  C   UNL     1      55.656  17.151  -0.944  1.00  0.00     0.000 C 
BRANCH  14  15
ATOM     15  C   UNL     1      56.340  17.218   0.437  1.00  0.00     0.000 C 
BRANCH  15  16
ATOM     16  C   UNL     1      57.153  15.968   0.826  1.00  0.00     0.006 C 
BRANCH  16  17
ATOM     17  C   UNL     1      58.349  15.677  -0.093  1.00  0.00     0.053 C 
BRANCH  17  18
ATOM     18  C   UNL     1      58.918  14.312   0.144  1.00  0.00     0.041 C 
ATOM     19  O   UNL     1      58.178  13.381   0.558  1.00  0.00    -0.550 OA
ATOM     20  O   UNL     1      60.273  14.077  -0.057  1.00  0.00    -0.550 OA
ENDBRANCH  17  18
ENDBRANCH  16  17
ENDBRANCH  15  16
ENDBRANCH  14  15
ENDBRANCH  13  14
ENDBRANCH  12  13
ENDBRANCH  11  12
ENDBRANCH   1  11
TORSDOF 15
ENDMDL
MODEL 6
REMARK VINA RESULT:    -5.327      2.046      7.181
REMARK INTER + INTRA:         -12.341
REMARK INTER:                  -9.895
REMARK INTRA:                  -2.446
REMARK UNBOUND:                -2.343
REMARK SMILES O=C([O-])CCCCCCCCCCCCCCC(=O)[O-]
REMARK SMILES IDX 10 1 9 2 8 3 7 4 6 5 5 6 4 7 2 8 1 9 3 10 11 11 12 12 13 13
REMARK SMILES IDX 14 14 15 15 16 16 17 17 18 18 19 19 20 20
REMARK H PARENT
REMARK Flexibility Score: inf
ROOT
ATOM      1  C   UNL     1      52.606  15.682   1.820  1.00  0.00     0.000 C 
ENDROOT
BRANCH   1   2
ATOM      2  C   UNL     1      53.667  14.613   1.518  1.00  0.00     0.000 C 
BRANCH   2   3
ATOM      3  C   UNL     1      53.651  14.164   0.047  1.00  0.00     0.000 C 
BRANCH   3   4
ATOM      4  C   UNL     1      54.865  13.296  -0.327  1.00  0.00     0.000 C 
BRANCH   4   5
ATOM      5  C   UNL     1      56.043  13.367   0.661  1.00  0.00     0.000 C 
BRANCH   5   6
ATOM      6  C   UNL     1      57.412  13.425  -0.038  1.00  0.00     0.006 C 
BRANCH   6   7
ATOM      7  C   UNL     1      58.433  14.253   0.754  1.00  0.00     0.053 C 
BRANCH   7   8
ATOM      8  C   UNL     1      59.590  14.672  -0.099  1.00  0.00     0.041 C 
ATOM      9  O   UNL     1      59.429  15.518  -1.017  1.00  0.00    -0.550 OA
ATOM     10  O   UNL     1      60.843  14.106   0.103  1.00  0.00    -0.550 OA
ENDBRANCH   7   8
ENDBRANCH   6   7
ENDBRANCH   5   6
ENDBRANCH   4   5
ENDBRANCH   3   4
ENDBRANCH   2   3
ENDBRANCH   1   2
BRANCH   1  11
ATOM     11  C   UNL     1      53.228  17.028   2.233  1.00  0.00     0.000 C 
BRANCH  11  12
ATOM     12  C   UNL     1      54.753  16.944   2.398  1.00  0.00     0.000 C 
BRANCH  12  13
ATOM     13  C   UNL     1      55.503  17.866   1.421  1.00  0.00     0.000 C 
BRANCH  13  14
ATOM     14  C   UNL     1      56.109  17.103   0.230  1.00  0.00     0.000 C 
BRANCH  14  15
ATOM     15  C   UNL     1      55.227  17.065  -1.035  1.00  0.00     0.000 C 
BRANCH  15  16
ATOM     16  C   UNL     1      54.075  18.088  -1.062  1.00  0.00     0.006 C 
BRANCH  16  17
ATOM     17  C   UNL     1      52.698  17.487  -1.384  1.00  0.00     0.053 C 
BRANCH  17  18
ATOM     18  C   UNL     1      51.581  18.405  -0.992  1.00  0.00     0.041 C 
ATOM     19  O   UNL     1      51.442  19.515  -1.571  1.00  0.00    -0.550 OA
ATOM     20  O   UNL     1      50.716  18.050   0.034  1.00  0.00    -0.550 OA
ENDBRANCH  17  18
ENDBRANCH  16  17
ENDBRANCH  15  16
ENDBRANCH  14  15
ENDBRANCH  13  14
ENDBRANCH  12  13
ENDBRANCH  11  12
ENDBRANCH   1  11
TORSDOF 15
ENDMDL
MODEL 7
REMARK VINA RESULT:    -5.305      1.800      3.513
REMARK INTER + INTRA:         -12.301
REMARK INTER:                 -10.572
REMARK INTRA:                  -1.729
REMARK UNBOUND:                -2.343
REMARK SMILES O=C([O-])CCCCCCCCCCCCCCC(=O)[O-]
REMARK SMILES IDX 10 1 9 2 8 3 7 4 6 5 5 6 4 7 2 8 1 9 3 10 11 11 12 12 13 13
REMARK SMILES IDX 14 14 15 15 16 16 17 17 18 18 19 19 20 20
REMARK H PARENT
REMARK Flexibility Score: inf
ROOT
ATOM      1  C   UNL     1      54.353  17.149   2.504  1.00  0.00     0.000 C 
ENDROOT
BRANCH   1   2
ATOM      2  C   UNL     1      52.967  17.799   2.634  1.00  0.00     0.000 C 
BRANCH   2   3
ATOM      3  C   UNL     1      51.926  17.162   1.698  1.00  0.00     0.000 C 
BRANCH   3   4
ATOM      4  C   UNL     1      50.496  17.668   1.960  1.00  0.00     0.000 C 
BRANCH   4   5
ATOM      5  C   UNL     1      50.360  18.645   3.142  1.00  0.00     0.000 C 
BRANCH   5   6
ATOM      6  C   UNL     1      49.623  19.942   2.768  1.00  0.00     0.006 C 
BRANCH   6   7
ATOM      7  C   UNL     1      48.595  19.722   1.651  1.00  0.00     0.053 C 
BRANCH   7   8
ATOM      8  C   UNL     1      47.207  19.569   2.194  1.00  0.00     0.041 C 
ATOM      9  O   UNL     1      46.918  18.588   2.929  1.00  0.00    -0.550 OA
ATOM     10  O   UNL     1      46.226  20.497   1.867  1.00  0.00    -0.550 OA
ENDBRANCH   7   8
ENDBRANCH   6   7
ENDBRANCH   5   6
ENDBRANCH   4   5
ENDBRANCH   3   4
ENDBRANCH   2   3
ENDBRANCH   1   2
BRANCH   1  11
ATOM     11  C   UNL     1      55.267  17.904   1.523  1.00  0.00     0.000 C 
BRANCH  11  12
ATOM     12  C   UNL     1      56.064  16.956   0.614  1.00  0.00     0.000 C 
BRANCH  12  13
ATOM     13  C   UNL     1      55.747  17.165  -0.878  1.00  0.00     0.000 C 
BRANCH  13  14
ATOM     14  C   UNL     1      54.410  17.891  -1.106  1.00  0.00     0.000 C 
BRANCH  14  15
ATOM     15  C   UNL     1      53.235  16.978  -1.515  1.00  0.00     0.000 C 
BRANCH  15  16
ATOM     16  C   UNL     1      53.619  15.521  -1.838  1.00  0.00     0.006 C 
BRANCH  16  17
ATOM     17  C   UNL     1      53.054  14.482  -0.857  1.00  0.00     0.053 C 
BRANCH  17  18
ATOM     18  C   UNL     1      54.096  13.995   0.103  1.00  0.00     0.041 C 
ATOM     19  O   UNL     1      53.940  14.156   1.342  1.00  0.00    -0.550 OA
ATOM     20  O   UNL     1      55.255  13.394  -0.373  1.00  0.00    -0.550 OA
ENDBRANCH  17  18
ENDBRANCH  16  17
ENDBRANCH  15  16
ENDBRANCH  14  15
ENDBRANCH  13  14
ENDBRANCH  12  13
ENDBRANCH  11  12
ENDBRANCH   1  11
TORSDOF 15
ENDMDL
MODEL 8
REMARK VINA RESULT:    -5.298      1.347      7.141
REMARK INTER + INTRA:         -12.287
REMARK INTER:                 -10.235
REMARK INTRA:                  -2.052
REMARK UNBOUND:                -2.343
REMARK SMILES O=C([O-])CCCCCCCCCCCCCCC(=O)[O-]
REMARK SMILES IDX 10 1 9 2 8 3 7 4 6 5 5 6 4 7 2 8 1 9 3 10 11 11 12 12 13 13
REMARK SMILES IDX 14 14 15 15 16 16 17 17 18 18 19 19 20 20
REMARK H PARENT
REMARK Flexibility Score: inf
ROOT
ATOM      1  C   UNL     1      53.176  16.972  -1.373  1.00  0.00     0.000 C 
ENDROOT
BRANCH   1   2
ATOM      2  C   UNL     1      53.664  15.576  -1.789  1.00  0.00     0.000 C 
BRANCH   2   3
ATOM      3  C   UNL     1      53.153  14.468  -0.852  1.00  0.00     0.000 C 
BRANCH   3   4
ATOM      4  C   UNL     1      54.248  13.922   0.081  1.00  0.00     0.000 C 
BRANCH   4   5
ATOM      5  C   UNL     1      54.994  12.683  -0.448  1.00  0.00     0.000 C 
BRANCH   5   6
ATOM      6  C   UNL     1      56.461  12.624   0.011  1.00  0.00     0.006 C 
BRANCH   6   7
ATOM      7  C   UNL     1      56.980  13.993   0.470  1.00  0.00     0.053 C 
BRANCH   7   8
ATOM      8  C   UNL     1      58.385  14.236   0.012  1.00  0.00     0.041 C 
ATOM      9  O   UNL     1      59.260  13.341   0.141  1.00  0.00    -0.550 OA
ATOM     10  O   UNL     1      58.734  15.465  -0.536  1.00  0.00    -0.550 OA
ENDBRANCH   7   8
ENDBRANCH   6   7
ENDBRANCH   5   6
ENDBRANCH   4   5
ENDBRANCH   3   4
ENDBRANCH   2   3
ENDBRANCH   1   2
BRANCH   1  11
ATOM     11  C   UNL     1      54.338  17.938  -1.080  1.00  0.00     0.000 C 
BRANCH  11  12
ATOM     12  C   UNL     1      55.373  17.337  -0.118  1.00  0.00     0.000 C 
BRANCH  12  13
ATOM     13  C   UNL     1      55.266  17.920   1.303  1.00  0.00     0.000 C 
BRANCH  13  14
ATOM     14  C   UNL     1      54.772  16.890   2.333  1.00  0.00     0.000 C 
BRANCH  14  15
ATOM     15  C   UNL     1      53.254  16.619   2.306  1.00  0.00     0.000 C 
BRANCH  15  16
ATOM     16  C   UNL     1      52.363  17.854   2.549  1.00  0.00     0.006 C 
BRANCH  16  17
ATOM     17  C   UNL     1      51.071  17.878   1.718  1.00  0.00     0.053 C 
BRANCH  17  18
ATOM     18  C   UNL     1      49.921  18.449   2.489  1.00  0.00     0.041 C 
ATOM     19  O   UNL     1      48.891  17.754   2.696  1.00  0.00    -0.550 OA
ATOM     20  O   UNL     1      49.972  19.758   2.950  1.00  0.00    -0.550 OA
ENDBRANCH  17  18
ENDBRANCH  16  17
ENDBRANCH  15  16
ENDBRANCH  14  15
ENDBRANCH  13  14
ENDBRANCH  12  13
ENDBRANCH  11  12
ENDBRANCH   1  11
TORSDOF 15
ENDMDL
MODEL 9
REMARK VINA RESULT:    -5.271      1.555      7.179
REMARK INTER + INTRA:         -12.236
REMARK INTER:                 -10.131
REMARK INTRA:                  -2.105
REMARK UNBOUND:                -2.343
REMARK SMILES O=C([O-])CCCCCCCCCCCCCCC(=O)[O-]
REMARK SMILES IDX 10 1 9 2 8 3 7 4 6 5 5 6 4 7 2 8 1 9 3 10 11 11 12 12 13 13
REMARK SMILES IDX 14 14 15 15 16 16 17 17 18 18 19 19 20 20
REMARK H PARENT
REMARK Flexibility Score: inf
ROOT
ATOM      1  C   UNL     1      54.358  16.828   2.570  1.00  0.00     0.000 C 
ENDROOT
BRANCH   1   2
ATOM      2  C   UNL     1      53.285  15.987   1.861  1.00  0.00     0.000 C 
BRANCH   2   3
ATOM      3  C   UNL     1      53.747  14.544   1.595  1.00  0.00     0.000 C 
BRANCH   3   4
ATOM      4  C   UNL     1      53.662  14.153   0.108  1.00  0.00     0.000 C 
BRANCH   4   5
ATOM      5  C   UNL     1      54.742  13.164  -0.366  1.00  0.00     0.000 C 
BRANCH   5   6
ATOM      6  C   UNL     1      56.110  13.407   0.294  1.00  0.00     0.006 C 
BRANCH   6   7
ATOM      7  C   UNL     1      57.205  12.508  -0.295  1.00  0.00     0.053 C 
BRANCH   7   8
ATOM      8  C   UNL     1      57.844  11.651   0.753  1.00  0.00     0.041 C 
ATOM      9  O   UNL     1      59.068  11.363   0.681  1.00  0.00    -0.550 OA
ATOM     10  O   UNL     1      57.080  11.146   1.799  1.00  0.00    -0.550 OA
ENDBRANCH   7   8
ENDBRANCH   6   7
ENDBRANCH   5   6
ENDBRANCH   4   5
ENDBRANCH   3   4
ENDBRANCH   2   3
ENDBRANCH   1   2
BRANCH   1  11
ATOM     11  C   UNL     1      54.998  17.871   1.637  1.00  0.00     0.000 C 
BRANCH  11  12
ATOM     12  C   UNL     1      56.254  17.337   0.932  1.00  0.00     0.000 C 
BRANCH  12  13
ATOM     13  C   UNL     1      55.996  16.979  -0.543  1.00  0.00     0.000 C 
BRANCH  13  14
ATOM     14  C   UNL     1      54.714  17.626  -1.096  1.00  0.00     0.000 C 
BRANCH  14  15
ATOM     15  C   UNL     1      53.777  16.668  -1.858  1.00  0.00     0.000 C 
BRANCH  15  16
ATOM     16  C   UNL     1      52.297  17.095  -1.903  1.00  0.00     0.006 C 
BRANCH  16  17
ATOM     17  C   UNL     1      51.897  18.110  -0.822  1.00  0.00     0.053 C 
BRANCH  17  18
ATOM     18  C   UNL     1      50.783  19.003  -1.277  1.00  0.00     0.041 C 
ATOM     19  O   UNL     1      50.162  19.716  -0.445  1.00  0.00    -0.550 OA
ATOM     20  O   UNL     1      50.408  19.021  -2.614  1.00  0.00    -0.550 OA
ENDBRANCH  17  18
ENDBRANCH  16  17
ENDBRANCH  15  16
ENDBRANCH  14  15
ENDBRANCH  13  14
ENDBRANCH  12  13
ENDBRANCH  11  12
ENDBRANCH   1  11
TORSDOF 15
ENDMDL
