MODEL 1
REMARK VINA RESULT:    -4.721      0.000      0.000
REMARK INTER + INTRA:          -9.587
REMARK INTER:                  -8.309
REMARK INTRA:                  -1.278
REMARK UNBOUND:                -1.278
REMARK SMILES CCCCCCC=CCCCCCCCC(=O)[O-]
REMARK SMILES IDX 10 1 11 2 12 3 13 4 14 5 15 6 16 7 17 8 18 9 9 10 8 11 7 12
REMARK SMILES IDX 6 13 5 14 4 15 3 16 2 17 1 18
REMARK H PARENT
REMARK Flexibility Score: inf
ROOT
ATOM      1  C   UNL     1       7.390   2.787  -4.342  1.00  0.00     0.004 C 
ENDROOT
BRANCH   1   2
ATOM      2  C   UNL     1       8.388   1.741  -3.819  1.00  0.00     0.000 C 
BRANCH   2   3
ATOM      3  C   UNL     1       7.691   0.552  -3.134  1.00  0.00     0.000 C 
BRANCH   3   4
ATOM      4  C   UNL     1       8.689  -0.448  -2.530  1.00  0.00     0.000 C 
BRANCH   4   5
ATOM      5  C   UNL     1       8.283  -0.918  -1.125  1.00  0.00     0.006 C 
BRANCH   5   6
ATOM      6  C   UNL     1       9.381  -1.783  -0.499  1.00  0.00     0.053 C 
BRANCH   6   7
ATOM      7  C   UNL     1       8.792  -3.008   0.127  1.00  0.00     0.041 C 
ATOM      8  O   UNL     1       7.664  -3.429  -0.244  1.00  0.00    -0.550 OA
ATOM      9  O   UNL     1       9.510  -3.715   1.083  1.00  0.00    -0.550 OA
ENDBRANCH   6   7
ENDBRANCH   5   6
ENDBRANCH   4   5
ENDBRANCH   3   4
ENDBRANCH   2   3
ENDBRANCH   1   2
BRANCH   1  10
ATOM     10  C   UNL     1       6.115   2.156  -4.919  1.00  0.00     0.027 C 
BRANCH  10  11
ATOM     11  C   UNL     1       6.043   2.370  -6.409  1.00  0.00    -0.031 C 
ATOM     12  C   UNL     1       5.237   3.262  -7.015  1.00  0.00    -0.031 C 
BRANCH  12  13
ATOM     13  C   UNL     1       4.215   4.119  -6.306  1.00  0.00     0.027 C 
BRANCH  13  14
ATOM     14  C   UNL     1       4.552   5.617  -6.393  1.00  0.00     0.004 C 
BRANCH  14  15
ATOM     15  C   UNL     1       5.966   5.976  -5.897  1.00  0.00     0.000 C 
BRANCH  15  16
ATOM     16  C   UNL     1       5.998   6.340  -4.403  1.00  0.00    -0.000 C 
BRANCH  16  17
ATOM     17  C   UNL     1       7.430   6.480  -3.862  1.00  0.00    -0.003 C 
ATOM     18  C   UNL     1       8.489   6.331  -4.954  1.00  0.00     0.004 C 
ENDBRANCH  16  17
ENDBRANCH  15  16
ENDBRANCH  14  15
ENDBRANCH  13  14
ENDBRANCH  12  13
ENDBRANCH  10  11
ENDBRANCH   1  10
TORSDOF 13
ENDMDL
MODEL 2
REMARK VINA RESULT:    -4.662      1.347      3.089
REMARK INTER + INTRA:          -9.482
REMARK INTER:                  -8.308
REMARK INTRA:                  -1.174
REMARK UNBOUND:                -1.278
REMARK SMILES CCCCCCC=CCCCCCCCC(=O)[O-]
REMARK SMILES IDX 10 1 11 2 12 3 13 4 14 5 15 6 16 7 17 8 18 9 9 10 8 11 7 12
REMARK SMILES IDX 6 13 5 14 4 15 3 16 2 17 1 18
REMARK H PARENT
REMARK Flexibility Score: inf
ROOT
ATOM      1  C   UNL     1       7.100   0.413  -3.853  1.00  0.00     0.004 C 
ENDROOT
BRANCH   1   2
ATOM      2  C   UNL     1       8.411   0.313  -3.056  1.00  0.00     0.000 C 
BRANCH   2   3
ATOM      3  C   UNL     1       8.580  -1.053  -2.368  1.00  0.00     0.000 C 
BRANCH   3   4
ATOM      4  C   UNL     1       8.523  -0.952  -0.835  1.00  0.00     0.000 C 
BRANCH   4   5
ATOM      5  C   UNL     1       9.657  -1.726  -0.147  1.00  0.00     0.006 C 
BRANCH   5   6
ATOM      6  C   UNL     1       9.606  -3.213  -0.511  1.00  0.00     0.053 C 
BRANCH   6   7
ATOM      7  C   UNL     1       8.586  -3.923   0.322  1.00  0.00     0.041 C 
ATOM      8  O   UNL     1       8.810  -4.153   1.539  1.00  0.00    -0.550 OA
ATOM      9  O   UNL     1       7.365  -4.284  -0.233  1.00  0.00    -0.550 OA
ENDBRANCH   6   7
ENDBRANCH   5   6
ENDBRANCH   4   5
ENDBRANCH   3   4
ENDBRANCH   2   3
ENDBRANCH   1   2
BRANCH   1  10
ATOM     10  C   UNL     1       6.703   1.863  -4.163  1.00  0.00     0.027 C 
BRANCH  10  11
ATOM     11  C   UNL     1       7.891   2.782  -4.023  1.00  0.00    -0.031 C 
ATOM     12  C   UNL     1       7.927   4.056  -4.457  1.00  0.00    -0.031 C 
BRANCH  12  13
ATOM     13  C   UNL     1       6.822   4.731  -5.234  1.00  0.00     0.027 C 
BRANCH  13  14
ATOM     14  C   UNL     1       7.171   4.888  -6.724  1.00  0.00     0.004 C 
BRANCH  14  15
ATOM     15  C   UNL     1       6.135   4.272  -7.683  1.00  0.00     0.000 C 
BRANCH  15  16
ATOM     16  C   UNL     1       5.078   3.426  -6.953  1.00  0.00    -0.000 C 
BRANCH  16  17
ATOM     17  C   UNL     1       5.252   1.920  -7.206  1.00  0.00    -0.003 C 
ATOM     18  C   UNL     1       6.229   1.623  -8.343  1.00  0.00     0.004 C 
ENDBRANCH  16  17
ENDBRANCH  15  16
ENDBRANCH  14  15
ENDBRANCH  13  14
ENDBRANCH  12  13
ENDBRANCH  10  11
ENDBRANCH   1  10
TORSDOF 13
ENDMDL
MODEL 3
REMARK VINA RESULT:    -4.506     12.877     14.975
REMARK INTER + INTRA:          -9.209
REMARK INTER:                  -7.226
REMARK INTRA:                  -1.982
REMARK UNBOUND:                -1.278
REMARK SMILES CCCCCCC=CCCCCCCCC(=O)[O-]
REMARK SMILES IDX 10 1 11 2 12 3 13 4 14 5 15 6 16 7 17 8 18 9 9 10 8 11 7 12
REMARK SMILES IDX 6 13 5 14 4 15 3 16 2 17 1 18
REMARK H PARENT
REMARK Flexibility Score: inf
ROOT
ATOM      1  C   UNL     1      -8.142   5.517  -3.399  1.00  0.00     0.004 C 
ENDROOT
BRANCH   1   2
ATOM      2  C   UNL     1      -7.153   4.499  -2.809  1.00  0.00     0.000 C 
BRANCH   2   3
ATOM      3  C   UNL     1      -7.450   3.058  -3.261  1.00  0.00     0.000 C 
BRANCH   3   4
ATOM      4  C   UNL     1      -8.230   3.005  -4.584  1.00  0.00     0.000 C 
BRANCH   4   5
ATOM      5  C   UNL     1      -7.381   2.483  -5.753  1.00  0.00     0.006 C 
BRANCH   5   6
ATOM      6  C   UNL     1      -6.063   1.886  -5.249  1.00  0.00     0.053 C 
BRANCH   6   7
ATOM      7  C   UNL     1      -4.897   2.594  -5.863  1.00  0.00     0.041 C 
ATOM      8  O   UNL     1      -3.734   2.128  -5.738  1.00  0.00    -0.550 OA
ATOM      9  O   UNL     1      -5.101   3.742  -6.619  1.00  0.00    -0.550 OA
ENDBRANCH   6   7
ENDBRANCH   5   6
ENDBRANCH   4   5
ENDBRANCH   3   4
ENDBRANCH   2   3
ENDBRANCH   1   2
BRANCH   1  10
ATOM     10  C   UNL     1      -7.447   6.772  -3.945  1.00  0.00     0.027 C 
BRANCH  10  11
ATOM     11  C   UNL     1      -6.047   6.449  -4.401  1.00  0.00    -0.031 C 
ATOM     12  C   UNL     1      -4.968   7.219  -4.164  1.00  0.00    -0.031 C 
BRANCH  12  13
ATOM     13  C   UNL     1      -5.008   8.570  -3.489  1.00  0.00     0.027 C 
BRANCH  13  14
ATOM     14  C   UNL     1      -4.832   8.463  -1.965  1.00  0.00     0.004 C 
BRANCH  14  15
ATOM     15  C   UNL     1      -6.085   8.848  -1.157  1.00  0.00     0.000 C 
BRANCH  15  16
ATOM     16  C   UNL     1      -6.691   7.656  -0.395  1.00  0.00    -0.000 C 
BRANCH  16  17
ATOM     17  C   UNL     1      -8.199   7.820  -0.149  1.00  0.00    -0.003 C 
ATOM     18  C   UNL     1      -8.922   6.481  -0.009  1.00  0.00     0.004 C 
ENDBRANCH  16  17
ENDBRANCH  15  16
ENDBRANCH  14  15
ENDBRANCH  13  14
ENDBRANCH  12  13
ENDBRANCH  10  11
ENDBRANCH   1  10
TORSDOF 13
ENDMDL
MODEL 4
REMARK VINA RESULT:    -4.433     13.205     15.567
REMARK INTER + INTRA:          -9.080
REMARK INTER:                  -7.059
REMARK INTRA:                  -2.020
REMARK UNBOUND:                -1.278
REMARK SMILES CCCCCCC=CCCCCCCCC(=O)[O-]
REMARK SMILES IDX 10 1 11 2 12 3 13 4 14 5 15 6 16 7 17 8 18 9 9 10 8 11 7 12
REMARK SMILES IDX 6 13 5 14 4 15 3 16 2 17 1 18
REMARK H PARENT
REMARK Flexibility Score: inf
ROOT
ATOM      1  C   UNL     1      -5.435   2.855  -4.492  1.00  0.00     0.004 C 
ENDROOT
BRANCH   1   2
ATOM      2  C   UNL     1      -5.088   3.755  -5.690  1.00  0.00     0.000 C 
BRANCH   2   3
ATOM      3  C   UNL     1      -5.320   5.247  -5.393  1.00  0.00     0.000 C 
BRANCH   3   4
ATOM      4  C   UNL     1      -6.260   5.472  -4.199  1.00  0.00     0.000 C 
BRANCH   4   5
ATOM      5  C   UNL     1      -6.035   6.827  -3.512  1.00  0.00     0.006 C 
BRANCH   5   6
ATOM      6  C   UNL     1      -4.869   7.582  -4.160  1.00  0.00     0.053 C 
BRANCH   6   7
ATOM      7  C   UNL     1      -4.066   8.298  -3.121  1.00  0.00     0.041 C 
ATOM      8  O   UNL     1      -4.155   7.966  -1.909  1.00  0.00    -0.550 OA
ATOM      9  O   UNL     1      -3.179   9.299  -3.496  1.00  0.00    -0.550 OA
ENDBRANCH   6   7
ENDBRANCH   5   6
ENDBRANCH   4   5
ENDBRANCH   3   4
ENDBRANCH   2   3
ENDBRANCH   1   2
BRANCH   1  10
ATOM     10  C   UNL     1      -6.325   1.666  -4.881  1.00  0.00     0.027 C 
BRANCH  10  11
ATOM     11  C   UNL     1      -7.454   2.115  -5.775  1.00  0.00    -0.031 C 
ATOM     12  C   UNL     1      -8.690   2.429  -5.345  1.00  0.00    -0.031 C 
BRANCH  12  13
ATOM     13  C   UNL     1      -9.166   2.289  -3.919  1.00  0.00     0.027 C 
BRANCH  13  14
ATOM     14  C   UNL     1      -9.433   3.653  -3.259  1.00  0.00     0.004 C 
BRANCH  14  15
ATOM     15  C   UNL     1      -9.732   4.789  -4.256  1.00  0.00     0.000 C 
BRANCH  15  16
ATOM     16  C   UNL     1      -9.877   6.159  -3.571  1.00  0.00    -0.000 C 
BRANCH  16  17
ATOM     17  C   UNL     1      -9.494   6.117  -2.084  1.00  0.00    -0.003 C 
ATOM     18  C   UNL     1      -9.112   7.491  -1.535  1.00  0.00     0.004 C 
ENDBRANCH  16  17
ENDBRANCH  15  16
ENDBRANCH  14  15
ENDBRANCH  13  14
ENDBRANCH  12  13
ENDBRANCH  10  11
ENDBRANCH   1  10
TORSDOF 13
ENDMDL
MODEL 5
REMARK VINA RESULT:    -4.423      3.369      5.655
REMARK INTER + INTRA:          -9.062
REMARK INTER:                  -6.346
REMARK INTRA:                  -2.716
REMARK UNBOUND:                -1.278
REMARK SMILES CCCCCCC=CCCCCCCCC(=O)[O-]
REMARK SMILES IDX 10 1 11 2 12 3 13 4 14 5 15 6 16 7 17 8 18 9 9 10 8 11 7 12
REMARK SMILES IDX 6 13 5 14 4 15 3 16 2 17 1 18
REMARK H PARENT
REMARK Flexibility Score: inf
ROOT
ATOM      1  C   UNL     1       3.341   6.493  -6.913  1.00  0.00     0.004 C 
ENDROOT
BRANCH   1   2
ATOM      2  C   UNL     1       3.698   5.141  -7.553  1.00  0.00     0.000 C 
BRANCH   2   3
ATOM      3  C   UNL     1       4.403   4.191  -6.569  1.00  0.00     0.000 C 
BRANCH   3   4
ATOM      4  C   UNL     1       5.096   3.016  -7.278  1.00  0.00     0.000 C 
BRANCH   4   5
ATOM      5  C   UNL     1       5.833   2.085  -6.304  1.00  0.00     0.006 C 
BRANCH   5   6
ATOM      6  C   UNL     1       6.044   2.767  -4.949  1.00  0.00     0.053 C 
BRANCH   6   7
ATOM      7  C   UNL     1       7.073   2.034  -4.147  1.00  0.00     0.041 C 
ATOM      8  O   UNL     1       8.155   2.599  -3.837  1.00  0.00    -0.550 OA
ATOM      9  O   UNL     1       6.816   0.745  -3.699  1.00  0.00    -0.550 OA
ENDBRANCH   6   7
ENDBRANCH   5   6
ENDBRANCH   4   5
ENDBRANCH   3   4
ENDBRANCH   2   3
ENDBRANCH   1   2
BRANCH   1  10
ATOM     10  C   UNL     1       3.729   6.568  -5.429  1.00  0.00     0.027 C 
BRANCH  10  11
ATOM     11  C   UNL     1       4.597   7.772  -5.166  1.00  0.00    -0.031 C 
ATOM     12  C   UNL     1       5.902   7.716  -4.840  1.00  0.00    -0.031 C 
BRANCH  12  13
ATOM     13  C   UNL     1       6.674   6.442  -4.595  1.00  0.00     0.027 C 
BRANCH  13  14
ATOM     14  C   UNL     1       7.971   6.380  -5.421  1.00  0.00     0.004 C 
BRANCH  14  15
ATOM     15  C   UNL     1       7.989   5.266  -6.484  1.00  0.00     0.000 C 
BRANCH  15  16
ATOM     16  C   UNL     1       7.487   5.746  -7.857  1.00  0.00    -0.000 C 
BRANCH  16  17
ATOM     17  C   UNL     1       7.617   7.267  -8.032  1.00  0.00    -0.003 C 
ATOM     18  C   UNL     1       6.331   7.913  -8.547  1.00  0.00     0.004 C 
ENDBRANCH  16  17
ENDBRANCH  15  16
ENDBRANCH  14  15
ENDBRANCH  13  14
ENDBRANCH  12  13
ENDBRANCH  10  11
ENDBRANCH   1  10
TORSDOF 13
ENDMDL
MODEL 6
REMARK VINA RESULT:    -4.414      1.346      2.064
REMARK INTER + INTRA:          -9.046
REMARK INTER:                  -7.475
REMARK INTRA:                  -1.571
REMARK UNBOUND:                -1.278
REMARK SMILES CCCCCCC=CCCCCCCCC(=O)[O-]
REMARK SMILES IDX 10 1 11 2 12 3 13 4 14 5 15 6 16 7 17 8 18 9 9 10 8 11 7 12
REMARK SMILES IDX 6 13 5 14 4 15 3 16 2 17 1 18
REMARK H PARENT
REMARK Flexibility Score: inf
ROOT
ATOM      1  C   UNL     1       6.375   1.881  -4.787  1.00  0.00     0.004 C 
ENDROOT
BRANCH   1   2
ATOM      2  C   UNL     1       7.659   2.483  -4.193  1.00  0.00     0.000 C 
BRANCH   2   3
ATOM      3  C   UNL     1       8.566   1.419  -3.550  1.00  0.00     0.000 C 
BRANCH   3   4
ATOM      4  C   UNL     1       7.769   0.255  -2.939  1.00  0.00     0.000 C 
BRANCH   4   5
ATOM      5  C   UNL     1       8.671  -0.857  -2.385  1.00  0.00     0.006 C 
BRANCH   5   6
ATOM      6  C   UNL     1       8.356  -1.135  -0.911  1.00  0.00     0.053 C 
BRANCH   6   7
ATOM      7  C   UNL     1       8.435  -2.601  -0.625  1.00  0.00     0.041 C 
ATOM      8  O   UNL     1       8.653  -3.418  -1.558  1.00  0.00    -0.550 OA
ATOM      9  O   UNL     1       8.319  -3.062   0.680  1.00  0.00    -0.550 OA
ENDBRANCH   6   7
ENDBRANCH   5   6
ENDBRANCH   4   5
ENDBRANCH   3   4
ENDBRANCH   2   3
ENDBRANCH   1   2
BRANCH   1  10
ATOM     10  C   UNL     1       5.572   2.895  -5.613  1.00  0.00     0.027 C 
BRANCH  10  11
ATOM     11  C   UNL     1       5.364   2.391  -7.019  1.00  0.00    -0.031 C 
ATOM     12  C   UNL     1       6.002   2.868  -8.104  1.00  0.00    -0.031 C 
BRANCH  12  13
ATOM     13  C   UNL     1       6.952   4.042  -8.096  1.00  0.00     0.027 C 
BRANCH  13  14
ATOM     14  C   UNL     1       8.391   3.623  -7.749  1.00  0.00     0.004 C 
BRANCH  14  15
ATOM     15  C   UNL     1       9.131   4.610  -6.827  1.00  0.00     0.000 C 
BRANCH  15  16
ATOM     16  C   UNL     1       8.175   5.544  -6.066  1.00  0.00    -0.000 C 
BRANCH  16  17
ATOM     17  C   UNL     1       8.720   5.947  -4.687  1.00  0.00    -0.003 C 
ATOM     18  C   UNL     1       7.611   6.234  -3.676  1.00  0.00     0.004 C 
ENDBRANCH  16  17
ENDBRANCH  15  16
ENDBRANCH  14  15
ENDBRANCH  13  14
ENDBRANCH  12  13
ENDBRANCH  10  11
ENDBRANCH   1  10
TORSDOF 13
ENDMDL
MODEL 7
REMARK VINA RESULT:    -4.390     13.760     15.428
REMARK INTER + INTRA:          -9.005
REMARK INTER:                  -7.595
REMARK INTRA:                  -1.410
REMARK UNBOUND:                -1.278
REMARK SMILES CCCCCCC=CCCCCCCCC(=O)[O-]
REMARK SMILES IDX 10 1 11 2 12 3 13 4 14 5 15 6 16 7 17 8 18 9 9 10 8 11 7 12
REMARK SMILES IDX 6 13 5 14 4 15 3 16 2 17 1 18
REMARK H PARENT
REMARK Flexibility Score: inf
ROOT
ATOM      1  C   UNL     1      -9.357   4.067  -4.560  1.00  0.00     0.004 C 
ENDROOT
BRANCH   1   2
ATOM      2  C   UNL     1      -9.477   2.873  -3.598  1.00  0.00     0.000 C 
BRANCH   2   3
ATOM      3  C   UNL     1      -8.524   1.722  -3.965  1.00  0.00     0.000 C 
BRANCH   3   4
ATOM      4  C   UNL     1      -7.953   1.859  -5.386  1.00  0.00     0.000 C 
BRANCH   4   5
ATOM      5  C   UNL     1      -6.418   1.793  -5.418  1.00  0.00     0.006 C 
BRANCH   5   6
ATOM      6  C   UNL     1      -5.825   3.100  -5.952  1.00  0.00     0.053 C 
BRANCH   6   7
ATOM      7  C   UNL     1      -5.641   4.085  -4.841  1.00  0.00     0.041 C 
ATOM      8  O   UNL     1      -5.594   5.319  -5.088  1.00  0.00    -0.550 OA
ATOM      9  O   UNL     1      -5.575   3.645  -3.525  1.00  0.00    -0.550 OA
ENDBRANCH   6   7
ENDBRANCH   5   6
ENDBRANCH   4   5
ENDBRANCH   3   4
ENDBRANCH   2   3
ENDBRANCH   1   2
BRANCH   1  10
ATOM     10  C   UNL     1      -8.966   5.368  -3.845  1.00  0.00     0.027 C 
BRANCH  10  11
ATOM     11  C   UNL     1      -8.506   5.085  -2.438  1.00  0.00    -0.031 C 
ATOM     12  C   UNL     1      -7.685   5.881  -1.727  1.00  0.00    -0.031 C 
BRANCH  12  13
ATOM     13  C   UNL     1      -7.023   7.129  -2.261  1.00  0.00     0.027 C 
BRANCH  13  14
ATOM     14  C   UNL     1      -6.762   8.166  -1.156  1.00  0.00     0.004 C 
BRANCH  14  15
ATOM     15  C   UNL     1      -5.460   7.935  -0.368  1.00  0.00     0.000 C 
BRANCH  15  16
ATOM     16  C   UNL     1      -5.459   8.640   1.000  1.00  0.00    -0.000 C 
BRANCH  16  17
ATOM     17  C   UNL     1      -4.341   8.131   1.923  1.00  0.00    -0.003 C 
ATOM     18  C   UNL     1      -4.504   8.613   3.365  1.00  0.00     0.004 C 
ENDBRANCH  16  17
ENDBRANCH  15  16
ENDBRANCH  14  15
ENDBRANCH  13  14
ENDBRANCH  12  13
ENDBRANCH  10  11
ENDBRANCH   1  10
TORSDOF 13
ENDMDL
MODEL 8
REMARK VINA RESULT:    -4.375     12.945     14.824
REMARK INTER + INTRA:          -8.978
REMARK INTER:                  -7.185
REMARK INTRA:                  -1.793
REMARK UNBOUND:                -1.278
REMARK SMILES CCCCCCC=CCCCCCCCC(=O)[O-]
REMARK SMILES IDX 10 1 11 2 12 3 13 4 14 5 15 6 16 7 17 8 18 9 9 10 8 11 7 12
REMARK SMILES IDX 6 13 5 14 4 15 3 16 2 17 1 18
REMARK H PARENT
REMARK Flexibility Score: inf
ROOT
ATOM      1  C   UNL     1      -6.892   5.783  -3.019  1.00  0.00     0.004 C 
ENDROOT
BRANCH   1   2
ATOM      2  C   UNL     1      -7.206   4.338  -2.598  1.00  0.00     0.000 C 
BRANCH   2   3
ATOM      3  C   UNL     1      -8.303   3.696  -3.466  1.00  0.00     0.000 C 
BRANCH   3   4
ATOM      4  C   UNL     1      -8.131   2.174  -3.602  1.00  0.00     0.000 C 
BRANCH   4   5
ATOM      5  C   UNL     1      -7.988   1.721  -5.063  1.00  0.00     0.006 C 
BRANCH   5   6
ATOM      6  C   UNL     1      -6.805   2.422  -5.740  1.00  0.00     0.053 C 
BRANCH   6   7
ATOM      7  C   UNL     1      -5.519   2.033  -5.082  1.00  0.00     0.041 C 
ATOM      8  O   UNL     1      -5.275   0.823  -4.832  1.00  0.00    -0.550 OA
ATOM      9  O   UNL     1      -4.566   3.001  -4.792  1.00  0.00    -0.550 OA
ENDBRANCH   6   7
ENDBRANCH   5   6
ENDBRANCH   4   5
ENDBRANCH   3   4
ENDBRANCH   2   3
ENDBRANCH   1   2
BRANCH   1  10
ATOM     10  C   UNL     1      -7.946   6.786  -2.528  1.00  0.00     0.027 C 
BRANCH  10  11
ATOM     11  C   UNL     1      -8.115   6.692  -1.033  1.00  0.00    -0.031 C 
ATOM     12  C   UNL     1      -7.536   7.522  -0.145  1.00  0.00    -0.031 C 
BRANCH  12  13
ATOM     13  C   UNL     1      -6.555   8.614  -0.501  1.00  0.00     0.027 C 
BRANCH  13  14
ATOM     14  C   UNL     1      -5.108   8.095  -0.568  1.00  0.00     0.004 C 
BRANCH  14  15
ATOM     15  C   UNL     1      -4.304   8.624  -1.769  1.00  0.00     0.000 C 
BRANCH  15  16
ATOM     16  C   UNL     1      -5.156   9.472  -2.730  1.00  0.00    -0.000 C 
BRANCH  16  17
ATOM     17  C   UNL     1      -5.180   8.900  -4.156  1.00  0.00    -0.003 C 
ATOM     18  C   UNL     1      -4.067   7.881  -4.401  1.00  0.00     0.004 C 
ENDBRANCH  16  17
ENDBRANCH  15  16
ENDBRANCH  14  15
ENDBRANCH  13  14
ENDBRANCH  12  13
ENDBRANCH  10  11
ENDBRANCH   1  10
TORSDOF 13
ENDMDL
MODEL 9
REMARK VINA RESULT:    -4.366     12.857     14.475
REMARK INTER + INTRA:          -8.961
REMARK INTER:                  -7.274
REMARK INTRA:                  -1.687
REMARK UNBOUND:                -1.278
REMARK SMILES CCCCCCC=CCCCCCCCC(=O)[O-]
REMARK SMILES IDX 10 1 11 2 12 3 13 4 14 5 15 6 16 7 17 8 18 9 9 10 8 11 7 12
REMARK SMILES IDX 6 13 5 14 4 15 3 16 2 17 1 18
REMARK H PARENT
REMARK Flexibility Score: inf
ROOT
ATOM      1  C   UNL     1      -8.087   4.828  -2.535  1.00  0.00     0.004 C 
ENDROOT
BRANCH   1   2
ATOM      2  C   UNL     1      -9.071   5.006  -3.703  1.00  0.00     0.000 C 
BRANCH   2   3
ATOM      3  C   UNL     1      -9.243   3.719  -4.530  1.00  0.00     0.000 C 
BRANCH   3   4
ATOM      4  C   UNL     1      -8.397   2.554  -3.991  1.00  0.00     0.000 C 
BRANCH   4   5
ATOM      5  C   UNL     1      -7.747   1.725  -5.109  1.00  0.00     0.006 C 
BRANCH   5   6
ATOM      6  C   UNL     1      -6.652   2.526  -5.819  1.00  0.00     0.053 C 
BRANCH   6   7
ATOM      7  C   UNL     1      -5.298   2.079  -5.368  1.00  0.00     0.041 C 
ATOM      8  O   UNL     1      -4.312   2.857  -5.453  1.00  0.00    -0.550 OA
ATOM      9  O   UNL     1      -5.134   0.820  -4.805  1.00  0.00    -0.550 OA
ENDBRANCH   6   7
ENDBRANCH   5   6
ENDBRANCH   4   5
ENDBRANCH   3   4
ENDBRANCH   2   3
ENDBRANCH   1   2
BRANCH   1  10
ATOM     10  C   UNL     1      -6.871   5.759  -2.636  1.00  0.00     0.027 C 
BRANCH  10  11
ATOM     11  C   UNL     1      -6.177   5.587  -3.964  1.00  0.00    -0.031 C 
ATOM     12  C   UNL     1      -5.660   6.594  -4.692  1.00  0.00    -0.031 C 
BRANCH  12  13
ATOM     13  C   UNL     1      -5.777   8.058  -4.340  1.00  0.00     0.027 C 
BRANCH  13  14
ATOM     14  C   UNL     1      -4.402   8.722  -4.154  1.00  0.00     0.004 C 
BRANCH  14  15
ATOM     15  C   UNL     1      -3.698   8.358  -2.834  1.00  0.00     0.000 C 
BRANCH  15  16
ATOM     16  C   UNL     1      -3.546   9.562  -1.888  1.00  0.00    -0.000 C 
BRANCH  16  17
ATOM     17  C   UNL     1      -4.565   9.538  -0.738  1.00  0.00    -0.003 C 
ATOM     18  C   UNL     1      -5.098   8.135  -0.452  1.00  0.00     0.004 C 
ENDBRANCH  16  17
ENDBRANCH  15  16
ENDBRANCH  14  15
ENDBRANCH  13  14
ENDBRANCH  12  13
ENDBRANCH  10  11
ENDBRANCH   1  10
TORSDOF 13
ENDMDL
