MODEL 1
REMARK VINA RESULT:    -5.084      0.000      0.000
REMARK INTER + INTRA:          -6.964
REMARK INTER:                  -6.570
REMARK INTRA:                  -0.394
REMARK UNBOUND:                -0.394
REMARK SMILES CCO[C@H]1O[C@H](CO)[C@H](O)[C@H](O)[C@@H]1O
REMARK SMILES IDX 4 1 13 2 11 3 9 4 6 5 5 6 3 7 2 8 1 9 14 10 12 12 7 14 8 15
REMARK SMILES IDX 10 17
REMARK H PARENT 14 11 12 13 8 16 10 18
REMARK Flexibility Score: inf
ROOT
ATOM      1  C   UNL     1      21.579   2.516  39.021  1.00  0.00     0.281 C 
ATOM      2  C   UNL     1      21.874   3.961  39.501  1.00  0.00     0.202 C 
ATOM      3  C   UNL     1      22.447   3.966  40.935  1.00  0.00     0.179 C 
ATOM      4  C   UNL     1      21.624   3.067  41.877  1.00  0.00     0.177 C 
ATOM      5  C   UNL     1      21.422   1.684  41.217  1.00  0.00     0.178 C 
ATOM      6  O   UNL     1      20.775   1.815  39.959  1.00  0.00    -0.341 OA
ENDROOT
BRANCH   1   7
ATOM      7  O   UNL     1      22.792   1.808  38.790  1.00  0.00    -0.350 OA
BRANCH   7   8
ATOM      8  C   UNL     1      22.635   0.848  37.767  1.00  0.00     0.160 C 
ATOM      9  C   UNL     1      23.294  -0.453  38.198  1.00  0.00     0.035 C 
ENDBRANCH   7   8
ENDBRANCH   1   7
BRANCH   2  10
ATOM     10  O   UNL     1      20.734   4.781  39.403  1.00  0.00    -0.385 OA
ATOM     11  H   UNL     1      20.874   5.427  38.663  1.00  0.00     0.211 HD
ENDBRANCH   2  10
BRANCH   3  12
ATOM     12  O   UNL     1      22.501   5.274  41.444  1.00  0.00    -0.387 OA
ATOM     13  H   UNL     1      21.708   5.753  41.086  1.00  0.00     0.211 HD
ENDBRANCH   3  12
BRANCH   5  14
ATOM     14  C   UNL     1      20.582   0.754  42.102  1.00  0.00     0.191 C 
BRANCH  14  15
ATOM     15  O   UNL     1      20.722   1.110  43.450  1.00  0.00    -0.394 OA
ATOM     16  H   UNL     1      20.247   1.975  43.558  1.00  0.00     0.210 HD
ENDBRANCH  14  15
ENDBRANCH   5  14
BRANCH   4  17
ATOM     17  O   UNL     1      20.377   3.654  42.160  1.00  0.00    -0.387 OA
ATOM     18  H   UNL     1      19.736   2.912  42.318  1.00  0.00     0.211 HD
ENDBRANCH   4  17
TORSDOF 7
ENDMDL
MODEL 2
REMARK VINA RESULT:    -4.528     15.963     17.383
REMARK INTER + INTRA:          -6.246
REMARK INTER:                  -5.903
REMARK INTRA:                  -0.343
REMARK UNBOUND:                -0.394
REMARK SMILES CCO[C@H]1O[C@H](CO)[C@H](O)[C@H](O)[C@@H]1O
REMARK SMILES IDX 4 1 13 2 11 3 9 4 6 5 5 6 3 7 2 8 1 9 14 10 12 12 7 14 8 15
REMARK SMILES IDX 10 17
REMARK H PARENT 14 11 12 13 8 16 10 18
REMARK Flexibility Score: inf
ROOT
ATOM      1  C   UNL     1      36.865   9.360  42.927  1.00  0.00     0.281 C 
ATOM      2  C   UNL     1      37.294   9.896  44.318  1.00  0.00     0.202 C 
ATOM      3  C   UNL     1      38.256   8.913  45.022  1.00  0.00     0.179 C 
ATOM      4  C   UNL     1      37.734   7.467  44.957  1.00  0.00     0.177 C 
ATOM      5  C   UNL     1      37.343   7.128  43.501  1.00  0.00     0.178 C 
ATOM      6  O   UNL     1      36.362   8.035  43.019  1.00  0.00    -0.341 OA
ENDROOT
BRANCH   1   7
ATOM      7  O   UNL     1      37.957   9.408  42.015  1.00  0.00    -0.350 OA
BRANCH   7   8
ATOM      8  C   UNL     1      37.880  10.550  41.188  1.00  0.00     0.160 C 
ATOM      9  C   UNL     1      39.172  10.682  40.398  1.00  0.00     0.035 C 
ENDBRANCH   7   8
ENDBRANCH   1   7
BRANCH   2  10
ATOM     10  O   UNL     1      36.179  10.187  45.127  1.00  0.00    -0.385 OA
ATOM     11  H   UNL     1      36.093  11.173  45.201  1.00  0.00     0.211 HD
ENDBRANCH   2  10
BRANCH   3  12
ATOM     12  O   UNL     1      38.462   9.292  46.358  1.00  0.00    -0.387 OA
ATOM     13  H   UNL     1      37.798  10.002  46.561  1.00  0.00     0.211 HD
ENDBRANCH   3  12
BRANCH   5  14
ATOM     14  C   UNL     1      36.788   5.703  43.382  1.00  0.00     0.191 C 
BRANCH  14  15
ATOM     15  O   UNL     1      37.205   4.927  44.472  1.00  0.00    -0.394 OA
ATOM     16  H   UNL     1      37.250   5.545  45.248  1.00  0.00     0.210 HD
ENDBRANCH  14  15
ENDBRANCH   5  14
BRANCH   4  17
ATOM     17  O   UNL     1      36.625   7.299  45.807  1.00  0.00    -0.387 OA
ATOM     18  H   UNL     1      36.487   6.321  45.916  1.00  0.00     0.211 HD
ENDBRANCH   4  17
TORSDOF 7
ENDMDL
MODEL 3
REMARK VINA RESULT:    -4.518     15.667     17.342
REMARK INTER + INTRA:          -6.232
REMARK INTER:                  -6.059
REMARK INTRA:                  -0.173
REMARK UNBOUND:                -0.394
REMARK SMILES CCO[C@H]1O[C@H](CO)[C@H](O)[C@H](O)[C@@H]1O
REMARK SMILES IDX 4 1 13 2 11 3 9 4 6 5 5 6 3 7 2 8 1 9 14 10 12 12 7 14 8 15
REMARK SMILES IDX 10 17
REMARK H PARENT 14 11 12 13 8 16 10 18
REMARK Flexibility Score: inf
ROOT
ATOM      1  C   UNL     1      37.685   7.471  43.735  1.00  0.00     0.281 C 
ATOM      2  C   UNL     1      37.206   8.083  45.078  1.00  0.00     0.202 C 
ATOM      3  C   UNL     1      36.211   9.239  44.840  1.00  0.00     0.179 C 
ATOM      4  C   UNL     1      36.724  10.216  43.767  1.00  0.00     0.177 C 
ATOM      5  C   UNL     1      37.168   9.420  42.520  1.00  0.00     0.178 C 
ATOM      6  O   UNL     1      38.174   8.475  42.857  1.00  0.00    -0.341 OA
ENDROOT
BRANCH   1   7
ATOM      7  O   UNL     1      36.630   6.747  43.112  1.00  0.00    -0.350 OA
BRANCH   7   8
ATOM      8  C   UNL     1      36.925   5.367  43.052  1.00  0.00     0.160 C 
ATOM      9  C   UNL     1      36.113   4.637  44.110  1.00  0.00     0.035 C 
ENDBRANCH   7   8
ENDBRANCH   1   7
BRANCH   2  10
ATOM     10  O   UNL     1      38.292   8.498  45.873  1.00  0.00    -0.385 OA
ATOM     11  H   UNL     1      37.979   9.218  46.480  1.00  0.00     0.211 HD
ENDBRANCH   2  10
BRANCH   3  12
ATOM     12  O   UNL     1      35.956   9.929  46.037  1.00  0.00    -0.387 OA
ATOM     13  H   UNL     1      35.812  10.881  45.794  1.00  0.00     0.211 HD
ENDBRANCH   3  12
BRANCH   5  14
ATOM     14  C   UNL     1      37.716  10.344  41.425  1.00  0.00     0.191 C 
BRANCH  14  15
ATOM     15  O   UNL     1      38.396   9.596  40.453  1.00  0.00    -0.394 OA
ATOM     16  H   UNL     1      37.715   9.338  39.779  1.00  0.00     0.210 HD
ENDBRANCH  14  15
ENDBRANCH   5  14
BRANCH   4  17
ATOM     17  O   UNL     1      37.798  10.980  44.261  1.00  0.00    -0.387 OA
ATOM     18  H   UNL     1      37.623  11.136  45.226  1.00  0.00     0.211 HD
ENDBRANCH   4  17
TORSDOF 7
ENDMDL
MODEL 4
REMARK VINA RESULT:    -4.490     10.022     11.393
REMARK INTER + INTRA:          -6.196
REMARK INTER:                  -5.973
REMARK INTRA:                  -0.223
REMARK UNBOUND:                -0.394
REMARK SMILES CCO[C@H]1O[C@H](CO)[C@H](O)[C@H](O)[C@@H]1O
REMARK SMILES IDX 4 1 13 2 11 3 9 4 6 5 5 6 3 7 2 8 1 9 14 10 12 12 7 14 8 15
REMARK SMILES IDX 10 17
REMARK H PARENT 14 11 12 13 8 16 10 18
REMARK Flexibility Score: inf
ROOT
ATOM      1  C   UNL     1      31.618   1.912  42.379  1.00  0.00     0.281 C 
ATOM      2  C   UNL     1      32.160   0.904  41.333  1.00  0.00     0.202 C 
ATOM      3  C   UNL     1      33.393   1.472  40.597  1.00  0.00     0.179 C 
ATOM      4  C   UNL     1      33.152   2.916  40.121  1.00  0.00     0.177 C 
ATOM      5  C   UNL     1      32.598   3.756  41.293  1.00  0.00     0.178 C 
ATOM      6  O   UNL     1      31.397   3.189  41.797  1.00  0.00    -0.341 OA
ENDROOT
BRANCH   1   7
ATOM      7  O   UNL     1      32.515   2.023  43.478  1.00  0.00    -0.350 OA
BRANCH   7   8
ATOM      8  C   UNL     1      32.038   1.308  44.599  1.00  0.00     0.160 C 
ATOM      9  C   UNL     1      30.636   1.789  44.939  1.00  0.00     0.035 C 
ENDBRANCH   7   8
ENDBRANCH   1   7
BRANCH   2  10
ATOM     10  O   UNL     1      31.159   0.512  40.424  1.00  0.00    -0.385 OA
ATOM     11  H   UNL     1      31.354   0.925  39.543  1.00  0.00     0.211 HD
ENDBRANCH   2  10
BRANCH   3  12
ATOM     12  O   UNL     1      33.741   0.657  39.508  1.00  0.00    -0.387 OA
ATOM     13  H   UNL     1      34.560   0.161  39.771  1.00  0.00     0.211 HD
ENDBRANCH   3  12
BRANCH   5  14
ATOM     14  C   UNL     1      32.311   5.202  40.867  1.00  0.00     0.191 C 
BRANCH  14  15
ATOM     15  O   UNL     1      31.037   5.593  41.300  1.00  0.00    -0.394 OA
ATOM     16  H   UNL     1      30.531   4.753  41.460  1.00  0.00     0.210 HD
ENDBRANCH  14  15
ENDBRANCH   5  14
BRANCH   4  17
ATOM     17  O   UNL     1      32.250   2.940  39.041  1.00  0.00    -0.387 OA
ATOM     18  H   UNL     1      32.535   3.678  38.441  1.00  0.00     0.211 HD
ENDBRANCH   4  17
TORSDOF 7
ENDMDL
MODEL 5
REMARK VINA RESULT:    -4.477     15.869     16.933
REMARK INTER + INTRA:          -6.179
REMARK INTER:                  -5.820
REMARK INTRA:                  -0.359
REMARK UNBOUND:                -0.394
REMARK SMILES CCO[C@H]1O[C@H](CO)[C@H](O)[C@H](O)[C@@H]1O
REMARK SMILES IDX 4 1 13 2 11 3 9 4 6 5 5 6 3 7 2 8 1 9 14 10 12 12 7 14 8 15
REMARK SMILES IDX 10 17
REMARK H PARENT 14 11 12 13 8 16 10 18
REMARK Flexibility Score: inf
ROOT
ATOM      1  C   UNL     1      36.766   4.751  43.905  1.00  0.00     0.281 C 
ATOM      2  C   UNL     1      37.733   5.956  43.768  1.00  0.00     0.202 C 
ATOM      3  C   UNL     1      39.163   5.486  43.422  1.00  0.00     0.179 C 
ATOM      4  C   UNL     1      39.613   4.326  44.327  1.00  0.00     0.177 C 
ATOM      5  C   UNL     1      38.514   3.239  44.350  1.00  0.00     0.178 C 
ATOM      6  O   UNL     1      37.281   3.778  44.803  1.00  0.00    -0.341 OA
ENDROOT
BRANCH   1   7
ATOM      7  O   UNL     1      36.517   4.162  42.634  1.00  0.00    -0.350 OA
BRANCH   7   8
ATOM      8  C   UNL     1      35.172   3.749  42.519  1.00  0.00     0.160 C 
ATOM      9  C   UNL     1      34.496   4.551  41.418  1.00  0.00     0.035 C 
ENDBRANCH   7   8
ENDBRANCH   1   7
BRANCH   2  10
ATOM     10  O   UNL     1      37.725   6.761  44.923  1.00  0.00    -0.385 OA
ATOM     11  H   UNL     1      38.579   7.265  44.961  1.00  0.00     0.211 HD
ENDBRANCH   2  10
BRANCH   3  12
ATOM     12  O   UNL     1      40.073   6.552  43.518  1.00  0.00    -0.387 OA
ATOM     13  H   UNL     1      40.934   6.228  43.145  1.00  0.00     0.211 HD
ENDBRANCH   3  12
BRANCH   5  14
ATOM     14  C   UNL     1      38.898   2.067  45.262  1.00  0.00     0.191 C 
BRANCH  14  15
ATOM     15  O   UNL     1      38.358   2.251  46.542  1.00  0.00    -0.394 OA
ATOM     16  H   UNL     1      37.467   1.815  46.531  1.00  0.00     0.210 HD
ENDBRANCH  14  15
ENDBRANCH   5  14
BRANCH   4  17
ATOM     17  O   UNL     1      39.866   4.783  45.633  1.00  0.00    -0.387 OA
ATOM     18  H   UNL     1      38.994   5.056  46.020  1.00  0.00     0.211 HD
ENDBRANCH   4  17
TORSDOF 7
ENDMDL
MODEL 6
REMARK VINA RESULT:    -4.476      3.120      5.076
REMARK INTER + INTRA:          -6.178
REMARK INTER:                  -5.782
REMARK INTRA:                  -0.396
REMARK UNBOUND:                -0.394
REMARK SMILES CCO[C@H]1O[C@H](CO)[C@H](O)[C@H](O)[C@@H]1O
REMARK SMILES IDX 4 1 13 2 11 3 9 4 6 5 5 6 3 7 2 8 1 9 14 10 12 12 7 14 8 15
REMARK SMILES IDX 10 17
REMARK H PARENT 14 11 12 13 8 16 10 18
REMARK Flexibility Score: inf
ROOT
ATOM      1  C   UNL     1      22.591   3.054  36.685  1.00  0.00     0.281 C 
ATOM      2  C   UNL     1      22.179   3.828  37.965  1.00  0.00     0.202 C 
ATOM      3  C   UNL     1      20.649   4.032  38.025  1.00  0.00     0.179 C 
ATOM      4  C   UNL     1      20.094   4.547  36.684  1.00  0.00     0.177 C 
ATOM      5  C   UNL     1      20.630   3.663  35.535  1.00  0.00     0.178 C 
ATOM      6  O   UNL     1      22.050   3.661  35.521  1.00  0.00    -0.341 OA
ENDROOT
BRANCH   1   7
ATOM      7  O   UNL     1      22.177   1.696  36.767  1.00  0.00    -0.350 OA
BRANCH   7   8
ATOM      8  C   UNL     1      23.242   0.862  37.174  1.00  0.00     0.160 C 
ATOM      9  C   UNL     1      22.856   0.149  38.460  1.00  0.00     0.035 C 
ENDBRANCH   7   8
ENDBRANCH   1   7
BRANCH   2  10
ATOM     10  O   UNL     1      22.863   5.054  38.071  1.00  0.00    -0.385 OA
ATOM     11  H   UNL     1      22.194   5.786  38.101  1.00  0.00     0.211 HD
ENDBRANCH   2  10
BRANCH   3  12
ATOM     12  O   UNL     1      20.307   4.917  39.060  1.00  0.00    -0.387 OA
ATOM     13  H   UNL     1      19.944   5.736  38.629  1.00  0.00     0.211 HD
ENDBRANCH   3  12
BRANCH   5  14
ATOM     14  C   UNL     1      20.129   4.148  34.169  1.00  0.00     0.191 C 
BRANCH  14  15
ATOM     15  O   UNL     1      20.958   5.169  33.683  1.00  0.00    -0.394 OA
ATOM     16  H   UNL     1      21.191   4.915  32.752  1.00  0.00     0.210 HD
ENDBRANCH  14  15
ENDBRANCH   5  14
BRANCH   4  17
ATOM     17  O   UNL     1      20.464   5.888  36.475  1.00  0.00    -0.387 OA
ATOM     18  H   UNL     1      19.652   6.440  36.624  1.00  0.00     0.211 HD
ENDBRANCH   4  17
TORSDOF 7
ENDMDL
MODEL 7
REMARK VINA RESULT:    -4.463     10.030     11.321
REMARK INTER + INTRA:          -6.162
REMARK INTER:                  -5.747
REMARK INTRA:                  -0.415
REMARK UNBOUND:                -0.394
REMARK SMILES CCO[C@H]1O[C@H](CO)[C@H](O)[C@H](O)[C@@H]1O
REMARK SMILES IDX 4 1 13 2 11 3 9 4 6 5 5 6 3 7 2 8 1 9 14 10 12 12 7 14 8 15
REMARK SMILES IDX 10 17
REMARK H PARENT 14 11 12 13 8 16 10 18
REMARK Flexibility Score: inf
ROOT
ATOM      1  C   UNL     1      33.072   2.274  41.652  1.00  0.00     0.281 C 
ATOM      2  C   UNL     1      32.736   3.777  41.839  1.00  0.00     0.202 C 
ATOM      3  C   UNL     1      31.499   4.179  41.005  1.00  0.00     0.179 C 
ATOM      4  C   UNL     1      31.595   3.656  39.561  1.00  0.00     0.177 C 
ATOM      5  C   UNL     1      31.954   2.153  39.584  1.00  0.00     0.178 C 
ATOM      6  O   UNL     1      33.176   1.937  40.276  1.00  0.00    -0.341 OA
ENDROOT
BRANCH   1   7
ATOM      7  O   UNL     1      32.090   1.460  42.283  1.00  0.00    -0.350 OA
BRANCH   7   8
ATOM      8  C   UNL     1      32.091   1.653  43.682  1.00  0.00     0.160 C 
ATOM      9  C   UNL     1      30.667   1.906  44.153  1.00  0.00     0.035 C 
ENDBRANCH   7   8
ENDBRANCH   1   7
BRANCH   2  10
ATOM     10  O   UNL     1      33.842   4.595  41.540  1.00  0.00    -0.385 OA
ATOM     11  H   UNL     1      34.164   4.369  40.629  1.00  0.00     0.211 HD
ENDBRANCH   2  10
BRANCH   3  12
ATOM     12  O   UNL     1      31.336   5.574  41.002  1.00  0.00    -0.387 OA
ATOM     13  H   UNL     1      30.776   5.799  41.792  1.00  0.00     0.211 HD
ENDBRANCH   3  12
BRANCH   5  14
ATOM     14  C   UNL     1      32.091   1.583  38.166  1.00  0.00     0.191 C 
BRANCH  14  15
ATOM     15  O   UNL     1      33.390   1.790  37.683  1.00  0.00    -0.394 OA
ATOM     16  H   UNL     1      33.748   0.891  37.462  1.00  0.00     0.210 HD
ENDBRANCH  14  15
ENDBRANCH   5  14
BRANCH   4  17
ATOM     17  O   UNL     1      32.564   4.373  38.835  1.00  0.00    -0.387 OA
ATOM     18  H   UNL     1      32.491   5.324  39.113  1.00  0.00     0.211 HD
ENDBRANCH   4  17
TORSDOF 7
ENDMDL
MODEL 8
REMARK VINA RESULT:    -4.448     10.247     11.225
REMARK INTER + INTRA:          -6.141
REMARK INTER:                  -6.057
REMARK INTRA:                  -0.084
REMARK UNBOUND:                -0.394
REMARK SMILES CCO[C@H]1O[C@H](CO)[C@H](O)[C@H](O)[C@@H]1O
REMARK SMILES IDX 4 1 13 2 11 3 9 4 6 5 5 6 3 7 2 8 1 9 14 10 12 12 7 14 8 15
REMARK SMILES IDX 10 17
REMARK H PARENT 14 11 12 13 8 16 10 18
REMARK Flexibility Score: inf
ROOT
ATOM      1  C   UNL     1      33.423   3.288  41.425  1.00  0.00     0.281 C 
ATOM      2  C   UNL     1      33.324   2.437  40.132  1.00  0.00     0.202 C 
ATOM      3  C   UNL     1      31.892   1.897  39.928  1.00  0.00     0.179 C 
ATOM      4  C   UNL     1      31.332   1.276  41.220  1.00  0.00     0.177 C 
ATOM      5  C   UNL     1      31.539   2.261  42.393  1.00  0.00     0.178 C 
ATOM      6  O   UNL     1      32.914   2.580  42.547  1.00  0.00    -0.341 OA
ENDROOT
BRANCH   1   7
ATOM      7  O   UNL     1      32.729   4.520  41.268  1.00  0.00    -0.350 OA
BRANCH   7   8
ATOM      8  C   UNL     1      32.741   4.943  39.921  1.00  0.00     0.160 C 
ATOM      9  C   UNL     1      31.380   5.519  39.565  1.00  0.00     0.035 C 
ENDBRANCH   7   8
ENDBRANCH   1   7
BRANCH   2  10
ATOM     10  O   UNL     1      34.270   1.394  40.125  1.00  0.00    -0.385 OA
ATOM     11  H   UNL     1      34.008   0.728  40.812  1.00  0.00     0.211 HD
ENDBRANCH   2  10
BRANCH   3  12
ATOM     12  O   UNL     1      31.860   0.954  38.888  1.00  0.00    -0.387 OA
ATOM     13  H   UNL     1      32.776   0.576  38.816  1.00  0.00     0.211 HD
ENDBRANCH   3  12
BRANCH   5  14
ATOM     14  C   UNL     1      31.022   1.681  43.716  1.00  0.00     0.191 C 
BRANCH  14  15
ATOM     15  O   UNL     1      31.891   0.684  44.181  1.00  0.00    -0.394 OA
ATOM     16  H   UNL     1      32.643   1.159  44.623  1.00  0.00     0.210 HD
ENDBRANCH  14  15
ENDBRANCH   5  14
BRANCH   4  17
ATOM     17  O   UNL     1      31.966   0.052  41.500  1.00  0.00    -0.387 OA
ATOM     18  H   UNL     1      32.925   0.162  41.269  1.00  0.00     0.211 HD
ENDBRANCH   4  17
TORSDOF 7
ENDMDL
MODEL 9
REMARK VINA RESULT:    -4.433      1.451      2.164
REMARK INTER + INTRA:          -6.122
REMARK INTER:                  -5.746
REMARK INTRA:                  -0.376
REMARK UNBOUND:                -0.394
REMARK SMILES CCO[C@H]1O[C@H](CO)[C@H](O)[C@H](O)[C@@H]1O
REMARK SMILES IDX 4 1 13 2 11 3 9 4 6 5 5 6 3 7 2 8 1 9 14 10 12 12 7 14 8 15
REMARK SMILES IDX 10 17
REMARK H PARENT 14 11 12 13 8 16 10 18
REMARK Flexibility Score: inf
ROOT
ATOM      1  C   UNL     1      21.762   1.340  38.514  1.00  0.00     0.281 C 
ATOM      2  C   UNL     1      21.993   2.620  37.668  1.00  0.00     0.202 C 
ATOM      3  C   UNL     1      22.793   3.676  38.463  1.00  0.00     0.179 C 
ATOM      4  C   UNL     1      22.226   3.865  39.881  1.00  0.00     0.177 C 
ATOM      5  C   UNL     1      22.050   2.483  40.551  1.00  0.00     0.178 C 
ATOM      6  O   UNL     1      21.195   1.654  39.778  1.00  0.00    -0.341 OA
ENDROOT
BRANCH   1   7
ATOM      7  O   UNL     1      22.981   0.628  38.687  1.00  0.00    -0.350 OA
BRANCH   7   8
ATOM      8  C   UNL     1      23.445   0.105  37.460  1.00  0.00     0.160 C 
ATOM      9  C   UNL     1      24.358  -1.080  37.735  1.00  0.00     0.035 C 
ENDBRANCH   7   8
ENDBRANCH   1   7
BRANCH   2  10
ATOM     10  O   UNL     1      20.780   3.150  37.190  1.00  0.00    -0.385 OA
ATOM     11  H   UNL     1      20.916   3.451  36.254  1.00  0.00     0.211 HD
ENDBRANCH   2  10
BRANCH   3  12
ATOM     12  O   UNL     1      22.806   4.904  37.782  1.00  0.00    -0.387 OA
ATOM     13  H   UNL     1      22.558   4.712  36.839  1.00  0.00     0.211 HD
ENDBRANCH   3  12
BRANCH   5  14
ATOM     14  C   UNL     1      21.461   2.610  41.962  1.00  0.00     0.191 C 
BRANCH  14  15
ATOM     15  O   UNL     1      21.987   3.737  42.608  1.00  0.00    -0.394 OA
ATOM     16  H   UNL     1      22.466   4.256  41.910  1.00  0.00     0.210 HD
ENDBRANCH  14  15
ENDBRANCH   5  14
BRANCH   4  17
ATOM     17  O   UNL     1      20.994   4.542  39.839  1.00  0.00    -0.387 OA
ATOM     18  H   UNL     1      20.632   4.545  40.764  1.00  0.00     0.211 HD
ENDBRANCH   4  17
TORSDOF 7
ENDMDL
