MODEL 1
REMARK VINA RESULT:    -6.503      0.000      0.000
REMARK INTER + INTRA:          -8.246
REMARK INTER:                  -7.834
REMARK INTRA:                  -0.412
REMARK UNBOUND:                -0.412
REMARK SMILES O=c1c(O)c(-c2ccc(O)cc2O)oc2cc(O)cc(O)c12
REMARK SMILES IDX 5 1 3 2 2 3 1 4 22 5 20 6 19 7 17 8 16 9 15 10 14 11 6 12
REMARK SMILES IDX 8 13 7 14 9 15 11 16 12 17 10 18 13 20 4 22 21 24 18 26
REMARK H PARENT 10 19 13 21 4 23 21 25 18 27
REMARK Flexibility Score: inf
ROOT
ATOM      1  C   UNL     1      57.709  18.318  46.083  1.00  0.00     0.184 A 
ATOM      2  C   UNL     1      57.632  19.252  47.130  1.00  0.00     0.208 A 
ATOM      3  C   UNL     1      57.161  20.546  46.855  1.00  0.00     0.238 A 
ATOM      4  O   UNL     1      57.148  21.394  47.784  1.00  0.00    -0.285 OA
ATOM      5  C   UNL     1      56.751  20.881  45.542  1.00  0.00     0.111 A 
ATOM      6  C   UNL     1      56.219  22.149  45.158  1.00  0.00     0.134 A 
ATOM      7  C   UNL     1      55.966  22.411  43.806  1.00  0.00     0.093 A 
ATOM      8  C   UNL     1      56.165  21.433  42.833  1.00  0.00     0.123 A 
ATOM      9  C   UNL     1      56.630  20.170  43.205  1.00  0.00     0.094 A 
ATOM     10  C   UNL     1      56.925  19.890  44.541  1.00  0.00     0.146 A 
ATOM     11  O   UNL     1      57.375  18.680  44.851  1.00  0.00    -0.451 OA
ENDROOT
BRANCH   1  12
ATOM     12  C   UNL     1      58.176  16.929  46.308  1.00  0.00     0.063 A 
ATOM     13  C   UNL     1      59.961  15.365  46.852  1.00  0.00     0.047 A 
ATOM     14  C   UNL     1      59.525  16.671  46.612  1.00  0.00     0.020 A 
ATOM     15  C   UNL     1      59.053  14.301  46.801  1.00  0.00     0.119 A 
ATOM     16  C   UNL     1      57.708  14.548  46.514  1.00  0.00     0.093 A 
ATOM     17  C   UNL     1      57.262  15.856  46.270  1.00  0.00     0.130 A 
BRANCH  15  18
ATOM     18  O   UNL     1      59.477  12.996  47.039  1.00  0.00    -0.508 OA
ATOM     19  H   UNL     1      60.455  12.774  47.182  1.00  0.00     0.293 HD
ENDBRANCH  15  18
BRANCH  17  20
ATOM     20  O   UNL     1      55.918  16.087  45.977  1.00  0.00    -0.507 OA
ATOM     21  H   UNL     1      55.181  15.812  46.615  1.00  0.00     0.293 HD
ENDBRANCH  17  20
ENDBRANCH   1  12
BRANCH   2  22
ATOM     22  O   UNL     1      58.055  18.901  48.415  1.00  0.00    -0.502 OA
ATOM     23  H   UNL     1      57.410  18.603  49.137  1.00  0.00     0.293 HD
ENDBRANCH   2  22
BRANCH   6  24
ATOM     24  O   UNL     1      55.896  23.166  46.061  1.00  0.00    -0.507 OA
ATOM     25  H   UNL     1      55.837  24.146  45.827  1.00  0.00     0.293 HD
ENDBRANCH   6  24
BRANCH   8  26
ATOM     26  O   UNL     1      55.890  21.724  41.499  1.00  0.00    -0.508 OA
ATOM     27  H   UNL     1      55.150  21.248  40.994  1.00  0.00     0.293 HD
ENDBRANCH   8  26
TORSDOF 6
ENDMDL
MODEL 2
REMARK VINA RESULT:    -6.298      3.316      7.228
REMARK INTER + INTRA:          -7.999
REMARK INTER:                  -7.519
REMARK INTRA:                  -0.479
REMARK UNBOUND:                -0.412
REMARK SMILES O=c1c(O)c(-c2ccc(O)cc2O)oc2cc(O)cc(O)c12
REMARK SMILES IDX 5 1 3 2 2 3 1 4 22 5 20 6 19 7 17 8 16 9 15 10 14 11 6 12
REMARK SMILES IDX 8 13 7 14 9 15 11 16 12 17 10 18 13 20 4 22 21 24 18 26
REMARK H PARENT 10 19 13 21 4 23 21 25 18 27
REMARK Flexibility Score: inf
ROOT
ATOM      1  C   UNL     1      60.466  19.783  47.276  1.00  0.00     0.184 A 
ATOM      2  C   UNL     1      61.483  20.119  48.185  1.00  0.00     0.208 A 
ATOM      3  C   UNL     1      62.551  19.226  48.373  1.00  0.00     0.238 A 
ATOM      4  O   UNL     1      63.428  19.506  49.230  1.00  0.00    -0.285 OA
ATOM      5  C   UNL     1      62.598  18.020  47.633  1.00  0.00     0.111 A 
ATOM      6  C   UNL     1      63.652  17.061  47.713  1.00  0.00     0.134 A 
ATOM      7  C   UNL     1      63.532  15.844  47.032  1.00  0.00     0.093 A 
ATOM      8  C   UNL     1      62.429  15.577  46.223  1.00  0.00     0.123 A 
ATOM      9  C   UNL     1      61.419  16.532  46.090  1.00  0.00     0.094 A 
ATOM     10  C   UNL     1      61.494  17.741  46.787  1.00  0.00     0.146 A 
ATOM     11  O   UNL     1      60.507  18.618  46.642  1.00  0.00    -0.451 OA
ENDROOT
BRANCH   1  12
ATOM     12  C   UNL     1      59.323  20.689  47.012  1.00  0.00     0.063 A 
ATOM     13  C   UNL     1      58.379  22.612  45.855  1.00  0.00     0.047 A 
ATOM     14  C   UNL     1      59.463  21.774  46.127  1.00  0.00     0.020 A 
ATOM     15  C   UNL     1      57.138  22.373  46.456  1.00  0.00     0.119 A 
ATOM     16  C   UNL     1      56.985  21.291  47.326  1.00  0.00     0.093 A 
ATOM     17  C   UNL     1      58.069  20.445  47.606  1.00  0.00     0.130 A 
BRANCH  15  18
ATOM     18  O   UNL     1      56.051  23.203  46.192  1.00  0.00    -0.508 OA
ATOM     19  H   UNL     1      56.139  24.020  45.599  1.00  0.00     0.293 HD
ENDBRANCH  15  18
BRANCH  17  20
ATOM     20  O   UNL     1      57.903  19.372  48.482  1.00  0.00    -0.507 OA
ATOM     21  H   UNL     1      57.544  19.502  49.420  1.00  0.00     0.293 HD
ENDBRANCH  17  20
ENDBRANCH   1  12
BRANCH   2  22
ATOM     22  O   UNL     1      61.407  21.309  48.913  1.00  0.00    -0.502 OA
ATOM     23  H   UNL     1      60.543  21.643  49.321  1.00  0.00     0.293 HD
ENDBRANCH   2  22
BRANCH   6  24
ATOM     24  O   UNL     1      64.841  17.265  48.420  1.00  0.00    -0.507 OA
ATOM     25  H   UNL     1      65.750  17.379  47.997  1.00  0.00     0.293 HD
ENDBRANCH   6  24
BRANCH   8  26
ATOM     26  O   UNL     1      62.349  14.361  45.548  1.00  0.00    -0.508 OA
ATOM     27  H   UNL     1      62.606  13.488  45.996  1.00  0.00     0.293 HD
ENDBRANCH   8  26
TORSDOF 6
ENDMDL
MODEL 3
REMARK VINA RESULT:    -6.100      3.675      6.416
REMARK INTER + INTRA:          -7.760
REMARK INTER:                  -7.426
REMARK INTRA:                  -0.334
REMARK UNBOUND:                -0.412
REMARK SMILES O=c1c(O)c(-c2ccc(O)cc2O)oc2cc(O)cc(O)c12
REMARK SMILES IDX 5 1 3 2 2 3 1 4 22 5 20 6 19 7 17 8 16 9 15 10 14 11 6 12
REMARK SMILES IDX 8 13 7 14 9 15 11 16 12 17 10 18 13 20 4 22 21 24 18 26
REMARK H PARENT 10 19 13 21 4 23 21 25 18 27
REMARK Flexibility Score: inf
ROOT
ATOM      1  C   UNL     1      60.217  19.401  47.942  1.00  0.00     0.184 A 
ATOM      2  C   UNL     1      58.869  19.458  48.334  1.00  0.00     0.208 A 
ATOM      3  C   UNL     1      57.975  18.495  47.838  1.00  0.00     0.238 A 
ATOM      4  O   UNL     1      56.758  18.585  48.148  1.00  0.00    -0.285 OA
ATOM      5  C   UNL     1      58.445  17.475  46.976  1.00  0.00     0.111 A 
ATOM      6  C   UNL     1      57.636  16.425  46.447  1.00  0.00     0.134 A 
ATOM      7  C   UNL     1      58.178  15.545  45.501  1.00  0.00     0.093 A 
ATOM      8  C   UNL     1      59.514  15.638  45.114  1.00  0.00     0.123 A 
ATOM      9  C   UNL     1      60.330  16.625  45.670  1.00  0.00     0.094 A 
ATOM     10  C   UNL     1      59.808  17.539  46.588  1.00  0.00     0.146 A 
ATOM     11  O   UNL     1      60.616  18.470  47.084  1.00  0.00    -0.451 OA
ENDROOT
BRANCH   1  12
ATOM     12  C   UNL     1      61.218  20.372  48.445  1.00  0.00     0.063 A 
ATOM     13  C   UNL     1      61.981  22.668  48.711  1.00  0.00     0.047 A 
ATOM     14  C   UNL     1      61.054  21.749  48.214  1.00  0.00     0.020 A 
ATOM     15  C   UNL     1      63.081  22.223  49.454  1.00  0.00     0.119 A 
ATOM     16  C   UNL     1      63.246  20.858  49.700  1.00  0.00     0.093 A 
ATOM     17  C   UNL     1      62.320  19.928  49.203  1.00  0.00     0.130 A 
BRANCH  15  18
ATOM     18  O   UNL     1      64.012  23.130  49.955  1.00  0.00    -0.508 OA
ATOM     19  H   UNL     1      63.746  24.071  50.220  1.00  0.00     0.293 HD
ENDBRANCH  15  18
BRANCH  17  20
ATOM     20  O   UNL     1      62.502  18.568  49.451  1.00  0.00    -0.507 OA
ATOM     21  H   UNL     1      61.761  17.896  49.294  1.00  0.00     0.293 HD
ENDBRANCH  17  20
ENDBRANCH   1  12
BRANCH   2  22
ATOM     22  O   UNL     1      58.426  20.481  49.176  1.00  0.00    -0.502 OA
ATOM     23  H   UNL     1      58.255  20.337  50.164  1.00  0.00     0.293 HD
ENDBRANCH   2  22
BRANCH   6  24
ATOM     24  O   UNL     1      56.314  16.186  46.835  1.00  0.00    -0.507 OA
ATOM     25  H   UNL     1      55.952  16.336  47.764  1.00  0.00     0.293 HD
ENDBRANCH   6  24
BRANCH   8  26
ATOM     26  O   UNL     1      60.024  14.736  44.182  1.00  0.00    -0.508 OA
ATOM     27  H   UNL     1      60.867  14.204  44.366  1.00  0.00     0.293 HD
ENDBRANCH   8  26
TORSDOF 6
ENDMDL
MODEL 4
REMARK VINA RESULT:    -6.016      1.955      3.241
REMARK INTER + INTRA:          -7.659
REMARK INTER:                  -7.188
REMARK INTRA:                  -0.471
REMARK UNBOUND:                -0.412
REMARK SMILES O=c1c(O)c(-c2ccc(O)cc2O)oc2cc(O)cc(O)c12
REMARK SMILES IDX 5 1 3 2 2 3 1 4 22 5 20 6 19 7 17 8 16 9 15 10 14 11 6 12
REMARK SMILES IDX 8 13 7 14 9 15 11 16 12 17 10 18 13 20 4 22 21 24 18 26
REMARK H PARENT 10 19 13 21 4 23 21 25 18 27
REMARK Flexibility Score: inf
ROOT
ATOM      1  C   UNL     1      58.207  17.571  46.270  1.00  0.00     0.184 A 
ATOM      2  C   UNL     1      57.052  18.081  45.654  1.00  0.00     0.208 A 
ATOM      3  C   UNL     1      56.936  19.469  45.470  1.00  0.00     0.238 A 
ATOM      4  O   UNL     1      55.875  19.924  44.969  1.00  0.00    -0.285 OA
ATOM      5  C   UNL     1      57.985  20.325  45.883  1.00  0.00     0.111 A 
ATOM      6  C   UNL     1      57.993  21.741  45.709  1.00  0.00     0.134 A 
ATOM      7  C   UNL     1      59.025  22.501  46.271  1.00  0.00     0.093 A 
ATOM      8  C   UNL     1      60.083  21.892  46.945  1.00  0.00     0.123 A 
ATOM      9  C   UNL     1      60.117  20.502  47.070  1.00  0.00     0.094 A 
ATOM     10  C   UNL     1      59.082  19.721  46.552  1.00  0.00     0.146 A 
ATOM     11  O   UNL     1      59.147  18.402  46.702  1.00  0.00    -0.451 OA
ENDROOT
BRANCH   1  12
ATOM     12  C   UNL     1      58.405  16.116  46.475  1.00  0.00     0.063 A 
ATOM     13  C   UNL     1      58.894  13.907  45.577  1.00  0.00     0.047 A 
ATOM     14  C   UNL     1      58.679  15.273  45.383  1.00  0.00     0.020 A 
ATOM     15  C   UNL     1      58.848  13.365  46.867  1.00  0.00     0.119 A 
ATOM     16  C   UNL     1      58.590  14.196  47.961  1.00  0.00     0.093 A 
ATOM     17  C   UNL     1      58.372  15.569  47.774  1.00  0.00     0.130 A 
BRANCH  15  18
ATOM     18  O   UNL     1      59.061  12.004  47.073  1.00  0.00    -0.508 OA
ATOM     19  H   UNL     1      59.965  11.578  46.905  1.00  0.00     0.293 HD
ENDBRANCH  15  18
BRANCH  17  20
ATOM     20  O   UNL     1      58.109  16.385  48.874  1.00  0.00    -0.507 OA
ATOM     21  H   UNL     1      58.803  16.546  49.594  1.00  0.00     0.293 HD
ENDBRANCH  17  20
ENDBRANCH   1  12
BRANCH   2  22
ATOM     22  O   UNL     1      56.025  17.218  45.267  1.00  0.00    -0.502 OA
ATOM     23  H   UNL     1      56.135  16.211  45.257  1.00  0.00     0.293 HD
ENDBRANCH   2  22
BRANCH   6  24
ATOM     24  O   UNL     1      57.032  22.442  44.974  1.00  0.00    -0.507 OA
ATOM     25  H   UNL     1      56.039  22.417  45.154  1.00  0.00     0.293 HD
ENDBRANCH   6  24
BRANCH   8  26
ATOM     26  O   UNL     1      61.101  22.679  47.480  1.00  0.00    -0.508 OA
ATOM     27  H   UNL     1      61.790  23.128  46.887  1.00  0.00     0.293 HD
ENDBRANCH   8  26
TORSDOF 6
ENDMDL
MODEL 5
REMARK VINA RESULT:    -6.015      3.923      5.762
REMARK INTER + INTRA:          -7.658
REMARK INTER:                  -7.193
REMARK INTRA:                  -0.465
REMARK UNBOUND:                -0.412
REMARK SMILES O=c1c(O)c(-c2ccc(O)cc2O)oc2cc(O)cc(O)c12
REMARK SMILES IDX 5 1 3 2 2 3 1 4 22 5 20 6 19 7 17 8 16 9 15 10 14 11 6 12
REMARK SMILES IDX 8 13 7 14 9 15 11 16 12 17 10 18 13 20 4 22 21 24 18 26
REMARK H PARENT 10 19 13 21 4 23 21 25 18 27
REMARK Flexibility Score: inf
ROOT
ATOM      1  C   UNL     1      60.057  21.153  47.055  1.00  0.00     0.184 A 
ATOM      2  C   UNL     1      59.638  22.102  46.108  1.00  0.00     0.208 A 
ATOM      3  C   UNL     1      58.489  21.839  45.343  1.00  0.00     0.238 A 
ATOM      4  O   UNL     1      58.152  22.666  44.457  1.00  0.00    -0.285 OA
ATOM      5  C   UNL     1      57.764  20.641  45.551  1.00  0.00     0.111 A 
ATOM      6  C   UNL     1      56.564  20.290  44.863  1.00  0.00     0.134 A 
ATOM      7  C   UNL     1      56.001  19.023  45.057  1.00  0.00     0.093 A 
ATOM      8  C   UNL     1      56.557  18.119  45.962  1.00  0.00     0.123 A 
ATOM      9  C   UNL     1      57.697  18.475  46.685  1.00  0.00     0.094 A 
ATOM     10  C   UNL     1      58.301  19.718  46.486  1.00  0.00     0.146 A 
ATOM     11  O   UNL     1      59.391  20.012  47.185  1.00  0.00    -0.451 OA
ENDROOT
BRANCH   1  12
ATOM     12  C   UNL     1      61.246  21.377  47.911  1.00  0.00     0.063 A 
ATOM     13  C   UNL     1      62.251  22.309  49.923  1.00  0.00     0.047 A 
ATOM     14  C   UNL     1      61.138  22.122  49.100  1.00  0.00     0.020 A 
ATOM     15  C   UNL     1      63.485  21.748  49.575  1.00  0.00     0.119 A 
ATOM     16  C   UNL     1      63.600  20.995  48.403  1.00  0.00     0.093 A 
ATOM     17  C   UNL     1      62.488  20.803  47.570  1.00  0.00     0.130 A 
BRANCH  15  18
ATOM     18  O   UNL     1      64.602  21.929  50.388  1.00  0.00    -0.508 OA
ATOM     19  H   UNL     1      64.692  21.453  51.277  1.00  0.00     0.293 HD
ENDBRANCH  15  18
BRANCH  17  20
ATOM     20  O   UNL     1      62.619  20.055  46.400  1.00  0.00    -0.507 OA
ATOM     21  H   UNL     1      61.815  19.808  45.835  1.00  0.00     0.293 HD
ENDBRANCH  17  20
ENDBRANCH   1  12
BRANCH   2  22
ATOM     22  O   UNL     1      60.378  23.271  45.911  1.00  0.00    -0.502 OA
ATOM     23  H   UNL     1      61.229  23.468  46.423  1.00  0.00     0.293 HD
ENDBRANCH   2  22
BRANCH   6  24
ATOM     24  O   UNL     1      55.875  21.153  44.005  1.00  0.00    -0.507 OA
ATOM     25  H   UNL     1      56.075  21.268  43.023  1.00  0.00     0.293 HD
ENDBRANCH   6  24
BRANCH   8  26
ATOM     26  O   UNL     1      55.962  16.872  46.141  1.00  0.00    -0.508 OA
ATOM     27  H   UNL     1      56.516  16.041  46.316  1.00  0.00     0.293 HD
ENDBRANCH   8  26
TORSDOF 6
ENDMDL
MODEL 6
REMARK VINA RESULT:    -5.970      1.886      3.779
REMARK INTER + INTRA:          -7.604
REMARK INTER:                  -7.189
REMARK INTRA:                  -0.415
REMARK UNBOUND:                -0.412
REMARK SMILES O=c1c(O)c(-c2ccc(O)cc2O)oc2cc(O)cc(O)c12
REMARK SMILES IDX 5 1 3 2 2 3 1 4 22 5 20 6 19 7 17 8 16 9 15 10 14 11 6 12
REMARK SMILES IDX 8 13 7 14 9 15 11 16 12 17 10 18 13 20 4 22 21 24 18 26
REMARK H PARENT 10 19 13 21 4 23 21 25 18 27
REMARK Flexibility Score: inf
ROOT
ATOM      1  C   UNL     1      57.673  16.944  46.631  1.00  0.00     0.184 A 
ATOM      2  C   UNL     1      57.305  17.535  45.411  1.00  0.00     0.208 A 
ATOM      3  C   UNL     1      57.031  18.912  45.377  1.00  0.00     0.238 A 
ATOM      4  O   UNL     1      56.647  19.424  44.293  1.00  0.00    -0.285 OA
ATOM      5  C   UNL     1      57.151  19.683  46.557  1.00  0.00     0.111 A 
ATOM      6  C   UNL     1      56.937  21.093  46.631  1.00  0.00     0.134 A 
ATOM      7  C   UNL     1      56.958  21.731  47.877  1.00  0.00     0.093 A 
ATOM      8  C   UNL     1      57.247  21.024  49.043  1.00  0.00     0.123 A 
ATOM      9  C   UNL     1      57.516  19.656  48.976  1.00  0.00     0.094 A 
ATOM     10  C   UNL     1      57.467  18.985  47.752  1.00  0.00     0.146 A 
ATOM     11  O   UNL     1      57.718  17.681  47.734  1.00  0.00    -0.451 OA
ENDROOT
BRANCH   1  12
ATOM     12  C   UNL     1      57.999  15.501  46.734  1.00  0.00     0.063 A 
ATOM     13  C   UNL     1      57.297  13.171  46.671  1.00  0.00     0.047 A 
ATOM     14  C   UNL     1      56.988  14.532  46.603  1.00  0.00     0.020 A 
ATOM     15  C   UNL     1      58.621  12.760  46.862  1.00  0.00     0.119 A 
ATOM     16  C   UNL     1      59.634  13.715  46.979  1.00  0.00     0.093 A 
ATOM     17  C   UNL     1      59.333  15.083  46.913  1.00  0.00     0.130 A 
BRANCH  15  18
ATOM     18  O   UNL     1      58.940  11.406  46.931  1.00  0.00    -0.508 OA
ATOM     19  H   UNL     1      59.852  11.092  47.243  1.00  0.00     0.293 HD
ENDBRANCH  15  18
BRANCH  17  20
ATOM     20  O   UNL     1      60.354  16.025  47.039  1.00  0.00    -0.507 OA
ATOM     21  H   UNL     1      60.569  16.461  47.928  1.00  0.00     0.293 HD
ENDBRANCH  17  20
ENDBRANCH   1  12
BRANCH   2  22
ATOM     22  O   UNL     1      57.182  16.750  44.261  1.00  0.00    -0.502 OA
ATOM     23  H   UNL     1      57.935  16.168  43.917  1.00  0.00     0.293 HD
ENDBRANCH   2  22
BRANCH   6  24
ATOM     24  O   UNL     1      56.730  21.910  45.515  1.00  0.00    -0.507 OA
ATOM     25  H   UNL     1      57.006  21.677  44.573  1.00  0.00     0.293 HD
ENDBRANCH   6  24
BRANCH   8  26
ATOM     26  O   UNL     1      57.274  21.695  50.264  1.00  0.00    -0.508 OA
ATOM     27  H   UNL     1      56.420  21.920  50.764  1.00  0.00     0.293 HD
ENDBRANCH   8  26
TORSDOF 6
ENDMDL
MODEL 7
REMARK VINA RESULT:    -5.954      1.892      7.066
REMARK INTER + INTRA:          -7.584
REMARK INTER:                  -7.161
REMARK INTRA:                  -0.424
REMARK UNBOUND:                -0.412
REMARK SMILES O=c1c(O)c(-c2ccc(O)cc2O)oc2cc(O)cc(O)c12
REMARK SMILES IDX 5 1 3 2 2 3 1 4 22 5 20 6 19 7 17 8 16 9 15 10 14 11 6 12
REMARK SMILES IDX 8 13 7 14 9 15 11 16 12 17 10 18 13 20 4 22 21 24 18 26
REMARK H PARENT 10 19 13 21 4 23 21 25 18 27
REMARK Flexibility Score: inf
ROOT
ATOM      1  C   UNL     1      58.594  18.220  46.617  1.00  0.00     0.184 A 
ATOM      2  C   UNL     1      57.857  17.024  46.656  1.00  0.00     0.208 A 
ATOM      3  C   UNL     1      58.541  15.807  46.811  1.00  0.00     0.238 A 
ATOM      4  O   UNL     1      57.880  14.737  46.789  1.00  0.00    -0.285 OA
ATOM      5  C   UNL     1      59.950  15.804  46.947  1.00  0.00     0.111 A 
ATOM      6  C   UNL     1      60.742  14.634  47.149  1.00  0.00     0.134 A 
ATOM      7  C   UNL     1      62.139  14.735  47.142  1.00  0.00     0.093 A 
ATOM      8  C   UNL     1      62.770  15.970  47.003  1.00  0.00     0.123 A 
ATOM      9  C   UNL     1      62.004  17.129  46.864  1.00  0.00     0.094 A 
ATOM     10  C   UNL     1      60.610  17.055  46.831  1.00  0.00     0.146 A 
ATOM     11  O   UNL     1      59.919  18.180  46.685  1.00  0.00    -0.451 OA
ENDROOT
BRANCH   1  12
ATOM     12  C   UNL     1      57.935  19.540  46.479  1.00  0.00     0.063 A 
ATOM     13  C   UNL     1      56.738  21.169  45.121  1.00  0.00     0.047 A 
ATOM     14  C   UNL     1      57.386  19.937  45.246  1.00  0.00     0.020 A 
ATOM     15  C   UNL     1      56.623  22.017  46.228  1.00  0.00     0.119 A 
ATOM     16  C   UNL     1      57.154  21.626  47.461  1.00  0.00     0.093 A 
ATOM     17  C   UNL     1      57.806  20.392  47.594  1.00  0.00     0.130 A 
BRANCH  15  18
ATOM     18  O   UNL     1      55.980  23.248  46.115  1.00  0.00    -0.508 OA
ATOM     19  H   UNL     1      55.183  23.374  45.502  1.00  0.00     0.293 HD
ENDBRANCH  15  18
BRANCH  17  20
ATOM     20  O   UNL     1      58.337  20.018  48.829  1.00  0.00    -0.507 OA
ATOM     21  H   UNL     1      58.963  19.228  48.921  1.00  0.00     0.293 HD
ENDBRANCH  17  20
ENDBRANCH   1  12
BRANCH   2  22
ATOM     22  O   UNL     1      56.468  17.052  46.507  1.00  0.00    -0.502 OA
ATOM     23  H   UNL     1      55.835  16.998  47.296  1.00  0.00     0.293 HD
ENDBRANCH   2  22
BRANCH   6  24
ATOM     24  O   UNL     1      60.210  13.363  47.389  1.00  0.00    -0.507 OA
ATOM     25  H   UNL     1      60.756  12.544  47.612  1.00  0.00     0.293 HD
ENDBRANCH   6  24
BRANCH   8  26
ATOM     26  O   UNL     1      64.162  16.035  47.015  1.00  0.00    -0.508 OA
ATOM     27  H   UNL     1      64.672  16.333  47.839  1.00  0.00     0.293 HD
ENDBRANCH   8  26
TORSDOF 6
ENDMDL
MODEL 8
REMARK VINA RESULT:    -5.939      3.597      6.111
REMARK INTER + INTRA:          -7.567
REMARK INTER:                  -7.160
REMARK INTRA:                  -0.407
REMARK UNBOUND:                -0.412
REMARK SMILES O=c1c(O)c(-c2ccc(O)cc2O)oc2cc(O)cc(O)c12
REMARK SMILES IDX 5 1 3 2 2 3 1 4 22 5 20 6 19 7 17 8 16 9 15 10 14 11 6 12
REMARK SMILES IDX 8 13 7 14 9 15 11 16 12 17 10 18 13 20 4 22 21 24 18 26
REMARK H PARENT 10 19 13 21 4 23 21 25 18 27
REMARK Flexibility Score: inf
ROOT
ATOM      1  C   UNL     1      61.566  16.071  47.081  1.00  0.00     0.184 A 
ATOM      2  C   UNL     1      61.144  15.506  45.866  1.00  0.00     0.208 A 
ATOM      3  C   UNL     1      59.875  15.839  45.365  1.00  0.00     0.238 A 
ATOM      4  O   UNL     1      59.480  15.285  44.306  1.00  0.00    -0.285 OA
ATOM      5  C   UNL     1      59.055  16.751  46.073  1.00  0.00     0.111 A 
ATOM      6  C   UNL     1      57.769  17.191  45.638  1.00  0.00     0.134 A 
ATOM      7  C   UNL     1      56.992  17.995  46.481  1.00  0.00     0.093 A 
ATOM      8  C   UNL     1      57.479  18.427  47.714  1.00  0.00     0.123 A 
ATOM      9  C   UNL     1      58.760  18.050  48.124  1.00  0.00     0.094 A 
ATOM     10  C   UNL     1      59.543  17.219  47.321  1.00  0.00     0.146 A 
ATOM     11  O   UNL     1      60.751  16.875  47.753  1.00  0.00    -0.451 OA
ENDROOT
BRANCH   1  12
ATOM     12  C   UNL     1      62.901  15.781  47.656  1.00  0.00     0.063 A 
ATOM     13  C   UNL     1      64.382  14.317  48.918  1.00  0.00     0.047 A 
ATOM     14  C   UNL     1      63.117  14.607  48.399  1.00  0.00     0.020 A 
ATOM     15  C   UNL     1      65.450  15.192  48.692  1.00  0.00     0.119 A 
ATOM     16  C   UNL     1      65.250  16.354  47.943  1.00  0.00     0.093 A 
ATOM     17  C   UNL     1      63.983  16.654  47.420  1.00  0.00     0.130 A 
BRANCH  15  18
ATOM     18  O   UNL     1      66.715  14.913  49.204  1.00  0.00    -0.508 OA
ATOM     19  H   UNL     1      67.207  14.060  48.965  1.00  0.00     0.293 HD
ENDBRANCH  15  18
BRANCH  17  20
ATOM     20  O   UNL     1      63.796  17.821  46.680  1.00  0.00    -0.507 OA
ATOM     21  H   UNL     1      64.448  18.102  45.958  1.00  0.00     0.293 HD
ENDBRANCH  17  20
ENDBRANCH   1  12
BRANCH   2  22
ATOM     22  O   UNL     1      61.965  14.598  45.192  1.00  0.00    -0.502 OA
ATOM     23  H   UNL     1      61.633  14.034  44.420  1.00  0.00     0.293 HD
ENDBRANCH   2  22
BRANCH   6  24
ATOM     24  O   UNL     1      57.224  16.893  44.385  1.00  0.00    -0.507 OA
ATOM     25  H   UNL     1      56.401  16.329  44.235  1.00  0.00     0.293 HD
ENDBRANCH   6  24
BRANCH   8  26
ATOM     26  O   UNL     1      56.684  19.238  48.521  1.00  0.00    -0.508 OA
ATOM     27  H   UNL     1      56.779  19.236  49.531  1.00  0.00     0.293 HD
ENDBRANCH   8  26
TORSDOF 6
ENDMDL
MODEL 9
REMARK VINA RESULT:    -5.838      3.811      5.375
REMARK INTER + INTRA:          -7.445
REMARK INTER:                  -7.061
REMARK INTRA:                  -0.384
REMARK UNBOUND:                -0.412
REMARK SMILES O=c1c(O)c(-c2ccc(O)cc2O)oc2cc(O)cc(O)c12
REMARK SMILES IDX 5 1 3 2 2 3 1 4 22 5 20 6 19 7 17 8 16 9 15 10 14 11 6 12
REMARK SMILES IDX 8 13 7 14 9 15 11 16 12 17 10 18 13 20 4 22 21 24 18 26
REMARK H PARENT 10 19 13 21 4 23 21 25 18 27
REMARK Flexibility Score: inf
ROOT
ATOM      1  C   UNL     1      60.014  20.780  47.425  1.00  0.00     0.184 A 
ATOM      2  C   UNL     1      59.297  19.626  47.781  1.00  0.00     0.208 A 
ATOM      3  C   UNL     1      58.150  19.283  47.047  1.00  0.00     0.238 A 
ATOM      4  O   UNL     1      57.481  18.280  47.406  1.00  0.00    -0.285 OA
ATOM      5  C   UNL     1      57.748  20.086  45.952  1.00  0.00     0.111 A 
ATOM      6  C   UNL     1      56.627  19.811  45.113  1.00  0.00     0.134 A 
ATOM      7  C   UNL     1      56.247  20.742  44.140  1.00  0.00     0.093 A 
ATOM      8  C   UNL     1      56.984  21.907  43.931  1.00  0.00     0.123 A 
ATOM      9  C   UNL     1      58.118  22.158  44.707  1.00  0.00     0.094 A 
ATOM     10  C   UNL     1      58.500  21.265  45.710  1.00  0.00     0.146 A 
ATOM     11  O   UNL     1      59.578  21.547  46.432  1.00  0.00    -0.451 OA
ENDROOT
BRANCH   1  12
ATOM     12  C   UNL     1      61.245  21.188  48.142  1.00  0.00     0.063 A 
ATOM     13  C   UNL     1      62.336  22.478  49.896  1.00  0.00     0.047 A 
ATOM     14  C   UNL     1      61.180  22.114  49.199  1.00  0.00     0.020 A 
ATOM     15  C   UNL     1      63.570  21.915  49.551  1.00  0.00     0.119 A 
ATOM     16  C   UNL     1      63.643  20.985  48.510  1.00  0.00     0.093 A 
ATOM     17  C   UNL     1      62.488  20.615  47.805  1.00  0.00     0.130 A 
BRANCH  15  18
ATOM     18  O   UNL     1      64.728  22.271  50.238  1.00  0.00    -0.508 OA
ATOM     19  H   UNL     1      65.254  21.593  50.777  1.00  0.00     0.293 HD
ENDBRANCH  15  18
BRANCH  17  20
ATOM     20  O   UNL     1      62.577  19.690  46.765  1.00  0.00    -0.507 OA
ATOM     21  H   UNL     1      63.326  19.727  46.084  1.00  0.00     0.293 HD
ENDBRANCH  17  20
ENDBRANCH   1  12
BRANCH   2  22
ATOM     22  O   UNL     1      59.706  18.856  48.873  1.00  0.00    -0.502 OA
ATOM     23  H   UNL     1      59.680  17.844  48.865  1.00  0.00     0.293 HD
ENDBRANCH   2  22
BRANCH   6  24
ATOM     24  O   UNL     1      55.875  18.633  45.176  1.00  0.00    -0.507 OA
ATOM     25  H   UNL     1      56.115  17.772  44.708  1.00  0.00     0.293 HD
ENDBRANCH   6  24
BRANCH   8  26
ATOM     26  O   UNL     1      56.586  22.805  42.944  1.00  0.00    -0.508 OA
ATOM     27  H   UNL     1      55.847  23.481  43.109  1.00  0.00     0.293 HD
ENDBRANCH   8  26
TORSDOF 6
ENDMDL
