MODEL 1
REMARK VINA RESULT:    -4.769      0.000      0.000
REMARK INTER + INTRA:         -10.541
REMARK INTER:                  -8.671
REMARK INTRA:                  -1.870
REMARK UNBOUND:                -1.870
REMARK SMILES CCCCCCCCCCCCCC[C@@H](C)C(=O)[O-]
REMARK SMILES IDX 9 1 10 2 11 3 12 4 13 5 14 6 15 7 16 8 17 9 18 10 19 11 8 12
REMARK SMILES IDX 7 13 6 14 5 15 4 16 3 17 2 18 1 19
REMARK H PARENT
REMARK Flexibility Score: inf
ROOT
ATOM      1  C   UNL     1      56.681  12.239  93.003  1.00  0.00     0.000 C 
ENDROOT
BRANCH   1   2
ATOM      2  C   UNL     1      56.569  11.973  94.514  1.00  0.00     0.000 C 
BRANCH   2   3
ATOM      3  C   UNL     1      56.205  13.238  95.312  1.00  0.00     0.000 C 
BRANCH   3   4
ATOM      4  C   UNL     1      57.189  13.524  96.462  1.00  0.00     0.000 C 
BRANCH   4   5
ATOM      5  C   UNL     1      58.066  14.776  96.275  1.00  0.00     0.001 C 
BRANCH   5   6
ATOM      6  C   UNL     1      59.373  14.486  95.516  1.00  0.00     0.009 C 
BRANCH   6   7
ATOM      7  C   UNL     1      59.901  15.732  94.773  1.00  0.00     0.032 C 
ATOM      8  C   UNL     1      60.720  16.616  95.717  1.00  0.00     0.014 C 
BRANCH   7   9
ATOM      9  C   UNL     1      60.731  15.349  93.577  1.00  0.00     0.044 C 
ATOM     10  O   UNL     1      61.350  14.251  93.552  1.00  0.00    -0.550 OA
ATOM     11  O   UNL     1      60.816  16.209  92.489  1.00  0.00    -0.550 OA
ENDBRANCH   7   9
ENDBRANCH   6   7
ENDBRANCH   5   6
ENDBRANCH   4   5
ENDBRANCH   3   4
ENDBRANCH   2   3
ENDBRANCH   1   2
BRANCH   1  12
ATOM     12  C   UNL     1      58.101  12.657  92.582  1.00  0.00     0.000 C 
BRANCH  12  13
ATOM     13  C   UNL     1      58.107  13.857  91.620  1.00  0.00    -0.000 C 
BRANCH  13  14
ATOM     14  C   UNL     1      58.434  13.516  90.152  1.00  0.00    -0.000 C 
BRANCH  14  15
ATOM     15  C   UNL     1      57.375  12.626  89.468  1.00  0.00    -0.000 C 
BRANCH  15  16
ATOM     16  C   UNL     1      57.987  11.345  88.876  1.00  0.00    -0.000 C 
BRANCH  16  17
ATOM     17  C   UNL     1      59.466  11.168  89.251  1.00  0.00    -0.000 C 
BRANCH  17  18
ATOM     18  C   UNL     1      59.671  10.130  90.363  1.00  0.00    -0.003 C 
ATOM     19  C   UNL     1      60.902  10.458  91.202  1.00  0.00     0.004 C 
ENDBRANCH  17  18
ENDBRANCH  16  17
ENDBRANCH  15  16
ENDBRANCH  14  15
ENDBRANCH  13  14
ENDBRANCH  12  13
ENDBRANCH   1  12
TORSDOF 14
ENDMDL
MODEL 2
REMARK VINA RESULT:    -4.742      2.924      6.062
REMARK INTER + INTRA:         -10.494
REMARK INTER:                  -7.782
REMARK INTRA:                  -2.712
REMARK UNBOUND:                -1.870
REMARK SMILES CCCCCCCCCCCCCC[C@@H](C)C(=O)[O-]
REMARK SMILES IDX 9 1 10 2 11 3 12 4 13 5 14 6 15 7 16 8 17 9 18 10 19 11 8 12
REMARK SMILES IDX 7 13 6 14 5 15 4 16 3 17 2 18 1 19
REMARK H PARENT
REMARK Flexibility Score: inf
ROOT
ATOM      1  C   UNL     1      58.615  12.372  89.812  1.00  0.00     0.000 C 
ENDROOT
BRANCH   1   2
ATOM      2  C   UNL     1      57.587  11.755  88.848  1.00  0.00     0.000 C 
BRANCH   2   3
ATOM      3  C   UNL     1      56.222  12.462  88.908  1.00  0.00     0.000 C 
BRANCH   3   4
ATOM      4  C   UNL     1      56.301  13.864  89.541  1.00  0.00     0.000 C 
BRANCH   4   5
ATOM      5  C   UNL     1      55.637  13.994  90.924  1.00  0.00     0.001 C 
BRANCH   5   6
ATOM      6  C   UNL     1      54.974  12.688  91.398  1.00  0.00     0.009 C 
BRANCH   6   7
ATOM      7  C   UNL     1      55.406  12.305  92.829  1.00  0.00     0.032 C 
ATOM      8  C   UNL     1      54.417  12.859  93.858  1.00  0.00     0.014 C 
BRANCH   7   9
ATOM      9  C   UNL     1      55.529  10.812  92.986  1.00  0.00     0.044 C 
ATOM     10  O   UNL     1      55.783  10.083  91.990  1.00  0.00    -0.550 OA
ATOM     11  O   UNL     1      55.362  10.231  94.237  1.00  0.00    -0.550 OA
ENDBRANCH   7   9
ENDBRANCH   6   7
ENDBRANCH   5   6
ENDBRANCH   4   5
ENDBRANCH   3   4
ENDBRANCH   2   3
ENDBRANCH   1   2
BRANCH   1  12
ATOM     12  C   UNL     1      58.794  11.541  91.094  1.00  0.00     0.000 C 
BRANCH  12  13
ATOM     13  C   UNL     1      59.324  12.374  92.273  1.00  0.00    -0.000 C 
BRANCH  13  14
ATOM     14  C   UNL     1      59.049  13.889  92.180  1.00  0.00    -0.000 C 
BRANCH  14  15
ATOM     15  C   UNL     1      58.933  14.586  93.552  1.00  0.00    -0.000 C 
BRANCH  15  16
ATOM     16  C   UNL     1      57.541  15.202  93.775  1.00  0.00    -0.000 C 
BRANCH  16  17
ATOM     17  C   UNL     1      57.033  15.008  95.212  1.00  0.00    -0.000 C 
BRANCH  17  18
ATOM     18  C   UNL     1      57.923  14.060  96.027  1.00  0.00    -0.003 C 
ATOM     19  C   UNL     1      57.228  12.721  96.264  1.00  0.00     0.004 C 
ENDBRANCH  17  18
ENDBRANCH  16  17
ENDBRANCH  15  16
ENDBRANCH  14  15
ENDBRANCH  13  14
ENDBRANCH  12  13
ENDBRANCH   1  12
TORSDOF 14
ENDMDL
MODEL 3
REMARK VINA RESULT:    -4.742      2.317      4.056
REMARK INTER + INTRA:         -10.493
REMARK INTER:                  -8.316
REMARK INTRA:                  -2.177
REMARK UNBOUND:                -1.870
REMARK SMILES CCCCCCCCCCCCCC[C@@H](C)C(=O)[O-]
REMARK SMILES IDX 9 1 10 2 11 3 12 4 13 5 14 6 15 7 16 8 17 9 18 10 19 11 8 12
REMARK SMILES IDX 7 13 6 14 5 15 4 16 3 17 2 18 1 19
REMARK H PARENT
REMARK Flexibility Score: inf
ROOT
ATOM      1  C   UNL     1      58.693  17.171  91.052  1.00  0.00     0.000 C 
ENDROOT
BRANCH   1   2
ATOM      2  C   UNL     1      59.521  18.111  91.945  1.00  0.00     0.000 C 
BRANCH   2   3
ATOM      3  C   UNL     1      60.854  17.482  92.389  1.00  0.00     0.000 C 
BRANCH   3   4
ATOM      4  C   UNL     1      60.728  16.671  93.693  1.00  0.00     0.000 C 
BRANCH   4   5
ATOM      5  C   UNL     1      60.764  15.142  93.517  1.00  0.00     0.001 C 
BRANCH   5   6
ATOM      6  C   UNL     1      59.364  14.521  93.366  1.00  0.00     0.009 C 
BRANCH   6   7
ATOM      7  C   UNL     1      58.342  15.157  94.333  1.00  0.00     0.032 C 
ATOM      8  C   UNL     1      56.943  15.165  93.711  1.00  0.00     0.014 C 
BRANCH   7   9
ATOM      9  C   UNL     1      58.313  14.436  95.655  1.00  0.00     0.044 C 
ATOM     10  O   UNL     1      58.231  13.179  95.697  1.00  0.00    -0.550 OA
ATOM     11  O   UNL     1      58.379  15.159  96.840  1.00  0.00    -0.550 OA
ENDBRANCH   7   9
ENDBRANCH   6   7
ENDBRANCH   5   6
ENDBRANCH   4   5
ENDBRANCH   3   4
ENDBRANCH   2   3
ENDBRANCH   1   2
BRANCH   1  12
ATOM     12  C   UNL     1      59.535  16.525  89.938  1.00  0.00     0.000 C 
BRANCH  12  13
ATOM     13  C   UNL     1      59.012  15.138  89.526  1.00  0.00    -0.000 C 
BRANCH  13  14
ATOM     14  C   UNL     1      57.487  14.949  89.659  1.00  0.00    -0.000 C 
BRANCH  14  15
ATOM     15  C   UNL     1      57.075  13.551  90.167  1.00  0.00    -0.000 C 
BRANCH  15  16
ATOM     16  C   UNL     1      56.519  12.664  89.039  1.00  0.00    -0.000 C 
BRANCH  16  17
ATOM     17  C   UNL     1      57.459  11.502  88.683  1.00  0.00    -0.000 C 
BRANCH  17  18
ATOM     18  C   UNL     1      58.551  11.285  89.739  1.00  0.00    -0.003 C 
ATOM     19  C   UNL     1      58.559   9.842  90.234  1.00  0.00     0.004 C 
ENDBRANCH  17  18
ENDBRANCH  16  17
ENDBRANCH  15  16
ENDBRANCH  14  15
ENDBRANCH  13  14
ENDBRANCH  12  13
ENDBRANCH   1  12
TORSDOF 14
ENDMDL
MODEL 4
REMARK VINA RESULT:    -4.729      2.260      3.897
REMARK INTER + INTRA:         -10.470
REMARK INTER:                  -8.547
REMARK INTRA:                  -1.922
REMARK UNBOUND:                -1.870
REMARK SMILES CCCCCCCCCCCCCC[C@@H](C)C(=O)[O-]
REMARK SMILES IDX 9 1 10 2 11 3 12 4 13 5 14 6 15 7 16 8 17 9 18 10 19 11 8 12
REMARK SMILES IDX 7 13 6 14 5 15 4 16 3 17 2 18 1 19
REMARK H PARENT
REMARK Flexibility Score: inf
ROOT
ATOM      1  C   UNL     1      58.636  15.508  89.747  1.00  0.00     0.000 C 
ENDROOT
BRANCH   1   2
ATOM      2  C   UNL     1      59.568  16.721  89.905  1.00  0.00     0.000 C 
BRANCH   2   3
ATOM      3  C   UNL     1      59.222  17.575  91.138  1.00  0.00     0.000 C 
BRANCH   3   4
ATOM      4  C   UNL     1      60.460  17.943  91.977  1.00  0.00     0.000 C 
BRANCH   4   5
ATOM      5  C   UNL     1      60.549  17.250  93.350  1.00  0.00     0.001 C 
BRANCH   5   6
ATOM      6  C   UNL     1      60.860  15.746  93.244  1.00  0.00     0.009 C 
BRANCH   6   7
ATOM      7  C   UNL     1      59.662  14.875  93.678  1.00  0.00     0.032 C 
ATOM      8  C   UNL     1      59.694  13.520  92.965  1.00  0.00     0.014 C 
BRANCH   7   9
ATOM      9  C   UNL     1      59.642  14.670  95.169  1.00  0.00     0.044 C 
ATOM     10  O   UNL     1      58.738  15.195  95.875  1.00  0.00    -0.550 OA
ATOM     11  O   UNL     1      60.623  13.897  95.777  1.00  0.00    -0.550 OA
ENDBRANCH   7   9
ENDBRANCH   6   7
ENDBRANCH   5   6
ENDBRANCH   4   5
ENDBRANCH   3   4
ENDBRANCH   2   3
ENDBRANCH   1   2
BRANCH   1  12
ATOM     12  C   UNL     1      57.453  15.541  90.731  1.00  0.00     0.000 C 
BRANCH  12  13
ATOM     13  C   UNL     1      56.341  14.547  90.356  1.00  0.00    -0.000 C 
BRANCH  13  14
ATOM     14  C   UNL     1      56.478  13.908  88.960  1.00  0.00    -0.000 C 
BRANCH  14  15
ATOM     15  C   UNL     1      56.036  12.430  88.905  1.00  0.00    -0.000 C 
BRANCH  15  16
ATOM     16  C   UNL     1      57.166  11.503  88.424  1.00  0.00    -0.000 C 
BRANCH  16  17
ATOM     17  C   UNL     1      58.070  11.028  89.572  1.00  0.00    -0.000 C 
BRANCH  17  18
ATOM     18  C   UNL     1      59.555  11.316  89.308  1.00  0.00    -0.003 C 
ATOM     19  C   UNL     1      60.443  10.592  90.316  1.00  0.00     0.004 C 
ENDBRANCH  17  18
ENDBRANCH  16  17
ENDBRANCH  15  16
ENDBRANCH  14  15
ENDBRANCH  13  14
ENDBRANCH  12  13
ENDBRANCH   1  12
TORSDOF 14
ENDMDL
MODEL 5
REMARK VINA RESULT:    -4.720      2.980      4.687
REMARK INTER + INTRA:         -10.453
REMARK INTER:                  -8.205
REMARK INTRA:                  -2.248
REMARK UNBOUND:                -1.870
REMARK SMILES CCCCCCCCCCCCCC[C@@H](C)C(=O)[O-]
REMARK SMILES IDX 9 1 10 2 11 3 12 4 13 5 14 6 15 7 16 8 17 9 18 10 19 11 8 12
REMARK SMILES IDX 7 13 6 14 5 15 4 16 3 17 2 18 1 19
REMARK H PARENT
REMARK Flexibility Score: inf
ROOT
ATOM      1  C   UNL     1      58.927  15.706  89.706  1.00  0.00     0.000 C 
ENDROOT
BRANCH   1   2
ATOM      2  C   UNL     1      58.436  16.399  90.988  1.00  0.00     0.000 C 
BRANCH   2   3
ATOM      3  C   UNL     1      59.135  15.868  92.252  1.00  0.00     0.000 C 
BRANCH   3   4
ATOM      4  C   UNL     1      58.144  15.437  93.349  1.00  0.00     0.000 C 
BRANCH   4   5
ATOM      5  C   UNL     1      56.862  14.753  92.838  1.00  0.00     0.001 C 
BRANCH   5   6
ATOM      6  C   UNL     1      56.946  13.217  92.871  1.00  0.00     0.009 C 
BRANCH   6   7
ATOM      7  C   UNL     1      55.556  12.557  92.757  1.00  0.00     0.032 C 
ATOM      8  C   UNL     1      55.675  11.032  92.818  1.00  0.00     0.014 C 
BRANCH   7   9
ATOM      9  C   UNL     1      54.625  13.044  93.836  1.00  0.00     0.044 C 
ATOM     10  O   UNL     1      53.524  13.579  93.538  1.00  0.00    -0.550 OA
ATOM     11  O   UNL     1      54.980  12.904  95.172  1.00  0.00    -0.550 OA
ENDBRANCH   7   9
ENDBRANCH   6   7
ENDBRANCH   5   6
ENDBRANCH   4   5
ENDBRANCH   3   4
ENDBRANCH   2   3
ENDBRANCH   1   2
BRANCH   1  12
ATOM     12  C   UNL     1      58.439  14.251  89.598  1.00  0.00     0.000 C 
BRANCH  12  13
ATOM     13  C   UNL     1      56.953  14.149  89.217  1.00  0.00    -0.000 C 
BRANCH  13  14
ATOM     14  C   UNL     1      56.404  12.712  89.102  1.00  0.00    -0.000 C 
BRANCH  14  15
ATOM     15  C   UNL     1      57.490  11.652  88.819  1.00  0.00    -0.000 C 
BRANCH  15  16
ATOM     16  C   UNL     1      57.250  10.351  89.604  1.00  0.00    -0.000 C 
BRANCH  16  17
ATOM     17  C   UNL     1      58.509   9.863  90.339  1.00  0.00    -0.000 C 
BRANCH  17  18
ATOM     18  C   UNL     1      59.715  10.786  90.114  1.00  0.00    -0.003 C 
ATOM     19  C   UNL     1      60.858  10.439  91.064  1.00  0.00     0.004 C 
ENDBRANCH  17  18
ENDBRANCH  16  17
ENDBRANCH  15  16
ENDBRANCH  14  15
ENDBRANCH  13  14
ENDBRANCH  12  13
ENDBRANCH   1  12
TORSDOF 14
ENDMDL
MODEL 6
REMARK VINA RESULT:    -4.701      2.774      6.184
REMARK INTER + INTRA:         -10.418
REMARK INTER:                  -7.915
REMARK INTRA:                  -2.503
REMARK UNBOUND:                -1.870
REMARK SMILES CCCCCCCCCCCCCC[C@@H](C)C(=O)[O-]
REMARK SMILES IDX 9 1 10 2 11 3 12 4 13 5 14 6 15 7 16 8 17 9 18 10 19 11 8 12
REMARK SMILES IDX 7 13 6 14 5 15 4 16 3 17 2 18 1 19
REMARK H PARENT
REMARK Flexibility Score: inf
ROOT
ATOM      1  C   UNL     1      58.414  14.768  93.109  1.00  0.00     0.000 C 
ENDROOT
BRANCH   1   2
ATOM      2  C   UNL     1      57.042  15.415  92.857  1.00  0.00     0.000 C 
BRANCH   2   3
ATOM      3  C   UNL     1      56.789  15.704  91.366  1.00  0.00     0.000 C 
BRANCH   3   4
ATOM      4  C   UNL     1      56.608  14.423  90.531  1.00  0.00     0.000 C 
BRANCH   4   5
ATOM      5  C   UNL     1      57.799  14.060  89.625  1.00  0.00     0.001 C 
BRANCH   5   6
ATOM      6  C   UNL     1      58.293  12.617  89.832  1.00  0.00     0.009 C 
BRANCH   6   7
ATOM      7  C   UNL     1      57.167  11.583  89.622  1.00  0.00     0.032 C 
ATOM      8  C   UNL     1      56.856  11.418  88.132  1.00  0.00     0.014 C 
BRANCH   7   9
ATOM      9  C   UNL     1      57.524  10.250  90.223  1.00  0.00     0.044 C 
ATOM     10  O   UNL     1      58.693   9.790  90.112  1.00  0.00    -0.550 OA
ATOM     11  O   UNL     1      56.562   9.517  90.907  1.00  0.00    -0.550 OA
ENDBRANCH   7   9
ENDBRANCH   6   7
ENDBRANCH   5   6
ENDBRANCH   4   5
ENDBRANCH   3   4
ENDBRANCH   2   3
ENDBRANCH   1   2
BRANCH   1  12
ATOM     12  C   UNL     1      58.658  14.464  94.597  1.00  0.00     0.000 C 
BRANCH  12  13
ATOM     13  C   UNL     1      57.483  14.894  95.492  1.00  0.00    -0.000 C 
BRANCH  13  14
ATOM     14  C   UNL     1      56.724  13.738  96.174  1.00  0.00    -0.000 C 
BRANCH  14  15
ATOM     15  C   UNL     1      57.216  12.337  95.753  1.00  0.00    -0.000 C 
BRANCH  15  16
ATOM     16  C   UNL     1      56.162  11.573  94.933  1.00  0.00    -0.000 C 
BRANCH  16  17
ATOM     17  C   UNL     1      56.306  11.807  93.421  1.00  0.00    -0.000 C 
BRANCH  17  18
ATOM     18  C   UNL     1      54.962  12.107  92.743  1.00  0.00    -0.003 C 
ATOM     19  C   UNL     1      54.229  13.243  93.452  1.00  0.00     0.004 C 
ENDBRANCH  17  18
ENDBRANCH  16  17
ENDBRANCH  15  16
ENDBRANCH  14  15
ENDBRANCH  13  14
ENDBRANCH  12  13
ENDBRANCH   1  12
TORSDOF 14
ENDMDL
MODEL 7
REMARK VINA RESULT:    -4.686      1.642      2.408
REMARK INTER + INTRA:         -10.391
REMARK INTER:                  -8.223
REMARK INTRA:                  -2.168
REMARK UNBOUND:                -1.870
REMARK SMILES CCCCCCCCCCCCCC[C@@H](C)C(=O)[O-]
REMARK SMILES IDX 9 1 10 2 11 3 12 4 13 5 14 6 15 7 16 8 17 9 18 10 19 11 8 12
REMARK SMILES IDX 7 13 6 14 5 15 4 16 3 17 2 18 1 19
REMARK H PARENT
REMARK Flexibility Score: inf
ROOT
ATOM      1  C   UNL     1      58.932  13.487  91.828  1.00  0.00     0.000 C 
ENDROOT
BRANCH   1   2
ATOM      2  C   UNL     1      58.186  12.884  93.030  1.00  0.00     0.000 C 
BRANCH   2   3
ATOM      3  C   UNL     1      56.738  13.394  93.144  1.00  0.00     0.000 C 
BRANCH   3   4
ATOM      4  C   UNL     1      56.387  13.886  94.560  1.00  0.00     0.000 C 
BRANCH   4   5
ATOM      5  C   UNL     1      57.302  14.995  95.113  1.00  0.00     0.001 C 
BRANCH   5   6
ATOM      6  C   UNL     1      58.049  14.575  96.391  1.00  0.00     0.009 C 
BRANCH   6   7
ATOM      7  C   UNL     1      59.415  15.281  96.522  1.00  0.00     0.032 C 
ATOM      8  C   UNL     1      59.586  15.872  97.924  1.00  0.00     0.014 C 
BRANCH   7   9
ATOM      9  C   UNL     1      60.552  14.342  96.218  1.00  0.00     0.044 C 
ATOM     10  O   UNL     1      61.216  13.818  97.153  1.00  0.00    -0.550 OA
ATOM     11  O   UNL     1      60.873  14.045  94.899  1.00  0.00    -0.550 OA
ENDBRANCH   7   9
ENDBRANCH   6   7
ENDBRANCH   5   6
ENDBRANCH   4   5
ENDBRANCH   3   4
ENDBRANCH   2   3
ENDBRANCH   1   2
BRANCH   1  12
ATOM     12  C   UNL     1      58.848  15.023  91.792  1.00  0.00     0.000 C 
BRANCH  12  13
ATOM     13  C   UNL     1      58.177  15.551  90.513  1.00  0.00    -0.000 C 
BRANCH  13  14
ATOM     14  C   UNL     1      57.877  14.482  89.443  1.00  0.00    -0.000 C 
BRANCH  14  15
ATOM     15  C   UNL     1      56.371  14.229  89.221  1.00  0.00    -0.000 C 
BRANCH  15  16
ATOM     16  C   UNL     1      55.994  12.751  89.417  1.00  0.00    -0.000 C 
BRANCH  16  17
ATOM     17  C   UNL     1      57.152  11.797  89.084  1.00  0.00    -0.000 C 
BRANCH  17  18
ATOM     18  C   UNL     1      57.231  10.609  90.053  1.00  0.00    -0.003 C 
ATOM     19  C   UNL     1      58.666  10.107  90.192  1.00  0.00     0.004 C 
ENDBRANCH  17  18
ENDBRANCH  16  17
ENDBRANCH  15  16
ENDBRANCH  14  15
ENDBRANCH  13  14
ENDBRANCH  12  13
ENDBRANCH   1  12
TORSDOF 14
ENDMDL
MODEL 8
REMARK VINA RESULT:    -4.685      2.534      5.935
REMARK INTER + INTRA:         -10.389
REMARK INTER:                  -8.034
REMARK INTRA:                  -2.356
REMARK UNBOUND:                -1.870
REMARK SMILES CCCCCCCCCCCCCC[C@@H](C)C(=O)[O-]
REMARK SMILES IDX 9 1 10 2 11 3 12 4 13 5 14 6 15 7 16 8 17 9 18 10 19 11 8 12
REMARK SMILES IDX 7 13 6 14 5 15 4 16 3 17 2 18 1 19
REMARK H PARENT
REMARK Flexibility Score: inf
ROOT
ATOM      1  C   UNL     1      56.645  12.619  94.168  1.00  0.00     0.000 C 
ENDROOT
BRANCH   1   2
ATOM      2  C   UNL     1      57.039  12.699  92.684  1.00  0.00     0.000 C 
BRANCH   2   3
ATOM      3  C   UNL     1      56.028  13.501  91.846  1.00  0.00     0.000 C 
BRANCH   3   4
ATOM      4  C   UNL     1      55.548  12.739  90.596  1.00  0.00     0.000 C 
BRANCH   4   5
ATOM      5  C   UNL     1      56.382  12.978  89.324  1.00  0.00     0.001 C 
BRANCH   5   6
ATOM      6  C   UNL     1      56.798  11.672  88.624  1.00  0.00     0.009 C 
BRANCH   6   7
ATOM      7  C   UNL     1      58.234  11.246  88.997  1.00  0.00     0.032 C 
ATOM      8  C   UNL     1      59.030  12.441  89.531  1.00  0.00     0.014 C 
BRANCH   7   9
ATOM      9  C   UNL     1      58.232  10.135  90.012  1.00  0.00     0.044 C 
ATOM     10  O   UNL     1      59.317   9.688  90.474  1.00  0.00    -0.550 OA
ATOM     11  O   UNL     1      57.028   9.595  90.448  1.00  0.00    -0.550 OA
ENDBRANCH   7   9
ENDBRANCH   6   7
ENDBRANCH   5   6
ENDBRANCH   4   5
ENDBRANCH   3   4
ENDBRANCH   2   3
ENDBRANCH   1   2
BRANCH   1  12
ATOM     12  C   UNL     1      56.051  13.938  94.692  1.00  0.00     0.000 C 
BRANCH  12  13
ATOM     13  C   UNL     1      57.129  14.978  95.041  1.00  0.00    -0.000 C 
BRANCH  13  14
ATOM     14  C   UNL     1      58.441  14.396  95.604  1.00  0.00    -0.000 C 
BRANCH  14  15
ATOM     15  C   UNL     1      59.673  14.662  94.713  1.00  0.00    -0.000 C 
BRANCH  15  16
ATOM     16  C   UNL     1      59.443  15.828  93.736  1.00  0.00    -0.000 C 
BRANCH  16  17
ATOM     17  C   UNL     1      59.553  15.398  92.265  1.00  0.00    -0.000 C 
BRANCH  17  18
ATOM     18  C   UNL     1      58.560  16.141  91.361  1.00  0.00    -0.003 C 
ATOM     19  C   UNL     1      59.001  16.088  89.900  1.00  0.00     0.004 C 
ENDBRANCH  17  18
ENDBRANCH  16  17
ENDBRANCH  15  16
ENDBRANCH  14  15
ENDBRANCH  13  14
ENDBRANCH  12  13
ENDBRANCH   1  12
TORSDOF 14
ENDMDL
MODEL 9
REMARK VINA RESULT:    -4.641      1.758      4.064
REMARK INTER + INTRA:         -10.309
REMARK INTER:                  -7.553
REMARK INTRA:                  -2.756
REMARK UNBOUND:                -1.870
REMARK SMILES CCCCCCCCCCCCCC[C@@H](C)C(=O)[O-]
REMARK SMILES IDX 9 1 10 2 11 3 12 4 13 5 14 6 15 7 16 8 17 9 18 10 19 11 8 12
REMARK SMILES IDX 7 13 6 14 5 15 4 16 3 17 2 18 1 19
REMARK H PARENT
REMARK Flexibility Score: inf
ROOT
ATOM      1  C   UNL     1      56.289  13.693  89.128  1.00  0.00     0.000 C 
ENDROOT
BRANCH   1   2
ATOM      2  C   UNL     1      57.317  14.497  89.942  1.00  0.00     0.000 C 
BRANCH   2   3
ATOM      3  C   UNL     1      56.656  15.435  90.968  1.00  0.00     0.000 C 
BRANCH   3   4
ATOM      4  C   UNL     1      57.248  15.288  92.382  1.00  0.00     0.000 C 
BRANCH   4   5
ATOM      5  C   UNL     1      58.399  14.272  92.506  1.00  0.00     0.001 C 
BRANCH   5   6
ATOM      6  C   UNL     1      58.649  13.822  93.956  1.00  0.00     0.009 C 
BRANCH   6   7
ATOM      7  C   UNL     1      58.566  15.000  94.950  1.00  0.00     0.032 C 
ATOM      8  C   UNL     1      57.878  14.564  96.247  1.00  0.00     0.014 C 
BRANCH   7   9
ATOM      9  C   UNL     1      59.930  15.559  95.255  1.00  0.00     0.044 C 
ATOM     10  O   UNL     1      60.762  14.889  95.924  1.00  0.00    -0.550 OA
ATOM     11  O   UNL     1      60.279  16.824  94.797  1.00  0.00    -0.550 OA
ENDBRANCH   7   9
ENDBRANCH   6   7
ENDBRANCH   5   6
ENDBRANCH   4   5
ENDBRANCH   3   4
ENDBRANCH   2   3
ENDBRANCH   1   2
BRANCH   1  12
ATOM     12  C   UNL     1      56.759  12.256  88.842  1.00  0.00     0.000 C 
BRANCH  12  13
ATOM     13  C   UNL     1      58.142  11.951  89.442  1.00  0.00    -0.000 C 
BRANCH  13  14
ATOM     14  C   UNL     1      58.125  11.079  90.714  1.00  0.00    -0.000 C 
BRANCH  14  15
ATOM     15  C   UNL     1      56.735  10.501  91.054  1.00  0.00    -0.000 C 
BRANCH  15  16
ATOM     16  C   UNL     1      56.125  11.152  92.307  1.00  0.00    -0.000 C 
BRANCH  16  17
ATOM     17  C   UNL     1      54.713  11.704  92.059  1.00  0.00    -0.000 C 
BRANCH  17  18
ATOM     18  C   UNL     1      54.466  13.034  92.784  1.00  0.00    -0.003 C 
ATOM     19  C   UNL     1      54.966  12.975  94.226  1.00  0.00     0.004 C 
ENDBRANCH  17  18
ENDBRANCH  16  17
ENDBRANCH  15  16
ENDBRANCH  14  15
ENDBRANCH  13  14
ENDBRANCH  12  13
ENDBRANCH   1  12
TORSDOF 14
ENDMDL
