MODEL 1
REMARK VINA RESULT:    -4.057      0.000      0.000
REMARK INTER + INTRA:          -8.321
REMARK INTER:                  -6.903
REMARK INTRA:                  -1.418
REMARK UNBOUND:                -1.418
REMARK SMILES CCCCCCCCCCCCCC(=O)[O-]
REMARK SMILES IDX 8 1 9 2 10 3 11 4 12 5 13 6 14 7 15 8 16 9 7 10 6 11 5 12
REMARK SMILES IDX 4 13 3 14 2 15 1 16
REMARK H PARENT
REMARK Flexibility Score: inf
ROOT
ATOM      1  C   UNL     1     -14.185  -4.596 -32.320  1.00  0.00     0.000 C 
ENDROOT
BRANCH   1   2
ATOM      2  C   UNL     1     -15.547  -4.969 -31.706  1.00  0.00     0.000 C 
BRANCH   2   3
ATOM      3  C   UNL     1     -15.406  -5.877 -30.475  1.00  0.00     0.000 C 
BRANCH   3   4
ATOM      4  C   UNL     1     -15.146  -7.346 -30.853  1.00  0.00     0.000 C 
BRANCH   4   5
ATOM      5  C   UNL     1     -14.019  -7.984 -30.021  1.00  0.00     0.006 C 
BRANCH   5   6
ATOM      6  C   UNL     1     -12.982  -6.986 -29.482  1.00  0.00     0.053 C 
BRANCH   6   7
ATOM      7  C   UNL     1     -12.009  -7.637 -28.547  1.00  0.00     0.041 C 
ATOM      8  O   UNL     1     -12.423  -8.249 -27.528  1.00  0.00    -0.550 OA
ATOM      9  O   UNL     1     -10.648  -7.596 -28.821  1.00  0.00    -0.550 OA
ENDBRANCH   6   7
ENDBRANCH   5   6
ENDBRANCH   4   5
ENDBRANCH   3   4
ENDBRANCH   2   3
ENDBRANCH   1   2
BRANCH   1  10
ATOM     10  C   UNL     1     -14.314  -3.704 -33.570  1.00  0.00     0.000 C 
BRANCH  10  11
ATOM     11  C   UNL     1     -15.569  -2.813 -33.617  1.00  0.00    -0.000 C 
BRANCH  11  12
ATOM     12  C   UNL     1     -15.247  -1.339 -33.917  1.00  0.00    -0.000 C 
BRANCH  12  13
ATOM     13  C   UNL     1     -15.193  -0.468 -32.648  1.00  0.00    -0.000 C 
BRANCH  13  14
ATOM     14  C   UNL     1     -15.709  -1.144 -31.361  1.00  0.00    -0.000 C 
BRANCH  14  15
ATOM     15  C   UNL     1     -14.663  -1.296 -30.242  1.00  0.00    -0.003 C 
ATOM     16  C   UNL     1     -13.233  -1.386 -30.772  1.00  0.00     0.004 C 
ENDBRANCH  14  15
ENDBRANCH  13  14
ENDBRANCH  12  13
ENDBRANCH  11  12
ENDBRANCH  10  11
ENDBRANCH   1  10
TORSDOF 12
ENDMDL
MODEL 2
REMARK VINA RESULT:    -4.056      3.516      7.128
REMARK INTER + INTRA:          -8.320
REMARK INTER:                  -7.438
REMARK INTRA:                  -0.882
REMARK UNBOUND:                -1.418
REMARK SMILES CCCCCCCCCCCCCC(=O)[O-]
REMARK SMILES IDX 8 1 9 2 10 3 11 4 12 5 13 6 14 7 15 8 16 9 7 10 6 11 5 12
REMARK SMILES IDX 4 13 3 14 2 15 1 16
REMARK H PARENT
REMARK Flexibility Score: inf
ROOT
ATOM      1  C   UNL     1     -15.275  -5.558 -30.190  1.00  0.00     0.000 C 
ENDROOT
BRANCH   1   2
ATOM      2  C   UNL     1     -14.849  -4.256 -30.893  1.00  0.00     0.000 C 
BRANCH   2   3
ATOM      3  C   UNL     1     -13.830  -4.502 -32.017  1.00  0.00     0.000 C 
BRANCH   3   4
ATOM      4  C   UNL     1     -14.308  -3.957 -33.374  1.00  0.00     0.000 C 
BRANCH   4   5
ATOM      5  C   UNL     1     -15.564  -3.075 -33.254  1.00  0.00     0.006 C 
BRANCH   5   6
ATOM      6  C   UNL     1     -15.393  -1.649 -33.800  1.00  0.00     0.053 C 
BRANCH   6   7
ATOM      7  C   UNL     1     -15.262  -0.638 -32.702  1.00  0.00     0.041 C 
ATOM      8  O   UNL     1     -15.680  -0.903 -31.544  1.00  0.00    -0.550 OA
ATOM      9  O   UNL     1     -14.646   0.582 -32.949  1.00  0.00    -0.550 OA
ENDBRANCH   6   7
ENDBRANCH   5   6
ENDBRANCH   4   5
ENDBRANCH   3   4
ENDBRANCH   2   3
ENDBRANCH   1   2
BRANCH   1  10
ATOM     10  C   UNL     1     -15.058  -6.809 -31.061  1.00  0.00     0.000 C 
BRANCH  10  11
ATOM     11  C   UNL     1     -14.505  -8.041 -30.320  1.00  0.00    -0.000 C 
BRANCH  11  12
ATOM     12  C   UNL     1     -13.260  -7.724 -29.476  1.00  0.00    -0.000 C 
BRANCH  12  13
ATOM     13  C   UNL     1     -12.843  -8.891 -28.562  1.00  0.00    -0.000 C 
BRANCH  13  14
ATOM     14  C   UNL     1     -11.322  -9.122 -28.440  1.00  0.00    -0.000 C 
BRANCH  14  15
ATOM     15  C   UNL     1     -10.451  -7.885 -28.722  1.00  0.00    -0.003 C 
ATOM     16  C   UNL     1      -9.242  -8.197 -29.603  1.00  0.00     0.004 C 
ENDBRANCH  14  15
ENDBRANCH  13  14
ENDBRANCH  12  13
ENDBRANCH  11  12
ENDBRANCH  10  11
ENDBRANCH   1  10
TORSDOF 12
ENDMDL
MODEL 3
REMARK VINA RESULT:    -3.994      3.577      6.385
REMARK INTER + INTRA:          -8.214
REMARK INTER:                  -6.946
REMARK INTRA:                  -1.267
REMARK UNBOUND:                -1.418
REMARK SMILES CCCCCCCCCCCCCC(=O)[O-]
REMARK SMILES IDX 8 1 9 2 10 3 11 4 12 5 13 6 14 7 15 8 16 9 7 10 6 11 5 12
REMARK SMILES IDX 4 13 3 14 2 15 1 16
REMARK H PARENT
REMARK Flexibility Score: inf
ROOT
ATOM      1  C   UNL     1     -14.712  -5.917 -31.048  1.00  0.00     0.000 C 
ENDROOT
BRANCH   1   2
ATOM      2  C   UNL     1     -16.091  -5.332 -31.403  1.00  0.00     0.000 C 
BRANCH   2   3
ATOM      3  C   UNL     1     -16.024  -4.342 -32.577  1.00  0.00     0.000 C 
BRANCH   3   4
ATOM      4  C   UNL     1     -14.578  -3.989 -32.968  1.00  0.00     0.000 C 
BRANCH   4   5
ATOM      5  C   UNL     1     -14.493  -2.752 -33.880  1.00  0.00     0.006 C 
BRANCH   5   6
ATOM      6  C   UNL     1     -15.620  -1.729 -33.671  1.00  0.00     0.053 C 
BRANCH   6   7
ATOM      7  C   UNL     1     -15.245  -0.677 -32.672  1.00  0.00     0.041 C 
ATOM      8  O   UNL     1     -14.836   0.448 -33.061  1.00  0.00    -0.550 OA
ATOM      9  O   UNL     1     -15.381  -0.928 -31.312  1.00  0.00    -0.550 OA
ENDBRANCH   6   7
ENDBRANCH   5   6
ENDBRANCH   4   5
ENDBRANCH   3   4
ENDBRANCH   2   3
ENDBRANCH   1   2
BRANCH   1  10
ATOM     10  C   UNL     1     -14.777  -7.399 -30.632  1.00  0.00     0.000 C 
BRANCH  10  11
ATOM     11  C   UNL     1     -13.630  -7.879 -29.722  1.00  0.00    -0.000 C 
BRANCH  11  12
ATOM     12  C   UNL     1     -12.804  -6.721 -29.138  1.00  0.00    -0.000 C 
BRANCH  12  13
ATOM     13  C   UNL     1     -11.298  -6.852 -29.433  1.00  0.00    -0.000 C 
BRANCH  13  14
ATOM     14  C   UNL     1     -10.593  -5.547 -29.860  1.00  0.00    -0.000 C 
BRANCH  14  15
ATOM     15  C   UNL     1     -11.287  -4.776 -30.997  1.00  0.00    -0.003 C 
ATOM     16  C   UNL     1     -11.805  -3.407 -30.559  1.00  0.00     0.004 C 
ENDBRANCH  14  15
ENDBRANCH  13  14
ENDBRANCH  12  13
ENDBRANCH  11  12
ENDBRANCH  10  11
ENDBRANCH   1  10
TORSDOF 12
ENDMDL
MODEL 4
REMARK VINA RESULT:    -3.986     21.903     24.473
REMARK INTER + INTRA:          -8.201
REMARK INTER:                  -6.161
REMARK INTRA:                  -2.039
REMARK UNBOUND:                -1.418
REMARK SMILES CCCCCCCCCCCCCC(=O)[O-]
REMARK SMILES IDX 8 1 9 2 10 3 11 4 12 5 13 6 14 7 15 8 16 9 7 10 6 11 5 12
REMARK SMILES IDX 4 13 3 14 2 15 1 16
REMARK H PARENT
REMARK Flexibility Score: inf
ROOT
ATOM      1  C   UNL     1       1.933  10.520 -18.152  1.00  0.00     0.000 C 
ENDROOT
BRANCH   1   2
ATOM      2  C   UNL     1       3.409  10.152 -17.911  1.00  0.00     0.000 C 
BRANCH   2   3
ATOM      3  C   UNL     1       4.069   9.531 -19.153  1.00  0.00     0.000 C 
BRANCH   3   4
ATOM      4  C   UNL     1       3.046   8.875 -20.097  1.00  0.00     0.000 C 
BRANCH   4   5
ATOM      5  C   UNL     1       3.377   7.403 -20.404  1.00  0.00     0.006 C 
BRANCH   5   6
ATOM      6  C   UNL     1       2.200   6.591 -20.967  1.00  0.00     0.053 C 
BRANCH   6   7
ATOM      7  C   UNL     1       2.304   5.137 -20.620  1.00  0.00     0.041 C 
ATOM      8  O   UNL     1       3.026   4.766 -19.657  1.00  0.00    -0.550 OA
ATOM      9  O   UNL     1       1.576   4.196 -21.337  1.00  0.00    -0.550 OA
ENDBRANCH   6   7
ENDBRANCH   5   6
ENDBRANCH   4   5
ENDBRANCH   3   4
ENDBRANCH   2   3
ENDBRANCH   1   2
BRANCH   1  10
ATOM     10  C   UNL     1       1.130  10.663 -16.846  1.00  0.00     0.000 C 
BRANCH  10  11
ATOM     11  C   UNL     1       1.753   9.985 -15.611  1.00  0.00    -0.000 C 
BRANCH  11  12
ATOM     12  C   UNL     1       1.018   8.699 -15.198  1.00  0.00    -0.000 C 
BRANCH  12  13
ATOM     13  C   UNL     1       1.794   7.421 -15.564  1.00  0.00    -0.000 C 
BRANCH  13  14
ATOM     14  C   UNL     1       1.784   7.049 -17.062  1.00  0.00    -0.000 C 
BRANCH  14  15
ATOM     15  C   UNL     1       0.437   6.528 -17.594  1.00  0.00    -0.003 C 
ATOM     16  C   UNL     1      -0.304   7.556 -18.447  1.00  0.00     0.004 C 
ENDBRANCH  14  15
ENDBRANCH  13  14
ENDBRANCH  12  13
ENDBRANCH  11  12
ENDBRANCH  10  11
ENDBRANCH   1  10
TORSDOF 12
ENDMDL
MODEL 5
REMARK VINA RESULT:    -3.929     22.118     24.780
REMARK INTER + INTRA:          -8.103
REMARK INTER:                  -6.191
REMARK INTRA:                  -1.912
REMARK UNBOUND:                -1.418
REMARK SMILES CCCCCCCCCCCCCC(=O)[O-]
REMARK SMILES IDX 8 1 9 2 10 3 11 4 12 5 13 6 14 7 15 8 16 9 7 10 6 11 5 12
REMARK SMILES IDX 4 13 3 14 2 15 1 16
REMARK H PARENT
REMARK Flexibility Score: inf
ROOT
ATOM      1  C   UNL     1       1.035  10.711 -16.853  1.00  0.00     0.000 C 
ENDROOT
BRANCH   1   2
ATOM      2  C   UNL     1       1.909  10.535 -18.108  1.00  0.00     0.000 C 
BRANCH   2   3
ATOM      3  C   UNL     1       3.345  10.105 -17.767  1.00  0.00     0.000 C 
BRANCH   3   4
ATOM      4  C   UNL     1       4.124   9.623 -19.003  1.00  0.00     0.000 C 
BRANCH   4   5
ATOM      5  C   UNL     1       3.349   8.580 -19.827  1.00  0.00     0.006 C 
BRANCH   5   6
ATOM      6  C   UNL     1       3.469   8.755 -21.349  1.00  0.00     0.053 C 
BRANCH   6   7
ATOM      7  C   UNL     1       3.187   7.480 -22.085  1.00  0.00     0.041 C 
ATOM      8  O   UNL     1       3.885   7.156 -23.081  1.00  0.00    -0.550 OA
ATOM      9  O   UNL     1       2.175   6.635 -21.650  1.00  0.00    -0.550 OA
ENDBRANCH   6   7
ENDBRANCH   5   6
ENDBRANCH   4   5
ENDBRANCH   3   4
ENDBRANCH   2   3
ENDBRANCH   1   2
BRANCH   1  10
ATOM     10  C   UNL     1       1.651  10.068 -15.596  1.00  0.00     0.000 C 
BRANCH  10  11
ATOM     11  C   UNL     1       1.053   8.708 -15.192  1.00  0.00    -0.000 C 
BRANCH  11  12
ATOM     12  C   UNL     1       1.957   7.521 -15.564  1.00  0.00    -0.000 C 
BRANCH  12  13
ATOM     13  C   UNL     1       1.627   6.928 -16.946  1.00  0.00    -0.000 C 
BRANCH  13  14
ATOM     14  C   UNL     1       0.149   7.035 -17.375  1.00  0.00    -0.000 C 
BRANCH  14  15
ATOM     15  C   UNL     1      -0.097   6.940 -18.892  1.00  0.00    -0.003 C 
ATOM     16  C   UNL     1      -0.578   8.256 -19.501  1.00  0.00     0.004 C 
ENDBRANCH  14  15
ENDBRANCH  13  14
ENDBRANCH  12  13
ENDBRANCH  11  12
ENDBRANCH  10  11
ENDBRANCH   1  10
TORSDOF 12
ENDMDL
MODEL 6
REMARK VINA RESULT:    -3.889     22.841     24.896
REMARK INTER + INTRA:          -8.036
REMARK INTER:                  -6.469
REMARK INTRA:                  -1.567
REMARK UNBOUND:                -1.418
REMARK SMILES CCCCCCCCCCCCCC(=O)[O-]
REMARK SMILES IDX 8 1 9 2 10 3 11 4 12 5 13 6 14 7 15 8 16 9 7 10 6 11 5 12
REMARK SMILES IDX 4 13 3 14 2 15 1 16
REMARK H PARENT
REMARK Flexibility Score: inf
ROOT
ATOM      1  C   UNL     1       1.904  10.377 -17.956  1.00  0.00     0.000 C 
ENDROOT
BRANCH   1   2
ATOM      2  C   UNL     1       3.380  10.010 -17.718  1.00  0.00     0.000 C 
BRANCH   2   3
ATOM      3  C   UNL     1       4.093   9.576 -19.009  1.00  0.00     0.000 C 
BRANCH   3   4
ATOM      4  C   UNL     1       3.122   8.990 -20.049  1.00  0.00     0.000 C 
BRANCH   4   5
ATOM      5  C   UNL     1       3.759   7.874 -20.896  1.00  0.00     0.006 C 
BRANCH   5   6
ATOM      6  C   UNL     1       3.104   7.666 -22.271  1.00  0.00     0.053 C 
BRANCH   6   7
ATOM      7  C   UNL     1       2.980   8.950 -23.034  1.00  0.00     0.041 C 
ATOM      8  O   UNL     1       1.844   9.394 -23.345  1.00  0.00    -0.550 OA
ATOM      9  O   UNL     1       4.118   9.672 -23.371  1.00  0.00    -0.550 OA
ENDBRANCH   6   7
ENDBRANCH   5   6
ENDBRANCH   4   5
ENDBRANCH   3   4
ENDBRANCH   2   3
ENDBRANCH   1   2
BRANCH   1  10
ATOM     10  C   UNL     1       1.061  10.341 -16.668  1.00  0.00     0.000 C 
BRANCH  10  11
ATOM     11  C   UNL     1       1.719   9.632 -15.469  1.00  0.00    -0.000 C 
BRANCH  11  12
ATOM     12  C   UNL     1       1.232   8.186 -15.286  1.00  0.00    -0.000 C 
BRANCH  12  13
ATOM     13  C   UNL     1      -0.066   7.888 -16.060  1.00  0.00    -0.000 C 
BRANCH  13  14
ATOM     14  C   UNL     1       0.098   6.979 -17.296  1.00  0.00    -0.000 C 
BRANCH  14  15
ATOM     15  C   UNL     1       1.551   6.617 -17.650  1.00  0.00    -0.003 C 
ATOM     16  C   UNL     1       1.652   5.597 -18.783  1.00  0.00     0.004 C 
ENDBRANCH  14  15
ENDBRANCH  13  14
ENDBRANCH  12  13
ENDBRANCH  11  12
ENDBRANCH  10  11
ENDBRANCH   1  10
TORSDOF 12
ENDMDL
MODEL 7
REMARK VINA RESULT:    -3.886     22.535     24.857
REMARK INTER + INTRA:          -8.031
REMARK INTER:                  -6.125
REMARK INTRA:                  -1.905
REMARK UNBOUND:                -1.418
REMARK SMILES CCCCCCCCCCCCCC(=O)[O-]
REMARK SMILES IDX 8 1 9 2 10 3 11 4 12 5 13 6 14 7 15 8 16 9 7 10 6 11 5 12
REMARK SMILES IDX 4 13 3 14 2 15 1 16
REMARK H PARENT
REMARK Flexibility Score: inf
ROOT
ATOM      1  C   UNL     1       1.858   9.625 -15.462  1.00  0.00     0.000 C 
ENDROOT
BRANCH   1   2
ATOM      2  C   UNL     1       1.251  10.543 -16.539  1.00  0.00     0.000 C 
BRANCH   2   3
ATOM      3  C   UNL     1       1.950  10.392 -17.900  1.00  0.00     0.000 C 
BRANCH   3   4
ATOM      4  C   UNL     1       3.455  10.102 -17.760  1.00  0.00     0.000 C 
BRANCH   4   5
ATOM      5  C   UNL     1       4.093   9.619 -19.075  1.00  0.00     0.006 C 
BRANCH   5   6
ATOM      6  C   UNL     1       3.301   8.518 -19.799  1.00  0.00     0.053 C 
BRANCH   6   7
ATOM      7  C   UNL     1       3.817   8.275 -21.185  1.00  0.00     0.041 C 
ATOM      8  O   UNL     1       4.125   7.110 -21.550  1.00  0.00    -0.550 OA
ATOM      9  O   UNL     1       3.923   9.329 -22.083  1.00  0.00    -0.550 OA
ENDBRANCH   6   7
ENDBRANCH   5   6
ENDBRANCH   4   5
ENDBRANCH   3   4
ENDBRANCH   2   3
ENDBRANCH   1   2
BRANCH   1  10
ATOM     10  C   UNL     1       1.187   8.240 -15.406  1.00  0.00     0.000 C 
BRANCH  10  11
ATOM     11  C   UNL     1       1.866   7.144 -16.249  1.00  0.00    -0.000 C 
BRANCH  11  12
ATOM     12  C   UNL     1       1.036   6.732 -17.477  1.00  0.00    -0.000 C 
BRANCH  12  13
ATOM     13  C   UNL     1      -0.436   7.175 -17.381  1.00  0.00    -0.000 C 
BRANCH  13  14
ATOM     14  C   UNL     1      -0.910   8.134 -18.493  1.00  0.00    -0.000 C 
BRANCH  14  15
ATOM     15  C   UNL     1      -2.192   8.922 -18.170  1.00  0.00    -0.003 C 
ATOM     16  C   UNL     1      -2.227   9.437 -16.732  1.00  0.00     0.004 C 
ENDBRANCH  14  15
ENDBRANCH  13  14
ENDBRANCH  12  13
ENDBRANCH  11  12
ENDBRANCH  10  11
ENDBRANCH   1  10
TORSDOF 12
ENDMDL
MODEL 8
REMARK VINA RESULT:    -3.879     22.164     24.656
REMARK INTER + INTRA:          -8.018
REMARK INTER:                  -6.209
REMARK INTRA:                  -1.809
REMARK UNBOUND:                -1.418
REMARK SMILES CCCCCCCCCCCCCC(=O)[O-]
REMARK SMILES IDX 8 1 9 2 10 3 11 4 12 5 13 6 14 7 15 8 16 9 7 10 6 11 5 12
REMARK SMILES IDX 4 13 3 14 2 15 1 16
REMARK H PARENT
REMARK Flexibility Score: inf
ROOT
ATOM      1  C   UNL     1       3.169   8.944 -20.250  1.00  0.00     0.000 C 
ENDROOT
BRANCH   1   2
ATOM      2  C   UNL     1       4.116   9.482 -19.161  1.00  0.00     0.000 C 
BRANCH   2   3
ATOM      3  C   UNL     1       3.360   9.983 -17.921  1.00  0.00     0.000 C 
BRANCH   3   4
ATOM      4  C   UNL     1       1.866  10.224 -18.200  1.00  0.00     0.000 C 
BRANCH   4   5
ATOM      5  C   UNL     1       1.082  10.631 -16.938  1.00  0.00     0.006 C 
BRANCH   5   6
ATOM      6  C   UNL     1       1.656  10.073 -15.626  1.00  0.00     0.053 C 
BRANCH   6   7
ATOM      7  C   UNL     1       0.990   8.793 -15.221  1.00  0.00     0.041 C 
ATOM      8  O   UNL     1      -0.265   8.704 -15.224  1.00  0.00    -0.550 OA
ATOM      9  O   UNL     1       1.758   7.689 -14.875  1.00  0.00    -0.550 OA
ENDBRANCH   6   7
ENDBRANCH   5   6
ENDBRANCH   4   5
ENDBRANCH   3   4
ENDBRANCH   2   3
ENDBRANCH   1   2
BRANCH   1  10
ATOM     10  C   UNL     1       3.803   7.826 -21.098  1.00  0.00     0.000 C 
BRANCH  10  11
ATOM     11  C   UNL     1       2.960   6.544 -21.233  1.00  0.00    -0.000 C 
BRANCH  11  12
ATOM     12  C   UNL     1       3.149   5.575 -20.055  1.00  0.00    -0.000 C 
BRANCH  12  13
ATOM     13  C   UNL     1       1.843   5.309 -19.283  1.00  0.00    -0.000 C 
BRANCH  13  14
ATOM     14  C   UNL     1       1.521   6.320 -18.163  1.00  0.00    -0.000 C 
BRANCH  14  15
ATOM     15  C   UNL     1       0.189   7.073 -18.329  1.00  0.00    -0.003 C 
ATOM     16  C   UNL     1      -0.423   6.901 -19.718  1.00  0.00     0.004 C 
ENDBRANCH  14  15
ENDBRANCH  13  14
ENDBRANCH  12  13
ENDBRANCH  11  12
ENDBRANCH  10  11
ENDBRANCH   1  10
TORSDOF 12
ENDMDL
MODEL 9
REMARK VINA RESULT:    -3.847     22.025     24.227
REMARK INTER + INTRA:          -7.965
REMARK INTER:                  -6.554
REMARK INTRA:                  -1.410
REMARK UNBOUND:                -1.418
REMARK SMILES CCCCCCCCCCCCCC(=O)[O-]
REMARK SMILES IDX 8 1 9 2 10 3 11 4 12 5 13 6 14 7 15 8 16 9 7 10 6 11 5 12
REMARK SMILES IDX 4 13 3 14 2 15 1 16
REMARK H PARENT
REMARK Flexibility Score: inf
ROOT
ATOM      1  C   UNL     1       4.015   9.391 -19.056  1.00  0.00     0.000 C 
ENDROOT
BRANCH   1   2
ATOM      2  C   UNL     1       3.012   8.839 -20.085  1.00  0.00     0.000 C 
BRANCH   2   3
ATOM      3  C   UNL     1       3.675   7.901 -21.106  1.00  0.00     0.000 C 
BRANCH   3   4
ATOM      4  C   UNL     1       2.705   6.833 -21.641  1.00  0.00     0.000 C 
BRANCH   4   5
ATOM      5  C   UNL     1       3.257   5.403 -21.501  1.00  0.00     0.006 C 
BRANCH   5   6
ATOM      6  C   UNL     1       3.437   4.930 -20.050  1.00  0.00     0.053 C 
BRANCH   6   7
ATOM      7  C   UNL     1       2.491   3.824 -19.697  1.00  0.00     0.041 C 
ATOM      8  O   UNL     1       1.298   4.085 -19.390  1.00  0.00    -0.550 OA
ATOM      9  O   UNL     1       2.917   2.502 -19.743  1.00  0.00    -0.550 OA
ENDBRANCH   6   7
ENDBRANCH   5   6
ENDBRANCH   4   5
ENDBRANCH   3   4
ENDBRANCH   2   3
ENDBRANCH   1   2
BRANCH   1  10
ATOM     10  C   UNL     1       3.340  10.205 -17.936  1.00  0.00     0.000 C 
BRANCH  10  11
ATOM     11  C   UNL     1       1.843  10.500 -18.146  1.00  0.00    -0.000 C 
BRANCH  11  12
ATOM     12  C   UNL     1       1.072  10.659 -16.825  1.00  0.00    -0.000 C 
BRANCH  12  13
ATOM     13  C   UNL     1       1.777   9.982 -15.635  1.00  0.00    -0.000 C 
BRANCH  13  14
ATOM     14  C   UNL     1       1.240   8.586 -15.257  1.00  0.00    -0.000 C 
BRANCH  14  15
ATOM     15  C   UNL     1       2.000   7.405 -15.885  1.00  0.00    -0.003 C 
ATOM     16  C   UNL     1       1.382   6.929 -17.199  1.00  0.00     0.004 C 
ENDBRANCH  14  15
ENDBRANCH  13  14
ENDBRANCH  12  13
ENDBRANCH  11  12
ENDBRANCH  10  11
ENDBRANCH   1  10
TORSDOF 12
ENDMDL
