MODEL 1
REMARK VINA RESULT:    -4.950      0.000      0.000
REMARK INTER + INTRA:          -6.506
REMARK INTER:                  -6.107
REMARK INTRA:                  -0.399
REMARK UNBOUND:                -0.399
REMARK SMILES C=CC[C@@H](C)C(=O)CC
REMARK SMILES IDX 4 1 5 2 6 3 7 4 8 5 9 6 3 7 2 8 1 9
REMARK H PARENT
REMARK Flexibility Score: inf
ROOT
ATOM      1  C   UNL     1      83.278   4.590  26.580  1.00  0.00     0.057 C 
ATOM      2  C   UNL     1      84.135   5.580  27.383  1.00  0.00     0.016 C 
ENDROOT
BRANCH   1   3
ATOM      3  C   UNL     1      82.944   3.388  27.436  1.00  0.00     0.135 C 
ATOM      4  O   UNL     1      82.373   2.428  26.937  1.00  0.00    -0.299 OA
BRANCH   3   5
ATOM      5  C   UNL     1      83.312   3.344  28.897  1.00  0.00     0.072 C 
ATOM      6  C   UNL     1      82.062   3.252  29.766  1.00  0.00     0.012 C 
ENDBRANCH   3   5
ENDBRANCH   1   3
BRANCH   1   7
ATOM      7  C   UNL     1      81.980   5.247  26.064  1.00  0.00     0.038 C 
BRANCH   7   8
ATOM      8  C   UNL     1      81.226   5.962  27.154  1.00  0.00    -0.034 C 
ATOM      9  C   UNL     1      80.400   6.979  26.888  1.00  0.00     0.004 C 
ENDBRANCH   7   8
ENDBRANCH   1   7
TORSDOF 4
ENDMDL
MODEL 2
REMARK VINA RESULT:    -4.925      1.609      3.670
REMARK INTER + INTRA:          -6.475
REMARK INTER:                  -6.180
REMARK INTRA:                  -0.295
REMARK UNBOUND:                -0.399
REMARK SMILES C=CC[C@@H](C)C(=O)CC
REMARK SMILES IDX 4 1 5 2 6 3 7 4 8 5 9 6 3 7 2 8 1 9
REMARK H PARENT
REMARK Flexibility Score: inf
ROOT
ATOM      1  C   UNL     1      83.824   4.963  27.250  1.00  0.00     0.057 C 
ATOM      2  C   UNL     1      83.879   4.463  25.799  1.00  0.00     0.016 C 
ENDROOT
BRANCH   1   3
ATOM      3  C   UNL     1      82.474   5.588  27.526  1.00  0.00     0.135 C 
ATOM      4  O   UNL     1      82.238   6.060  28.630  1.00  0.00    -0.299 OA
BRANCH   3   5
ATOM      5  C   UNL     1      81.410   5.651  26.460  1.00  0.00     0.072 C 
ATOM      6  C   UNL     1      80.375   6.720  26.792  1.00  0.00     0.012 C 
ENDBRANCH   3   5
ENDBRANCH   1   3
BRANCH   1   7
ATOM      7  C   UNL     1      84.094   3.826  28.257  1.00  0.00     0.038 C 
BRANCH   7   8
ATOM      8  C   UNL     1      83.039   2.752  28.207  1.00  0.00    -0.034 C 
ATOM      9  C   UNL     1      82.358   2.382  29.296  1.00  0.00     0.004 C 
ENDBRANCH   7   8
ENDBRANCH   1   7
TORSDOF 4
ENDMDL
MODEL 3
REMARK VINA RESULT:    -4.900      1.644      2.778
REMARK INTER + INTRA:          -6.444
REMARK INTER:                  -5.968
REMARK INTRA:                  -0.477
REMARK UNBOUND:                -0.399
REMARK SMILES C=CC[C@@H](C)C(=O)CC
REMARK SMILES IDX 4 1 5 2 6 3 7 4 8 5 9 6 3 7 2 8 1 9
REMARK H PARENT
REMARK Flexibility Score: inf
ROOT
ATOM      1  C   UNL     1      82.774   5.478  28.458  1.00  0.00     0.057 C 
ATOM      2  C   UNL     1      81.501   5.744  27.642  1.00  0.00     0.016 C 
ENDROOT
BRANCH   1   3
ATOM      3  C   UNL     1      82.680   4.126  29.131  1.00  0.00     0.135 C 
ATOM      4  O   UNL     1      81.943   3.979  30.096  1.00  0.00    -0.299 OA
BRANCH   3   5
ATOM      5  C   UNL     1      83.471   2.947  28.626  1.00  0.00     0.072 C 
ATOM      6  C   UNL     1      82.584   2.009  27.814  1.00  0.00     0.012 C 
ENDBRANCH   3   5
ENDBRANCH   1   3
BRANCH   1   7
ATOM      7  C   UNL     1      84.040   5.542  27.579  1.00  0.00     0.038 C 
BRANCH   7   8
ATOM      8  C   UNL     1      83.716   5.576  26.108  1.00  0.00    -0.034 C 
ATOM      9  C   UNL     1      84.080   4.588  25.284  1.00  0.00     0.004 C 
ENDBRANCH   7   8
ENDBRANCH   1   7
TORSDOF 4
ENDMDL
MODEL 4
REMARK VINA RESULT:    -4.813      2.091      4.178
REMARK INTER + INTRA:          -6.337
REMARK INTER:                  -6.111
REMARK INTRA:                  -0.226
REMARK UNBOUND:                -0.399
REMARK SMILES C=CC[C@@H](C)C(=O)CC
REMARK SMILES IDX 4 1 5 2 6 3 7 4 8 5 9 6 3 7 2 8 1 9
REMARK H PARENT
REMARK Flexibility Score: inf
ROOT
ATOM      1  C   UNL     1      82.748   4.098  27.985  1.00  0.00     0.057 C 
ATOM      2  C   UNL     1      82.541   3.043  29.081  1.00  0.00     0.016 C 
ENDROOT
BRANCH   1   3
ATOM      3  C   UNL     1      82.153   5.418  28.424  1.00  0.00     0.135 C 
ATOM      4  O   UNL     1      82.465   5.894  29.508  1.00  0.00    -0.299 OA
BRANCH   3   5
ATOM      5  C   UNL     1      81.188   6.170  27.545  1.00  0.00     0.072 C 
ATOM      6  C   UNL     1      81.299   5.703  26.097  1.00  0.00     0.012 C 
ENDBRANCH   3   5
ENDBRANCH   1   3
BRANCH   1   7
ATOM      7  C   UNL     1      84.241   4.281  27.643  1.00  0.00     0.038 C 
BRANCH   7   8
ATOM      8  C   UNL     1      85.121   3.295  28.368  1.00  0.00    -0.034 C 
ATOM      9  C   UNL     1      86.454   3.369  28.315  1.00  0.00     0.004 C 
ENDBRANCH   7   8
ENDBRANCH   1   7
TORSDOF 4
ENDMDL
MODEL 5
REMARK VINA RESULT:    -4.808      1.509      1.832
REMARK INTER + INTRA:          -6.331
REMARK INTER:                  -6.028
REMARK INTRA:                  -0.303
REMARK UNBOUND:                -0.399
REMARK SMILES C=CC[C@@H](C)C(=O)CC
REMARK SMILES IDX 4 1 5 2 6 3 7 4 8 5 9 6 3 7 2 8 1 9
REMARK H PARENT
REMARK Flexibility Score: inf
ROOT
ATOM      1  C   UNL     1      83.272   4.647  27.596  1.00  0.00     0.057 C 
ATOM      2  C   UNL     1      84.510   5.546  27.462  1.00  0.00     0.016 C 
ENDROOT
BRANCH   1   3
ATOM      3  C   UNL     1      83.646   3.360  28.297  1.00  0.00     0.135 C 
ATOM      4  O   UNL     1      84.809   3.158  28.616  1.00  0.00    -0.299 OA
BRANCH   3   5
ATOM      5  C   UNL     1      82.606   2.319  28.623  1.00  0.00     0.072 C 
ATOM      6  C   UNL     1      82.316   1.445  27.407  1.00  0.00     0.012 C 
ENDBRANCH   3   5
ENDBRANCH   1   3
BRANCH   1   7
ATOM      7  C   UNL     1      82.135   5.354  28.363  1.00  0.00     0.038 C 
BRANCH   7   8
ATOM      8  C   UNL     1      81.151   6.025  27.441  1.00  0.00    -0.034 C 
ATOM      9  C   UNL     1      81.143   5.787  26.125  1.00  0.00     0.004 C 
ENDBRANCH   7   8
ENDBRANCH   1   7
TORSDOF 4
ENDMDL
MODEL 6
REMARK VINA RESULT:    -4.697      1.484      2.041
REMARK INTER + INTRA:          -6.195
REMARK INTER:                  -6.012
REMARK INTRA:                  -0.183
REMARK UNBOUND:                -0.399
REMARK SMILES C=CC[C@@H](C)C(=O)CC
REMARK SMILES IDX 4 1 5 2 6 3 7 4 8 5 9 6 3 7 2 8 1 9
REMARK H PARENT
REMARK Flexibility Score: inf
ROOT
ATOM      1  C   UNL     1      82.693   4.283  26.912  1.00  0.00     0.057 C 
ATOM      2  C   UNL     1      83.384   4.769  25.630  1.00  0.00     0.016 C 
ENDROOT
BRANCH   1   3
ATOM      3  C   UNL     1      83.730   3.807  27.906  1.00  0.00     0.135 C 
ATOM      4  O   UNL     1      83.419   2.994  28.765  1.00  0.00    -0.299 OA
BRANCH   3   5
ATOM      5  C   UNL     1      85.150   4.308  27.851  1.00  0.00     0.072 C 
ATOM      6  C   UNL     1      86.124   3.220  28.291  1.00  0.00     0.012 C 
ENDBRANCH   3   5
ENDBRANCH   1   3
BRANCH   1   7
ATOM      7  C   UNL     1      81.824   5.389  27.546  1.00  0.00     0.038 C 
BRANCH   7   8
ATOM      8  C   UNL     1      80.915   6.050  26.544  1.00  0.00    -0.034 C 
ATOM      9  C   UNL     1      80.330   7.227  26.791  1.00  0.00     0.004 C 
ENDBRANCH   7   8
ENDBRANCH   1   7
TORSDOF 4
ENDMDL
MODEL 7
REMARK VINA RESULT:    -4.647      1.847      3.745
REMARK INTER + INTRA:          -6.133
REMARK INTER:                  -5.766
REMARK INTRA:                  -0.367
REMARK UNBOUND:                -0.399
REMARK SMILES C=CC[C@@H](C)C(=O)CC
REMARK SMILES IDX 4 1 5 2 6 3 7 4 8 5 9 6 3 7 2 8 1 9
REMARK H PARENT
REMARK Flexibility Score: inf
ROOT
ATOM      1  C   UNL     1      82.243   4.741  28.442  1.00  0.00     0.057 C 
ATOM      2  C   UNL     1      82.360   5.879  29.466  1.00  0.00     0.016 C 
ENDROOT
BRANCH   1   3
ATOM      3  C   UNL     1      82.462   5.282  27.046  1.00  0.00     0.135 C 
ATOM      4  O   UNL     1      81.499   5.578  26.352  1.00  0.00    -0.299 OA
BRANCH   3   5
ATOM      5  C   UNL     1      83.850   5.476  26.494  1.00  0.00     0.072 C 
ATOM      6  C   UNL     1      84.062   4.619  25.250  1.00  0.00     0.012 C 
ENDBRANCH   3   5
ENDBRANCH   1   3
BRANCH   1   7
ATOM      7  C   UNL     1      83.248   3.606  28.731  1.00  0.00     0.038 C 
BRANCH   7   8
ATOM      8  C   UNL     1      82.608   2.244  28.672  1.00  0.00    -0.034 C 
ATOM      9  C   UNL     1      82.355   1.634  27.510  1.00  0.00     0.004 C 
ENDBRANCH   7   8
ENDBRANCH   1   7
TORSDOF 4
ENDMDL
MODEL 8
REMARK VINA RESULT:    -4.527      1.722      3.972
REMARK INTER + INTRA:          -5.985
REMARK INTER:                  -5.721
REMARK INTRA:                  -0.264
REMARK UNBOUND:                -0.399
REMARK SMILES C=CC[C@@H](C)C(=O)CC
REMARK SMILES IDX 4 1 5 2 6 3 7 4 8 5 9 6 3 7 2 8 1 9
REMARK H PARENT
REMARK Flexibility Score: inf
ROOT
ATOM      1  C   UNL     1      82.341   4.339  27.934  1.00  0.00     0.057 C 
ATOM      2  C   UNL     1      82.602   5.035  29.277  1.00  0.00     0.016 C 
ENDROOT
BRANCH   1   3
ATOM      3  C   UNL     1      82.572   5.311  26.798  1.00  0.00     0.135 C 
ATOM      4  O   UNL     1      83.706   5.702  26.555  1.00  0.00    -0.299 OA
BRANCH   3   5
ATOM      5  C   UNL     1      81.430   5.802  25.947  1.00  0.00     0.072 C 
ATOM      6  C   UNL     1      80.505   6.707  26.753  1.00  0.00     0.012 C 
ENDBRANCH   3   5
ENDBRANCH   1   3
BRANCH   1   7
ATOM      7  C   UNL     1      83.235   3.094  27.753  1.00  0.00     0.038 C 
BRANCH   7   8
ATOM      8  C   UNL     1      84.384   3.067  28.727  1.00  0.00    -0.034 C 
ATOM      9  C   UNL     1      85.655   3.133  28.318  1.00  0.00     0.004 C 
ENDBRANCH   7   8
ENDBRANCH   1   7
TORSDOF 4
ENDMDL
MODEL 9
REMARK VINA RESULT:    -4.480      1.608      2.207
REMARK INTER + INTRA:          -5.926
REMARK INTER:                  -5.709
REMARK INTRA:                  -0.217
REMARK UNBOUND:                -0.399
REMARK SMILES C=CC[C@@H](C)C(=O)CC
REMARK SMILES IDX 4 1 5 2 6 3 7 4 8 5 9 6 3 7 2 8 1 9
REMARK H PARENT
REMARK Flexibility Score: inf
ROOT
ATOM      1  C   UNL     1      83.509   3.907  27.961  1.00  0.00     0.057 C 
ATOM      2  C   UNL     1      84.885   3.321  28.309  1.00  0.00     0.016 C 
ENDROOT
BRANCH   1   3
ATOM      3  C   UNL     1      82.606   3.853  29.174  1.00  0.00     0.135 C 
ATOM      4  O   UNL     1      82.315   4.886  29.760  1.00  0.00    -0.299 OA
BRANCH   3   5
ATOM      5  C   UNL     1      82.046   2.545  29.672  1.00  0.00     0.072 C 
ATOM      6  C   UNL     1      81.072   2.778  30.823  1.00  0.00     0.012 C 
ENDBRANCH   3   5
ENDBRANCH   1   3
BRANCH   1   7
ATOM      7  C   UNL     1      83.619   5.359  27.450  1.00  0.00     0.038 C 
BRANCH   7   8
ATOM      8  C   UNL     1      82.891   5.566  26.148  1.00  0.00    -0.034 C 
ATOM      9  C   UNL     1      81.558   5.637  26.089  1.00  0.00     0.004 C 
ENDBRANCH   7   8
ENDBRANCH   1   7
TORSDOF 4
ENDMDL
