MODEL 1
REMARK VINA RESULT:    69.756      0.000      0.000
REMARK INTER + INTRA:          98.839
REMARK INTER:                  98.302
REMARK INTRA:                   0.537
REMARK UNBOUND:                 0.537
REMARK SMILES COc1c(O[C@H]2O[C@H](C(=O)[O-])[C@@H](O)[C@@H](O)[C@@H]2O)cc(O)c2c(=O)cc(-c3ccccc3)oc12
REMARK SMILES IDX 5 1 6 2 8 3 12 4 7 5 14 6 16 7 9 8 10 9 11 10 13 11 15 13
REMARK SMILES IDX 17 15 4 17 3 18 18 19 33 20 19 21 21 22 32 23 22 24 25 25
REMARK SMILES IDX 24 26 23 27 2 28 1 29 20 30 26 32 27 33 31 34 28 35 30 36
REMARK SMILES IDX 29 37
REMARK H PARENT 13 12 15 14 17 16 20 31
REMARK Flexibility Score: inf
ROOT
ATOM      1  O   UNL     1      11.973   8.127  17.703  1.00  0.00    -0.458 OA
ENDROOT
BRANCH   1   2
ATOM      2  C   UNL     1      12.697   8.699  16.606  1.00  0.00     0.339 C 
ATOM      3  C   UNL     1      13.108  10.814  17.530  1.00  0.00     0.199 C 
ATOM      4  C   UNL     1      14.628  10.848  17.222  1.00  0.00     0.180 C 
ATOM      5  O   UNL     1      12.410  10.091  16.532  1.00  0.00    -0.328 OA
ATOM      6  C   UNL     1      15.040   9.637  16.352  1.00  0.00     0.181 C 
ATOM      7  C   UNL     1      14.220   8.400  16.739  1.00  0.00     0.214 C 
BRANCH   3   8
ATOM      8  C   UNL     1      12.556  12.208  17.590  1.00  0.00     0.073 C 
ATOM      9  O   UNL     1      13.284  13.192  17.292  1.00  0.00    -0.547 OA
ATOM     10  O   UNL     1      11.230  12.419  17.947  1.00  0.00    -0.547 OA
ENDBRANCH   3   8
BRANCH   4  11
ATOM     11  O   UNL     1      15.353  10.840  18.425  1.00  0.00    -0.387 OA
ATOM     12  H   UNL     1      16.256  11.200  18.220  1.00  0.00     0.211 HD
ENDBRANCH   4  11
BRANCH   6  13
ATOM     13  O   UNL     1      16.409   9.363  16.493  1.00  0.00    -0.387 OA
ATOM     14  H   UNL     1      16.562   8.464  16.102  1.00  0.00     0.211 HD
ENDBRANCH   6  13
BRANCH   7  15
ATOM     15  O   UNL     1      14.579   7.328  15.905  1.00  0.00    -0.384 OA
ATOM     16  H   UNL     1      13.753   6.804  15.730  1.00  0.00     0.211 HD
ENDBRANCH   7  15
ENDBRANCH   1   2
BRANCH   1  17
ATOM     17  C   UNL     1      10.592   8.244  17.936  1.00  0.00     0.172 A 
ATOM     18  C   UNL     1       9.754   8.528  16.849  1.00  0.00     0.205 A 
ATOM     19  C   UNL     1      10.023   8.040  19.202  1.00  0.00     0.097 A 
ATOM     20  C   UNL     1       8.369   8.617  17.025  1.00  0.00     0.188 A 
ATOM     21  C   UNL     1       8.638   8.093  19.396  1.00  0.00     0.134 A 
ATOM     22  C   UNL     1       7.786   8.429  18.304  1.00  0.00     0.111 A 
ATOM     23  O   UNL     1       7.613   8.901  15.969  1.00  0.00    -0.452 OA
ATOM     24  C   UNL     1       6.385   8.614  18.403  1.00  0.00     0.197 A 
ATOM     25  C   UNL     1       6.293   9.048  16.027  1.00  0.00     0.138 A 
ATOM     26  C   UNL     1       5.642   8.905  17.259  1.00  0.00     0.100 A 
ATOM     27  O   UNL     1       5.780   8.552  19.503  1.00  0.00    -0.289 OA
BRANCH  18  28
ATOM     28  O   UNL     1      10.289   8.728  15.573  1.00  0.00    -0.490 OA
ATOM     29  C   UNL     1      10.014   7.842  14.494  1.00  0.00     0.278 C 
ENDBRANCH  18  28
BRANCH  21  30
ATOM     30  O   UNL     1       8.175   7.774  20.677  1.00  0.00    -0.507 OA
ATOM     31  H   UNL     1       7.671   8.403  21.282  1.00  0.00     0.293 HD
ENDBRANCH  21  30
BRANCH  25  32
ATOM     32  C   UNL     1       5.556   9.357  14.776  1.00  0.00     0.017 A 
ATOM     33  C   UNL     1       4.209   8.984  14.595  1.00  0.00     0.012 A 
ATOM     34  C   UNL     1       6.203  10.074  13.752  1.00  0.00     0.012 A 
ATOM     35  C   UNL     1       3.539   9.301  13.409  1.00  0.00     0.001 A 
ATOM     36  C   UNL     1       5.528  10.388  12.568  1.00  0.00     0.001 A 
ATOM     37  C   UNL     1       4.199   9.999  12.395  1.00  0.00     0.000 A 
ENDBRANCH  25  32
ENDBRANCH   1  17
TORSDOF 9
ENDMDL
MODEL 2
REMARK VINA RESULT:    72.402      2.204      7.402
REMARK INTER + INTRA:         102.568
REMARK INTER:                 102.580
REMARK INTRA:                  -0.013
REMARK UNBOUND:                 0.537
REMARK SMILES COc1c(O[C@H]2O[C@H](C(=O)[O-])[C@@H](O)[C@@H](O)[C@@H]2O)cc(O)c2c(=O)cc(-c3ccccc3)oc12
REMARK SMILES IDX 5 1 6 2 8 3 12 4 7 5 14 6 16 7 9 8 10 9 11 10 13 11 15 13
REMARK SMILES IDX 17 15 4 17 3 18 18 19 33 20 19 21 21 22 32 23 22 24 25 25
REMARK SMILES IDX 24 26 23 27 2 28 1 29 20 30 26 32 27 33 31 34 28 35 30 36
REMARK SMILES IDX 29 37
REMARK H PARENT 13 12 15 14 17 16 20 31
REMARK Flexibility Score: inf
ROOT
ATOM      1  O   UNL     1       8.256   7.147  14.102  1.00  0.00    -0.458 OA
ENDROOT
BRANCH   1   2
ATOM      2  C   UNL     1       6.839   7.362  14.083  1.00  0.00     0.339 C 
ATOM      3  C   UNL     1       6.778   9.373  15.285  1.00  0.00     0.199 C 
ATOM      4  C   UNL     1       5.881  10.148  14.284  1.00  0.00     0.180 C 
ATOM      5  O   UNL     1       6.446   7.997  15.293  1.00  0.00    -0.328 OA
ATOM      6  C   UNL     1       5.360   9.209  13.171  1.00  0.00     0.181 C 
ATOM      7  C   UNL     1       6.425   8.165  12.814  1.00  0.00     0.214 C 
BRANCH   3   8
ATOM      8  C   UNL     1       6.607   9.920  16.672  1.00  0.00     0.073 C 
ATOM      9  O   UNL     1       7.025  11.073  16.955  1.00  0.00    -0.547 OA
ATOM     10  O   UNL     1       5.958   9.167  17.643  1.00  0.00    -0.547 OA
ENDBRANCH   3   8
BRANCH   4  11
ATOM     11  O   UNL     1       6.613  11.204  13.714  1.00  0.00    -0.387 OA
ATOM     12  H   UNL     1       6.167  11.434  12.858  1.00  0.00     0.211 HD
ENDBRANCH   4  11
BRANCH   6  13
ATOM     13  O   UNL     1       5.007   9.940  12.025  1.00  0.00    -0.387 OA
ATOM     14  H   UNL     1       4.036  10.128  12.095  1.00  0.00     0.211 HD
ENDBRANCH   6  13
BRANCH   7  15
ATOM     15  O   UNL     1       5.910   7.297  11.836  1.00  0.00    -0.384 OA
ATOM     16  H   UNL     1       5.431   7.858  11.170  1.00  0.00     0.211 HD
ENDBRANCH   7  15
ENDBRANCH   1   2
BRANCH   1  17
ATOM     17  C   UNL     1       9.102   7.301  15.214  1.00  0.00     0.172 A 
ATOM     18  C   UNL     1      10.036   8.346  15.202  1.00  0.00     0.205 A 
ATOM     19  C   UNL     1       9.013   6.477  16.347  1.00  0.00     0.097 A 
ATOM     20  C   UNL     1      10.874   8.562  16.301  1.00  0.00     0.188 A 
ATOM     21  C   UNL     1       9.820   6.693  17.469  1.00  0.00     0.134 A 
ATOM     22  C   UNL     1      10.802   7.725  17.443  1.00  0.00     0.111 A 
ATOM     23  O   UNL     1      11.753   9.557  16.242  1.00  0.00    -0.452 OA
ATOM     24  C   UNL     1      11.742   7.967  18.476  1.00  0.00     0.197 A 
ATOM     25  C   UNL     1      12.623   9.828  17.210  1.00  0.00     0.138 A 
ATOM     26  C   UNL     1      12.637   9.031  18.362  1.00  0.00     0.100 A 
ATOM     27  O   UNL     1      11.820   7.234  19.494  1.00  0.00    -0.289 OA
BRANCH  18  28
ATOM     28  O   UNL     1      10.144   9.189  14.093  1.00  0.00    -0.490 OA
ATOM     29  C   UNL     1       9.386  10.389  13.981  1.00  0.00     0.278 C 
ENDBRANCH  18  28
BRANCH  21  30
ATOM     30  O   UNL     1       9.575   5.876  18.578  1.00  0.00    -0.507 OA
ATOM     31  H   UNL     1      10.282   5.380  19.098  1.00  0.00     0.293 HD
ENDBRANCH  21  30
BRANCH  25  32
ATOM     32  C   UNL     1      13.552  10.973  17.032  1.00  0.00     0.017 A 
ATOM     33  C   UNL     1      14.874  10.795  16.577  1.00  0.00     0.012 A 
ATOM     34  C   UNL     1      13.095  12.279  17.290  1.00  0.00     0.012 A 
ATOM     35  C   UNL     1      15.719  11.896  16.409  1.00  0.00     0.001 A 
ATOM     36  C   UNL     1      13.946  13.376  17.121  1.00  0.00     0.001 A 
ATOM     37  C   UNL     1      15.257  13.185  16.683  1.00  0.00     0.000 A 
ENDBRANCH  25  32
ENDBRANCH   1  17
TORSDOF 9
ENDMDL
