MODEL 1
REMARK VINA RESULT:    -5.540      0.000      0.000
REMARK INTER + INTRA:          -6.026
REMARK INTER:                  -6.026
REMARK INTRA:                   0.000
REMARK UNBOUND:                 0.000
REMARK SMILES Cc1cc(O)c2c(c1)C(=O)c1cc(O)cc(O)c1C2=O
REMARK SMILES IDX 1 1 2 2 8 3 7 4 6 5 4 6 3 7 19 8 20 9 18 10 11 11 9 12 10 13
REMARK SMILES IDX 12 14 13 15 15 16 16 17 5 18 17 20 14 22
REMARK H PARENT 5 19 17 21 14 23
REMARK Flexibility Score: inf
ROOT
ATOM      1  C   UNL     1     119.238 129.793 116.359  1.00  0.00     0.044 C 
ATOM      2  C   UNL     1     120.337 129.347 117.279  1.00  0.00    -0.047 A 
ATOM      3  C   UNL     1     121.567 128.935 116.756  1.00  0.00     0.016 A 
ATOM      4  C   UNL     1     122.596 128.493 117.606  1.00  0.00     0.038 A 
ATOM      5  C   UNL     1     122.389 128.462 119.005  1.00  0.00     0.076 A 
ATOM      6  C   UNL     1     121.104 128.787 119.518  1.00  0.00     0.127 A 
ATOM      7  C   UNL     1     120.108 129.250 118.653  1.00  0.00     0.050 A 
ATOM      8  C   UNL     1     123.548 128.141 119.885  1.00  0.00     0.201 C 
ATOM      9  O   UNL     1     123.541 128.495 121.095  1.00  0.00    -0.288 OA
ATOM     10  C   UNL     1     124.765 127.505 119.315  1.00  0.00     0.076 A 
ATOM     11  C   UNL     1     124.934 127.478 117.914  1.00  0.00     0.041 A 
ATOM     12  C   UNL     1     123.889 128.048 117.035  1.00  0.00     0.194 C 
ATOM     13  O   UNL     1     124.093 128.138 115.793  1.00  0.00    -0.289 OA
ATOM     14  C   UNL     1     126.097 126.913 117.362  1.00  0.00     0.059 A 
ATOM     15  C   UNL     1     127.085 126.371 118.190  1.00  0.00     0.120 A 
ATOM     16  C   UNL     1     126.917 126.388 119.574  1.00  0.00     0.093 A 
ATOM     17  C   UNL     1     125.765 126.948 120.145  1.00  0.00     0.131 A 
ENDROOT
BRANCH   6  18
ATOM     18  O   UNL     1     120.760 128.631 120.863  1.00  0.00    -0.507 OA
ATOM     19  H   UNL     1     120.977 127.807 121.405  1.00  0.00     0.293 HD
ENDBRANCH   6  18
BRANCH  17  20
ATOM     20  O   UNL     1     125.618 126.940 121.532  1.00  0.00    -0.507 OA
ATOM     21  H   UNL     1     126.104 126.270 122.116  1.00  0.00     0.293 HD
ENDBRANCH  17  20
BRANCH  15  22
ATOM     22  O   UNL     1     128.238 125.809 117.646  1.00  0.00    -0.508 OA
ATOM     23  H   UNL     1     128.713 126.233 116.857  1.00  0.00     0.293 HD
ENDBRANCH  15  22
TORSDOF 3
ENDMDL
MODEL 2
REMARK VINA RESULT:    -5.388      4.348      5.959
REMARK INTER + INTRA:          -5.860
REMARK INTER:                  -5.860
REMARK INTRA:                   0.000
REMARK UNBOUND:                 0.000
REMARK SMILES Cc1cc(O)c2c(c1)C(=O)c1cc(O)cc(O)c1C2=O
REMARK SMILES IDX 1 1 2 2 8 3 7 4 6 5 4 6 3 7 19 8 20 9 18 10 11 11 9 12 10 13
REMARK SMILES IDX 12 14 13 15 15 16 16 17 5 18 17 20 14 22
REMARK H PARENT 5 19 17 21 14 23
REMARK Flexibility Score: inf
ROOT
ATOM      1  C   UNL     1     127.013 126.038 117.170  1.00  0.00     0.044 C 
ATOM      2  C   UNL     1     126.615 127.124 118.126  1.00  0.00    -0.047 A 
ATOM      3  C   UNL     1     127.201 128.390 118.036  1.00  0.00     0.016 A 
ATOM      4  C   UNL     1     126.855 129.408 118.942  1.00  0.00     0.038 A 
ATOM      5  C   UNL     1     125.904 129.153 119.957  1.00  0.00     0.076 A 
ATOM      6  C   UNL     1     125.389 127.836 120.103  1.00  0.00     0.127 A 
ATOM      7  C   UNL     1     125.729 126.850 119.172  1.00  0.00     0.050 A 
ATOM      8  C   UNL     1     125.442 130.293 120.797  1.00  0.00     0.201 C 
ATOM      9  O   UNL     1     124.340 130.226 121.406  1.00  0.00    -0.288 OA
ATOM     10  C   UNL     1     126.221 131.559 120.832  1.00  0.00     0.076 A 
ATOM     11  C   UNL     1     127.217 131.780 119.856  1.00  0.00     0.041 A 
ATOM     12  C   UNL     1     127.495 130.740 118.839  1.00  0.00     0.194 C 
ATOM     13  O   UNL     1     128.293 130.985 117.893  1.00  0.00    -0.289 OA
ATOM     14  C   UNL     1     127.936 132.987 119.853  1.00  0.00     0.059 A 
ATOM     15  C   UNL     1     127.678 133.970 120.814  1.00  0.00     0.120 A 
ATOM     16  C   UNL     1     126.701 133.751 121.785  1.00  0.00     0.093 A 
ATOM     17  C   UNL     1     125.971 132.555 121.805  1.00  0.00     0.131 A 
ENDROOT
BRANCH   6  18
ATOM     18  O   UNL     1     124.573 127.452 121.169  1.00  0.00    -0.507 OA
ATOM     19  H   UNL     1     123.984 126.631 121.158  1.00  0.00     0.293 HD
ENDBRANCH   6  18
BRANCH  17  20
ATOM     20  O   UNL     1     125.009 132.358 122.795  1.00  0.00    -0.507 OA
ATOM     21  H   UNL     1     124.115 132.835 122.771  1.00  0.00     0.293 HD
ENDBRANCH  17  20
BRANCH  15  22
ATOM     22  O   UNL     1     128.390 135.168 120.814  1.00  0.00    -0.508 OA
ATOM     23  H   UNL     1     128.375 135.793 120.017  1.00  0.00     0.293 HD
ENDBRANCH  15  22
TORSDOF 3
ENDMDL
MODEL 3
REMARK VINA RESULT:    -5.361      1.296      5.498
REMARK INTER + INTRA:          -5.831
REMARK INTER:                  -5.831
REMARK INTRA:                   0.000
REMARK UNBOUND:                 0.000
REMARK SMILES Cc1cc(O)c2c(c1)C(=O)c1cc(O)cc(O)c1C2=O
REMARK SMILES IDX 1 1 2 2 8 3 7 4 6 5 4 6 3 7 19 8 20 9 18 10 11 11 9 12 10 13
REMARK SMILES IDX 12 14 13 15 15 16 16 17 5 18 17 20 14 22
REMARK H PARENT 5 19 17 21 14 23
REMARK Flexibility Score: inf
ROOT
ATOM      1  C   UNL     1     128.315 126.169 117.740  1.00  0.00     0.044 C 
ATOM      2  C   UNL     1     126.961 126.593 118.227  1.00  0.00    -0.047 A 
ATOM      3  C   UNL     1     126.013 127.089 117.326  1.00  0.00     0.016 A 
ATOM      4  C   UNL     1     124.749 127.512 117.774  1.00  0.00     0.038 A 
ATOM      5  C   UNL     1     124.429 127.437 119.150  1.00  0.00     0.076 A 
ATOM      6  C   UNL     1     125.432 127.026 120.069  1.00  0.00     0.127 A 
ATOM      7  C   UNL     1     126.671 126.585 119.594  1.00  0.00     0.050 A 
ATOM      8  C   UNL     1     123.032 127.742 119.569  1.00  0.00     0.201 C 
ATOM      9  O   UNL     1     122.590 127.305 120.665  1.00  0.00    -0.288 OA
ATOM     10  C   UNL     1     122.116 128.464 118.647  1.00  0.00     0.076 A 
ATOM     11  C   UNL     1     122.473 128.596 117.287  1.00  0.00     0.041 A 
ATOM     12  C   UNL     1     123.761 128.046 116.808  1.00  0.00     0.194 C 
ATOM     13  O   UNL     1     124.026 128.051 115.574  1.00  0.00    -0.289 OA
ATOM     14  C   UNL     1     121.601 129.243 116.396  1.00  0.00     0.059 A 
ATOM     15  C   UNL     1     120.384 129.766 116.846  1.00  0.00     0.120 A 
ATOM     16  C   UNL     1     120.033 129.646 118.190  1.00  0.00     0.093 A 
ATOM     17  C   UNL     1     120.888 129.002 119.096  1.00  0.00     0.131 A 
ENDROOT
BRANCH   6  18
ATOM     18  O   UNL     1     125.261 127.074 121.454  1.00  0.00    -0.507 OA
ATOM     19  H   UNL     1     124.359 127.046 121.909  1.00  0.00     0.293 HD
ENDBRANCH   6  18
BRANCH  17  20
ATOM     20  O   UNL     1     120.516 128.907 120.437  1.00  0.00    -0.507 OA
ATOM     21  H   UNL     1     120.302 128.016 120.869  1.00  0.00     0.293 HD
ENDBRANCH  17  20
BRANCH  15  22
ATOM     22  O   UNL     1     119.518 130.409 115.965  1.00  0.00    -0.508 OA
ATOM     23  H   UNL     1     118.538 130.157 115.905  1.00  0.00     0.293 HD
ENDBRANCH  15  22
TORSDOF 3
ENDMDL
MODEL 4
REMARK VINA RESULT:    -5.315      4.058      5.169
REMARK INTER + INTRA:          -5.781
REMARK INTER:                  -5.781
REMARK INTRA:                   0.000
REMARK UNBOUND:                 0.000
REMARK SMILES Cc1cc(O)c2c(c1)C(=O)c1cc(O)cc(O)c1C2=O
REMARK SMILES IDX 1 1 2 2 8 3 7 4 6 5 4 6 3 7 19 8 20 9 18 10 11 11 9 12 10 13
REMARK SMILES IDX 12 14 13 15 15 16 16 17 5 18 17 20 14 22
REMARK H PARENT 5 19 17 21 14 23
REMARK Flexibility Score: inf
ROOT
ATOM      1  C   UNL     1     124.209 135.970 120.249  1.00  0.00     0.044 C 
ATOM      2  C   UNL     1     124.560 134.516 120.376  1.00  0.00    -0.047 A 
ATOM      3  C   UNL     1     123.761 133.545 119.765  1.00  0.00     0.016 A 
ATOM      4  C   UNL     1     124.067 132.178 119.896  1.00  0.00     0.038 A 
ATOM      5  C   UNL     1     125.192 131.778 120.654  1.00  0.00     0.076 A 
ATOM      6  C   UNL     1     125.938 132.766 121.352  1.00  0.00     0.127 A 
ATOM      7  C   UNL     1     125.629 134.119 121.182  1.00  0.00     0.050 A 
ATOM      8  C   UNL     1     125.578 130.340 120.642  1.00  0.00     0.201 C 
ATOM      9  O   UNL     1     126.756 129.998 120.933  1.00  0.00    -0.288 OA
ATOM     10  C   UNL     1     124.612 129.310 120.176  1.00  0.00     0.076 A 
ATOM     11  C   UNL     1     123.454 129.720 119.479  1.00  0.00     0.041 A 
ATOM     12  C   UNL     1     123.203 131.161 119.253  1.00  0.00     0.194 C 
ATOM     13  O   UNL     1     122.238 131.523 118.524  1.00  0.00    -0.289 OA
ATOM     14  C   UNL     1     122.550 128.757 119.000  1.00  0.00     0.059 A 
ATOM     15  C   UNL     1     122.784 127.394 119.215  1.00  0.00     0.120 A 
ATOM     16  C   UNL     1     123.921 126.987 119.911  1.00  0.00     0.093 A 
ATOM     17  C   UNL     1     124.837 127.931 120.396  1.00  0.00     0.131 A 
ENDROOT
BRANCH   6  18
ATOM     18  O   UNL     1     126.961 132.453 122.249  1.00  0.00    -0.507 OA
ATOM     19  H   UNL     1     127.888 132.854 122.205  1.00  0.00     0.293 HD
ENDBRANCH   6  18
BRANCH  17  20
ATOM     20  O   UNL     1     125.960 127.495 121.099  1.00  0.00    -0.507 OA
ATOM     21  H   UNL     1     125.917 126.709 121.736  1.00  0.00     0.293 HD
ENDBRANCH  17  20
BRANCH  15  22
ATOM     22  O   UNL     1     121.888 126.437 118.743  1.00  0.00    -0.508 OA
ATOM     23  H   UNL     1     122.106 125.448 118.771  1.00  0.00     0.293 HD
ENDBRANCH  15  22
TORSDOF 3
ENDMDL
MODEL 5
REMARK VINA RESULT:    -5.305      3.033      5.237
REMARK INTER + INTRA:          -5.770
REMARK INTER:                  -5.770
REMARK INTRA:                   0.000
REMARK UNBOUND:                 0.000
REMARK SMILES Cc1cc(O)c2c(c1)C(=O)c1cc(O)cc(O)c1C2=O
REMARK SMILES IDX 1 1 2 2 8 3 7 4 6 5 4 6 3 7 19 8 20 9 18 10 11 11 9 12 10 13
REMARK SMILES IDX 12 14 13 15 15 16 16 17 5 18 17 20 14 22
REMARK H PARENT 5 19 17 21 14 23
REMARK Flexibility Score: inf
ROOT
ATOM      1  C   UNL     1     128.353 132.383 119.537  1.00  0.00     0.044 C 
ATOM      2  C   UNL     1     127.069 131.712 119.926  1.00  0.00    -0.047 A 
ATOM      3  C   UNL     1     126.443 130.826 119.043  1.00  0.00     0.016 A 
ATOM      4  C   UNL     1     125.227 130.209 119.386  1.00  0.00     0.038 A 
ATOM      5  C   UNL     1     124.626 130.485 120.636  1.00  0.00     0.076 A 
ATOM      6  C   UNL     1     125.218 131.461 121.484  1.00  0.00     0.127 A 
ATOM      7  C   UNL     1     126.441 132.038 121.130  1.00  0.00     0.050 A 
ATOM      8  C   UNL     1     123.426 129.697 121.033  1.00  0.00     0.201 C 
ATOM      9  O   UNL     1     123.109 129.596 122.249  1.00  0.00    -0.288 OA
ATOM     10  C   UNL     1     122.662 128.932 120.012  1.00  0.00     0.076 A 
ATOM     11  C   UNL     1     123.239 128.718 118.741  1.00  0.00     0.041 A 
ATOM     12  C   UNL     1     124.572 129.283 118.433  1.00  0.00     0.194 C 
ATOM     13  O   UNL     1     125.142 128.989 117.346  1.00  0.00    -0.289 OA
ATOM     14  C   UNL     1     122.545 127.966 117.778  1.00  0.00     0.059 A 
ATOM     15  C   UNL     1     121.284 127.433 118.066  1.00  0.00     0.120 A 
ATOM     16  C   UNL     1     120.709 127.651 119.317  1.00  0.00     0.093 A 
ATOM     17  C   UNL     1     121.384 128.397 120.293  1.00  0.00     0.131 A 
ENDROOT
BRANCH   6  18
ATOM     18  O   UNL     1     124.614 131.914 122.658  1.00  0.00    -0.507 OA
ATOM     19  H   UNL     1     124.120 131.314 123.303  1.00  0.00     0.293 HD
ENDBRANCH   6  18
BRANCH  17  20
ATOM     20  O   UNL     1     120.778 128.609 121.531  1.00  0.00    -0.507 OA
ATOM     21  H   UNL     1     121.204 129.195 122.239  1.00  0.00     0.293 HD
ENDBRANCH  17  20
BRANCH  15  22
ATOM     22  O   UNL     1     120.594 126.688 117.112  1.00  0.00    -0.508 OA
ATOM     23  H   UNL     1     119.772 127.054 116.647  1.00  0.00     0.293 HD
ENDBRANCH  15  22
TORSDOF 3
ENDMDL
MODEL 6
REMARK VINA RESULT:    -5.239      4.150      4.767
REMARK INTER + INTRA:          -5.698
REMARK INTER:                  -5.698
REMARK INTRA:                   0.000
REMARK UNBOUND:                 0.000
REMARK SMILES Cc1cc(O)c2c(c1)C(=O)c1cc(O)cc(O)c1C2=O
REMARK SMILES IDX 1 1 2 2 8 3 7 4 6 5 4 6 3 7 19 8 20 9 18 10 11 11 9 12 10 13
REMARK SMILES IDX 12 14 13 15 15 16 16 17 5 18 17 20 14 22
REMARK H PARENT 5 19 17 21 14 23
REMARK Flexibility Score: inf
ROOT
ATOM      1  C   UNL     1     121.771 127.103 118.045  1.00  0.00     0.044 C 
ATOM      2  C   UNL     1     122.466 128.097 118.927  1.00  0.00    -0.047 A 
ATOM      3  C   UNL     1     123.298 129.072 118.369  1.00  0.00     0.016 A 
ATOM      4  C   UNL     1     123.975 129.994 119.187  1.00  0.00     0.038 A 
ATOM      5  C   UNL     1     123.815 129.938 120.592  1.00  0.00     0.076 A 
ATOM      6  C   UNL     1     123.047 128.882 121.155  1.00  0.00     0.127 A 
ATOM      7  C   UNL     1     122.364 127.996 120.317  1.00  0.00     0.050 A 
ATOM      8  C   UNL     1     124.415 131.023 121.416  1.00  0.00     0.201 C 
ATOM      9  O   UNL     1     123.974 131.257 122.574  1.00  0.00    -0.288 OA
ATOM     10  C   UNL     1     125.459 131.911 120.838  1.00  0.00     0.076 A 
ATOM     11  C   UNL     1     125.662 131.913 119.441  1.00  0.00     0.041 A 
ATOM     12  C   UNL     1     124.862 131.013 118.580  1.00  0.00     0.194 C 
ATOM     13  O   UNL     1     124.952 131.103 117.324  1.00  0.00    -0.289 OA
ATOM     14  C   UNL     1     126.618 132.774 118.876  1.00  0.00     0.059 A 
ATOM     15  C   UNL     1     127.377 133.623 119.688  1.00  0.00     0.120 A 
ATOM     16  C   UNL     1     127.186 133.616 121.069  1.00  0.00     0.093 A 
ATOM     17  C   UNL     1     126.236 132.767 121.653  1.00  0.00     0.131 A 
ENDROOT
BRANCH   6  18
ATOM     18  O   UNL     1     122.966 128.652 122.530  1.00  0.00    -0.507 OA
ATOM     19  H   UNL     1     122.151 128.866 123.087  1.00  0.00     0.293 HD
ENDBRANCH   6  18
BRANCH  17  20
ATOM     20  O   UNL     1     126.074 132.773 123.038  1.00  0.00    -0.507 OA
ATOM     21  H   UNL     1     126.655 132.207 123.645  1.00  0.00     0.293 HD
ENDBRANCH  17  20
BRANCH  15  22
ATOM     22  O   UNL     1     128.327 134.476 119.130  1.00  0.00    -0.508 OA
ATOM     23  H   UNL     1     129.298 134.449 119.418  1.00  0.00     0.293 HD
ENDBRANCH  15  22
TORSDOF 3
ENDMDL
MODEL 7
REMARK VINA RESULT:    -5.123      3.550      6.014
REMARK INTER + INTRA:          -5.573
REMARK INTER:                  -5.573
REMARK INTRA:                   0.000
REMARK UNBOUND:                 0.000
REMARK SMILES Cc1cc(O)c2c(c1)C(=O)c1cc(O)cc(O)c1C2=O
REMARK SMILES IDX 1 1 2 2 8 3 7 4 6 5 4 6 3 7 19 8 20 9 18 10 11 11 9 12 10 13
REMARK SMILES IDX 12 14 13 15 15 16 16 17 5 18 17 20 14 22
REMARK H PARENT 5 19 17 21 14 23
REMARK Flexibility Score: inf
ROOT
ATOM      1  C   UNL     1     129.249 126.351 117.052  1.00  0.00     0.044 C 
ATOM      2  C   UNL     1     128.184 126.937 117.932  1.00  0.00    -0.047 A 
ATOM      3  C   UNL     1     127.932 128.312 117.910  1.00  0.00     0.016 A 
ATOM      4  C   UNL     1     126.953 128.876 118.747  1.00  0.00     0.038 A 
ATOM      5  C   UNL     1     126.213 128.047 119.623  1.00  0.00     0.076 A 
ATOM      6  C   UNL     1     126.545 126.668 119.709  1.00  0.00     0.127 A 
ATOM      7  C   UNL     1     127.504 126.129 118.846  1.00  0.00     0.050 A 
ATOM      8  C   UNL     1     125.079 128.649 120.377  1.00  0.00     0.201 C 
ATOM      9  O   UNL     1     124.157 127.916 120.827  1.00  0.00    -0.288 OA
ATOM     10  C   UNL     1     124.967 130.126 120.507  1.00  0.00     0.076 A 
ATOM     11  C   UNL     1     125.758 130.950 119.677  1.00  0.00     0.041 A 
ATOM     12  C   UNL     1     126.707 130.337 118.721  1.00  0.00     0.194 C 
ATOM     13  O   UNL     1     127.322 131.065 117.893  1.00  0.00    -0.289 OA
ATOM     14  C   UNL     1     125.637 132.347 119.761  1.00  0.00     0.059 A 
ATOM     15  C   UNL     1     124.743 132.929 120.666  1.00  0.00     0.120 A 
ATOM     16  C   UNL     1     123.967 132.119 121.493  1.00  0.00     0.093 A 
ATOM     17  C   UNL     1     124.071 130.723 121.424  1.00  0.00     0.131 A 
ENDROOT
BRANCH   6  18
ATOM     18  O   UNL     1     125.983 125.808 120.655  1.00  0.00    -0.507 OA
ATOM     19  H   UNL     1     125.197 126.054 121.239  1.00  0.00     0.293 HD
ENDBRANCH   6  18
BRANCH  17  20
ATOM     20  O   UNL     1     123.291 129.937 122.272  1.00  0.00    -0.507 OA
ATOM     21  H   UNL     1     122.656 130.348 122.945  1.00  0.00     0.293 HD
ENDBRANCH  17  20
BRANCH  15  22
ATOM     22  O   UNL     1     124.621 134.315 120.752  1.00  0.00    -0.508 OA
ATOM     23  H   UNL     1     124.469 134.780 121.640  1.00  0.00     0.293 HD
ENDBRANCH  15  22
TORSDOF 3
ENDMDL
MODEL 8
REMARK VINA RESULT:    -5.021      2.615      3.110
REMARK INTER + INTRA:          -5.461
REMARK INTER:                  -5.461
REMARK INTRA:                   0.000
REMARK UNBOUND:                 0.000
REMARK SMILES Cc1cc(O)c2c(c1)C(=O)c1cc(O)cc(O)c1C2=O
REMARK SMILES IDX 1 1 2 2 8 3 7 4 6 5 4 6 3 7 19 8 20 9 18 10 11 11 9 12 10 13
REMARK SMILES IDX 12 14 13 15 15 16 16 17 5 18 17 20 14 22
REMARK H PARENT 5 19 17 21 14 23
REMARK Flexibility Score: inf
ROOT
ATOM      1  C   UNL     1     118.863 131.485 117.351  1.00  0.00     0.044 C 
ATOM      2  C   UNL     1     120.271 131.327 117.845  1.00  0.00    -0.047 A 
ATOM      3  C   UNL     1     120.778 130.055 118.131  1.00  0.00     0.016 A 
ATOM      4  C   UNL     1     122.087 129.896 118.617  1.00  0.00     0.038 A 
ATOM      5  C   UNL     1     122.905 131.032 118.820  1.00  0.00     0.076 A 
ATOM      6  C   UNL     1     122.349 132.325 118.622  1.00  0.00     0.127 A 
ATOM      7  C   UNL     1     121.053 132.453 118.112  1.00  0.00     0.050 A 
ATOM      8  C   UNL     1     124.334 130.820 119.182  1.00  0.00     0.201 C 
ATOM      9  O   UNL     1     125.183 131.728 118.972  1.00  0.00    -0.288 OA
ATOM     10  C   UNL     1     124.789 129.497 119.686  1.00  0.00     0.076 A 
ATOM     11  C   UNL     1     123.940 128.378 119.542  1.00  0.00     0.041 A 
ATOM     12  C   UNL     1     122.604 128.543 118.927  1.00  0.00     0.194 C 
ATOM     13  O   UNL     1     121.896 127.527 118.683  1.00  0.00    -0.289 OA
ATOM     14  C   UNL     1     124.370 127.114 119.979  1.00  0.00     0.059 A 
ATOM     15  C   UNL     1     125.631 126.957 120.564  1.00  0.00     0.120 A 
ATOM     16  C   UNL     1     126.469 128.061 120.716  1.00  0.00     0.093 A 
ATOM     17  C   UNL     1     126.059 129.330 120.285  1.00  0.00     0.131 A 
ENDROOT
BRANCH   6  18
ATOM     18  O   UNL     1     123.025 133.502 118.950  1.00  0.00    -0.507 OA
ATOM     19  H   UNL     1     124.020 133.551 119.115  1.00  0.00     0.293 HD
ENDBRANCH   6  18
BRANCH  17  20
ATOM     20  O   UNL     1     126.913 130.419 120.461  1.00  0.00    -0.507 OA
ATOM     21  H   UNL     1     127.237 130.699 121.379  1.00  0.00     0.293 HD
ENDBRANCH  17  20
BRANCH  15  22
ATOM     22  O   UNL     1     126.060 125.704 121.000  1.00  0.00    -0.508 OA
ATOM     23  H   UNL     1     127.020 125.401 120.881  1.00  0.00     0.293 HD
ENDBRANCH  15  22
TORSDOF 3
ENDMDL
MODEL 9
REMARK VINA RESULT:    -4.831      7.783      9.162
REMARK INTER + INTRA:          -5.255
REMARK INTER:                  -5.255
REMARK INTRA:                   0.000
REMARK UNBOUND:                 0.000
REMARK SMILES Cc1cc(O)c2c(c1)C(=O)c1cc(O)cc(O)c1C2=O
REMARK SMILES IDX 1 1 2 2 8 3 7 4 6 5 4 6 3 7 19 8 20 9 18 10 11 11 9 12 10 13
REMARK SMILES IDX 12 14 13 15 15 16 16 17 5 18 17 20 14 22
REMARK H PARENT 5 19 17 21 14 23
REMARK Flexibility Score: inf
ROOT
ATOM      1  C   UNL     1     130.125 138.397 120.269  1.00  0.00     0.044 C 
ATOM      2  C   UNL     1     129.272 137.231 120.674  1.00  0.00    -0.047 A 
ATOM      3  C   UNL     1     128.112 136.925 119.956  1.00  0.00     0.016 A 
ATOM      4  C   UNL     1     127.293 135.849 120.340  1.00  0.00     0.038 A 
ATOM      5  C   UNL     1     127.641 135.065 121.464  1.00  0.00     0.076 A 
ATOM      6  C   UNL     1     128.767 135.445 122.246  1.00  0.00     0.127 A 
ATOM      7  C   UNL     1     129.579 136.502 121.825  1.00  0.00     0.050 A 
ATOM      8  C   UNL     1     126.842 133.841 121.748  1.00  0.00     0.201 C 
ATOM      9  O   UNL     1     127.333 132.912 122.445  1.00  0.00    -0.288 OA
ATOM     10  C   UNL     1     125.508 133.656 121.119  1.00  0.00     0.076 A 
ATOM     11  C   UNL     1     125.137 134.487 120.040  1.00  0.00     0.041 A 
ATOM     12  C   UNL     1     126.060 135.547 119.575  1.00  0.00     0.194 C 
ATOM     13  O   UNL     1     125.786 136.206 118.534  1.00  0.00    -0.289 OA
ATOM     14  C   UNL     1     123.895 134.300 119.410  1.00  0.00     0.059 A 
ATOM     15  C   UNL     1     123.019 133.302 119.848  1.00  0.00     0.120 A 
ATOM     16  C   UNL     1     123.379 132.485 120.920  1.00  0.00     0.093 A 
ATOM     17  C   UNL     1     124.614 132.654 121.561  1.00  0.00     0.131 A 
ENDROOT
BRANCH   6  18
ATOM     18  O   UNL     1     129.093 134.832 123.457  1.00  0.00    -0.507 OA
ATOM     19  H   UNL     1     128.876 133.870 123.676  1.00  0.00     0.293 HD
ENDBRANCH   6  18
BRANCH  17  20
ATOM     20  O   UNL     1     124.942 131.830 122.638  1.00  0.00    -0.507 OA
ATOM     21  H   UNL     1     125.880 131.469 122.766  1.00  0.00     0.293 HD
ENDBRANCH  17  20
BRANCH  15  22
ATOM     22  O   UNL     1     121.786 133.115 119.226  1.00  0.00    -0.508 OA
ATOM     23  H   UNL     1     121.620 133.423 118.276  1.00  0.00     0.293 HD
ENDBRANCH  15  22
TORSDOF 3
ENDMDL
