MODEL 1
REMARK VINA RESULT:    -6.392      0.000      0.000
REMARK INTER + INTRA:         -11.325
REMARK INTER:                 -10.129
REMARK INTRA:                  -1.196
REMARK UNBOUND:                -1.196
REMARK SMILES C[C@H]1O[C@H](O[C@@H]2[C@@H](Oc3cc(O)c4c(c3)O[C@H](c3ccc(O)cc3)CC4=O)O[C@@H](CO)[C@@H](O)[C@H]2O)[C@@H](O)[C@@H](O)[C@@H]1O
REMARK SMILES IDX 6 1 34 2 32 3 29 4 28 5 7 6 5 7 4 8 1 9 2 10 40 11 3 12
REMARK SMILES IDX 38 13 36 14 41 15 39 17 37 19 35 21 8 23 9 24 10 25 15 26
REMARK SMILES IDX 11 27 14 28 13 29 16 30 26 31 17 32 27 33 25 34 12 35 18 37
REMARK SMILES IDX 19 38 24 39 20 40 23 41 21 42 22 43 33 45 30 47 31 48
REMARK H PARENT 41 16 39 18 37 20 35 22 12 36 22 44 33 46 31 49
REMARK Flexibility Score: inf
ROOT
ATOM      1  C   UNL     1      42.752  16.256  -3.649  1.00  0.00     0.221 C 
ATOM      2  C   UNL     1      41.854  16.476  -2.385  1.00  0.00     0.181 C 
ATOM      3  C   UNL     1      40.411  15.817  -2.404  1.00  0.00     0.177 C 
ATOM      4  C   UNL     1      40.071  14.872  -3.607  1.00  0.00     0.179 C 
ATOM      5  O   UNL     1      40.748  15.278  -4.774  1.00  0.00    -0.332 OA
ATOM      6  C   UNL     1      42.178  15.251  -4.694  1.00  0.00     0.339 C 
ENDROOT
BRANCH   1   7
ATOM      7  O   UNL     1      42.925  17.515  -4.294  1.00  0.00    -0.337 OA
BRANCH   7   8
ATOM      8  C   UNL     1      43.805  18.388  -3.589  1.00  0.00     0.282 C 
ATOM      9  C   UNL     1      44.200  21.083  -6.096  1.00  0.00     0.041 C 
ATOM     10  C   UNL     1      43.463  20.154  -5.124  1.00  0.00     0.150 C 
ATOM     11  C   UNL     1      42.650  21.001  -4.110  1.00  0.00     0.174 C 
ATOM     12  O   UNL     1      44.423  19.320  -4.474  1.00  0.00    -0.344 OA
ATOM     13  C   UNL     1      41.983  20.083  -3.076  1.00  0.00     0.179 C 
ATOM     14  C   UNL     1      43.022  19.118  -2.470  1.00  0.00     0.202 C 
BRANCH  11  15
ATOM     15  O   UNL     1      41.667  21.730  -4.799  1.00  0.00    -0.388 OA
ATOM     16  H   UNL     1      41.647  21.380  -5.739  1.00  0.00     0.211 HD
ENDBRANCH  11  15
BRANCH  13  17
ATOM     17  O   UNL     1      41.372  20.852  -2.065  1.00  0.00    -0.387 OA
ATOM     18  H   UNL     1      41.174  20.257  -1.295  1.00  0.00     0.211 HD
ENDBRANCH  13  17
BRANCH  14  19
ATOM     19  O   UNL     1      43.894  19.784  -1.585  1.00  0.00    -0.385 OA
ATOM     20  H   UNL     1      44.347  19.104  -1.022  1.00  0.00     0.211 HD
ENDBRANCH  14  19
ENDBRANCH   7   8
ENDBRANCH   1   7
BRANCH   2  21
ATOM     21  O   UNL     1      42.602  16.131  -1.261  1.00  0.00    -0.387 OA
ATOM     22  H   UNL     1      43.460  16.644  -1.281  1.00  0.00     0.211 HD
ENDBRANCH   2  21
BRANCH   6  23
ATOM     23  O   UNL     1      42.765  13.906  -4.723  1.00  0.00    -0.462 OA
BRANCH  23  24
ATOM     24  C   UNL     1      44.027  13.472  -4.243  1.00  0.00     0.130 A 
ATOM     25  C   UNL     1      44.142  12.291  -3.519  1.00  0.00     0.093 A 
ATOM     26  C   UNL     1      45.203  14.224  -4.509  1.00  0.00     0.094 A 
ATOM     27  C   UNL     1      45.255  12.064  -2.731  1.00  0.00     0.133 A 
ATOM     28  C   UNL     1      46.396  13.887  -3.865  1.00  0.00     0.138 A 
ATOM     29  C   UNL     1      46.424  12.830  -2.938  1.00  0.00     0.102 A 
ATOM     30  O   UNL     1      47.581  14.541  -4.241  1.00  0.00    -0.484 OA
ATOM     31  C   UNL     1      47.720  12.407  -2.385  1.00  0.00     0.174 C 
ATOM     32  C   UNL     1      48.832  14.300  -3.586  1.00  0.00     0.211 C 
ATOM     33  O   UNL     1      47.811  11.605  -1.424  1.00  0.00    -0.294 OA
ATOM     34  C   UNL     1      48.954  12.828  -3.128  1.00  0.00     0.131 C 
BRANCH  27  35
ATOM     35  O   UNL     1      45.195  11.089  -1.723  1.00  0.00    -0.507 OA
ATOM     36  H   UNL     1      44.267  10.767  -1.467  1.00  0.00     0.293 HD
ENDBRANCH  27  35
BRANCH  32  37
ATOM     37  C   UNL     1      49.992  14.571  -4.526  1.00  0.00    -0.007 A 
ATOM     38  C   UNL     1      50.893  13.545  -4.864  1.00  0.00     0.011 A 
ATOM     39  C   UNL     1      50.326  15.898  -4.836  1.00  0.00     0.011 A 
ATOM     40  C   UNL     1      52.113  13.850  -5.463  1.00  0.00     0.046 A 
ATOM     41  C   UNL     1      51.577  16.204  -5.364  1.00  0.00     0.046 A 
ATOM     42  C   UNL     1      52.481  15.184  -5.658  1.00  0.00     0.115 A 
BRANCH  42  43
ATOM     43  O   UNL     1      53.751  15.493  -6.120  1.00  0.00    -0.508 OA
ATOM     44  H   UNL     1      54.094  16.428  -6.146  1.00  0.00     0.293 HD
ENDBRANCH  42  43
ENDBRANCH  32  37
ENDBRANCH  23  24
ENDBRANCH   6  23
BRANCH   3  45
ATOM     45  O   UNL     1      39.956  15.301  -1.162  1.00  0.00    -0.387 OA
ATOM     46  H   UNL     1      40.166  15.884  -0.389  1.00  0.00     0.211 HD
ENDBRANCH   3  45
BRANCH   4  47
ATOM     47  C   UNL     1      40.029  13.332  -3.466  1.00  0.00     0.191 C 
BRANCH  47  48
ATOM     48  O   UNL     1      40.851  12.843  -2.420  1.00  0.00    -0.394 OA
ATOM     49  H   UNL     1      41.777  12.844  -2.788  1.00  0.00     0.210 HD
ENDBRANCH  47  48
ENDBRANCH   4  47
TORSDOF 14
ENDMDL
MODEL 2
REMARK VINA RESULT:    -6.080      1.333      2.042
REMARK INTER + INTRA:         -10.830
REMARK INTER:                  -8.854
REMARK INTRA:                  -1.976
REMARK UNBOUND:                -1.196
REMARK SMILES C[C@H]1O[C@H](O[C@@H]2[C@@H](Oc3cc(O)c4c(c3)O[C@H](c3ccc(O)cc3)CC4=O)O[C@@H](CO)[C@@H](O)[C@H]2O)[C@@H](O)[C@@H](O)[C@@H]1O
REMARK SMILES IDX 6 1 34 2 32 3 29 4 28 5 7 6 5 7 4 8 1 9 2 10 40 11 3 12
REMARK SMILES IDX 38 13 36 14 41 15 39 17 37 19 35 21 8 23 9 24 10 25 15 26
REMARK SMILES IDX 11 27 14 28 13 29 16 30 26 31 17 32 27 33 25 34 12 35 18 37
REMARK SMILES IDX 19 38 24 39 20 40 23 41 21 42 22 43 33 45 30 47 31 48
REMARK H PARENT 41 16 39 18 37 20 35 22 12 36 22 44 33 46 31 49
REMARK Flexibility Score: inf
ROOT
ATOM      1  C   UNL     1      42.161  15.425  -4.677  1.00  0.00     0.221 C 
ATOM      2  C   UNL     1      41.206  15.060  -3.490  1.00  0.00     0.181 C 
ATOM      3  C   UNL     1      40.146  13.909  -3.747  1.00  0.00     0.177 C 
ATOM      4  C   UNL     1      40.252  13.128  -5.102  1.00  0.00     0.179 C 
ATOM      5  O   UNL     1      40.751  13.958  -6.125  1.00  0.00    -0.332 OA
ATOM      6  C   UNL     1      42.070  14.472  -5.908  1.00  0.00     0.339 C 
ENDROOT
BRANCH   1   7
ATOM      7  O   UNL     1      41.842  16.744  -5.113  1.00  0.00    -0.337 OA
BRANCH   7   8
ATOM      8  C   UNL     1      42.990  17.507  -5.475  1.00  0.00     0.282 C 
ATOM      9  C   UNL     1      42.098  20.778  -3.989  1.00  0.00     0.041 C 
ATOM     10  C   UNL     1      42.413  19.277  -4.018  1.00  0.00     0.150 C 
ATOM     11  C   UNL     1      43.572  18.968  -3.034  1.00  0.00     0.174 C 
ATOM     12  O   UNL     1      42.736  18.905  -5.358  1.00  0.00    -0.344 OA
ATOM     13  C   UNL     1      43.956  17.484  -3.125  1.00  0.00     0.179 C 
ATOM     14  C   UNL     1      44.192  17.083  -4.596  1.00  0.00     0.202 C 
BRANCH  11  15
ATOM     15  O   UNL     1      43.163  19.272  -1.726  1.00  0.00    -0.388 OA
ATOM     16  H   UNL     1      42.159  19.294  -1.729  1.00  0.00     0.211 HD
ENDBRANCH  11  15
BRANCH  13  17
ATOM     17  O   UNL     1      45.106  17.231  -2.351  1.00  0.00    -0.387 OA
ATOM     18  H   UNL     1      44.857  16.615  -1.613  1.00  0.00     0.211 HD
ENDBRANCH  13  17
BRANCH  14  19
ATOM     19  O   UNL     1      45.401  17.614  -5.090  1.00  0.00    -0.385 OA
ATOM     20  H   UNL     1      45.314  18.601  -5.133  1.00  0.00     0.211 HD
ENDBRANCH  14  19
ENDBRANCH   7   8
ENDBRANCH   1   7
BRANCH   2  21
ATOM     21  O   UNL     1      41.990  14.843  -2.359  1.00  0.00    -0.387 OA
ATOM     22  H   UNL     1      41.909  15.640  -1.759  1.00  0.00     0.211 HD
ENDBRANCH   2  21
BRANCH   6  23
ATOM     23  O   UNL     1      43.145  13.486  -6.071  1.00  0.00    -0.462 OA
BRANCH  23  24
ATOM     24  C   UNL     1      44.317  13.304  -5.295  1.00  0.00     0.130 A 
ATOM     25  C   UNL     1      44.343  12.383  -4.254  1.00  0.00     0.093 A 
ATOM     26  C   UNL     1      45.496  14.046  -5.577  1.00  0.00     0.094 A 
ATOM     27  C   UNL     1      45.309  12.474  -3.269  1.00  0.00     0.133 A 
ATOM     28  C   UNL     1      46.569  13.998  -4.683  1.00  0.00     0.138 A 
ATOM     29  C   UNL     1      46.471  13.245  -3.500  1.00  0.00     0.102 A 
ATOM     30  O   UNL     1      47.779  14.616  -5.040  1.00  0.00    -0.484 OA
ATOM     31  C   UNL     1      47.664  13.097  -2.653  1.00  0.00     0.174 C 
ATOM     32  C   UNL     1      48.905  14.668  -4.155  1.00  0.00     0.211 C 
ATOM     33  O   UNL     1      47.613  12.602  -1.501  1.00  0.00    -0.294 OA
ATOM     34  C   UNL     1      48.994  13.394  -3.281  1.00  0.00     0.131 C 
BRANCH  27  35
ATOM     35  O   UNL     1      45.107  11.814  -2.047  1.00  0.00    -0.507 OA
ATOM     36  H   UNL     1      44.515  10.990  -2.076  1.00  0.00     0.293 HD
ENDBRANCH  27  35
BRANCH  32  37
ATOM     37  C   UNL     1      50.201  14.761  -4.938  1.00  0.00    -0.007 A 
ATOM     38  C   UNL     1      50.909  13.598  -5.289  1.00  0.00     0.011 A 
ATOM     39  C   UNL     1      50.832  16.007  -5.071  1.00  0.00     0.011 A 
ATOM     40  C   UNL     1      52.229  13.684  -5.726  1.00  0.00     0.046 A 
ATOM     41  C   UNL     1      52.174  16.082  -5.433  1.00  0.00     0.046 A 
ATOM     42  C   UNL     1      52.882  14.919  -5.740  1.00  0.00     0.115 A 
BRANCH  42  43
ATOM     43  O   UNL     1      54.234  14.986  -6.035  1.00  0.00    -0.508 OA
ATOM     44  H   UNL     1      54.569  15.122  -6.965  1.00  0.00     0.293 HD
ENDBRANCH  42  43
ENDBRANCH  32  37
ENDBRANCH  23  24
ENDBRANCH   6  23
BRANCH   3  45
ATOM     45  O   UNL     1      39.890  13.052  -2.644  1.00  0.00    -0.387 OA
ATOM     46  H   UNL     1      40.404  12.205  -2.673  1.00  0.00     0.211 HD
ENDBRANCH   3  45
BRANCH   4  47
ATOM     47  C   UNL     1      40.820  11.692  -5.190  1.00  0.00     0.191 C 
BRANCH  47  48
ATOM     48  O   UNL     1      41.329  11.215  -3.956  1.00  0.00    -0.394 OA
ATOM     49  H   UNL     1      41.988  10.508  -4.196  1.00  0.00     0.210 HD
ENDBRANCH  47  48
ENDBRANCH   4  47
TORSDOF 14
ENDMDL
MODEL 3
REMARK VINA RESULT:    -5.660      0.910      1.664
REMARK INTER + INTRA:         -10.165
REMARK INTER:                  -9.045
REMARK INTRA:                  -1.120
REMARK UNBOUND:                -1.196
REMARK SMILES C[C@H]1O[C@H](O[C@@H]2[C@@H](Oc3cc(O)c4c(c3)O[C@H](c3ccc(O)cc3)CC4=O)O[C@@H](CO)[C@@H](O)[C@H]2O)[C@@H](O)[C@@H](O)[C@@H]1O
REMARK SMILES IDX 6 1 34 2 32 3 29 4 28 5 7 6 5 7 4 8 1 9 2 10 40 11 3 12
REMARK SMILES IDX 38 13 36 14 41 15 39 17 37 19 35 21 8 23 9 24 10 25 15 26
REMARK SMILES IDX 11 27 14 28 13 29 16 30 26 31 17 32 27 33 25 34 12 35 18 37
REMARK SMILES IDX 19 38 24 39 20 40 23 41 21 42 22 43 33 45 30 47 31 48
REMARK H PARENT 41 16 39 18 37 20 35 22 12 36 22 44 33 46 31 49
REMARK Flexibility Score: inf
ROOT
ATOM      1  C   UNL     1      42.534  16.089  -3.588  1.00  0.00     0.221 C 
ATOM      2  C   UNL     1      41.676  16.269  -2.290  1.00  0.00     0.181 C 
ATOM      3  C   UNL     1      40.262  15.551  -2.258  1.00  0.00     0.177 C 
ATOM      4  C   UNL     1      39.916  14.595  -3.451  1.00  0.00     0.179 C 
ATOM      5  O   UNL     1      40.532  15.032  -4.641  1.00  0.00    -0.332 OA
ATOM      6  C   UNL     1      41.963  15.063  -4.615  1.00  0.00     0.339 C 
ENDROOT
BRANCH   1   7
ATOM      7  O   UNL     1      42.631  17.356  -4.234  1.00  0.00    -0.337 OA
BRANCH   7   8
ATOM      8  C   UNL     1      41.527  18.212  -3.954  1.00  0.00     0.282 C 
ATOM      9  C   UNL     1      43.007  20.350  -1.319  1.00  0.00     0.041 C 
ATOM     10  C   UNL     1      42.862  19.713  -2.706  1.00  0.00     0.150 C 
ATOM     11  C   UNL     1      42.783  20.825  -3.785  1.00  0.00     0.174 C 
ATOM     12  O   UNL     1      41.699  18.884  -2.708  1.00  0.00    -0.344 OA
ATOM     13  C   UNL     1      42.545  20.200  -5.167  1.00  0.00     0.179 C 
ATOM     14  C   UNL     1      41.351  19.225  -5.113  1.00  0.00     0.202 C 
BRANCH  11  15
ATOM     15  O   UNL     1      43.987  21.548  -3.794  1.00  0.00    -0.388 OA
ATOM     16  H   UNL     1      43.854  22.333  -4.404  1.00  0.00     0.211 HD
ENDBRANCH  11  15
BRANCH  13  17
ATOM     17  O   UNL     1      42.319  21.208  -6.125  1.00  0.00    -0.387 OA
ATOM     18  H   UNL     1      43.198  21.519  -6.465  1.00  0.00     0.211 HD
ENDBRANCH  13  17
BRANCH  14  19
ATOM     19  O   UNL     1      40.125  19.912  -5.011  1.00  0.00    -0.385 OA
ATOM     20  H   UNL     1      39.426  19.374  -5.467  1.00  0.00     0.211 HD
ENDBRANCH  14  19
ENDBRANCH   7   8
ENDBRANCH   1   7
BRANCH   2  21
ATOM     21  O   UNL     1      42.479  15.952  -1.197  1.00  0.00    -0.387 OA
ATOM     22  H   UNL     1      42.934  15.080  -1.379  1.00  0.00     0.211 HD
ENDBRANCH   2  21
BRANCH   6  23
ATOM     23  O   UNL     1      42.605  13.745  -4.671  1.00  0.00    -0.462 OA
BRANCH  23  24
ATOM     24  C   UNL     1      43.880  13.350  -4.193  1.00  0.00     0.130 A 
ATOM     25  C   UNL     1      44.032  12.178  -3.461  1.00  0.00     0.093 A 
ATOM     26  C   UNL     1      45.032  14.134  -4.469  1.00  0.00     0.094 A 
ATOM     27  C   UNL     1      45.154  11.988  -2.676  1.00  0.00     0.133 A 
ATOM     28  C   UNL     1      46.238  13.835  -3.827  1.00  0.00     0.138 A 
ATOM     29  C   UNL     1      46.300  12.786  -2.893  1.00  0.00     0.102 A 
ATOM     30  O   UNL     1      47.402  14.521  -4.213  1.00  0.00    -0.484 OA
ATOM     31  C   UNL     1      47.609  12.405  -2.343  1.00  0.00     0.174 C 
ATOM     32  C   UNL     1      48.662  14.321  -3.561  1.00  0.00     0.211 C 
ATOM     33  O   UNL     1      47.728  11.612  -1.377  1.00  0.00    -0.294 OA
ATOM     34  C   UNL     1      48.828  12.855  -3.094  1.00  0.00     0.131 C 
BRANCH  27  35
ATOM     35  O   UNL     1      45.126  11.019  -1.662  1.00  0.00    -0.507 OA
ATOM     36  H   UNL     1      45.319  11.349  -0.722  1.00  0.00     0.293 HD
ENDBRANCH  27  35
BRANCH  32  37
ATOM     37  C   UNL     1      49.810  14.618  -4.508  1.00  0.00    -0.007 A 
ATOM     38  C   UNL     1      50.656  13.586  -4.952  1.00  0.00     0.011 A 
ATOM     39  C   UNL     1      50.195  15.950  -4.719  1.00  0.00     0.011 A 
ATOM     40  C   UNL     1      51.874  13.887  -5.559  1.00  0.00     0.046 A 
ATOM     41  C   UNL     1      51.445  16.246  -5.254  1.00  0.00     0.046 A 
ATOM     42  C   UNL     1      52.296  15.216  -5.655  1.00  0.00     0.115 A 
BRANCH  42  43
ATOM     43  O   UNL     1      53.567  15.507  -6.125  1.00  0.00    -0.508 OA
ATOM     44  H   UNL     1      53.773  15.566  -7.099  1.00  0.00     0.293 HD
ENDBRANCH  42  43
ENDBRANCH  32  37
ENDBRANCH  23  24
ENDBRANCH   6  23
BRANCH   3  45
ATOM     45  O   UNL     1      39.875  15.014  -1.002  1.00  0.00    -0.387 OA
ATOM     46  H   UNL     1      40.356  15.415  -0.234  1.00  0.00     0.211 HD
ENDBRANCH   3  45
BRANCH   4  47
ATOM     47  C   UNL     1      39.943  13.054  -3.315  1.00  0.00     0.191 C 
BRANCH  47  48
ATOM     48  O   UNL     1      40.872  12.595  -2.348  1.00  0.00    -0.394 OA
ATOM     49  H   UNL     1      41.613  13.259  -2.356  1.00  0.00     0.210 HD
ENDBRANCH  47  48
ENDBRANCH   4  47
TORSDOF 14
ENDMDL
MODEL 4
REMARK VINA RESULT:    -4.671      2.192      8.749
REMARK INTER + INTRA:          -8.597
REMARK INTER:                  -6.436
REMARK INTRA:                  -2.161
REMARK UNBOUND:                -1.196
REMARK SMILES C[C@H]1O[C@H](O[C@@H]2[C@@H](Oc3cc(O)c4c(c3)O[C@H](c3ccc(O)cc3)CC4=O)O[C@@H](CO)[C@@H](O)[C@H]2O)[C@@H](O)[C@@H](O)[C@@H]1O
REMARK SMILES IDX 6 1 34 2 32 3 29 4 28 5 7 6 5 7 4 8 1 9 2 10 40 11 3 12
REMARK SMILES IDX 38 13 36 14 41 15 39 17 37 19 35 21 8 23 9 24 10 25 15 26
REMARK SMILES IDX 11 27 14 28 13 29 16 30 26 31 17 32 27 33 25 34 12 35 18 37
REMARK SMILES IDX 19 38 24 39 20 40 23 41 21 42 22 43 33 45 30 47 31 48
REMARK H PARENT 41 16 39 18 37 20 35 22 12 36 22 44 33 46 31 49
REMARK Flexibility Score: inf
ROOT
ATOM      1  C   UNL     1      45.643  13.993  -3.950  1.00  0.00     0.221 C 
ATOM      2  C   UNL     1      46.850  13.172  -3.380  1.00  0.00     0.181 C 
ATOM      3  C   UNL     1      48.277  13.459  -4.010  1.00  0.00     0.177 C 
ATOM      4  C   UNL     1      48.385  14.646  -5.027  1.00  0.00     0.179 C 
ATOM      5  O   UNL     1      47.181  14.811  -5.740  1.00  0.00    -0.332 OA
ATOM      6  C   UNL     1      46.035  15.131  -4.943  1.00  0.00     0.339 C 
ENDROOT
BRANCH   1   7
ATOM      7  O   UNL     1      44.776  13.090  -4.631  1.00  0.00    -0.337 OA
BRANCH   7   8
ATOM      8  C   UNL     1      43.726  13.747  -5.336  1.00  0.00     0.282 C 
ATOM      9  C   UNL     1      41.484  10.875  -5.995  1.00  0.00     0.041 C 
ATOM     10  C   UNL     1      42.287  11.879  -5.158  1.00  0.00     0.150 C 
ATOM     11  C   UNL     1      41.345  12.585  -4.147  1.00  0.00     0.174 C 
ATOM     12  O   UNL     1      42.915  12.809  -6.041  1.00  0.00    -0.344 OA
ATOM     13  C   UNL     1      42.121  13.657  -3.369  1.00  0.00     0.179 C 
ATOM     14  C   UNL     1      42.879  14.580  -4.344  1.00  0.00     0.202 C 
BRANCH  11  15
ATOM     15  O   UNL     1      40.829  11.633  -3.253  1.00  0.00    -0.388 OA
ATOM     16  H   UNL     1      39.828  11.681  -3.318  1.00  0.00     0.211 HD
ENDBRANCH  11  15
BRANCH  13  17
ATOM     17  O   UNL     1      41.240  14.405  -2.561  1.00  0.00    -0.387 OA
ATOM     18  H   UNL     1      41.529  15.354  -2.579  1.00  0.00     0.211 HD
ENDBRANCH  13  17
BRANCH  14  19
ATOM     19  O   UNL     1      42.000  15.449  -5.024  1.00  0.00    -0.385 OA
ATOM     20  H   UNL     1      41.127  15.441  -4.553  1.00  0.00     0.211 HD
ENDBRANCH  14  19
ENDBRANCH   7   8
ENDBRANCH   1   7
BRANCH   2  21
ATOM     21  O   UNL     1      46.828  13.286  -1.991  1.00  0.00    -0.387 OA
ATOM     22  H   UNL     1      45.877  13.250  -1.684  1.00  0.00     0.211 HD
ENDBRANCH   2  21
BRANCH   6  23
ATOM     23  O   UNL     1      46.014  16.505  -4.428  1.00  0.00    -0.462 OA
BRANCH  23  24
ATOM     24  C   UNL     1      44.903  17.297  -4.040  1.00  0.00     0.130 A 
ATOM     25  C   UNL     1      44.359  17.180  -2.766  1.00  0.00     0.093 A 
ATOM     26  C   UNL     1      44.335  18.239  -4.939  1.00  0.00     0.094 A 
ATOM     27  C   UNL     1      43.079  17.635  -2.512  1.00  0.00     0.133 A 
ATOM     28  C   UNL     1      43.128  18.862  -4.610  1.00  0.00     0.138 A 
ATOM     29  C   UNL     1      42.467  18.535  -3.413  1.00  0.00     0.102 A 
ATOM     30  O   UNL     1      42.649  19.895  -5.433  1.00  0.00    -0.484 OA
ATOM     31  C   UNL     1      41.278  19.310  -3.027  1.00  0.00     0.174 C 
ATOM     32  C   UNL     1      41.391  20.540  -5.203  1.00  0.00     0.211 C 
ATOM     33  O   UNL     1      40.530  18.965  -2.080  1.00  0.00    -0.294 OA
ATOM     34  C   UNL     1      41.077  20.640  -3.692  1.00  0.00     0.131 C 
BRANCH  27  35
ATOM     35  O   UNL     1      42.401  17.176  -1.372  1.00  0.00    -0.507 OA
ATOM     36  H   UNL     1      41.542  16.663  -1.538  1.00  0.00     0.293 HD
ENDBRANCH  27  35
BRANCH  32  37
ATOM     37  C   UNL     1      41.405  21.956  -5.749  1.00  0.00    -0.007 A 
ATOM     38  C   UNL     1      42.618  22.648  -5.912  1.00  0.00     0.011 A 
ATOM     39  C   UNL     1      40.199  22.669  -5.829  1.00  0.00     0.011 A 
ATOM     40  C   UNL     1      42.620  24.026  -6.112  1.00  0.00     0.046 A 
ATOM     41  C   UNL     1      40.209  24.056  -5.951  1.00  0.00     0.046 A 
ATOM     42  C   UNL     1      41.419  24.740  -6.071  1.00  0.00     0.115 A 
BRANCH  42  43
ATOM     43  O   UNL     1      41.432  26.125  -6.125  1.00  0.00    -0.508 OA
ATOM     44  H   UNL     1      40.958  26.633  -6.840  1.00  0.00     0.293 HD
ENDBRANCH  42  43
ENDBRANCH  32  37
ENDBRANCH  23  24
ENDBRANCH   6  23
BRANCH   3  45
ATOM     45  O   UNL     1      49.367  13.420  -3.102  1.00  0.00    -0.387 OA
ATOM     46  H   UNL     1      49.811  14.297  -2.977  1.00  0.00     0.211 HD
ENDBRANCH   3  45
BRANCH   4  47
ATOM     47  C   UNL     1      49.029  16.003  -4.654  1.00  0.00     0.191 C 
BRANCH  47  48
ATOM     48  O   UNL     1      48.614  16.490  -3.390  1.00  0.00    -0.394 OA
ATOM     49  H   UNL     1      48.267  17.408  -3.561  1.00  0.00     0.210 HD
ENDBRANCH  47  48
ENDBRANCH   4  47
TORSDOF 14
ENDMDL
