MODEL 1
REMARK VINA RESULT:    -2.488      0.000      0.000
REMARK INTER + INTRA:          -3.919
REMARK INTER:                  -3.361
REMARK INTRA:                  -0.558
REMARK UNBOUND:                -0.558
REMARK SMILES CCCCCCCC=O
REMARK SMILES IDX 5 1 4 2 3 3 2 4 1 5 6 6 7 7 8 8 9 9
REMARK H PARENT
REMARK Flexibility Score: inf
ROOT
ATOM      1  C   UNL     1     115.097 114.949 120.841  1.00  0.00     0.000 C 
ENDROOT
BRANCH   1   2
ATOM      2  C   UNL     1     113.990 115.460 119.908  1.00  0.00     0.000 C 
BRANCH   2   3
ATOM      3  C   UNL     1     114.335 116.855 119.362  1.00  0.00    -0.000 C 
BRANCH   3   4
ATOM      4  C   UNL     1     114.740 117.840 120.471  1.00  0.00    -0.003 C 
ATOM      5  C   UNL     1     116.071 118.535 120.186  1.00  0.00     0.004 C 
ENDBRANCH   3   4
ENDBRANCH   2   3
ENDBRANCH   1   2
BRANCH   1   6
ATOM      6  C   UNL     1     116.373 114.547 120.082  1.00  0.00     0.008 C 
BRANCH   6   7
ATOM      7  C   UNL     1     117.651 115.060 120.761  1.00  0.00     0.072 C 
BRANCH   7   8
ATOM      8  C   UNL     1     117.358 115.547 122.149  1.00  0.00     0.224 C 
ATOM      9  O   UNL     1     118.021 115.155 123.095  1.00  0.00    -0.303 OA
ENDBRANCH   7   8
ENDBRANCH   6   7
ENDBRANCH   1   6
TORSDOF 6
ENDMDL
MODEL 2
REMARK VINA RESULT:    -2.418      1.663      3.141
REMARK INTER + INTRA:          -3.824
REMARK INTER:                  -3.269
REMARK INTRA:                  -0.555
REMARK UNBOUND:                -0.558
REMARK SMILES CCCCCCCC=O
REMARK SMILES IDX 5 1 4 2 3 3 2 4 1 5 6 6 7 7 8 8 9 9
REMARK H PARENT
REMARK Flexibility Score: inf
ROOT
ATOM      1  C   UNL     1     114.831 118.276 120.594  1.00  0.00     0.000 C 
ENDROOT
BRANCH   1   2
ATOM      2  C   UNL     1     115.606 119.334 119.794  1.00  0.00     0.000 C 
BRANCH   2   3
ATOM      3  C   UNL     1     116.878 118.732 119.177  1.00  0.00    -0.000 C 
BRANCH   3   4
ATOM      4  C   UNL     1     117.947 118.402 120.231  1.00  0.00    -0.003 C 
ATOM      5  C   UNL     1     118.695 117.103 119.929  1.00  0.00     0.004 C 
ENDBRANCH   3   4
ENDBRANCH   2   3
ENDBRANCH   1   2
BRANCH   1   6
ATOM      6  C   UNL     1     114.457 117.050 119.745  1.00  0.00     0.008 C 
BRANCH   6   7
ATOM      7  C   UNL     1     114.833 115.725 120.424  1.00  0.00     0.072 C 
BRANCH   7   8
ATOM      8  C   UNL     1     115.540 115.974 121.723  1.00  0.00     0.224 C 
ATOM      9  O   UNL     1     115.212 115.371 122.732  1.00  0.00    -0.303 OA
ENDBRANCH   7   8
ENDBRANCH   6   7
ENDBRANCH   1   6
TORSDOF 6
ENDMDL
MODEL 3
REMARK VINA RESULT:    -2.416      1.256      3.148
REMARK INTER + INTRA:          -3.821
REMARK INTER:                  -3.275
REMARK INTRA:                  -0.547
REMARK UNBOUND:                -0.558
REMARK SMILES CCCCCCCC=O
REMARK SMILES IDX 5 1 4 2 3 3 2 4 1 5 6 6 7 7 8 8 9 9
REMARK H PARENT
REMARK Flexibility Score: inf
ROOT
ATOM      1  C   UNL     1     114.275 116.938 119.624  1.00  0.00     0.000 C 
ENDROOT
BRANCH   1   2
ATOM      2  C   UNL     1     114.021 115.463 119.968  1.00  0.00     0.000 C 
BRANCH   2   3
ATOM      3  C   UNL     1     115.258 114.835 120.630  1.00  0.00    -0.000 C 
BRANCH   3   4
ATOM      4  C   UNL     1     116.267 114.295 119.603  1.00  0.00    -0.003 C 
ATOM      5  C   UNL     1     117.710 114.363 120.101  1.00  0.00     0.004 C 
ENDBRANCH   3   4
ENDBRANCH   2   3
ENDBRANCH   1   2
BRANCH   1   6
ATOM      6  C   UNL     1     115.035 117.683 120.734  1.00  0.00     0.008 C 
BRANCH   6   7
ATOM      7  C   UNL     1     116.235 118.476 120.198  1.00  0.00     0.072 C 
BRANCH   7   8
ATOM      8  C   UNL     1     117.504 118.041 120.868  1.00  0.00     0.224 C 
ATOM      9  O   UNL     1     117.469 117.436 121.928  1.00  0.00    -0.303 OA
ENDBRANCH   7   8
ENDBRANCH   6   7
ENDBRANCH   1   6
TORSDOF 6
ENDMDL
MODEL 4
REMARK VINA RESULT:    -2.403      2.135      4.301
REMARK INTER + INTRA:          -3.804
REMARK INTER:                  -3.258
REMARK INTRA:                  -0.546
REMARK UNBOUND:                -0.558
REMARK SMILES CCCCCCCC=O
REMARK SMILES IDX 5 1 4 2 3 3 2 4 1 5 6 6 7 7 8 8 9 9
REMARK H PARENT
REMARK Flexibility Score: inf
ROOT
ATOM      1  C   UNL     1     118.317 118.239 120.703  1.00  0.00     0.000 C 
ENDROOT
BRANCH   1   2
ATOM      2  C   UNL     1     119.359 117.649 119.741  1.00  0.00     0.000 C 
BRANCH   2   3
ATOM      3  C   UNL     1     118.913 116.272 119.226  1.00  0.00    -0.000 C 
BRANCH   3   4
ATOM      4  C   UNL     1     118.526 115.313 120.364  1.00  0.00    -0.003 C 
ATOM      5  C   UNL     1     117.577 114.206 119.907  1.00  0.00     0.004 C 
ENDBRANCH   3   4
ENDBRANCH   2   3
ENDBRANCH   1   2
BRANCH   1   6
ATOM      6  C   UNL     1     117.107 118.839 119.968  1.00  0.00     0.008 C 
BRANCH   6   7
ATOM      7  C   UNL     1     115.787 118.149 120.341  1.00  0.00     0.072 C 
BRANCH   7   8
ATOM      8  C   UNL     1     115.829 117.648 121.753  1.00  0.00     0.224 C 
ATOM      9  O   UNL     1     115.491 116.504 122.015  1.00  0.00    -0.303 OA
ENDBRANCH   7   8
ENDBRANCH   6   7
ENDBRANCH   1   6
TORSDOF 6
ENDMDL
MODEL 5
REMARK VINA RESULT:    -2.401      1.764      3.369
REMARK INTER + INTRA:          -3.802
REMARK INTER:                  -3.254
REMARK INTRA:                  -0.548
REMARK UNBOUND:                -0.558
REMARK SMILES CCCCCCCC=O
REMARK SMILES IDX 5 1 4 2 3 3 2 4 1 5 6 6 7 7 8 8 9 9
REMARK H PARENT
REMARK Flexibility Score: inf
ROOT
ATOM      1  C   UNL     1     116.302 114.343 119.302  1.00  0.00     0.000 C 
ENDROOT
BRANCH   1   2
ATOM      2  C   UNL     1     117.689 113.977 119.849  1.00  0.00     0.000 C 
BRANCH   2   3
ATOM      3  C   UNL     1     118.323 115.171 120.579  1.00  0.00    -0.000 C 
BRANCH   3   4
ATOM      4  C   UNL     1     118.846 116.245 119.612  1.00  0.00    -0.003 C 
ATOM      5  C   UNL     1     118.737 117.659 120.183  1.00  0.00     0.004 C 
ENDBRANCH   3   4
ENDBRANCH   2   3
ENDBRANCH   1   2
BRANCH   1   6
ATOM      6  C   UNL     1     115.332 114.797 120.406  1.00  0.00     0.008 C 
BRANCH   6   7
ATOM      7  C   UNL     1     114.548 116.059 120.021  1.00  0.00     0.072 C 
BRANCH   7   8
ATOM      8  C   UNL     1     115.076 117.257 120.753  1.00  0.00     0.224 C 
ATOM      9  O   UNL     1     115.597 117.133 121.849  1.00  0.00    -0.303 OA
ENDBRANCH   7   8
ENDBRANCH   6   7
ENDBRANCH   1   6
TORSDOF 6
ENDMDL
MODEL 6
REMARK VINA RESULT:    -2.399      1.358      2.185
REMARK INTER + INTRA:          -3.798
REMARK INTER:                  -3.245
REMARK INTRA:                  -0.554
REMARK UNBOUND:                -0.558
REMARK SMILES CCCCCCCC=O
REMARK SMILES IDX 5 1 4 2 3 3 2 4 1 5 6 6 7 7 8 8 9 9
REMARK H PARENT
REMARK Flexibility Score: inf
ROOT
ATOM      1  C   UNL     1     114.923 116.491 120.410  1.00  0.00     0.000 C 
ENDROOT
BRANCH   1   2
ATOM      2  C   UNL     1     115.042 117.914 120.974  1.00  0.00     0.000 C 
BRANCH   2   3
ATOM      3  C   UNL     1     115.761 118.840 119.981  1.00  0.00    -0.000 C 
BRANCH   3   4
ATOM      4  C   UNL     1     117.173 118.345 119.628  1.00  0.00    -0.003 C 
ATOM      5  C   UNL     1     118.134 118.402 120.816  1.00  0.00     0.004 C 
ENDBRANCH   3   4
ENDBRANCH   2   3
ENDBRANCH   1   2
BRANCH   1   6
ATOM      6  C   UNL     1     115.291 115.412 121.442  1.00  0.00     0.008 C 
BRANCH   6   7
ATOM      7  C   UNL     1     115.736 116.007 122.785  1.00  0.00     0.072 C 
BRANCH   7   8
ATOM      8  C   UNL     1     117.130 115.570 123.125  1.00  0.00     0.224 C 
ATOM      9  O   UNL     1     117.907 115.237 122.245  1.00  0.00    -0.303 OA
ENDBRANCH   7   8
ENDBRANCH   6   7
ENDBRANCH   1   6
TORSDOF 6
ENDMDL
MODEL 7
REMARK VINA RESULT:    -2.390      2.015      2.787
REMARK INTER + INTRA:          -3.786
REMARK INTER:                  -3.197
REMARK INTRA:                  -0.589
REMARK UNBOUND:                -0.558
REMARK SMILES CCCCCCCC=O
REMARK SMILES IDX 5 1 4 2 3 3 2 4 1 5 6 6 7 7 8 8 9 9
REMARK H PARENT
REMARK Flexibility Score: inf
ROOT
ATOM      1  C   UNL     1     118.006 116.449 120.368  1.00  0.00     0.000 C 
ENDROOT
BRANCH   1   2
ATOM      2  C   UNL     1     117.882 117.887 120.895  1.00  0.00     0.000 C 
BRANCH   2   3
ATOM      3  C   UNL     1     117.021 118.743 119.954  1.00  0.00    -0.000 C 
BRANCH   3   4
ATOM      4  C   UNL     1     115.561 118.268 119.893  1.00  0.00    -0.003 C 
ATOM      5  C   UNL     1     114.787 118.567 121.177  1.00  0.00     0.004 C 
ENDBRANCH   3   4
ENDBRANCH   2   3
ENDBRANCH   1   2
BRANCH   1   6
ATOM      6  C   UNL     1     117.760 115.395 121.461  1.00  0.00     0.008 C 
BRANCH   6   7
ATOM      7  C   UNL     1     117.257 116.011 122.774  1.00  0.00     0.072 C 
BRANCH   7   8
ATOM      8  C   UNL     1     115.859 115.558 123.073  1.00  0.00     0.224 C 
ATOM      9  O   UNL     1     115.123 115.182 122.174  1.00  0.00    -0.303 OA
ENDBRANCH   7   8
ENDBRANCH   6   7
ENDBRANCH   1   6
TORSDOF 6
ENDMDL
MODEL 8
REMARK VINA RESULT:    -2.371      1.399      3.054
REMARK INTER + INTRA:          -3.761
REMARK INTER:                  -3.171
REMARK INTRA:                  -0.590
REMARK UNBOUND:                -0.558
REMARK SMILES CCCCCCCC=O
REMARK SMILES IDX 5 1 4 2 3 3 2 4 1 5 6 6 7 7 8 8 9 9
REMARK H PARENT
REMARK Flexibility Score: inf
ROOT
ATOM      1  C   UNL     1     117.150 118.846 119.160  1.00  0.00     0.000 C 
ENDROOT
BRANCH   1   2
ATOM      2  C   UNL     1     115.871 119.526 119.669  1.00  0.00     0.000 C 
BRANCH   2   3
ATOM      3  C   UNL     1     114.911 118.496 120.285  1.00  0.00    -0.000 C 
BRANCH   3   4
ATOM      4  C   UNL     1     114.473 117.421 119.278  1.00  0.00    -0.003 C 
ATOM      5  C   UNL     1     114.256 116.055 119.929  1.00  0.00     0.004 C 
ENDBRANCH   3   4
ENDBRANCH   2   3
ENDBRANCH   1   2
BRANCH   1   6
ATOM      6  C   UNL     1     118.040 118.329 120.303  1.00  0.00     0.008 C 
BRANCH   6   7
ATOM      7  C   UNL     1     118.489 116.876 120.091  1.00  0.00     0.072 C 
BRANCH   7   8
ATOM      8  C   UNL     1     117.834 115.965 121.086  1.00  0.00     0.224 C 
ATOM      9  O   UNL     1     117.213 116.424 122.031  1.00  0.00    -0.303 OA
ENDBRANCH   7   8
ENDBRANCH   6   7
ENDBRANCH   1   6
TORSDOF 6
ENDMDL
MODEL 9
REMARK VINA RESULT:    -2.356      1.496      3.193
REMARK INTER + INTRA:          -3.740
REMARK INTER:                  -3.179
REMARK INTRA:                  -0.561
REMARK UNBOUND:                -0.558
REMARK SMILES CCCCCCCC=O
REMARK SMILES IDX 5 1 4 2 3 3 2 4 1 5 6 6 7 7 8 8 9 9
REMARK H PARENT
REMARK Flexibility Score: inf
ROOT
ATOM      1  C   UNL     1     114.757 118.451 119.993  1.00  0.00     0.000 C 
ENDROOT
BRANCH   1   2
ATOM      2  C   UNL     1     114.584 117.270 119.026  1.00  0.00     0.000 C 
BRANCH   2   3
ATOM      3  C   UNL     1     113.971 116.058 119.745  1.00  0.00    -0.000 C 
BRANCH   3   4
ATOM      4  C   UNL     1     114.956 115.386 120.715  1.00  0.00    -0.003 C 
ATOM      5  C   UNL     1     116.144 114.742 120.000  1.00  0.00     0.004 C 
ENDBRANCH   3   4
ENDBRANCH   2   3
ENDBRANCH   1   2
BRANCH   1   6
ATOM      6  C   UNL     1     116.049 119.244 119.733  1.00  0.00     0.008 C 
BRANCH   6   7
ATOM      7  C   UNL     1     117.256 118.335 119.464  1.00  0.00     0.072 C 
BRANCH   7   8
ATOM      8  C   UNL     1     118.116 118.216 120.687  1.00  0.00     0.224 C 
ATOM      9  O   UNL     1     117.726 117.591 121.660  1.00  0.00    -0.303 OA
ENDBRANCH   7   8
ENDBRANCH   6   7
ENDBRANCH   1   6
TORSDOF 6
ENDMDL
