MODEL 1
REMARK VINA RESULT:    -4.560      0.000      0.000
REMARK INTER + INTRA:          -8.731
REMARK INTER:                  -6.959
REMARK INTRA:                  -1.772
REMARK UNBOUND:                -1.772
REMARK SMILES CC(=O)CCC=C(C)CCC=C(C)CCC=C(C)C
REMARK SMILES IDX 10 1 11 2 12 3 13 4 14 5 15 6 16 7 18 8 17 9 19 10 9 11 7 12
REMARK SMILES IDX 6 13 8 14 5 15 4 16 2 17 3 18 1 19
REMARK H PARENT
REMARK Flexibility Score: inf
ROOT
ATOM      1  C   UNL     1      18.452  -8.404  13.787  1.00  0.00     0.032 C 
ENDROOT
BRANCH   1   2
ATOM      2  C   UNL     1      17.673  -7.685  14.860  1.00  0.00    -0.028 C 
ATOM      3  C   UNL     1      17.359  -6.369  14.836  1.00  0.00    -0.077 C 
ATOM      4  C   UNL     1      16.618  -5.794  16.017  1.00  0.00     0.039 C 
BRANCH   3   5
ATOM      5  C   UNL     1      17.688  -5.461  13.663  1.00  0.00     0.034 C 
BRANCH   5   6
ATOM      6  C   UNL     1      16.674  -5.606  12.520  1.00  0.00     0.032 C 
BRANCH   6   7
ATOM      7  C   UNL     1      15.434  -4.780  12.776  1.00  0.00    -0.028 C 
ATOM      8  C   UNL     1      13.116  -4.316  13.452  1.00  0.00     0.039 C 
ATOM      9  C   UNL     1      14.245  -5.280  13.184  1.00  0.00    -0.080 C 
ATOM     10  C   UNL     1      14.018  -6.760  13.374  1.00  0.00     0.039 C 
ENDBRANCH   6   7
ENDBRANCH   5   6
ENDBRANCH   3   5
ENDBRANCH   1   2
BRANCH   1  11
ATOM     11  C   UNL     1      18.149  -9.906  13.810  1.00  0.00     0.034 C 
BRANCH  11  12
ATOM     12  C   UNL     1      17.062 -10.254  12.816  1.00  0.00    -0.077 C 
ATOM     13  C   UNL     1      16.583 -11.520  12.786  1.00  0.00    -0.028 C 
ATOM     14  C   UNL     1      16.546  -9.184  11.883  1.00  0.00     0.039 C 
BRANCH  13  15
ATOM     15  C   UNL     1      15.479 -11.996  11.875  1.00  0.00     0.035 C 
BRANCH  15  16
ATOM     16  C   UNL     1      14.381 -12.707  12.680  1.00  0.00     0.079 C 
BRANCH  16  17
ATOM     17  C   UNL     1      13.114 -11.900  12.856  1.00  0.00     0.130 C 
ATOM     18  O   UNL     1      12.110 -12.475  13.248  1.00  0.00    -0.300 OA
ATOM     19  C   UNL     1      13.037 -10.424  12.576  1.00  0.00     0.087 C 
ENDBRANCH  16  17
ENDBRANCH  15  16
ENDBRANCH  13  15
ENDBRANCH  11  12
ENDBRANCH   1  11
TORSDOF 9
ENDMDL
MODEL 2
REMARK VINA RESULT:    -4.463      2.220      4.475
REMARK INTER + INTRA:          -8.583
REMARK INTER:                  -7.199
REMARK INTRA:                  -1.383
REMARK UNBOUND:                -1.772
REMARK SMILES CC(=O)CCC=C(C)CCC=C(C)CCC=C(C)C
REMARK SMILES IDX 10 1 11 2 12 3 13 4 14 5 15 6 16 7 18 8 17 9 19 10 9 11 7 12
REMARK SMILES IDX 6 13 8 14 5 15 4 16 2 17 3 18 1 19
REMARK H PARENT
REMARK Flexibility Score: inf
ROOT
ATOM      1  C   UNL     1      17.147 -10.528  13.053  1.00  0.00     0.032 C 
ENDROOT
BRANCH   1   2
ATOM      2  C   UNL     1      17.801  -9.303  12.465  1.00  0.00    -0.028 C 
ATOM      3  C   UNL     1      18.051  -8.160  13.143  1.00  0.00    -0.077 C 
ATOM      4  C   UNL     1      18.666  -7.006  12.391  1.00  0.00     0.039 C 
BRANCH   3   5
ATOM      5  C   UNL     1      17.774  -8.002  14.629  1.00  0.00     0.034 C 
BRANCH   5   6
ATOM      6  C   UNL     1      17.238  -6.606  14.970  1.00  0.00     0.032 C 
BRANCH   6   7
ATOM      7  C   UNL     1      17.292  -6.343  16.458  1.00  0.00    -0.028 C 
ATOM      8  C   UNL     1      16.486  -5.622  18.665  1.00  0.00     0.039 C 
ATOM      9  C   UNL     1      16.304  -5.762  17.175  1.00  0.00    -0.080 C 
ATOM     10  C   UNL     1      15.038  -5.251  16.531  1.00  0.00     0.039 C 
ENDBRANCH   6   7
ENDBRANCH   5   6
ENDBRANCH   3   5
ENDBRANCH   1   2
BRANCH   1  11
ATOM     11  C   UNL     1      16.011 -11.024  12.151  1.00  0.00     0.034 C 
BRANCH  11  12
ATOM     12  C   UNL     1      14.754 -10.210  12.368  1.00  0.00    -0.077 C 
ATOM     13  C   UNL     1      14.815  -8.864  12.235  1.00  0.00    -0.028 C 
ATOM     14  C   UNL     1      13.471 -10.917  12.732  1.00  0.00     0.039 C 
BRANCH  13  15
ATOM     15  C   UNL     1      13.636  -7.935  12.386  1.00  0.00     0.035 C 
BRANCH  15  16
ATOM     16  C   UNL     1      13.914  -6.878  13.466  1.00  0.00     0.079 C 
BRANCH  16  17
ATOM     17  C   UNL     1      14.157  -5.485  12.929  1.00  0.00     0.130 C 
ATOM     18  O   UNL     1      13.369  -4.602  13.231  1.00  0.00    -0.300 OA
ATOM     19  C   UNL     1      15.324  -5.140  12.045  1.00  0.00     0.087 C 
ENDBRANCH  16  17
ENDBRANCH  15  16
ENDBRANCH  13  15
ENDBRANCH  11  12
ENDBRANCH   1  11
TORSDOF 9
ENDMDL
MODEL 3
REMARK VINA RESULT:    -4.385      2.466      6.127
REMARK INTER + INTRA:          -8.464
REMARK INTER:                  -8.003
REMARK INTRA:                  -0.461
REMARK UNBOUND:                -1.772
REMARK SMILES CC(=O)CCC=C(C)CCC=C(C)CCC=C(C)C
REMARK SMILES IDX 10 1 11 2 12 3 13 4 14 5 15 6 16 7 18 8 17 9 19 10 9 11 7 12
REMARK SMILES IDX 6 13 8 14 5 15 4 16 2 17 3 18 1 19
REMARK H PARENT
REMARK Flexibility Score: inf
ROOT
ATOM      1  C   UNL     1      16.718  -8.245  11.982  1.00  0.00     0.032 C 
ENDROOT
BRANCH   1   2
ATOM      2  C   UNL     1      15.774  -7.359  12.754  1.00  0.00    -0.028 C 
ATOM      3  C   UNL     1      14.424  -7.429  12.694  1.00  0.00    -0.077 C 
ATOM      4  C   UNL     1      13.624  -6.431  13.492  1.00  0.00     0.039 C 
BRANCH   3   5
ATOM      5  C   UNL     1      13.687  -8.485  11.888  1.00  0.00     0.034 C 
BRANCH   5   6
ATOM      6  C   UNL     1      13.281  -9.688  12.750  1.00  0.00     0.032 C 
BRANCH   6   7
ATOM      7  C   UNL     1      14.263 -10.827  12.604  1.00  0.00    -0.028 C 
ATOM      8  C   UNL     1      15.022 -13.156  12.398  1.00  0.00     0.039 C 
ATOM      9  C   UNL     1      13.931 -12.138  12.614  1.00  0.00    -0.080 C 
ATOM     10  C   UNL     1      12.514 -12.606  12.839  1.00  0.00     0.039 C 
ENDBRANCH   6   7
ENDBRANCH   5   6
ENDBRANCH   3   5
ENDBRANCH   1   2
BRANCH   1  11
ATOM     11  C   UNL     1      18.131  -8.182  12.575  1.00  0.00     0.034 C 
BRANCH  11  12
ATOM     12  C   UNL     1      18.086  -8.259  14.086  1.00  0.00    -0.077 C 
ATOM     13  C   UNL     1      17.667  -7.178  14.785  1.00  0.00    -0.028 C 
ATOM     14  C   UNL     1      18.516  -9.534  14.772  1.00  0.00     0.039 C 
BRANCH  13  15
ATOM     15  C   UNL     1      17.539  -7.126  16.287  1.00  0.00     0.035 C 
BRANCH  15  16
ATOM     16  C   UNL     1      17.035  -5.748  16.741  1.00  0.00     0.079 C 
BRANCH  16  17
ATOM     17  C   UNL     1      16.438  -5.728  18.130  1.00  0.00     0.130 C 
ATOM     18  O   UNL     1      15.995  -6.772  18.586  1.00  0.00    -0.300 OA
ATOM     19  C   UNL     1      16.369  -4.485  18.975  1.00  0.00     0.087 C 
ENDBRANCH  16  17
ENDBRANCH  15  16
ENDBRANCH  13  15
ENDBRANCH  11  12
ENDBRANCH   1  11
TORSDOF 9
ENDMDL
MODEL 4
REMARK VINA RESULT:    -4.338      1.627      4.361
REMARK INTER + INTRA:          -8.391
REMARK INTER:                  -6.229
REMARK INTRA:                  -2.163
REMARK UNBOUND:                -1.772
REMARK SMILES CC(=O)CCC=C(C)CCC=C(C)CCC=C(C)C
REMARK SMILES IDX 10 1 11 2 12 3 13 4 14 5 15 6 16 7 18 8 17 9 19 10 9 11 7 12
REMARK SMILES IDX 6 13 8 14 5 15 4 16 2 17 3 18 1 19
REMARK H PARENT
REMARK Flexibility Score: inf
ROOT
ATOM      1  C   UNL     1      14.013  -5.556  15.750  1.00  0.00     0.032 C 
ENDROOT
BRANCH   1   2
ATOM      2  C   UNL     1      14.673  -4.902  16.937  1.00  0.00    -0.028 C 
ATOM      3  C   UNL     1      15.827  -5.320  17.508  1.00  0.00    -0.077 C 
ATOM      4  C   UNL     1      16.326  -4.583  18.725  1.00  0.00     0.039 C 
BRANCH   3   5
ATOM      5  C   UNL     1      16.652  -6.470  16.957  1.00  0.00     0.034 C 
BRANCH   5   6
ATOM      6  C   UNL     1      17.362  -6.095  15.649  1.00  0.00     0.032 C 
BRANCH   6   7
ATOM      7  C   UNL     1      17.547  -7.301  14.757  1.00  0.00    -0.028 C 
ATOM      8  C   UNL     1      18.119  -8.549  12.717  1.00  0.00     0.039 C 
ATOM      9  C   UNL     1      17.920  -7.250  13.458  1.00  0.00    -0.080 C 
ATOM     10  C   UNL     1      18.137  -5.943  12.735  1.00  0.00     0.039 C 
ENDBRANCH   6   7
ENDBRANCH   5   6
ENDBRANCH   3   5
ENDBRANCH   1   2
BRANCH   1  11
ATOM     11  C   UNL     1      14.099  -4.653  14.514  1.00  0.00     0.034 C 
BRANCH  11  12
ATOM     12  C   UNL     1      14.310  -5.473  13.260  1.00  0.00    -0.077 C 
ATOM     13  C   UNL     1      14.200  -6.820  13.332  1.00  0.00    -0.028 C 
ATOM     14  C   UNL     1      14.644  -4.769  11.966  1.00  0.00     0.039 C 
BRANCH  13  15
ATOM     15  C   UNL     1      14.348  -7.755  12.158  1.00  0.00     0.035 C 
BRANCH  15  16
ATOM     16  C   UNL     1      14.608  -9.191  12.637  1.00  0.00     0.079 C 
BRANCH  16  17
ATOM     17  C   UNL     1      13.377 -10.069  12.678  1.00  0.00     0.130 C 
ATOM     18  O   UNL     1      12.281  -9.530  12.671  1.00  0.00    -0.300 OA
ATOM     19  C   UNL     1      13.443 -11.571  12.721  1.00  0.00     0.087 C 
ENDBRANCH  16  17
ENDBRANCH  15  16
ENDBRANCH  13  15
ENDBRANCH  11  12
ENDBRANCH   1  11
TORSDOF 9
ENDMDL
MODEL 5
REMARK VINA RESULT:    -4.233      1.496      4.019
REMARK INTER + INTRA:          -8.232
REMARK INTER:                  -6.057
REMARK INTRA:                  -2.176
REMARK UNBOUND:                -1.772
REMARK SMILES CC(=O)CCC=C(C)CCC=C(C)CCC=C(C)C
REMARK SMILES IDX 10 1 11 2 12 3 13 4 14 5 15 6 16 7 18 8 17 9 19 10 9 11 7 12
REMARK SMILES IDX 6 13 8 14 5 15 4 16 2 17 3 18 1 19
REMARK H PARENT
REMARK Flexibility Score: inf
ROOT
ATOM      1  C   UNL     1      16.490  -6.421  14.618  1.00  0.00     0.032 C 
ENDROOT
BRANCH   1   2
ATOM      2  C   UNL     1      17.498  -5.366  14.237  1.00  0.00    -0.028 C 
ATOM      3  C   UNL     1      18.114  -5.283  13.035  1.00  0.00    -0.077 C 
ATOM      4  C   UNL     1      19.137  -4.195  12.834  1.00  0.00     0.039 C 
BRANCH   3   5
ATOM      5  C   UNL     1      17.794  -6.213  11.876  1.00  0.00     0.034 C 
BRANCH   5   6
ATOM      6  C   UNL     1      18.623  -7.503  11.928  1.00  0.00     0.032 C 
BRANCH   6   7
ATOM      7  C   UNL     1      17.737  -8.727  11.958  1.00  0.00    -0.028 C 
ATOM      8  C   UNL     1      16.670 -10.733  12.896  1.00  0.00     0.039 C 
ATOM      9  C   UNL     1      17.647  -9.588  12.996  1.00  0.00    -0.080 C 
ATOM     10  C   UNL     1      18.490  -9.439  14.240  1.00  0.00     0.039 C 
ENDBRANCH   6   7
ENDBRANCH   5   6
ENDBRANCH   3   5
ENDBRANCH   1   2
BRANCH   1  11
ATOM     11  C   UNL     1      15.062  -5.932  14.348  1.00  0.00     0.034 C 
BRANCH  11  12
ATOM     12  C   UNL     1      14.506  -6.558  13.087  1.00  0.00    -0.077 C 
ATOM     13  C   UNL     1      14.251  -7.887  13.073  1.00  0.00    -0.028 C 
ATOM     14  C   UNL     1      14.258  -5.686  11.879  1.00  0.00     0.039 C 
BRANCH  13  15
ATOM     15  C   UNL     1      13.664  -8.634  11.901  1.00  0.00     0.035 C 
BRANCH  15  16
ATOM     16  C   UNL     1      12.458  -9.476  12.344  1.00  0.00     0.079 C 
BRANCH  16  17
ATOM     17  C   UNL     1      12.601 -10.958  12.081  1.00  0.00     0.130 C 
ATOM     18  O   UNL     1      13.721 -11.409  11.893  1.00  0.00    -0.300 OA
ATOM     19  C   UNL     1      11.429 -11.901  12.045  1.00  0.00     0.087 C 
ENDBRANCH  16  17
ENDBRANCH  15  16
ENDBRANCH  13  15
ENDBRANCH  11  12
ENDBRANCH   1  11
TORSDOF 9
ENDMDL
MODEL 6
REMARK VINA RESULT:    -4.189      2.779      6.153
REMARK INTER + INTRA:          -8.165
REMARK INTER:                  -7.238
REMARK INTRA:                  -0.927
REMARK UNBOUND:                -1.772
REMARK SMILES CC(=O)CCC=C(C)CCC=C(C)CCC=C(C)C
REMARK SMILES IDX 10 1 11 2 12 3 13 4 14 5 15 6 16 7 18 8 17 9 19 10 9 11 7 12
REMARK SMILES IDX 6 13 8 14 5 15 4 16 2 17 3 18 1 19
REMARK H PARENT
REMARK Flexibility Score: inf
ROOT
ATOM      1  C   UNL     1      16.495  -5.546  11.904  1.00  0.00     0.032 C 
ENDROOT
BRANCH   1   2
ATOM      2  C   UNL     1      15.442  -5.457  12.981  1.00  0.00    -0.028 C 
ATOM      3  C   UNL     1      14.345  -6.245  13.056  1.00  0.00    -0.077 C 
ATOM      4  C   UNL     1      13.361  -5.990  14.170  1.00  0.00     0.039 C 
BRANCH   3   5
ATOM      5  C   UNL     1      14.083  -7.391  12.094  1.00  0.00     0.034 C 
BRANCH   5   6
ATOM      6  C   UNL     1      14.760  -8.691  12.549  1.00  0.00     0.032 C 
BRANCH   6   7
ATOM      7  C   UNL     1      13.765  -9.825  12.649  1.00  0.00    -0.028 C 
ATOM      8  C   UNL     1      12.980 -12.151  12.766  1.00  0.00     0.039 C 
ATOM      9  C   UNL     1      14.083 -11.138  12.591  1.00  0.00    -0.080 C 
ATOM     10  C   UNL     1      15.496 -11.613  12.355  1.00  0.00     0.039 C 
ENDBRANCH   6   7
ENDBRANCH   5   6
ENDBRANCH   3   5
ENDBRANCH   1   2
BRANCH   1  11
ATOM     11  C   UNL     1      17.875  -5.814  12.515  1.00  0.00     0.034 C 
BRANCH  11  12
ATOM     12  C   UNL     1      17.752  -6.605  13.800  1.00  0.00    -0.077 C 
ATOM     13  C   UNL     1      17.467  -5.948  14.949  1.00  0.00    -0.028 C 
ATOM     14  C   UNL     1      17.958  -8.101  13.767  1.00  0.00     0.039 C 
BRANCH  13  15
ATOM     15  C   UNL     1      17.281  -6.612  16.291  1.00  0.00     0.035 C 
BRANCH  15  16
ATOM     16  C   UNL     1      16.132  -5.952  17.067  1.00  0.00     0.079 C 
BRANCH  16  17
ATOM     17  C   UNL     1      16.560  -5.235  18.328  1.00  0.00     0.130 C 
ATOM     18  O   UNL     1      17.679  -5.453  18.767  1.00  0.00    -0.300 OA
ATOM     19  C   UNL     1      15.674  -4.266  19.061  1.00  0.00     0.087 C 
ENDBRANCH  16  17
ENDBRANCH  15  16
ENDBRANCH  13  15
ENDBRANCH  11  12
ENDBRANCH   1  11
TORSDOF 9
ENDMDL
MODEL 7
REMARK VINA RESULT:    -4.068      1.428      2.710
REMARK INTER + INTRA:          -7.980
REMARK INTER:                  -6.806
REMARK INTRA:                  -1.174
REMARK UNBOUND:                -1.772
REMARK SMILES CC(=O)CCC=C(C)CCC=C(C)CCC=C(C)C
REMARK SMILES IDX 10 1 11 2 12 3 13 4 14 5 15 6 16 7 18 8 17 9 19 10 9 11 7 12
REMARK SMILES IDX 6 13 8 14 5 15 4 16 2 17 3 18 1 19
REMARK H PARENT
REMARK Flexibility Score: inf
ROOT
ATOM      1  C   UNL     1      17.543  -9.392  13.848  1.00  0.00     0.032 C 
ENDROOT
BRANCH   1   2
ATOM      2  C   UNL     1      18.432  -8.342  13.231  1.00  0.00    -0.028 C 
ATOM      3  C   UNL     1      17.991  -7.247  12.570  1.00  0.00    -0.077 C 
ATOM      4  C   UNL     1      19.015  -6.320  11.966  1.00  0.00     0.039 C 
BRANCH   3   5
ATOM      5  C   UNL     1      16.518  -6.896  12.442  1.00  0.00     0.034 C 
BRANCH   5   6
ATOM      6  C   UNL     1      16.107  -5.776  13.407  1.00  0.00     0.032 C 
BRANCH   6   7
ATOM      7  C   UNL     1      16.766  -5.942  14.757  1.00  0.00    -0.028 C 
ATOM      8  C   UNL     1      16.915  -6.089  17.206  1.00  0.00     0.039 C 
ATOM      9  C   UNL     1      16.128  -5.838  15.945  1.00  0.00    -0.080 C 
ATOM     10  C   UNL     1      14.666  -5.477  16.043  1.00  0.00     0.039 C 
ENDBRANCH   6   7
ENDBRANCH   5   6
ENDBRANCH   3   5
ENDBRANCH   1   2
BRANCH   1  11
ATOM     11  C   UNL     1      17.554 -10.675  13.010  1.00  0.00     0.034 C 
BRANCH  11  12
ATOM     12  C   UNL     1      16.180 -10.960  12.442  1.00  0.00    -0.077 C 
ATOM     13  C   UNL     1      15.254  -9.973  12.440  1.00  0.00    -0.028 C 
ATOM     14  C   UNL     1      15.878 -12.338  11.902  1.00  0.00     0.039 C 
BRANCH  13  15
ATOM     15  C   UNL     1      13.862 -10.106  11.875  1.00  0.00     0.035 C 
BRANCH  15  16
ATOM     16  C   UNL     1      12.872 -10.536  12.968  1.00  0.00     0.079 C 
BRANCH  16  17
ATOM     17  C   UNL     1      12.264 -11.904  12.758  1.00  0.00     0.130 C 
ATOM     18  O   UNL     1      12.855 -12.876  13.205  1.00  0.00    -0.300 OA
ATOM     19  C   UNL     1      10.966 -12.121  12.028  1.00  0.00     0.087 C 
ENDBRANCH  16  17
ENDBRANCH  15  16
ENDBRANCH  13  15
ENDBRANCH  11  12
ENDBRANCH   1  11
TORSDOF 9
ENDMDL
MODEL 8
REMARK VINA RESULT:    -3.784      1.101      1.674
REMARK INTER + INTRA:          -7.547
REMARK INTER:                  -7.131
REMARK INTRA:                  -0.416
REMARK UNBOUND:                -1.772
REMARK SMILES CC(=O)CCC=C(C)CCC=C(C)CCC=C(C)C
REMARK SMILES IDX 10 1 11 2 12 3 13 4 14 5 15 6 16 7 18 8 17 9 19 10 9 11 7 12
REMARK SMILES IDX 6 13 8 14 5 15 4 16 2 17 3 18 1 19
REMARK H PARENT
REMARK Flexibility Score: inf
ROOT
ATOM      1  C   UNL     1      17.526  -8.483  13.718  1.00  0.00     0.032 C 
ENDROOT
BRANCH   1   2
ATOM      2  C   UNL     1      18.497  -7.591  12.986  1.00  0.00    -0.028 C 
ATOM      3  C   UNL     1      18.297  -6.278  12.727  1.00  0.00    -0.077 C 
ATOM      4  C   UNL     1      19.347  -5.540  11.936  1.00  0.00     0.039 C 
BRANCH   3   5
ATOM      5  C   UNL     1      17.082  -5.513  13.226  1.00  0.00     0.034 C 
BRANCH   5   6
ATOM      6  C   UNL     1      15.769  -6.230  12.883  1.00  0.00     0.032 C 
BRANCH   6   7
ATOM      7  C   UNL     1      14.570  -5.366  13.199  1.00  0.00    -0.028 C 
ATOM      8  C   UNL     1      12.988  -4.103  14.592  1.00  0.00     0.039 C 
ATOM      9  C   UNL     1      14.174  -5.023  14.445  1.00  0.00    -0.080 C 
ATOM     10  C   UNL     1      14.875  -5.532  15.680  1.00  0.00     0.039 C 
ENDBRANCH   6   7
ENDBRANCH   5   6
ENDBRANCH   3   5
ENDBRANCH   1   2
BRANCH   1  11
ATOM     11  C   UNL     1      17.692  -9.942  13.279  1.00  0.00     0.034 C 
BRANCH  11  12
ATOM     12  C   UNL     1      16.458 -10.432  12.554  1.00  0.00    -0.077 C 
ATOM     13  C   UNL     1      16.198 -11.761  12.528  1.00  0.00    -0.028 C 
ATOM     14  C   UNL     1      15.554  -9.430  11.876  1.00  0.00     0.039 C 
BRANCH  13  15
ATOM     15  C   UNL     1      14.989 -12.384  11.876  1.00  0.00     0.035 C 
BRANCH  15  16
ATOM     16  C   UNL     1      13.917 -12.715  12.925  1.00  0.00     0.079 C 
BRANCH  16  17
ATOM     17  C   UNL     1      12.567 -12.088  12.658  1.00  0.00     0.130 C 
ATOM     18  O   UNL     1      11.625 -12.825  12.406  1.00  0.00    -0.300 OA
ATOM     19  C   UNL     1      12.332 -10.602  12.692  1.00  0.00     0.087 C 
ENDBRANCH  16  17
ENDBRANCH  15  16
ENDBRANCH  13  15
ENDBRANCH  11  12
ENDBRANCH   1  11
TORSDOF 9
ENDMDL
MODEL 9
REMARK VINA RESULT:    -3.669      1.655      3.370
REMARK INTER + INTRA:          -7.371
REMARK INTER:                  -6.859
REMARK INTRA:                  -0.512
REMARK UNBOUND:                -1.772
REMARK SMILES CC(=O)CCC=C(C)CCC=C(C)CCC=C(C)C
REMARK SMILES IDX 10 1 11 2 12 3 13 4 14 5 15 6 16 7 18 8 17 9 19 10 9 11 7 12
REMARK SMILES IDX 6 13 8 14 5 15 4 16 2 17 3 18 1 19
REMARK H PARENT
REMARK Flexibility Score: inf
ROOT
ATOM      1  C   UNL     1      17.236  -8.618  13.093  1.00  0.00     0.032 C 
ENDROOT
BRANCH   1   2
ATOM      2  C   UNL     1      18.218  -7.528  12.744  1.00  0.00    -0.028 C 
ATOM      3  C   UNL     1      18.133  -6.247  13.170  1.00  0.00    -0.077 C 
ATOM      4  C   UNL     1      19.171  -5.266  12.685  1.00  0.00     0.039 C 
BRANCH   3   5
ATOM      5  C   UNL     1      17.064  -5.765  14.136  1.00  0.00     0.034 C 
BRANCH   5   6
ATOM      6  C   UNL     1      17.202  -6.417  15.519  1.00  0.00     0.032 C 
BRANCH   6   7
ATOM      7  C   UNL     1      17.034  -5.402  16.626  1.00  0.00    -0.028 C 
ATOM      8  C   UNL     1      16.531  -4.569  18.883  1.00  0.00     0.039 C 
ATOM      9  C   UNL     1      16.589  -5.685  17.871  1.00  0.00    -0.080 C 
ATOM     10  C   UNL     1      16.148  -7.072  18.271  1.00  0.00     0.039 C 
ENDBRANCH   6   7
ENDBRANCH   5   6
ENDBRANCH   3   5
ENDBRANCH   1   2
BRANCH   1  11
ATOM     11  C   UNL     1      16.295  -8.900  11.916  1.00  0.00     0.034 C 
BRANCH  11  12
ATOM     12  C   UNL     1      14.849  -8.867  12.360  1.00  0.00    -0.077 C 
ATOM     13  C   UNL     1      14.121 -10.007  12.305  1.00  0.00    -0.028 C 
ATOM     14  C   UNL     1      14.256  -7.566  12.846  1.00  0.00     0.039 C 
BRANCH  13  15
ATOM     15  C   UNL     1      12.684 -10.128  12.749  1.00  0.00     0.035 C 
BRANCH  15  16
ATOM     16  C   UNL     1      12.136 -11.529  12.437  1.00  0.00     0.079 C 
BRANCH  16  17
ATOM     17  C   UNL     1      13.028 -12.663  12.889  1.00  0.00     0.130 C 
ATOM     18  O   UNL     1      12.736 -13.256  13.916  1.00  0.00    -0.300 OA
ATOM     19  C   UNL     1      14.253 -13.095  12.130  1.00  0.00     0.087 C 
ENDBRANCH  16  17
ENDBRANCH  15  16
ENDBRANCH  13  15
ENDBRANCH  11  12
ENDBRANCH   1  11
TORSDOF 9
ENDMDL
