MODEL 1
REMARK VINA RESULT:    -3.858      0.000      0.000
REMARK INTER + INTRA:          -4.244
REMARK INTER:                  -4.197
REMARK INTRA:                  -0.047
REMARK UNBOUND:                -0.047
REMARK SMILES CCc1cccc(O)c1
REMARK SMILES IDX 3 1 9 2 7 3 6 4 5 5 4 6 2 7 1 8 8 9
REMARK H PARENT 8 10
REMARK Flexibility Score: inf
ROOT
ATOM      1  C   UNL     1     -13.093  81.957 -10.470  1.00  0.00    -0.045 A 
ATOM      2  C   UNL     1     -13.468  83.259 -10.840  1.00  0.00     0.049 A 
ATOM      3  C   UNL     1     -14.116  84.098  -9.923  1.00  0.00     0.115 A 
ATOM      4  C   UNL     1     -14.383  83.638  -8.629  1.00  0.00     0.046 A 
ATOM      5  C   UNL     1     -14.000  82.348  -8.250  1.00  0.00     0.004 A 
ATOM      6  C   UNL     1     -13.354  81.511  -9.164  1.00  0.00     0.004 A 
ENDROOT
BRANCH   1   7
ATOM      7  C   UNL     1     -12.368  81.069 -11.446  1.00  0.00     0.032 C 
ATOM      8  C   UNL     1     -13.017  81.136 -12.823  1.00  0.00     0.009 C 
ENDBRANCH   1   7
BRANCH   3   9
ATOM      9  O   UNL     1     -14.496  85.388 -10.284  1.00  0.00    -0.508 OA
ATOM     10  H   UNL     1     -15.472  85.649 -10.366  1.00  0.00     0.293 HD
ENDBRANCH   3   9
TORSDOF 2
ENDMDL
MODEL 2
REMARK VINA RESULT:    -3.687      9.432     10.023
REMARK INTER + INTRA:          -4.058
REMARK INTER:                  -4.008
REMARK INTRA:                  -0.050
REMARK UNBOUND:                -0.047
REMARK SMILES CCc1cccc(O)c1
REMARK SMILES IDX 3 1 9 2 7 3 6 4 5 5 4 6 2 7 1 8 8 9
REMARK H PARENT 8 10
REMARK Flexibility Score: inf
ROOT
ATOM      1  C   UNL     1      -3.644  82.810  -9.073  1.00  0.00    -0.045 A 
ATOM      2  C   UNL     1      -3.217  84.043  -8.551  1.00  0.00     0.049 A 
ATOM      3  C   UNL     1      -3.949  85.211  -8.806  1.00  0.00     0.115 A 
ATOM      4  C   UNL     1      -5.115  85.147  -9.575  1.00  0.00     0.046 A 
ATOM      5  C   UNL     1      -5.553  83.922 -10.086  1.00  0.00     0.004 A 
ATOM      6  C   UNL     1      -4.824  82.756  -9.832  1.00  0.00     0.004 A 
ENDROOT
BRANCH   1   7
ATOM      7  C   UNL     1      -2.876  81.551  -8.771  1.00  0.00     0.032 C 
ATOM      8  C   UNL     1      -2.969  81.204  -7.290  1.00  0.00     0.009 C 
ENDBRANCH   1   7
BRANCH   3   9
ATOM      9  O   UNL     1      -3.528  86.438  -8.297  1.00  0.00    -0.508 OA
ATOM     10  H   UNL     1      -2.563  86.599  -8.033  1.00  0.00     0.293 HD
ENDBRANCH   3   9
TORSDOF 2
ENDMDL
MODEL 3
REMARK VINA RESULT:    -3.597     12.036     12.908
REMARK INTER + INTRA:          -3.960
REMARK INTER:                  -3.910
REMARK INTRA:                  -0.050
REMARK UNBOUND:                -0.047
REMARK SMILES CCc1cccc(O)c1
REMARK SMILES IDX 3 1 9 2 7 3 6 4 5 5 4 6 2 7 1 8 8 9
REMARK H PARENT 8 10
REMARK Flexibility Score: inf
ROOT
ATOM      1  C   UNL     1      -5.026  89.811 -14.484  1.00  0.00    -0.045 A 
ATOM      2  C   UNL     1      -5.633  89.990 -15.739  1.00  0.00     0.049 A 
ATOM      3  C   UNL     1      -4.915  90.562 -16.798  1.00  0.00     0.115 A 
ATOM      4  C   UNL     1      -3.585  90.949 -16.607  1.00  0.00     0.046 A 
ATOM      5  C   UNL     1      -2.970  90.761 -15.366  1.00  0.00     0.004 A 
ATOM      6  C   UNL     1      -3.685  90.190 -14.308  1.00  0.00     0.004 A 
ENDROOT
BRANCH   1   7
ATOM      7  C   UNL     1      -5.787  89.166 -13.357  1.00  0.00     0.032 C 
ATOM      8  C   UNL     1      -7.285  89.176 -13.641  1.00  0.00     0.009 C 
ENDBRANCH   1   7
BRANCH   3   9
ATOM      9  O   UNL     1      -5.513  90.748 -18.043  1.00  0.00    -0.508 OA
ATOM     10  H   UNL     1      -5.986  91.612 -18.279  1.00  0.00     0.293 HD
ENDBRANCH   3   9
TORSDOF 2
ENDMDL
MODEL 4
REMARK VINA RESULT:    -3.569      1.734      2.363
REMARK INTER + INTRA:          -3.930
REMARK INTER:                  -3.858
REMARK INTRA:                  -0.072
REMARK UNBOUND:                -0.047
REMARK SMILES CCc1cccc(O)c1
REMARK SMILES IDX 3 1 9 2 7 3 6 4 5 5 4 6 2 7 1 8 8 9
REMARK H PARENT 8 10
REMARK Flexibility Score: inf
ROOT
ATOM      1  C   UNL     1     -13.003  81.869 -10.764  1.00  0.00    -0.045 A 
ATOM      2  C   UNL     1     -13.033  81.329  -9.467  1.00  0.00     0.049 A 
ATOM      3  C   UNL     1     -13.533  82.083  -8.397  1.00  0.00     0.115 A 
ATOM      4  C   UNL     1     -14.015  83.377  -8.623  1.00  0.00     0.046 A 
ATOM      5  C   UNL     1     -14.002  83.915  -9.913  1.00  0.00     0.004 A 
ATOM      6  C   UNL     1     -13.503  83.164 -10.981  1.00  0.00     0.004 A 
ENDROOT
BRANCH   1   7
ATOM      7  C   UNL     1     -12.496  81.047 -11.918  1.00  0.00     0.032 C 
ATOM      8  C   UNL     1     -13.336  81.293 -13.166  1.00  0.00     0.009 C 
ENDBRANCH   1   7
BRANCH   3   9
ATOM      9  O   UNL     1     -13.560  81.557  -7.107  1.00  0.00    -0.508 OA
ATOM     10  H   UNL     1     -12.847  81.789  -6.426  1.00  0.00     0.293 HD
ENDBRANCH   3   9
TORSDOF 2
ENDMDL
MODEL 5
REMARK VINA RESULT:    -3.557      7.994      8.596
REMARK INTER + INTRA:          -3.917
REMARK INTER:                  -3.858
REMARK INTRA:                  -0.059
REMARK UNBOUND:                -0.047
REMARK SMILES CCc1cccc(O)c1
REMARK SMILES IDX 3 1 9 2 7 3 6 4 5 5 4 6 2 7 1 8 8 9
REMARK H PARENT 8 10
REMARK Flexibility Score: inf
ROOT
ATOM      1  C   UNL     1      -6.448  83.390  -9.077  1.00  0.00    -0.045 A 
ATOM      2  C   UNL     1      -5.476  83.000 -10.014  1.00  0.00     0.049 A 
ATOM      3  C   UNL     1      -4.236  82.506  -9.586  1.00  0.00     0.115 A 
ATOM      4  C   UNL     1      -3.969  82.391  -8.218  1.00  0.00     0.046 A 
ATOM      5  C   UNL     1      -4.936  82.764  -7.280  1.00  0.00     0.004 A 
ATOM      6  C   UNL     1      -6.173  83.257  -7.705  1.00  0.00     0.004 A 
ENDROOT
BRANCH   1   7
ATOM      7  C   UNL     1      -7.791  83.889  -9.538  1.00  0.00     0.032 C 
ATOM      8  C   UNL     1      -8.867  82.833  -9.308  1.00  0.00     0.009 C 
ENDBRANCH   1   7
BRANCH   3   9
ATOM      9  O   UNL     1      -3.266  82.124 -10.509  1.00  0.00    -0.508 OA
ATOM     10  H   UNL     1      -3.116  82.645 -11.365  1.00  0.00     0.293 HD
ENDBRANCH   3   9
TORSDOF 2
ENDMDL
MODEL 6
REMARK VINA RESULT:    -3.552      1.970      3.520
REMARK INTER + INTRA:          -3.911
REMARK INTER:                  -3.865
REMARK INTRA:                  -0.046
REMARK UNBOUND:                -0.047
REMARK SMILES CCc1cccc(O)c1
REMARK SMILES IDX 3 1 9 2 7 3 6 4 5 5 4 6 2 7 1 8 8 9
REMARK H PARENT 8 10
REMARK Flexibility Score: inf
ROOT
ATOM      1  C   UNL     1     -12.886  83.992  -9.721  1.00  0.00    -0.045 A 
ATOM      2  C   UNL     1     -13.706  83.803 -10.846  1.00  0.00     0.049 A 
ATOM      3  C   UNL     1     -13.659  82.599 -11.562  1.00  0.00     0.115 A 
ATOM      4  C   UNL     1     -12.798  81.577 -11.148  1.00  0.00     0.046 A 
ATOM      5  C   UNL     1     -11.989  81.753 -10.022  1.00  0.00     0.004 A 
ATOM      6  C   UNL     1     -12.035  82.954  -9.307  1.00  0.00     0.004 A 
ENDROOT
BRANCH   1   7
ATOM      7  C   UNL     1     -12.961  85.272  -8.933  1.00  0.00     0.032 C 
ATOM      8  C   UNL     1     -12.488  86.453  -9.774  1.00  0.00     0.009 C 
ENDBRANCH   1   7
BRANCH   3   9
ATOM      9  O   UNL     1     -14.465  82.406 -12.682  1.00  0.00    -0.508 OA
ATOM     10  H   UNL     1     -15.367  81.949 -12.613  1.00  0.00     0.293 HD
ENDBRANCH   3   9
TORSDOF 2
ENDMDL
MODEL 7
REMARK VINA RESULT:    -3.482      8.743      9.202
REMARK INTER + INTRA:          -3.835
REMARK INTER:                  -3.763
REMARK INTRA:                  -0.072
REMARK UNBOUND:                -0.047
REMARK SMILES CCc1cccc(O)c1
REMARK SMILES IDX 3 1 9 2 7 3 6 4 5 5 4 6 2 7 1 8 8 9
REMARK H PARENT 8 10
REMARK Flexibility Score: inf
ROOT
ATOM      1  C   UNL     1      -4.355  83.483  -9.433  1.00  0.00    -0.045 A 
ATOM      2  C   UNL     1      -5.585  83.837 -10.012  1.00  0.00     0.049 A 
ATOM      3  C   UNL     1      -6.079  85.142  -9.884  1.00  0.00     0.115 A 
ATOM      4  C   UNL     1      -5.338  86.100  -9.183  1.00  0.00     0.046 A 
ATOM      5  C   UNL     1      -4.107  85.758  -8.617  1.00  0.00     0.004 A 
ATOM      6  C   UNL     1      -3.613  84.456  -8.744  1.00  0.00     0.004 A 
ENDROOT
BRANCH   1   7
ATOM      7  C   UNL     1      -3.810  82.090  -9.600  1.00  0.00     0.032 C 
ATOM      8  C   UNL     1      -2.875  81.734  -8.449  1.00  0.00     0.009 C 
ENDBRANCH   1   7
BRANCH   3   9
ATOM      9  O   UNL     1      -7.301  85.499 -10.449  1.00  0.00    -0.508 OA
ATOM     10  H   UNL     1      -7.675  86.436 -10.353  1.00  0.00     0.293 HD
ENDBRANCH   3   9
TORSDOF 2
ENDMDL
MODEL 8
REMARK VINA RESULT:    -3.446     13.363     14.282
REMARK INTER + INTRA:          -3.796
REMARK INTER:                  -3.744
REMARK INTRA:                  -0.051
REMARK UNBOUND:                -0.047
REMARK SMILES CCc1cccc(O)c1
REMARK SMILES IDX 3 1 9 2 7 3 6 4 5 5 4 6 2 7 1 8 8 9
REMARK H PARENT 8 10
REMARK Flexibility Score: inf
ROOT
ATOM      1  C   UNL     1      -4.627  91.061 -16.049  1.00  0.00    -0.045 A 
ATOM      2  C   UNL     1      -5.484  90.735 -17.114  1.00  0.00     0.049 A 
ATOM      3  C   UNL     1      -5.391  91.420 -18.333  1.00  0.00     0.115 A 
ATOM      4  C   UNL     1      -4.433  92.427 -18.494  1.00  0.00     0.046 A 
ATOM      5  C   UNL     1      -3.569  92.747 -17.443  1.00  0.00     0.004 A 
ATOM      6  C   UNL     1      -3.660  92.065 -16.227  1.00  0.00     0.004 A 
ENDROOT
BRANCH   1   7
ATOM      7  C   UNL     1      -4.705  90.303 -14.752  1.00  0.00     0.032 C 
ATOM      8  C   UNL     1      -5.853  89.299 -14.781  1.00  0.00     0.009 C 
ENDBRANCH   1   7
BRANCH   3   9
ATOM      9  O   UNL     1      -6.241  91.106 -19.391  1.00  0.00    -0.508 OA
ATOM     10  H   UNL     1      -6.159  90.230 -19.894  1.00  0.00     0.293 HD
ENDBRANCH   3   9
TORSDOF 2
ENDMDL
