MODEL 1
REMARK VINA RESULT:    -3.259      0.000      0.000
REMARK INTER + INTRA:          -3.861
REMARK INTER:                  -3.831
REMARK INTRA:                  -0.030
REMARK UNBOUND:                -0.030
REMARK SMILES O=C([O-])CCC(=O)[O-]
REMARK SMILES IDX 4 1 2 2 1 3 3 4 5 5 6 6 7 7 8 8
REMARK H PARENT
REMARK Flexibility Score: inf
ROOT
ATOM      1  C   UNL     1      -4.216  -1.095  -6.220  1.00  0.00     0.059 C 
ENDROOT
BRANCH   1   2
ATOM      2  C   UNL     1      -5.076  -0.334  -5.257  1.00  0.00     0.042 C 
ATOM      3  O   UNL     1      -5.913   0.505  -5.680  1.00  0.00    -0.550 OA
ATOM      4  O   UNL     1      -4.978  -0.583  -3.894  1.00  0.00    -0.550 OA
ENDBRANCH   1   2
BRANCH   1   5
ATOM      5  C   UNL     1      -3.710  -0.197  -7.355  1.00  0.00     0.059 C 
BRANCH   5   6
ATOM      6  C   UNL     1      -2.314  -0.555  -7.761  1.00  0.00     0.042 C 
ATOM      7  O   UNL     1      -2.065  -1.693  -8.239  1.00  0.00    -0.550 OA
ATOM      8  O   UNL     1      -1.280   0.353  -7.573  1.00  0.00    -0.550 OA
ENDBRANCH   5   6
ENDBRANCH   1   5
TORSDOF 3
ENDMDL
MODEL 2
REMARK VINA RESULT:    -3.185      1.162      1.736
REMARK INTER + INTRA:          -3.773
REMARK INTER:                  -3.743
REMARK INTRA:                  -0.030
REMARK UNBOUND:                -0.030
REMARK SMILES O=C([O-])CCC(=O)[O-]
REMARK SMILES IDX 4 1 2 2 1 3 3 4 5 5 6 6 7 7 8 8
REMARK H PARENT
REMARK Flexibility Score: inf
ROOT
ATOM      1  C   UNL     1      -4.753  -0.985  -5.611  1.00  0.00     0.059 C 
ENDROOT
BRANCH   1   2
ATOM      2  C   UNL     1      -5.348   0.172  -4.867  1.00  0.00     0.042 C 
ATOM      3  O   UNL     1      -4.786   0.616  -3.832  1.00  0.00    -0.550 OA
ATOM      4  O   UNL     1      -6.500   0.785  -5.343  1.00  0.00    -0.550 OA
ENDBRANCH   1   2
BRANCH   1   5
ATOM      5  C   UNL     1      -3.960  -0.519  -6.837  1.00  0.00     0.059 C 
BRANCH   5   6
ATOM      6  C   UNL     1      -3.305  -1.668  -7.540  1.00  0.00     0.042 C 
ATOM      7  O   UNL     1      -3.873  -2.791  -7.583  1.00  0.00    -0.550 OA
ATOM      8  O   UNL     1      -2.050  -1.510  -8.113  1.00  0.00    -0.550 OA
ENDBRANCH   5   6
ENDBRANCH   1   5
TORSDOF 3
ENDMDL
MODEL 3
REMARK VINA RESULT:    -3.180      1.122      4.238
REMARK INTER + INTRA:          -3.768
REMARK INTER:                  -3.738
REMARK INTRA:                  -0.030
REMARK UNBOUND:                -0.030
REMARK SMILES O=C([O-])CCC(=O)[O-]
REMARK SMILES IDX 4 1 2 2 1 3 3 4 5 5 6 6 7 7 8 8
REMARK H PARENT
REMARK Flexibility Score: inf
ROOT
ATOM      1  C   UNL     1      -3.902  -0.481  -6.887  1.00  0.00     0.059 C 
ENDROOT
BRANCH   1   2
ATOM      2  C   UNL     1      -3.282  -1.630  -7.622  1.00  0.00     0.042 C 
ATOM      3  O   UNL     1      -3.914  -2.710  -7.761  1.00  0.00    -0.550 OA
ATOM      4  O   UNL     1      -2.021  -1.493  -8.189  1.00  0.00    -0.550 OA
ENDBRANCH   1   2
BRANCH   1   5
ATOM      5  C   UNL     1      -4.782  -0.962  -5.728  1.00  0.00     0.059 C 
BRANCH   5   6
ATOM      6  C   UNL     1      -5.325   0.186  -4.934  1.00  0.00     0.042 C 
ATOM      7  O   UNL     1      -4.751   0.552  -3.875  1.00  0.00    -0.550 OA
ATOM      8  O   UNL     1      -6.488   0.827  -5.343  1.00  0.00    -0.550 OA
ENDBRANCH   5   6
ENDBRANCH   1   5
TORSDOF 3
ENDMDL
MODEL 4
REMARK VINA RESULT:    -3.152      0.640      4.158
REMARK INTER + INTRA:          -3.735
REMARK INTER:                  -3.708
REMARK INTRA:                  -0.027
REMARK UNBOUND:                -0.030
REMARK SMILES O=C([O-])CCC(=O)[O-]
REMARK SMILES IDX 4 1 2 2 1 3 3 4 5 5 6 6 7 7 8 8
REMARK H PARENT
REMARK Flexibility Score: inf
ROOT
ATOM      1  C   UNL     1      -3.788  -0.213  -7.059  1.00  0.00     0.059 C 
ENDROOT
BRANCH   1   2
ATOM      2  C   UNL     1      -2.436  -0.481  -7.647  1.00  0.00     0.042 C 
ATOM      3  O   UNL     1      -1.543   0.406  -7.614  1.00  0.00    -0.550 OA
ATOM      4  O   UNL     1      -2.150  -1.725  -8.193  1.00  0.00    -0.550 OA
ENDBRANCH   1   2
BRANCH   1   5
ATOM      5  C   UNL     1      -4.231  -1.342  -6.123  1.00  0.00     0.059 C 
BRANCH   5   6
ATOM      6  C   UNL     1      -5.266  -0.876  -5.147  1.00  0.00     0.042 C 
ATOM      7  O   UNL     1      -6.489  -0.968  -5.428  1.00  0.00    -0.550 OA
ATOM      8  O   UNL     1      -4.879  -0.303  -3.942  1.00  0.00    -0.550 OA
ENDBRANCH   5   6
ENDBRANCH   1   5
TORSDOF 3
ENDMDL
MODEL 5
REMARK VINA RESULT:    -3.102     19.233     19.805
REMARK INTER + INTRA:          -3.676
REMARK INTER:                  -3.554
REMARK INTRA:                  -0.122
REMARK UNBOUND:                -0.030
REMARK SMILES O=C([O-])CCC(=O)[O-]
REMARK SMILES IDX 4 1 2 2 1 3 3 4 5 5 6 6 7 7 8 8
REMARK H PARENT
REMARK Flexibility Score: inf
ROOT
ATOM      1  C   UNL     1      12.125  -8.049   4.854  1.00  0.00     0.059 C 
ENDROOT
BRANCH   1   2
ATOM      2  C   UNL     1      11.125  -7.061   5.374  1.00  0.00     0.042 C 
ATOM      3  O   UNL     1      10.634  -7.203   6.525  1.00  0.00    -0.550 OA
ATOM      4  O   UNL     1      10.768  -5.963   4.603  1.00  0.00    -0.550 OA
ENDBRANCH   1   2
BRANCH   1   5
ATOM      5  C   UNL     1      11.442  -9.212   4.126  1.00  0.00     0.059 C 
BRANCH   5   6
ATOM      6  C   UNL     1      11.053  -8.837   2.730  1.00  0.00     0.042 C 
ATOM      7  O   UNL     1       9.916  -9.144   2.285  1.00  0.00    -0.550 OA
ATOM      8  O   UNL     1      11.961  -8.184   1.905  1.00  0.00    -0.550 OA
ENDBRANCH   5   6
ENDBRANCH   1   5
TORSDOF 3
ENDMDL
MODEL 6
REMARK VINA RESULT:    -3.075      2.305      4.017
REMARK INTER + INTRA:          -3.645
REMARK INTER:                  -3.578
REMARK INTRA:                  -0.067
REMARK UNBOUND:                -0.030
REMARK SMILES O=C([O-])CCC(=O)[O-]
REMARK SMILES IDX 4 1 2 2 1 3 3 4 5 5 6 6 7 7 8 8
REMARK H PARENT
REMARK Flexibility Score: inf
ROOT
ATOM      1  C   UNL     1      -3.706  -0.605  -7.445  1.00  0.00     0.059 C 
ENDROOT
BRANCH   1   2
ATOM      2  C   UNL     1      -2.278  -0.665  -7.895  1.00  0.00     0.042 C 
ATOM      3  O   UNL     1      -1.889  -1.597  -8.647  1.00  0.00    -0.550 OA
ATOM      4  O   UNL     1      -1.388   0.332  -7.516  1.00  0.00    -0.550 OA
ENDBRANCH   1   2
BRANCH   1   5
ATOM      5  C   UNL     1      -4.014  -1.683  -6.401  1.00  0.00     0.059 C 
BRANCH   5   6
ATOM      6  C   UNL     1      -4.524  -2.939  -7.038  1.00  0.00     0.042 C 
ATOM      7  O   UNL     1      -5.509  -2.898  -7.821  1.00  0.00    -0.550 OA
ATOM      8  O   UNL     1      -3.936  -4.161  -6.736  1.00  0.00    -0.550 OA
ENDBRANCH   5   6
ENDBRANCH   1   5
TORSDOF 3
ENDMDL
MODEL 7
REMARK VINA RESULT:    -3.031     20.357     20.874
REMARK INTER + INTRA:          -3.593
REMARK INTER:                  -3.496
REMARK INTRA:                  -0.097
REMARK UNBOUND:                -0.030
REMARK SMILES O=C([O-])CCC(=O)[O-]
REMARK SMILES IDX 4 1 2 2 1 3 3 4 5 5 6 6 7 7 8 8
REMARK H PARENT
REMARK Flexibility Score: inf
ROOT
ATOM      1  C   UNL     1      11.247  -9.716   6.501  1.00  0.00     0.059 C 
ENDROOT
BRANCH   1   2
ATOM      2  C   UNL     1      10.040 -10.531   6.149  1.00  0.00     0.042 C 
ATOM      3  O   UNL     1       9.235 -10.892   7.047  1.00  0.00    -0.550 OA
ATOM      4  O   UNL     1       9.785 -10.857   4.823  1.00  0.00    -0.550 OA
ENDBRANCH   1   2
BRANCH   1   5
ATOM      5  C   UNL     1      11.658  -8.790   5.351  1.00  0.00     0.059 C 
BRANCH   5   6
ATOM      6  C   UNL     1      11.077  -7.419   5.511  1.00  0.00     0.042 C 
ATOM      7  O   UNL     1      10.630  -7.047   6.627  1.00  0.00    -0.550 OA
ATOM      8  O   UNL     1      10.992  -6.566   4.417  1.00  0.00    -0.550 OA
ENDBRANCH   5   6
ENDBRANCH   1   5
TORSDOF 3
ENDMDL
MODEL 8
REMARK VINA RESULT:    -3.019      1.794      4.417
REMARK INTER + INTRA:          -3.578
REMARK INTER:                  -3.460
REMARK INTRA:                  -0.118
REMARK UNBOUND:                -0.030
REMARK SMILES O=C([O-])CCC(=O)[O-]
REMARK SMILES IDX 4 1 2 2 1 3 3 4 5 5 6 6 7 7 8 8
REMARK H PARENT
REMARK Flexibility Score: inf
ROOT
ATOM      1  C   UNL     1      -1.833  -0.289  -7.674  1.00  0.00     0.059 C 
ENDROOT
BRANCH   1   2
ATOM      2  C   UNL     1      -1.431  -0.394  -9.114  1.00  0.00     0.042 C 
ATOM      3  O   UNL     1      -1.058   0.629  -9.745  1.00  0.00    -0.550 OA
ATOM      4  O   UNL     1      -1.429  -1.631  -9.746  1.00  0.00    -0.550 OA
ENDBRANCH   1   2
BRANCH   1   5
ATOM      5  C   UNL     1      -3.357  -0.271  -7.514  1.00  0.00     0.059 C 
BRANCH   5   6
ATOM      6  C   UNL     1      -3.863  -1.542  -6.907  1.00  0.00     0.042 C 
ATOM      7  O   UNL     1      -4.368  -1.538  -5.754  1.00  0.00    -0.550 OA
ATOM      8  O   UNL     1      -3.741  -2.741  -7.599  1.00  0.00    -0.550 OA
ENDBRANCH   5   6
ENDBRANCH   1   5
TORSDOF 3
ENDMDL
MODEL 9
REMARK VINA RESULT:    -2.959     13.713     14.621
REMARK INTER + INTRA:          -3.508
REMARK INTER:                  -3.459
REMARK INTRA:                  -0.048
REMARK UNBOUND:                -0.030
REMARK SMILES O=C([O-])CCC(=O)[O-]
REMARK SMILES IDX 4 1 2 2 1 3 3 4 5 5 6 6 7 7 8 8
REMARK H PARENT
REMARK Flexibility Score: inf
ROOT
ATOM      1  C   UNL     1      -2.874   0.839   8.003  1.00  0.00     0.059 C 
ENDROOT
BRANCH   1   2
ATOM      2  C   UNL     1      -3.346   2.238   7.748  1.00  0.00     0.042 C 
ATOM      3  O   UNL     1      -3.991   2.508   6.701  1.00  0.00    -0.550 OA
ATOM      4  O   UNL     1      -3.108   3.234   8.686  1.00  0.00    -0.550 OA
ENDBRANCH   1   2
BRANCH   1   5
ATOM      5  C   UNL     1      -3.601  -0.173   7.112  1.00  0.00     0.059 C 
BRANCH   5   6
ATOM      6  C   UNL     1      -3.770  -1.493   7.800  1.00  0.00     0.042 C 
ATOM      7  O   UNL     1      -3.727  -1.563   9.056  1.00  0.00    -0.550 OA
ATOM      8  O   UNL     1      -3.933  -2.652   7.052  1.00  0.00    -0.550 OA
ENDBRANCH   5   6
ENDBRANCH   1   5
TORSDOF 3
ENDMDL
