MODEL 1
REMARK VINA RESULT:    -3.754      0.000      0.000
REMARK INTER + INTRA:          -6.599
REMARK INTER:                  -5.949
REMARK INTRA:                  -0.651
REMARK UNBOUND:                -0.651
REMARK SMILES CCCCCCCCCCCC(=O)[O-]
REMARK SMILES IDX 7 1 8 2 9 3 10 4 11 5 12 6 13 7 14 8 6 9 5 10 4 11 3 12 2 13
REMARK SMILES IDX 1 14
REMARK H PARENT
REMARK Flexibility Score: inf
ROOT
ATOM      1  C   UNL     1     -21.167   2.053   8.043  1.00  0.00     0.000 C 
ENDROOT
BRANCH   1   2
ATOM      2  C   UNL     1     -21.498   2.394   9.505  1.00  0.00     0.000 C 
BRANCH   2   3
ATOM      3  C   UNL     1     -21.222   1.226  10.469  1.00  0.00     0.000 C 
BRANCH   3   4
ATOM      4  C   UNL     1     -21.903   1.347  11.844  1.00  0.00     0.006 C 
BRANCH   4   5
ATOM      5  C   UNL     1     -20.948   1.067  13.011  1.00  0.00     0.053 C 
BRANCH   5   6
ATOM      6  C   UNL     1     -21.138  -0.328  13.517  1.00  0.00     0.041 C 
ATOM      7  O   UNL     1     -21.843  -0.540  14.539  1.00  0.00    -0.550 OA
ATOM      8  O   UNL     1     -20.576  -1.399  12.835  1.00  0.00    -0.550 OA
ENDBRANCH   5   6
ENDBRANCH   4   5
ENDBRANCH   3   4
ENDBRANCH   2   3
ENDBRANCH   1   2
BRANCH   1   9
ATOM      9  C   UNL     1     -20.043   1.010   7.914  1.00  0.00     0.000 C 
BRANCH   9  10
ATOM     10  C   UNL     1     -20.353  -0.161   6.959  1.00  0.00    -0.000 C 
BRANCH  10  11
ATOM     11  C   UNL     1     -20.213  -1.566   7.578  1.00  0.00    -0.000 C 
BRANCH  11  12
ATOM     12  C   UNL     1     -20.160  -1.597   9.116  1.00  0.00    -0.000 C 
BRANCH  12  13
ATOM     13  C   UNL     1     -19.291  -2.741   9.658  1.00  0.00    -0.003 C 
ATOM     14  C   UNL     1     -19.258  -3.915   8.683  1.00  0.00     0.004 C 
ENDBRANCH  12  13
ENDBRANCH  11  12
ENDBRANCH  10  11
ENDBRANCH   9  10
ENDBRANCH   1   9
TORSDOF 10
ENDMDL
MODEL 2
REMARK VINA RESULT:    -3.718      1.139      3.666
REMARK INTER + INTRA:          -6.542
REMARK INTER:                  -5.870
REMARK INTRA:                  -0.672
REMARK UNBOUND:                -0.651
REMARK SMILES CCCCCCCCCCCC(=O)[O-]
REMARK SMILES IDX 7 1 8 2 9 3 10 4 11 5 12 6 13 7 14 8 6 9 5 10 4 11 3 12 2 13
REMARK SMILES IDX 1 14
REMARK H PARENT
REMARK Flexibility Score: inf
ROOT
ATOM      1  C   UNL     1     -20.372  -1.232   8.855  1.00  0.00     0.000 C 
ENDROOT
BRANCH   1   2
ATOM      2  C   UNL     1     -19.613  -2.432   9.444  1.00  0.00     0.000 C 
BRANCH   2   3
ATOM      3  C   UNL     1     -19.366  -2.298  10.958  1.00  0.00     0.000 C 
BRANCH   3   4
ATOM      4  C   UNL     1     -20.307  -1.319  11.684  1.00  0.00     0.006 C 
BRANCH   4   5
ATOM      5  C   UNL     1     -20.751  -1.827  13.061  1.00  0.00     0.053 C 
BRANCH   5   6
ATOM      6  C   UNL     1     -21.235  -0.690  13.905  1.00  0.00     0.041 C 
ATOM      7  O   UNL     1     -21.659  -0.903  15.072  1.00  0.00    -0.550 OA
ATOM      8  O   UNL     1     -21.175   0.610  13.422  1.00  0.00    -0.550 OA
ENDBRANCH   5   6
ENDBRANCH   4   5
ENDBRANCH   3   4
ENDBRANCH   2   3
ENDBRANCH   1   2
BRANCH   1   9
ATOM      9  C   UNL     1     -20.331  -1.199   7.317  1.00  0.00     0.000 C 
BRANCH   9  10
ATOM     10  C   UNL     1     -20.431   0.210   6.696  1.00  0.00    -0.000 C 
BRANCH  10  11
ATOM     11  C   UNL     1     -20.107   1.373   7.653  1.00  0.00    -0.000 C 
BRANCH  11  12
ATOM     12  C   UNL     1     -21.159   2.496   7.693  1.00  0.00    -0.000 C 
BRANCH  12  13
ATOM     13  C   UNL     1     -21.551   2.893   9.123  1.00  0.00    -0.003 C 
ATOM     14  C   UNL     1     -21.563   1.679  10.047  1.00  0.00     0.004 C 
ENDBRANCH  12  13
ENDBRANCH  11  12
ENDBRANCH  10  11
ENDBRANCH   9  10
ENDBRANCH   1   9
TORSDOF 10
ENDMDL
MODEL 3
REMARK VINA RESULT:    -3.666      0.679      1.621
REMARK INTER + INTRA:          -6.460
REMARK INTER:                  -5.780
REMARK INTRA:                  -0.680
REMARK UNBOUND:                -0.651
REMARK SMILES CCCCCCCCCCCC(=O)[O-]
REMARK SMILES IDX 7 1 8 2 9 3 10 4 11 5 12 6 13 7 14 8 6 9 5 10 4 11 3 12 2 13
REMARK SMILES IDX 1 14
REMARK H PARENT
REMARK Flexibility Score: inf
ROOT
ATOM      1  C   UNL     1     -20.095   0.948   8.090  1.00  0.00     0.000 C 
ENDROOT
BRANCH   1   2
ATOM      2  C   UNL     1     -21.151   2.052   8.265  1.00  0.00     0.000 C 
BRANCH   2   3
ATOM      3  C   UNL     1     -21.689   2.142   9.704  1.00  0.00     0.000 C 
BRANCH   3   4
ATOM      4  C   UNL     1     -21.158   1.060  10.663  1.00  0.00     0.006 C 
BRANCH   4   5
ATOM      5  C   UNL     1     -21.507   1.339  12.131  1.00  0.00     0.053 C 
BRANCH   5   6
ATOM      6  C   UNL     1     -21.025   0.222  13.002  1.00  0.00     0.041 C 
ATOM      7  O   UNL     1     -20.767  -0.904  12.503  1.00  0.00    -0.550 OA
ATOM      8  O   UNL     1     -20.815   0.438  14.358  1.00  0.00    -0.550 OA
ENDBRANCH   5   6
ENDBRANCH   4   5
ENDBRANCH   3   4
ENDBRANCH   2   3
ENDBRANCH   1   2
BRANCH   1   9
ATOM      9  C   UNL     1     -20.550  -0.163   7.128  1.00  0.00     0.000 C 
BRANCH   9  10
ATOM     10  C   UNL     1     -20.296  -1.599   7.630  1.00  0.00    -0.000 C 
BRANCH  10  11
ATOM     11  C   UNL     1     -19.982  -1.722   9.134  1.00  0.00    -0.000 C 
BRANCH  11  12
ATOM     12  C   UNL     1     -19.464  -3.102   9.580  1.00  0.00    -0.000 C 
BRANCH  12  13
ATOM     13  C   UNL     1     -19.153  -4.030   8.398  1.00  0.00    -0.003 C 
ATOM     14  C   UNL     1     -19.486  -5.480   8.735  1.00  0.00     0.004 C 
ENDBRANCH  12  13
ENDBRANCH  11  12
ENDBRANCH  10  11
ENDBRANCH   9  10
ENDBRANCH   1   9
TORSDOF 10
ENDMDL
MODEL 4
REMARK VINA RESULT:    -3.600      1.558      4.485
REMARK INTER + INTRA:          -6.355
REMARK INTER:                  -5.850
REMARK INTRA:                  -0.505
REMARK UNBOUND:                -0.651
REMARK SMILES CCCCCCCCCCCC(=O)[O-]
REMARK SMILES IDX 7 1 8 2 9 3 10 4 11 5 12 6 13 7 14 8 6 9 5 10 4 11 3 12 2 13
REMARK SMILES IDX 1 14
REMARK H PARENT
REMARK Flexibility Score: inf
ROOT
ATOM      1  C   UNL     1     -21.046   2.503   7.721  1.00  0.00     0.000 C 
ENDROOT
BRANCH   1   2
ATOM      2  C   UNL     1     -19.996   1.383   7.641  1.00  0.00     0.000 C 
BRANCH   2   3
ATOM      3  C   UNL     1     -20.491   0.152   6.861  1.00  0.00     0.000 C 
BRANCH   3   4
ATOM      4  C   UNL     1     -20.276  -1.196   7.573  1.00  0.00     0.006 C 
BRANCH   4   5
ATOM      5  C   UNL     1     -20.308  -1.076   9.102  1.00  0.00     0.053 C 
BRANCH   5   6
ATOM      6  C   UNL     1     -19.609  -2.239   9.732  1.00  0.00     0.041 C 
ATOM      7  O   UNL     1     -19.375  -2.242  10.969  1.00  0.00    -0.550 OA
ATOM      8  O   UNL     1     -19.258  -3.339   8.961  1.00  0.00    -0.550 OA
ENDBRANCH   5   6
ENDBRANCH   4   5
ENDBRANCH   3   4
ENDBRANCH   2   3
ENDBRANCH   1   2
BRANCH   1   9
ATOM      9  C   UNL     1     -21.731   2.579   9.096  1.00  0.00     0.000 C 
BRANCH   9  10
ATOM     10  C   UNL     1     -21.015   1.802  10.221  1.00  0.00    -0.000 C 
BRANCH  10  11
ATOM     11  C   UNL     1     -21.900   1.432  11.428  1.00  0.00    -0.000 C 
BRANCH  11  12
ATOM     12  C   UNL     1     -21.154   1.322  12.770  1.00  0.00    -0.000 C 
BRANCH  12  13
ATOM     13  C   UNL     1     -21.211  -0.091  13.367  1.00  0.00    -0.003 C 
ATOM     14  C   UNL     1     -20.683  -0.105  14.799  1.00  0.00     0.004 C 
ENDBRANCH  12  13
ENDBRANCH  11  12
ENDBRANCH  10  11
ENDBRANCH   9  10
ENDBRANCH   1   9
TORSDOF 10
ENDMDL
MODEL 5
REMARK VINA RESULT:    -3.579      2.300      4.684
REMARK INTER + INTRA:          -6.322
REMARK INTER:                  -5.589
REMARK INTRA:                  -0.733
REMARK UNBOUND:                -0.651
REMARK SMILES CCCCCCCCCCCC(=O)[O-]
REMARK SMILES IDX 7 1 8 2 9 3 10 4 11 5 12 6 13 7 14 8 6 9 5 10 4 11 3 12 2 13
REMARK SMILES IDX 1 14
REMARK H PARENT
REMARK Flexibility Score: inf
ROOT
ATOM      1  C   UNL     1     -19.774  -2.436   7.643  1.00  0.00     0.000 C 
ENDROOT
BRANCH   1   2
ATOM      2  C   UNL     1     -20.760  -1.267   7.483  1.00  0.00     0.000 C 
BRANCH   2   3
ATOM      3  C   UNL     1     -20.112  -0.019   6.858  1.00  0.00     0.000 C 
BRANCH   3   4
ATOM      4  C   UNL     1     -20.413   1.302   7.590  1.00  0.00     0.006 C 
BRANCH   4   5
ATOM      5  C   UNL     1     -20.676   1.109   9.089  1.00  0.00     0.053 C 
BRANCH   5   6
ATOM      6  C   UNL     1     -21.690   2.096   9.573  1.00  0.00     0.041 C 
ATOM      7  O   UNL     1     -22.428   1.817  10.554  1.00  0.00    -0.550 OA
ATOM      8  O   UNL     1     -21.789   3.344   8.971  1.00  0.00    -0.550 OA
ENDBRANCH   5   6
ENDBRANCH   4   5
ENDBRANCH   3   4
ENDBRANCH   2   3
ENDBRANCH   1   2
BRANCH   1   9
ATOM      9  C   UNL     1     -19.296  -2.617   9.094  1.00  0.00     0.000 C 
BRANCH   9  10
ATOM     10  C   UNL     1     -20.385  -2.407  10.166  1.00  0.00    -0.000 C 
BRANCH  10  11
ATOM     11  C   UNL     1     -19.951  -1.573  11.387  1.00  0.00    -0.000 C 
BRANCH  11  12
ATOM     12  C   UNL     1     -20.721  -1.873  12.687  1.00  0.00    -0.000 C 
BRANCH  12  13
ATOM     13  C   UNL     1     -20.760  -0.674  13.645  1.00  0.00    -0.003 C 
ATOM     14  C   UNL     1     -21.786  -0.891  14.754  1.00  0.00     0.004 C 
ENDBRANCH  12  13
ENDBRANCH  11  12
ENDBRANCH  10  11
ENDBRANCH   9  10
ENDBRANCH   1   9
TORSDOF 10
ENDMDL
MODEL 6
REMARK VINA RESULT:    -3.470      1.456      4.318
REMARK INTER + INTRA:          -6.149
REMARK INTER:                  -5.417
REMARK INTRA:                  -0.732
REMARK UNBOUND:                -0.651
REMARK SMILES CCCCCCCCCCCC(=O)[O-]
REMARK SMILES IDX 7 1 8 2 9 3 10 4 11 5 12 6 13 7 14 8 6 9 5 10 4 11 3 12 2 13
REMARK SMILES IDX 1 14
REMARK H PARENT
REMARK Flexibility Score: inf
ROOT
ATOM      1  C   UNL     1     -20.657  -1.066   7.957  1.00  0.00     0.000 C 
ENDROOT
BRANCH   1   2
ATOM      2  C   UNL     1     -19.661  -2.007   8.655  1.00  0.00     0.000 C 
BRANCH   2   3
ATOM      3  C   UNL     1     -20.133  -2.448  10.053  1.00  0.00     0.000 C 
BRANCH   3   4
ATOM      4  C   UNL     1     -20.054  -1.357  11.137  1.00  0.00     0.006 C 
BRANCH   4   5
ATOM      5  C   UNL     1     -20.546  -1.840  12.507  1.00  0.00     0.053 C 
BRANCH   5   6
ATOM      6  C   UNL     1     -21.099  -0.695  13.295  1.00  0.00     0.041 C 
ATOM      7  O   UNL     1     -21.401  -0.848  14.508  1.00  0.00    -0.550 OA
ATOM      8  O   UNL     1     -21.238   0.554  12.704  1.00  0.00    -0.550 OA
ENDBRANCH   5   6
ENDBRANCH   4   5
ENDBRANCH   3   4
ENDBRANCH   2   3
ENDBRANCH   1   2
BRANCH   1   9
ATOM      9  C   UNL     1     -19.996   0.224   7.441  1.00  0.00     0.000 C 
BRANCH   9  10
ATOM     10  C   UNL     1     -20.742   1.524   7.805  1.00  0.00    -0.000 C 
BRANCH  10  11
ATOM     11  C   UNL     1     -21.331   1.566   9.229  1.00  0.00    -0.000 C 
BRANCH  11  12
ATOM     12  C   UNL     1     -21.588   2.979   9.784  1.00  0.00    -0.000 C 
BRANCH  12  13
ATOM     13  C   UNL     1     -21.933   3.996   8.687  1.00  0.00    -0.003 C 
ATOM     14  C   UNL     1     -21.598   5.417   9.130  1.00  0.00     0.004 C 
ENDBRANCH  12  13
ENDBRANCH  11  12
ENDBRANCH  10  11
ENDBRANCH   9  10
ENDBRANCH   1   9
TORSDOF 10
ENDMDL
MODEL 7
REMARK VINA RESULT:    -3.375      1.790      3.213
REMARK INTER + INTRA:          -5.999
REMARK INTER:                  -5.320
REMARK INTRA:                  -0.679
REMARK UNBOUND:                -0.651
REMARK SMILES CCCCCCCCCCCC(=O)[O-]
REMARK SMILES IDX 7 1 8 2 9 3 10 4 11 5 12 6 13 7 14 8 6 9 5 10 4 11 3 12 2 13
REMARK SMILES IDX 1 14
REMARK H PARENT
REMARK Flexibility Score: inf
ROOT
ATOM      1  C   UNL     1     -19.947  -0.670   6.494  1.00  0.00     0.000 C 
ENDROOT
BRANCH   1   2
ATOM      2  C   UNL     1     -19.591   0.590   7.300  1.00  0.00     0.000 C 
BRANCH   2   3
ATOM      3  C   UNL     1     -20.698   1.659   7.258  1.00  0.00     0.000 C 
BRANCH   3   4
ATOM      4  C   UNL     1     -21.104   2.224   8.632  1.00  0.00     0.006 C 
BRANCH   4   5
ATOM      5  C   UNL     1     -20.939   1.208   9.769  1.00  0.00     0.053 C 
BRANCH   5   6
ATOM      6  C   UNL     1     -21.889   1.513  10.884  1.00  0.00     0.041 C 
ATOM      7  O   UNL     1     -23.076   1.849  10.630  1.00  0.00    -0.550 OA
ATOM      8  O   UNL     1     -21.479   1.381  12.204  1.00  0.00    -0.550 OA
ENDBRANCH   5   6
ENDBRANCH   4   5
ENDBRANCH   3   4
ENDBRANCH   2   3
ENDBRANCH   1   2
BRANCH   1   9
ATOM      9  C   UNL     1     -20.415  -1.834   7.384  1.00  0.00     0.000 C 
BRANCH   9  10
ATOM     10  C   UNL     1     -19.834  -1.832   8.813  1.00  0.00    -0.000 C 
BRANCH  10  11
ATOM     11  C   UNL     1     -19.466  -3.220   9.373  1.00  0.00    -0.000 C 
BRANCH  11  12
ATOM     12  C   UNL     1     -18.957  -4.229   8.328  1.00  0.00    -0.000 C 
BRANCH  12  13
ATOM     13  C   UNL     1     -19.310  -5.680   8.682  1.00  0.00    -0.003 C 
ATOM     14  C   UNL     1     -20.777  -5.806   9.084  1.00  0.00     0.004 C 
ENDBRANCH  12  13
ENDBRANCH  11  12
ENDBRANCH  10  11
ENDBRANCH   9  10
ENDBRANCH   1   9
TORSDOF 10
ENDMDL
MODEL 8
REMARK VINA RESULT:    -3.352      2.467      5.149
REMARK INTER + INTRA:          -5.962
REMARK INTER:                  -5.322
REMARK INTRA:                  -0.640
REMARK UNBOUND:                -0.651
REMARK SMILES CCCCCCCCCCCC(=O)[O-]
REMARK SMILES IDX 7 1 8 2 9 3 10 4 11 5 12 6 13 7 14 8 6 9 5 10 4 11 3 12 2 13
REMARK SMILES IDX 1 14
REMARK H PARENT
REMARK Flexibility Score: inf
ROOT
ATOM      1  C   UNL     1     -20.375  -0.187   6.750  1.00  0.00     0.000 C 
ENDROOT
BRANCH   1   2
ATOM      2  C   UNL     1     -20.374  -1.569   7.422  1.00  0.00     0.000 C 
BRANCH   2   3
ATOM      3  C   UNL     1     -20.070  -1.501   8.930  1.00  0.00     0.000 C 
BRANCH   3   4
ATOM      4  C   UNL     1     -19.755  -2.857   9.588  1.00  0.00     0.006 C 
BRANCH   4   5
ATOM      5  C   UNL     1     -18.902  -3.770   8.698  1.00  0.00     0.053 C 
BRANCH   5   6
ATOM      6  C   UNL     1     -19.458  -5.160   8.692  1.00  0.00     0.041 C 
ATOM      7  O   UNL     1     -20.534  -5.413   9.294  1.00  0.00    -0.550 OA
ATOM      8  O   UNL     1     -18.812  -6.164   7.983  1.00  0.00    -0.550 OA
ENDBRANCH   5   6
ENDBRANCH   4   5
ENDBRANCH   3   4
ENDBRANCH   2   3
ENDBRANCH   1   2
BRANCH   1   9
ATOM      9  C   UNL     1     -19.930   0.938   7.701  1.00  0.00     0.000 C 
BRANCH   9  10
ATOM     10  C   UNL     1     -20.882   2.151   7.759  1.00  0.00    -0.000 C 
BRANCH  10  11
ATOM     11  C   UNL     1     -21.509   2.427   9.140  1.00  0.00    -0.000 C 
BRANCH  11  12
ATOM     12  C   UNL     1     -21.375   1.277  10.156  1.00  0.00    -0.000 C 
BRANCH  12  13
ATOM     13  C   UNL     1     -21.576   1.740  11.606  1.00  0.00    -0.003 C 
ATOM     14  C   UNL     1     -21.241   0.623  12.590  1.00  0.00     0.004 C 
ENDBRANCH  12  13
ENDBRANCH  11  12
ENDBRANCH  10  11
ENDBRANCH   9  10
ENDBRANCH   1   9
TORSDOF 10
ENDMDL
MODEL 9
REMARK VINA RESULT:    -3.069      2.494      4.897
REMARK INTER + INTRA:          -5.514
REMARK INTER:                  -4.900
REMARK INTRA:                  -0.614
REMARK UNBOUND:                -0.651
REMARK SMILES CCCCCCCCCCCC(=O)[O-]
REMARK SMILES IDX 7 1 8 2 9 3 10 4 11 5 12 6 13 7 14 8 6 9 5 10 4 11 3 12 2 13
REMARK SMILES IDX 1 14
REMARK H PARENT
REMARK Flexibility Score: inf
ROOT
ATOM      1  C   UNL     1     -21.545   0.185  13.269  1.00  0.00     0.000 C 
ENDROOT
BRANCH   1   2
ATOM      2  C   UNL     1     -20.391  -0.829  13.331  1.00  0.00     0.000 C 
BRANCH   2   3
ATOM      3  C   UNL     1     -20.600  -2.032  12.394  1.00  0.00     0.000 C 
BRANCH   3   4
ATOM      4  C   UNL     1     -20.356  -1.740  10.902  1.00  0.00     0.006 C 
BRANCH   4   5
ATOM      5  C   UNL     1     -19.094  -2.422  10.358  1.00  0.00     0.053 C 
BRANCH   5   6
ATOM      6  C   UNL     1     -19.356  -3.000   9.003  1.00  0.00     0.041 C 
ATOM      7  O   UNL     1     -19.815  -2.274   8.083  1.00  0.00    -0.550 OA
ATOM      8  O   UNL     1     -19.049  -4.329   8.743  1.00  0.00    -0.550 OA
ENDBRANCH   5   6
ENDBRANCH   4   5
ENDBRANCH   3   4
ENDBRANCH   2   3
ENDBRANCH   1   2
BRANCH   1   9
ATOM      9  C   UNL     1     -21.235   1.385  12.358  1.00  0.00     0.000 C 
BRANCH   9  10
ATOM     10  C   UNL     1     -22.141   1.506  11.115  1.00  0.00    -0.000 C 
BRANCH  10  11
ATOM     11  C   UNL     1     -21.446   2.038   9.846  1.00  0.00    -0.000 C 
BRANCH  11  12
ATOM     12  C   UNL     1     -20.816   0.957   8.949  1.00  0.00    -0.000 C 
BRANCH  12  13
ATOM     13  C   UNL     1     -20.427   1.489   7.562  1.00  0.00    -0.003 C 
ATOM     14  C   UNL     1     -20.758   0.474   6.472  1.00  0.00     0.004 C 
ENDBRANCH  12  13
ENDBRANCH  11  12
ENDBRANCH  10  11
ENDBRANCH   9  10
ENDBRANCH   1   9
TORSDOF 10
ENDMDL
