MODEL 1
REMARK VINA RESULT:    -5.489      0.000      0.000
REMARK INTER + INTRA:          -5.489
REMARK INTER:                  -5.489
REMARK INTRA:                   0.000
REMARK UNBOUND:                 0.000
REMARK SMILES CC1(C)C(=O)[C@]2(C)CC[C@H]1C2
REMARK SMILES IDX 1 1 2 2 10 3 9 4 8 5 6 6 11 7 4 8 5 9 7 10 3 11
REMARK H PARENT
REMARK Flexibility Score: inf
ROOT
ATOM      1  C   UNL     1     121.058 119.780 120.004  1.00  0.00     0.020 C 
ATOM      2  C   UNL     1     120.299 118.743 119.151  1.00  0.00     0.027 C 
ATOM      3  C   UNL     1     119.748 119.376 117.823  1.00  0.00     0.003 C 
ATOM      4  C   UNL     1     119.149 118.291 116.892  1.00  0.00     0.005 C 
ATOM      5  C   UNL     1     117.887 117.832 117.657  1.00  0.00     0.015 C 
ATOM      6  C   UNL     1     117.869 118.779 118.873  1.00  0.00     0.027 C 
ATOM      7  C   UNL     1     118.455 120.046 118.281  1.00  0.00     0.019 C 
ATOM      8  C   UNL     1     118.991 118.369 119.786  1.00  0.00     0.144 C 
ATOM      9  O   UNL     1     118.864 117.761 120.839  1.00  0.00    -0.298 OA
ATOM     10  C   UNL     1     116.506 118.956 119.546  1.00  0.00     0.020 C 
ATOM     11  C   UNL     1     121.199 117.505 118.939  1.00  0.00     0.020 C 
ENDROOT
TORSDOF 0
ENDMDL
MODEL 2
REMARK VINA RESULT:    -5.483      1.333      2.263
REMARK INTER + INTRA:          -5.483
REMARK INTER:                  -5.483
REMARK INTRA:                   0.000
REMARK UNBOUND:                 0.000
REMARK SMILES CC1(C)C(=O)[C@]2(C)CC[C@H]1C2
REMARK SMILES IDX 1 1 2 2 10 3 9 4 8 5 6 6 11 7 4 8 5 9 7 10 3 11
REMARK H PARENT
REMARK Flexibility Score: inf
ROOT
ATOM      1  C   UNL     1     119.795 116.547 120.027  1.00  0.00     0.020 C 
ATOM      2  C   UNL     1     118.763 117.306 119.166  1.00  0.00     0.027 C 
ATOM      3  C   UNL     1     119.406 117.855 117.842  1.00  0.00     0.003 C 
ATOM      4  C   UNL     1     118.328 118.454 116.903  1.00  0.00     0.005 C 
ATOM      5  C   UNL     1     117.864 119.717 117.664  1.00  0.00     0.015 C 
ATOM      6  C   UNL     1     118.803 119.736 118.886  1.00  0.00     0.027 C 
ATOM      7  C   UNL     1     120.073 119.149 118.304  1.00  0.00     0.019 C 
ATOM      8  C   UNL     1     118.386 118.615 119.798  1.00  0.00     0.144 C 
ATOM      9  O   UNL     1     117.770 118.743 120.846  1.00  0.00    -0.298 OA
ATOM     10  C   UNL     1     118.975 121.099 119.560  1.00  0.00     0.020 C 
ATOM     11  C   UNL     1     117.527 116.406 118.947  1.00  0.00     0.020 C 
ENDROOT
TORSDOF 0
ENDMDL
MODEL 3
REMARK VINA RESULT:    -5.482      1.130      3.209
REMARK INTER + INTRA:          -5.482
REMARK INTER:                  -5.482
REMARK INTRA:                   0.000
REMARK UNBOUND:                 0.000
REMARK SMILES CC1(C)C(=O)[C@]2(C)CC[C@H]1C2
REMARK SMILES IDX 1 1 2 2 10 3 9 4 8 5 6 6 11 7 4 8 5 9 7 10 3 11
REMARK H PARENT
REMARK Flexibility Score: inf
ROOT
ATOM      1  C   UNL     1     116.506 117.849 120.009  1.00  0.00     0.020 C 
ATOM      2  C   UNL     1     117.282 118.868 119.149  1.00  0.00     0.027 C 
ATOM      3  C   UNL     1     117.844 118.210 117.838  1.00  0.00     0.003 C 
ATOM      4  C   UNL     1     118.462 119.277 116.898  1.00  0.00     0.005 C 
ATOM      5  C   UNL     1     119.718 119.739 117.670  1.00  0.00     0.015 C 
ATOM      6  C   UNL     1     119.715 118.811 118.901  1.00  0.00     0.027 C 
ATOM      7  C   UNL     1     119.128 117.539 118.322  1.00  0.00     0.019 C 
ATOM      8  C   UNL     1     118.586 119.242 119.795  1.00  0.00     0.144 C 
ATOM      9  O   UNL     1     118.705 119.866 120.839  1.00  0.00    -0.298 OA
ATOM     10  C   UNL     1     121.069 118.635 119.593  1.00  0.00     0.020 C 
ATOM     11  C   UNL     1     116.393 120.108 118.908  1.00  0.00     0.020 C 
ENDROOT
TORSDOF 0
ENDMDL
MODEL 4
REMARK VINA RESULT:    -5.481      1.336      2.259
REMARK INTER + INTRA:          -5.481
REMARK INTER:                  -5.481
REMARK INTRA:                   0.000
REMARK UNBOUND:                 0.000
REMARK SMILES CC1(C)C(=O)[C@]2(C)CC[C@H]1C2
REMARK SMILES IDX 1 1 2 2 10 3 9 4 8 5 6 6 11 7 4 8 5 9 7 10 3 11
REMARK H PARENT
REMARK Flexibility Score: inf
ROOT
ATOM      1  C   UNL     1     117.875 121.103 120.001  1.00  0.00     0.020 C 
ATOM      2  C   UNL     1     118.886 120.318 119.141  1.00  0.00     0.027 C 
ATOM      3  C   UNL     1     118.218 119.748 117.838  1.00  0.00     0.003 C 
ATOM      4  C   UNL     1     119.277 119.121 116.895  1.00  0.00     0.005 C 
ATOM      5  C   UNL     1     119.741 117.869 117.674  1.00  0.00     0.015 C 
ATOM      6  C   UNL     1     118.821 117.883 118.910  1.00  0.00     0.027 C 
ATOM      7  C   UNL     1     117.547 118.470 118.336  1.00  0.00     0.019 C 
ATOM      8  C   UNL     1     119.262 119.018 119.793  1.00  0.00     0.144 C 
ATOM      9  O   UNL     1     119.892 118.905 120.834  1.00  0.00    -0.298 OA
ATOM     10  C   UNL     1     118.647 116.535 119.614  1.00  0.00     0.020 C 
ATOM     11  C   UNL     1     120.127 121.202 118.884  1.00  0.00     0.020 C 
ENDROOT
TORSDOF 0
ENDMDL
MODEL 5
REMARK VINA RESULT:    -4.929      1.318      3.112
REMARK INTER + INTRA:          -4.929
REMARK INTER:                  -4.929
REMARK INTRA:                   0.000
REMARK UNBOUND:                 0.000
REMARK SMILES CC1(C)C(=O)[C@]2(C)CC[C@H]1C2
REMARK SMILES IDX 1 1 2 2 10 3 9 4 8 5 6 6 11 7 4 8 5 9 7 10 3 11
REMARK H PARENT
REMARK Flexibility Score: inf
ROOT
ATOM      1  C   UNL     1     118.941 118.647 116.396  1.00  0.00     0.020 C 
ATOM      2  C   UNL     1     118.625 118.511 117.899  1.00  0.00     0.027 C 
ATOM      3  C   UNL     1     117.948 119.810 118.468  1.00  0.00     0.003 C 
ATOM      4  C   UNL     1     117.470 119.598 119.927  1.00  0.00     0.005 C 
ATOM      5  C   UNL     1     118.794 119.473 120.714  1.00  0.00     0.015 C 
ATOM      6  C   UNL     1     119.856 119.729 119.627  1.00  0.00     0.027 C 
ATOM      7  C   UNL     1     119.143 120.723 118.733  1.00  0.00     0.019 C 
ATOM      8  C   UNL     1     119.880 118.528 118.723  1.00  0.00     0.144 C 
ATOM      9  O   UNL     1     120.744 117.663 118.714  1.00  0.00    -0.298 OA
ATOM     10  C   UNL     1     121.221 120.191 120.140  1.00  0.00     0.020 C 
ATOM     11  C   UNL     1     117.813 117.218 118.131  1.00  0.00     0.020 C 
ENDROOT
TORSDOF 0
ENDMDL
MODEL 6
REMARK VINA RESULT:    -4.911      1.457      2.799
REMARK INTER + INTRA:          -4.911
REMARK INTER:                  -4.911
REMARK INTRA:                   0.000
REMARK UNBOUND:                 0.000
REMARK SMILES CC1(C)C(=O)[C@]2(C)CC[C@H]1C2
REMARK SMILES IDX 1 1 2 2 10 3 9 4 8 5 6 6 11 7 4 8 5 9 7 10 3 11
REMARK H PARENT
REMARK Flexibility Score: inf
ROOT
ATOM      1  C   UNL     1     117.574 120.920 120.226  1.00  0.00     0.020 C 
ATOM      2  C   UNL     1     118.507 119.705 120.047  1.00  0.00     0.027 C 
ATOM      3  C   UNL     1     119.954 120.143 119.619  1.00  0.00     0.003 C 
ATOM      4  C   UNL     1     120.927 118.937 119.620  1.00  0.00     0.005 C 
ATOM      5  C   UNL     1     120.417 118.076 118.442  1.00  0.00     0.015 C 
ATOM      6  C   UNL     1     119.287 118.944 117.857  1.00  0.00     0.027 C 
ATOM      7  C   UNL     1     119.813 120.342 118.112  1.00  0.00     0.019 C 
ATOM      8  C   UNL     1     118.138 118.911 118.827  1.00  0.00     0.144 C 
ATOM      9  O   UNL     1     117.103 118.278 118.681  1.00  0.00    -0.298 OA
ATOM     10  C   UNL     1     118.922 118.652 116.399  1.00  0.00     0.020 C 
ATOM     11  C   UNL     1     118.458 118.836 121.324  1.00  0.00     0.020 C 
ENDROOT
TORSDOF 0
ENDMDL
MODEL 7
REMARK VINA RESULT:    -4.875      1.625      2.585
REMARK INTER + INTRA:          -4.875
REMARK INTER:                  -4.875
REMARK INTRA:                   0.000
REMARK UNBOUND:                 0.000
REMARK SMILES CC1(C)C(=O)[C@]2(C)CC[C@H]1C2
REMARK SMILES IDX 1 1 2 2 10 3 9 4 8 5 6 6 11 7 4 8 5 9 7 10 3 11
REMARK H PARENT
REMARK Flexibility Score: inf
ROOT
ATOM      1  C   UNL     1     120.864 120.094 120.230  1.00  0.00     0.020 C 
ATOM      2  C   UNL     1     119.663 119.142 120.056  1.00  0.00     0.027 C 
ATOM      3  C   UNL     1     120.123 117.698 119.643  1.00  0.00     0.003 C 
ATOM      4  C   UNL     1     118.931 116.708 119.650  1.00  0.00     0.005 C 
ATOM      5  C   UNL     1     118.066 117.194 118.465  1.00  0.00     0.015 C 
ATOM      6  C   UNL     1     118.920 118.331 117.871  1.00  0.00     0.027 C 
ATOM      7  C   UNL     1     120.325 117.828 118.135  1.00  0.00     0.019 C 
ATOM      8  C   UNL     1     118.868 119.488 118.830  1.00  0.00     0.144 C 
ATOM      9  O   UNL     1     118.220 120.513 118.673  1.00  0.00    -0.298 OA
ATOM     10  C   UNL     1     118.627 118.678 116.409  1.00  0.00     0.020 C 
ATOM     11  C   UNL     1     118.789 119.191 121.330  1.00  0.00     0.020 C 
ENDROOT
TORSDOF 0
ENDMDL
MODEL 8
REMARK VINA RESULT:    -4.851      1.070      3.327
REMARK INTER + INTRA:          -4.851
REMARK INTER:                  -4.851
REMARK INTRA:                   0.000
REMARK UNBOUND:                 0.000
REMARK SMILES CC1(C)C(=O)[C@]2(C)CC[C@H]1C2
REMARK SMILES IDX 1 1 2 2 10 3 9 4 8 5 6 6 11 7 4 8 5 9 7 10 3 11
REMARK H PARENT
REMARK Flexibility Score: inf
ROOT
ATOM      1  C   UNL     1     116.920 119.319 118.705  1.00  0.00     0.020 C 
ATOM      2  C   UNL     1     118.149 119.834 119.482  1.00  0.00     0.027 C 
ATOM      3  C   UNL     1     119.203 120.498 118.524  1.00  0.00     0.003 C 
ATOM      4  C   UNL     1     120.344 121.172 119.329  1.00  0.00     0.005 C 
ATOM      5  C   UNL     1     121.088 119.970 119.954  1.00  0.00     0.015 C 
ATOM      6  C   UNL     1     120.344 118.763 119.349  1.00  0.00     0.027 C 
ATOM      7  C   UNL     1     119.967 119.293 117.980  1.00  0.00     0.019 C 
ATOM      8  C   UNL     1     118.986 118.696 119.991  1.00  0.00     0.144 C 
ATOM      9  O   UNL     1     118.644 117.893 120.847  1.00  0.00    -0.298 OA
ATOM     10  C   UNL     1     121.129 117.449 119.335  1.00  0.00     0.020 C 
ATOM     11  C   UNL     1     117.674 120.747 120.634  1.00  0.00     0.020 C 
ENDROOT
TORSDOF 0
ENDMDL
MODEL 9
REMARK VINA RESULT:    -4.761      1.856      3.106
REMARK INTER + INTRA:          -4.761
REMARK INTER:                  -4.761
REMARK INTRA:                   0.000
REMARK UNBOUND:                 0.000
REMARK SMILES CC1(C)C(=O)[C@]2(C)CC[C@H]1C2
REMARK SMILES IDX 1 1 2 2 10 3 9 4 8 5 6 6 11 7 4 8 5 9 7 10 3 11
REMARK H PARENT
REMARK Flexibility Score: inf
ROOT
ATOM      1  C   UNL     1     117.880 117.334 118.206  1.00  0.00     0.020 C 
ATOM      2  C   UNL     1     118.412 118.783 118.210  1.00  0.00     0.027 C 
ATOM      3  C   UNL     1     119.640 118.946 119.175  1.00  0.00     0.003 C 
ATOM      4  C   UNL     1     120.278 120.352 119.036  1.00  0.00     0.005 C 
ATOM      5  C   UNL     1     119.196 121.286 119.622  1.00  0.00     0.015 C 
ATOM      6  C   UNL     1     118.125 120.293 120.113  1.00  0.00     0.027 C 
ATOM      7  C   UNL     1     118.976 119.113 120.540  1.00  0.00     0.019 C 
ATOM      8  C   UNL     1     117.454 119.711 118.900  1.00  0.00     0.144 C 
ATOM      9  O   UNL     1     116.337 120.004 118.496  1.00  0.00    -0.298 OA
ATOM     10  C   UNL     1     117.181 120.827 121.192  1.00  0.00     0.020 C 
ATOM     11  C   UNL     1     118.682 119.227 116.756  1.00  0.00     0.020 C 
ENDROOT
TORSDOF 0
ENDMDL
