MODEL 1
REMARK VINA RESULT:    -3.404      0.000      0.000
REMARK INTER + INTRA:          -4.797
REMARK INTER:                  -5.195
REMARK INTRA:                   0.398
REMARK UNBOUND:                 0.398
REMARK SMILES CC1=CCC[C@@H](C)C(=O)C[C@H](C(C)C)C(=O)C1
REMARK SMILES IDX 8 1 9 2 6 3 7 4 5 5 4 6 3 7 2 8 1 9 10 11 11 12 15 13 16 14
REMARK SMILES IDX 17 15 12 17 13 18 14 19
REMARK H PARENT
REMARK Flexibility Score: 70.00
ROOT
ATOM      1  C   UNL     1      23.117  50.659  -1.919  1.00  0.00     0.136 C 
ATOM      2  O   UNL     1      22.657  51.638  -2.487  1.00  0.00    -0.299 OA
ENDROOT
BRANCH   1   3
ATOM      3  C   UNL     1      22.349  49.344  -2.032  1.00  0.00     0.053 C 
ATOM      4  C   UNL     1      21.415  49.232  -3.249  1.00  0.00     0.016 C 
BRANCH   3   5
ATOM      5  C   UNL     1      21.621  48.978  -0.710  1.00  0.00     0.015 C 
BRANCH   5   6
ATOM      6  C   UNL     1      22.414  48.086   0.260  1.00  0.00     0.028 C 
BRANCH   6   7
ATOM      7  C   UNL     1      22.141  48.434   1.702  1.00  0.00    -0.028 C 
ATOM      8  C   UNL     1      22.861  49.288   2.467  1.00  0.00    -0.070 CG0
ATOM      9  C   UNL     1      22.416  49.504   3.893  1.00  0.00     0.039 C 
ATOM     10  G   UNL     1      24.053  50.078   1.958  1.00  0.00     0.000 G0
ENDBRANCH   6   7
ENDBRANCH   5   6
ENDBRANCH   3   5
ENDBRANCH   1   3
BRANCH   1  11
ATOM     11  C   UNL     1      24.343  50.856  -1.046  1.00  0.00     0.087 C 
BRANCH  11  12
ATOM     12  C   UNL     1      24.207  51.978   0.020  1.00  0.00     0.066 C 
BRANCH  12  13
ATOM     13  C   UNL     1      23.624  51.403   1.310  1.00  0.00     0.140 C 
ATOM     14  O   UNL     1      22.760  52.055   1.880  1.00  0.00    -0.299 OA
BRANCH  13  15
ATOM     15  C   UNL     1      24.053  50.095   1.942  1.00  0.00     0.106 CG0
ATOM     16  G   UNL     1      22.861  49.320   2.473  1.00  0.00     0.000 G0
ENDBRANCH  13  15
ENDBRANCH  12  13
BRANCH  12  17
ATOM     17  C   UNL     1      25.468  52.892   0.189  1.00  0.00    -0.006 C 
ATOM     18  C   UNL     1      25.730  53.213   1.673  1.00  0.00     0.008 C 
ATOM     19  C   UNL     1      25.310  54.228  -0.565  1.00  0.00     0.008 C 
ENDBRANCH  12  17
ENDBRANCH  11  12
ENDBRANCH   1  11
TORSDOF 1
ENDMDL
MODEL 2
REMARK VINA RESULT:    -3.324      2.063      4.153
REMARK INTER + INTRA:          -4.675
REMARK INTER:                  -4.489
REMARK INTRA:                  -0.186
REMARK UNBOUND:                 0.398
REMARK SMILES CC1=CCC[C@@H](C)C(=O)C[C@H](C(C)C)C(=O)C1
REMARK SMILES IDX 8 1 9 2 6 3 7 4 5 5 4 6 3 7 2 8 1 9 10 11 11 12 15 13 16 14
REMARK SMILES IDX 17 15 12 17 13 18 14 19
REMARK H PARENT
REMARK Flexibility Score: 70.00
ROOT
ATOM      1  C   UNL     1      23.600  51.471  -0.283  1.00  0.00     0.136 C 
ATOM      2  O   UNL     1      24.574  51.935  -0.858  1.00  0.00    -0.299 OA
ENDROOT
BRANCH   1   3
ATOM      3  C   UNL     1      23.557  51.576   1.240  1.00  0.00     0.053 C 
ATOM      4  C   UNL     1      24.424  50.552   1.993  1.00  0.00     0.016 C 
BRANCH   3   5
ATOM      5  C   UNL     1      22.102  51.611   1.782  1.00  0.00     0.015 C 
BRANCH   5   6
ATOM      6  C   UNL     1      21.709  50.445   2.705  1.00  0.00     0.028 C 
BRANCH   6   7
ATOM      7  C   UNL     1      20.393  49.826   2.308  1.00  0.00    -0.028 C 
ATOM      8  C   UNL     1      20.225  48.791   1.452  1.00  0.00    -0.070 CG0
ATOM      9  C   UNL     1      18.817  48.314   1.192  1.00  0.00     0.039 C 
ATOM     10  G   UNL     1      21.370  48.052   0.783  1.00  0.00     0.000 G0
ENDBRANCH   6   7
ENDBRANCH   5   6
ENDBRANCH   3   5
ENDBRANCH   1   3
BRANCH   1  11
ATOM     11  C   UNL     1      22.576  50.719  -1.114  1.00  0.00     0.087 C 
BRANCH  11  12
ATOM     12  C   UNL     1      22.801  49.183  -1.186  1.00  0.00     0.066 C 
BRANCH  12  13
ATOM     13  C   UNL     1      21.571  48.451  -0.650  1.00  0.00     0.140 C 
ATOM     14  O   UNL     1      20.675  48.195  -1.442  1.00  0.00    -0.299 OA
BRANCH  13  15
ATOM     15  C   UNL     1      21.375  48.038   0.794  1.00  0.00     0.106 CG0
ATOM     16  G   UNL     1      20.231  48.800   1.438  1.00  0.00     0.000 G0
ENDBRANCH  13  15
ENDBRANCH  12  13
BRANCH  12  17
ATOM     17  C   UNL     1      23.370  48.657  -2.547  1.00  0.00    -0.006 C 
ATOM     18  C   UNL     1      24.903  48.508  -2.491  1.00  0.00     0.008 C 
ATOM     19  C   UNL     1      23.027  49.604  -3.714  1.00  0.00     0.008 C 
ENDBRANCH  12  17
ENDBRANCH  11  12
ENDBRANCH   1  11
TORSDOF 1
ENDMDL
MODEL 3
REMARK VINA RESULT:    -3.302      1.273      1.694
REMARK INTER + INTRA:          -4.642
REMARK INTER:                  -4.882
REMARK INTRA:                   0.241
REMARK UNBOUND:                 0.398
REMARK SMILES CC1=CCC[C@@H](C)C(=O)C[C@H](C(C)C)C(=O)C1
REMARK SMILES IDX 8 1 9 2 6 3 7 4 5 5 4 6 3 7 2 8 1 9 10 11 11 12 15 13 16 14
REMARK SMILES IDX 17 15 12 17 13 18 14 19
REMARK H PARENT
REMARK Flexibility Score: 70.00
ROOT
ATOM      1  C   UNL     1      23.029  50.586  -2.012  1.00  0.00     0.136 C 
ATOM      2  O   UNL     1      22.766  51.669  -2.513  1.00  0.00    -0.299 OA
ENDROOT
BRANCH   1   3
ATOM      3  C   UNL     1      22.441  49.337  -2.665  1.00  0.00     0.053 C 
ATOM      4  C   UNL     1      22.091  49.480  -4.157  1.00  0.00     0.016 C 
BRANCH   3   5
ATOM      5  C   UNL     1      21.257  48.752  -1.848  1.00  0.00     0.015 C 
BRANCH   5   6
ATOM      6  C   UNL     1      21.649  47.886  -0.639  1.00  0.00     0.028 C 
BRANCH   6   7
ATOM      7  C   UNL     1      20.742  48.120   0.544  1.00  0.00    -0.028 C 
ATOM      8  C   UNL     1      21.038  48.855   1.642  1.00  0.00    -0.070 CG0
ATOM      9  C   UNL     1      19.986  48.970   2.717  1.00  0.00     0.039 C 
ATOM     10  G   UNL     1      22.343  49.608   1.829  1.00  0.00     0.000 G0
ENDBRANCH   6   7
ENDBRANCH   5   6
ENDBRANCH   3   5
ENDBRANCH   1   3
BRANCH   1  11
ATOM     11  C   UNL     1      23.812  50.577  -0.711  1.00  0.00     0.087 C 
BRANCH  11  12
ATOM     12  C   UNL     1      23.347  51.628   0.333  1.00  0.00     0.066 C 
BRANCH  12  13
ATOM     13  C   UNL     1      22.281  51.021   1.245  1.00  0.00     0.140 C 
ATOM     14  O   UNL     1      21.314  51.715   1.525  1.00  0.00    -0.299 OA
BRANCH  13  15
ATOM     15  C   UNL     1      22.348  49.630   1.841  1.00  0.00     0.106 CG0
ATOM     16  G   UNL     1      21.047  48.876   1.634  1.00  0.00     0.000 G0
ENDBRANCH  13  15
ENDBRANCH  12  13
BRANCH  12  17
ATOM     17  C   UNL     1      24.500  52.405   1.055  1.00  0.00    -0.006 C 
ATOM     18  C   UNL     1      25.421  53.107   0.038  1.00  0.00     0.008 C 
ATOM     19  C   UNL     1      25.370  51.467   1.915  1.00  0.00     0.008 C 
ENDBRANCH  12  17
ENDBRANCH  11  12
ENDBRANCH   1  11
TORSDOF 1
ENDMDL
MODEL 4
REMARK VINA RESULT:    -3.160      1.851      4.126
REMARK INTER + INTRA:          -4.425
REMARK INTER:                  -4.699
REMARK INTRA:                   0.274
REMARK UNBOUND:                 0.398
REMARK SMILES CC1=CCC[C@@H](C)C(=O)C[C@H](C(C)C)C(=O)C1
REMARK SMILES IDX 8 1 9 2 6 3 7 4 5 5 4 6 3 7 2 8 1 9 10 11 11 12 15 13 16 14
REMARK SMILES IDX 17 15 12 17 13 18 14 19
REMARK H PARENT
REMARK Flexibility Score: 70.00
ROOT
ATOM      1  C   UNL     1      22.033  48.910  -1.145  1.00  0.00     0.136 C 
ATOM      2  O   UNL     1      23.089  48.295  -1.154  1.00  0.00    -0.299 OA
ENDROOT
BRANCH   1   3
ATOM      3  C   UNL     1      21.882  50.077  -2.119  1.00  0.00     0.053 C 
ATOM      4  C   UNL     1      21.591  49.681  -3.578  1.00  0.00     0.016 C 
BRANCH   3   5
ATOM      5  C   UNL     1      23.063  51.079  -2.018  1.00  0.00     0.015 C 
BRANCH   5   6
ATOM      6  C   UNL     1      23.132  51.895  -0.716  1.00  0.00     0.028 C 
BRANCH   6   7
ATOM      7  C   UNL     1      24.025  51.248   0.313  1.00  0.00    -0.028 C 
ATOM      8  C   UNL     1      23.698  50.986   1.600  1.00  0.00    -0.070 CG0
ATOM      9  C   UNL     1      24.738  50.324   2.470  1.00  0.00     0.039 C 
ATOM     10  G   UNL     1      22.333  51.272   2.201  1.00  0.00     0.000 G0
ENDBRANCH   6   7
ENDBRANCH   5   6
ENDBRANCH   3   5
ENDBRANCH   1   3
BRANCH   1  11
ATOM     11  C   UNL     1      21.010  48.549  -0.084  1.00  0.00     0.087 C 
BRANCH  11  12
ATOM     12  C   UNL     1      21.448  48.861   1.373  1.00  0.00     0.066 C 
BRANCH  12  13
ATOM     13  C   UNL     1      21.259  50.349   1.667  1.00  0.00     0.140 C 
ATOM     14  O   UNL     1      20.165  50.839   1.428  1.00  0.00    -0.299 OA
BRANCH  13  15
ATOM     15  C   UNL     1      22.337  51.263   2.214  1.00  0.00     0.106 CG0
ATOM     16  G   UNL     1      23.684  50.972   1.578  1.00  0.00     0.000 G0
ENDBRANCH  13  15
ENDBRANCH  12  13
BRANCH  12  17
ATOM     17  C   UNL     1      20.898  47.876   2.459  1.00  0.00    -0.006 C 
ATOM     18  C   UNL     1      19.391  48.093   2.698  1.00  0.00     0.008 C 
ATOM     19  C   UNL     1      21.623  48.052   3.809  1.00  0.00     0.008 C 
ENDBRANCH  12  17
ENDBRANCH  11  12
ENDBRANCH   1  11
TORSDOF 1
ENDMDL
MODEL 5
REMARK VINA RESULT:    -3.098      2.436      4.141
REMARK INTER + INTRA:          -4.331
REMARK INTER:                  -4.382
REMARK INTRA:                   0.051
REMARK UNBOUND:                 0.398
REMARK SMILES CC1=CCC[C@@H](C)C(=O)C[C@H](C(C)C)C(=O)C1
REMARK SMILES IDX 8 1 9 2 6 3 7 4 5 5 4 6 3 7 2 8 1 9 10 11 11 12 15 13 16 14
REMARK SMILES IDX 17 15 12 17 13 18 14 19
REMARK H PARENT
REMARK Flexibility Score: 70.00
ROOT
ATOM      1  C   UNL     1      24.524  50.715   1.763  1.00  0.00     0.136 C 
ATOM      2  O   UNL     1      25.309  51.593   2.086  1.00  0.00    -0.299 OA
ENDROOT
BRANCH   1   3
ATOM      3  C   UNL     1      23.660  50.954   0.526  1.00  0.00     0.053 C 
ATOM      4  C   UNL     1      24.131  52.093  -0.394  1.00  0.00     0.016 C 
BRANCH   3   5
ATOM      5  C   UNL     1      22.154  51.084   0.881  1.00  0.00     0.015 C 
BRANCH   5   6
ATOM      6  C   UNL     1      21.335  49.785   0.789  1.00  0.00     0.028 C 
BRANCH   6   7
ATOM      7  C   UNL     1      20.311  49.681   1.891  1.00  0.00    -0.028 C 
ATOM      8  C   UNL     1      20.488  49.075   3.089  1.00  0.00    -0.070 CG0
ATOM      9  C   UNL     1      19.334  49.085   4.061  1.00  0.00     0.039 C 
ATOM     10  G   UNL     1      21.793  48.435   3.528  1.00  0.00     0.000 G0
ENDBRANCH   6   7
ENDBRANCH   5   6
ENDBRANCH   3   5
ENDBRANCH   1   3
BRANCH   1  11
ATOM     11  C   UNL     1      24.378  49.517   2.684  1.00  0.00     0.087 C 
BRANCH  11  12
ATOM     12  C   UNL     1      23.986  49.866   4.146  1.00  0.00     0.066 C 
BRANCH  12  13
ATOM     13  C   UNL     1      22.590  49.327   4.453  1.00  0.00     0.140 C 
ATOM     14  O   UNL     1      22.089  49.632   5.527  1.00  0.00    -0.299 OA
BRANCH  13  15
ATOM     15  C   UNL     1      21.791  48.427   3.533  1.00  0.00     0.106 CG0
ATOM     16  G   UNL     1      20.495  49.088   3.101  1.00  0.00     0.000 G0
ENDBRANCH  13  15
ENDBRANCH  12  13
BRANCH  12  17
ATOM     17  C   UNL     1      25.086  49.566   5.220  1.00  0.00    -0.006 C 
ATOM     18  C   UNL     1      25.615  50.867   5.856  1.00  0.00     0.008 C 
ATOM     19  C   UNL     1      26.286  48.812   4.613  1.00  0.00     0.008 C 
ENDBRANCH  12  17
ENDBRANCH  11  12
ENDBRANCH   1  11
TORSDOF 1
ENDMDL
MODEL 6
REMARK VINA RESULT:    -3.081      1.851      3.709
REMARK INTER + INTRA:          -4.304
REMARK INTER:                  -4.342
REMARK INTRA:                   0.038
REMARK UNBOUND:                 0.398
REMARK SMILES CC1=CCC[C@@H](C)C(=O)C[C@H](C(C)C)C(=O)C1
REMARK SMILES IDX 8 1 9 2 6 3 7 4 5 5 4 6 3 7 2 8 1 9 10 11 11 12 15 13 16 14
REMARK SMILES IDX 17 15 12 17 13 18 14 19
REMARK H PARENT
REMARK Flexibility Score: 70.00
ROOT
ATOM      1  C   UNL     1      20.960  48.353   0.447  1.00  0.00     0.136 C 
ATOM      2  O   UNL     1      20.237  48.074  -0.498  1.00  0.00    -0.299 OA
ENDROOT
BRANCH   1   3
ATOM      3  C   UNL     1      20.323  48.427   1.833  1.00  0.00     0.053 C 
ATOM      4  C   UNL     1      19.657  49.770   2.179  1.00  0.00     0.016 C 
BRANCH   3   5
ATOM      5  C   UNL     1      21.297  47.961   2.949  1.00  0.00     0.015 C 
BRANCH   5   6
ATOM      6  C   UNL     1      21.746  49.052   3.936  1.00  0.00     0.028 C 
BRANCH   6   7
ATOM      7  C   UNL     1      23.190  49.440   3.734  1.00  0.00    -0.028 C 
ATOM      8  C   UNL     1      23.653  50.360   2.855  1.00  0.00    -0.070 CG0
ATOM      9  C   UNL     1      25.141  50.607   2.812  1.00  0.00     0.039 C 
ATOM     10  G   UNL     1      22.759  51.190   1.951  1.00  0.00     0.000 G0
ENDBRANCH   6   7
ENDBRANCH   5   6
ENDBRANCH   3   5
ENDBRANCH   1   3
BRANCH   1  11
ATOM     11  C   UNL     1      22.401  48.728   0.151  1.00  0.00     0.087 C 
BRANCH  11  12
ATOM     12  C   UNL     1      22.586  50.118  -0.516  1.00  0.00     0.066 C 
BRANCH  12  13
ATOM     13  C   UNL     1      23.165  51.109   0.494  1.00  0.00     0.140 C 
ATOM     14  O   UNL     1      24.033  51.875   0.101  1.00  0.00    -0.299 OA
BRANCH  13  15
ATOM     15  C   UNL     1      22.752  51.194   1.949  1.00  0.00     0.106 CG0
ATOM     16  G   UNL     1      23.660  50.356   2.831  1.00  0.00     0.000 G0
ENDBRANCH  13  15
ENDBRANCH  12  13
BRANCH  12  17
ATOM     17  C   UNL     1      23.277  50.095  -1.922  1.00  0.00    -0.006 C 
ATOM     18  C   UNL     1      22.239  49.963  -3.053  1.00  0.00     0.008 C 
ATOM     19  C   UNL     1      24.271  48.923  -2.051  1.00  0.00     0.008 C 
ENDBRANCH  12  17
ENDBRANCH  11  12
ENDBRANCH   1  11
TORSDOF 1
ENDMDL
MODEL 7
REMARK VINA RESULT:    -2.933      2.096      5.158
REMARK INTER + INTRA:          -4.078
REMARK INTER:                  -4.149
REMARK INTRA:                   0.071
REMARK UNBOUND:                 0.398
REMARK SMILES CC1=CCC[C@@H](C)C(=O)C[C@H](C(C)C)C(=O)C1
REMARK SMILES IDX 8 1 9 2 6 3 7 4 5 5 4 6 3 7 2 8 1 9 10 11 11 12 15 13 16 14
REMARK SMILES IDX 17 15 12 17 13 18 14 19
REMARK H PARENT
REMARK Flexibility Score: 70.00
ROOT
ATOM      1  C   UNL     1      23.289  51.346   1.535  1.00  0.00     0.136 C 
ATOM      2  O   UNL     1      22.560  52.194   2.030  1.00  0.00    -0.299 OA
ENDROOT
BRANCH   1   3
ATOM      3  C   UNL     1      24.198  51.773   0.385  1.00  0.00     0.053 C 
ATOM      4  C   UNL     1      25.309  52.768   0.760  1.00  0.00     0.016 C 
BRANCH   3   5
ATOM      5  C   UNL     1      23.389  52.250  -0.852  1.00  0.00     0.015 C 
BRANCH   5   6
ATOM      6  C   UNL     1      22.568  51.165  -1.569  1.00  0.00     0.028 C 
BRANCH   6   7
ATOM      7  C   UNL     1      23.435  50.256  -2.404  1.00  0.00    -0.028 C 
ATOM      8  C   UNL     1      23.497  48.907  -2.311  1.00  0.00    -0.070 CG0
ATOM      9  C   UNL     1      24.430  48.179  -3.247  1.00  0.00     0.039 C 
ATOM     10  G   UNL     1      22.646  48.085  -1.360  1.00  0.00     0.000 G0
ENDBRANCH   6   7
ENDBRANCH   5   6
ENDBRANCH   3   5
ENDBRANCH   1   3
BRANCH   1  11
ATOM     11  C   UNL     1      23.141  49.914   2.016  1.00  0.00     0.087 C 
BRANCH  11  12
ATOM     12  C   UNL     1      22.230  49.022   1.129  1.00  0.00     0.066 C 
BRANCH  12  13
ATOM     13  C   UNL     1      23.074  48.294   0.083  1.00  0.00     0.140 C 
ATOM     14  O   UNL     1      24.169  47.876   0.430  1.00  0.00    -0.299 OA
BRANCH  13  15
ATOM     15  C   UNL     1      22.657  48.073  -1.357  1.00  0.00     0.106 CG0
ATOM     16  G   UNL     1      23.492  48.911  -2.309  1.00  0.00     0.000 G0
ENDBRANCH  13  15
ENDBRANCH  12  13
BRANCH  12  17
ATOM     17  C   UNL     1      21.201  48.137   1.911  1.00  0.00    -0.006 C 
ATOM     18  C   UNL     1      19.753  48.477   1.507  1.00  0.00     0.008 C 
ATOM     19  C   UNL     1      21.325  48.328   3.436  1.00  0.00     0.008 C 
ENDBRANCH  12  17
ENDBRANCH  11  12
ENDBRANCH   1  11
TORSDOF 1
ENDMDL
MODEL 8
REMARK VINA RESULT:    -2.889      2.138      4.206
REMARK INTER + INTRA:          -4.012
REMARK INTER:                  -4.379
REMARK INTRA:                   0.367
REMARK UNBOUND:                 0.398
REMARK SMILES CC1=CCC[C@@H](C)C(=O)C[C@H](C(C)C)C(=O)C1
REMARK SMILES IDX 8 1 9 2 6 3 7 4 5 5 4 6 3 7 2 8 1 9 10 11 11 12 15 13 16 14
REMARK SMILES IDX 17 15 12 17 13 18 14 19
REMARK H PARENT
REMARK Flexibility Score: 70.00
ROOT
ATOM      1  C   UNL     1      20.580  49.533   2.390  1.00  0.00     0.136 C 
ATOM      2  O   UNL     1      19.895  50.504   2.105  1.00  0.00    -0.299 OA
ENDROOT
BRANCH   1   3
ATOM      3  C   UNL     1      20.412  48.928   3.782  1.00  0.00     0.053 C 
ATOM      4  C   UNL     1      19.002  49.054   4.387  1.00  0.00     0.016 C 
BRANCH   3   5
ATOM      5  C   UNL     1      21.508  49.414   4.767  1.00  0.00     0.015 C 
BRANCH   5   6
ATOM      6  C   UNL     1      22.837  48.642   4.717  1.00  0.00     0.028 C 
BRANCH   6   7
ATOM      7  C   UNL     1      24.031  49.563   4.755  1.00  0.00    -0.028 C 
ATOM      8  C   UNL     1      24.777  49.945   3.692  1.00  0.00    -0.070 CG0
ATOM      9  C   UNL     1      25.933  50.882   3.943  1.00  0.00     0.039 C 
ATOM     10  G   UNL     1      24.487  49.527   2.262  1.00  0.00     0.000 G0
ENDBRANCH   6   7
ENDBRANCH   5   6
ENDBRANCH   3   5
ENDBRANCH   1   3
BRANCH   1  11
ATOM     11  C   UNL     1      21.631  49.086   1.389  1.00  0.00     0.087 C 
BRANCH  11  12
ATOM     12  C   UNL     1      22.411  50.243   0.707  1.00  0.00     0.066 C 
BRANCH  12  13
ATOM     13  C   UNL     1      23.681  50.553   1.499  1.00  0.00     0.140 C 
ATOM     14  O   UNL     1      24.065  51.714   1.519  1.00  0.00    -0.299 OA
BRANCH  13  15
ATOM     15  C   UNL     1      24.506  49.523   2.241  1.00  0.00     0.106 CG0
ATOM     16  G   UNL     1      24.769  49.952   3.674  1.00  0.00     0.000 G0
ENDBRANCH  13  15
ENDBRANCH  12  13
BRANCH  12  17
ATOM     17  C   UNL     1      22.590  50.103  -0.842  1.00  0.00    -0.006 C 
ATOM     18  C   UNL     1      23.660  49.049  -1.188  1.00  0.00     0.008 C 
ATOM     19  C   UNL     1      23.009  51.436  -1.493  1.00  0.00     0.008 C 
ENDBRANCH  12  17
ENDBRANCH  11  12
ENDBRANCH   1  11
TORSDOF 1
ENDMDL
MODEL 9
REMARK VINA RESULT:    -2.859      2.364      4.746
REMARK INTER + INTRA:          -3.966
REMARK INTER:                  -3.824
REMARK INTRA:                  -0.141
REMARK UNBOUND:                 0.398
REMARK SMILES CC1=CCC[C@@H](C)C(=O)C[C@H](C(C)C)C(=O)C1
REMARK SMILES IDX 8 1 9 2 6 3 7 4 5 5 4 6 3 7 2 8 1 9 10 11 11 12 15 13 16 14
REMARK SMILES IDX 17 15 12 17 13 18 14 19
REMARK H PARENT
REMARK Flexibility Score: 70.00
ROOT
ATOM      1  C   UNL     1      22.066  51.135   1.324  1.00  0.00     0.136 C 
ATOM      2  O   UNL     1      21.715  51.646   0.271  1.00  0.00    -0.299 OA
ENDROOT
BRANCH   1   3
ATOM      3  C   UNL     1      23.559  50.893   1.535  1.00  0.00     0.053 C 
ATOM      4  C   UNL     1      24.488  51.970   0.949  1.00  0.00     0.016 C 
BRANCH   3   5
ATOM      5  C   UNL     1      23.986  49.464   1.102  1.00  0.00     0.015 C 
BRANCH   5   6
ATOM      6  C   UNL     1      24.484  48.548   2.233  1.00  0.00     0.028 C 
BRANCH   6   7
ATOM      7  C   UNL     1      24.621  49.285   3.542  1.00  0.00    -0.028 C 
ATOM      8  C   UNL     1      23.783  49.190   4.601  1.00  0.00    -0.070 CG0
ATOM      9  C   UNL     1      24.101  50.011   5.826  1.00  0.00     0.039 C 
ATOM     10  G   UNL     1      22.576  48.270   4.645  1.00  0.00     0.000 G0
ENDBRANCH   6   7
ENDBRANCH   5   6
ENDBRANCH   3   5
ENDBRANCH   1   3
BRANCH   1  11
ATOM     11  C   UNL     1      20.984  50.667   2.281  1.00  0.00     0.087 C 
BRANCH  11  12
ATOM     12  C   UNL     1      21.023  49.150   2.613  1.00  0.00     0.066 C 
BRANCH  12  13
ATOM     13  C   UNL     1      21.318  48.950   4.100  1.00  0.00     0.140 C 
ATOM     14  O   UNL     1      20.500  49.380   4.901  1.00  0.00    -0.299 OA
BRANCH  13  15
ATOM     15  C   UNL     1      22.558  48.276   4.649  1.00  0.00     0.106 CG0
ATOM     16  G   UNL     1      23.758  49.205   4.607  1.00  0.00     0.000 G0
ENDBRANCH  13  15
ENDBRANCH  12  13
BRANCH  12  17
ATOM     17  C   UNL     1      19.835  48.310   2.034  1.00  0.00    -0.006 C 
ATOM     18  C   UNL     1      20.050  47.995   0.541  1.00  0.00     0.008 C 
ATOM     19  C   UNL     1      18.490  49.051   2.173  1.00  0.00     0.008 C 
ENDBRANCH  12  17
ENDBRANCH  11  12
ENDBRANCH   1  11
TORSDOF 1
ENDMDL
