MODEL 1
REMARK VINA RESULT:    -3.256      0.000      0.000
REMARK INTER + INTRA:          -8.865
REMARK INTER:                  -5.920
REMARK INTRA:                  -2.945
REMARK UNBOUND:                -2.945
REMARK SMILES CCCCCC=CCC=CCCCCCCCC(=O)[O-]
REMARK SMILES IDX 11 1 12 2 13 3 14 4 15 5 16 6 17 7 18 8 19 9 20 10 10 11
REMARK SMILES IDX 9 12 8 13 7 14 6 15 5 16 4 17 3 18 2 19 1 20
REMARK H PARENT
REMARK Flexibility Score: inf
ROOT
ATOM      1  C   UNL     1      14.779  42.825  63.290  1.00  0.00     0.027 C 
ENDROOT
BRANCH   1   2
ATOM      2  C   UNL     1      15.228  44.293  63.262  1.00  0.00     0.004 C 
BRANCH   2   3
ATOM      3  C   UNL     1      15.901  44.719  64.579  1.00  0.00     0.000 C 
BRANCH   3   4
ATOM      4  C   UNL     1      15.156  45.883  65.265  1.00  0.00     0.000 C 
BRANCH   4   5
ATOM      5  C   UNL     1      14.071  45.424  66.258  1.00  0.00     0.000 C 
BRANCH   5   6
ATOM      6  C   UNL     1      12.639  45.841  65.885  1.00  0.00     0.006 C 
BRANCH   6   7
ATOM      7  C   UNL     1      11.768  44.655  65.454  1.00  0.00     0.053 C 
BRANCH   7   8
ATOM      8  C   UNL     1      11.632  44.624  63.965  1.00  0.00     0.041 C 
ATOM      9  O   UNL     1      11.160  43.607  63.392  1.00  0.00    -0.550 OA
ATOM     10  O   UNL     1      11.984  45.737  63.212  1.00  0.00    -0.550 OA
ENDBRANCH   7   8
ENDBRANCH   6   7
ENDBRANCH   5   6
ENDBRANCH   4   5
ENDBRANCH   3   4
ENDBRANCH   2   3
ENDBRANCH   1   2
BRANCH   1  11
ATOM     11  C   UNL     1      14.745  42.262  64.686  1.00  0.00    -0.031 C 
ATOM     12  C   UNL     1      13.657  41.622  65.139  1.00  0.00    -0.027 C 
BRANCH  12  13
ATOM     13  C   UNL     1      13.597  41.064  66.533  1.00  0.00     0.054 C 
BRANCH  13  14
ATOM     14  C   UNL     1      14.554  41.784  67.449  1.00  0.00    -0.027 C 
ATOM     15  C   UNL     1      14.183  42.621  68.435  1.00  0.00    -0.031 C 
BRANCH  15  16
ATOM     16  C   UNL     1      12.758  43.022  68.729  1.00  0.00     0.027 C 
BRANCH  16  17
ATOM     17  C   UNL     1      12.464  43.032  70.236  1.00  0.00     0.004 C 
BRANCH  17  18
ATOM     18  C   UNL     1      11.713  41.767  70.687  1.00  0.00     0.000 C 
BRANCH  18  19
ATOM     19  C   UNL     1      11.224  40.919  69.503  1.00  0.00    -0.003 C 
ATOM     20  C   UNL     1      11.762  39.489  69.539  1.00  0.00     0.004 C 
ENDBRANCH  18  19
ENDBRANCH  17  18
ENDBRANCH  16  17
ENDBRANCH  15  16
ENDBRANCH  13  14
ENDBRANCH  12  13
ENDBRANCH   1  11
TORSDOF 14
ENDMDL
MODEL 2
REMARK VINA RESULT:    -3.253      1.905      3.818
REMARK INTER + INTRA:          -8.860
REMARK INTER:                  -5.834
REMARK INTRA:                  -3.025
REMARK UNBOUND:                -2.945
REMARK SMILES CCCCCC=CCC=CCCCCCCCC(=O)[O-]
REMARK SMILES IDX 11 1 12 2 13 3 14 4 15 5 16 6 17 7 18 8 19 9 20 10 10 11
REMARK SMILES IDX 9 12 8 13 7 14 6 15 5 16 4 17 3 18 2 19 1 20
REMARK H PARENT
REMARK Flexibility Score: inf
ROOT
ATOM      1  C   UNL     1      14.489  42.085  66.871  1.00  0.00     0.027 C 
ENDROOT
BRANCH   1   2
ATOM      2  C   UNL     1      14.884  43.117  65.805  1.00  0.00     0.004 C 
BRANCH   2   3
ATOM      3  C   UNL     1      15.216  44.488  66.420  1.00  0.00     0.000 C 
BRANCH   3   4
ATOM      4  C   UNL     1      15.860  45.446  65.395  1.00  0.00     0.000 C 
BRANCH   4   5
ATOM      5  C   UNL     1      14.927  46.587  64.945  1.00  0.00     0.000 C 
BRANCH   5   6
ATOM      6  C   UNL     1      14.690  46.665  63.428  1.00  0.00     0.006 C 
BRANCH   6   7
ATOM      7  C   UNL     1      13.726  45.585  62.921  1.00  0.00     0.053 C 
BRANCH   7   8
ATOM      8  C   UNL     1      14.423  44.676  61.959  1.00  0.00     0.041 C 
ATOM      9  O   UNL     1      14.629  45.044  60.773  1.00  0.00    -0.550 OA
ATOM     10  O   UNL     1      14.889  43.438  62.386  1.00  0.00    -0.550 OA
ENDBRANCH   7   8
ENDBRANCH   6   7
ENDBRANCH   5   6
ENDBRANCH   4   5
ENDBRANCH   3   4
ENDBRANCH   2   3
ENDBRANCH   1   2
BRANCH   1  11
ATOM     11  C   UNL     1      14.046  42.731  68.157  1.00  0.00    -0.031 C 
ATOM     12  C   UNL     1      12.974  42.271  68.819  1.00  0.00    -0.027 C 
BRANCH  12  13
ATOM     13  C   UNL     1      12.507  42.909  70.097  1.00  0.00     0.054 C 
BRANCH  13  14
ATOM     14  C   UNL     1      11.187  43.612  69.904  1.00  0.00    -0.027 C 
ATOM     15  C   UNL     1      11.054  44.881  69.477  1.00  0.00    -0.031 C 
BRANCH  15  16
ATOM     16  C   UNL     1      12.204  45.817  69.197  1.00  0.00     0.027 C 
BRANCH  16  17
ATOM     17  C   UNL     1      12.272  46.215  67.715  1.00  0.00     0.004 C 
BRANCH  17  18
ATOM     18  C   UNL     1      11.101  45.632  66.906  1.00  0.00     0.000 C 
BRANCH  18  19
ATOM     19  C   UNL     1      11.570  44.690  65.785  1.00  0.00    -0.003 C 
ATOM     20  C   UNL     1      10.934  43.304  65.874  1.00  0.00     0.004 C 
ENDBRANCH  18  19
ENDBRANCH  17  18
ENDBRANCH  16  17
ENDBRANCH  15  16
ENDBRANCH  13  14
ENDBRANCH  12  13
ENDBRANCH   1  11
TORSDOF 14
ENDMDL
MODEL 3
REMARK VINA RESULT:    -3.163      1.958      4.898
REMARK INTER + INTRA:          -8.696
REMARK INTER:                  -5.886
REMARK INTRA:                  -2.810
REMARK UNBOUND:                -2.945
REMARK SMILES CCCCCC=CCC=CCCCCCCCC(=O)[O-]
REMARK SMILES IDX 11 1 12 2 13 3 14 4 15 5 16 6 17 7 18 8 19 9 20 10 10 11
REMARK SMILES IDX 9 12 8 13 7 14 6 15 5 16 4 17 3 18 2 19 1 20
REMARK H PARENT
REMARK Flexibility Score: inf
ROOT
ATOM      1  C   UNL     1      13.153  42.527  68.911  1.00  0.00     0.027 C 
ENDROOT
BRANCH   1   2
ATOM      2  C   UNL     1      14.520  42.542  68.212  1.00  0.00     0.004 C 
BRANCH   2   3
ATOM      3  C   UNL     1      14.472  41.866  66.830  1.00  0.00     0.000 C 
BRANCH   3   4
ATOM      4  C   UNL     1      14.775  42.856  65.685  1.00  0.00     0.000 C 
BRANCH   4   5
ATOM      5  C   UNL     1      15.211  44.251  66.174  1.00  0.00     0.000 C 
BRANCH   5   6
ATOM      6  C   UNL     1      16.110  45.023  65.194  1.00  0.00     0.006 C 
BRANCH   6   7
ATOM      7  C   UNL     1      15.396  46.215  64.545  1.00  0.00     0.053 C 
BRANCH   7   8
ATOM      8  C   UNL     1      14.740  45.796  63.268  1.00  0.00     0.041 C 
ATOM      9  O   UNL     1      13.850  46.516  62.745  1.00  0.00    -0.550 OA
ATOM     10  O   UNL     1      15.146  44.631  62.629  1.00  0.00    -0.550 OA
ENDBRANCH   7   8
ENDBRANCH   6   7
ENDBRANCH   5   6
ENDBRANCH   4   5
ENDBRANCH   3   4
ENDBRANCH   2   3
ENDBRANCH   1   2
BRANCH   1  11
ATOM     11  C   UNL     1      12.597  43.912  69.112  1.00  0.00    -0.031 C 
ATOM     12  C   UNL     1      11.319  44.089  69.475  1.00  0.00    -0.027 C 
BRANCH  12  13
ATOM     13  C   UNL     1      10.740  45.463  69.668  1.00  0.00     0.054 C 
BRANCH  13  14
ATOM     14  C   UNL     1      11.815  46.463  70.010  1.00  0.00    -0.027 C 
ATOM     15  C   UNL     1      12.236  47.443  69.188  1.00  0.00    -0.031 C 
BRANCH  15  16
ATOM     16  C   UNL     1      11.748  47.644  67.774  1.00  0.00     0.027 C 
BRANCH  16  17
ATOM     17  C   UNL     1      12.552  46.810  66.765  1.00  0.00     0.004 C 
BRANCH  17  18
ATOM     18  C   UNL     1      11.674  46.294  65.613  1.00  0.00     0.000 C 
BRANCH  18  19
ATOM     19  C   UNL     1      11.691  44.761  65.499  1.00  0.00    -0.003 C 
ATOM     20  C   UNL     1      10.386  44.119  65.968  1.00  0.00     0.004 C 
ENDBRANCH  18  19
ENDBRANCH  17  18
ENDBRANCH  16  17
ENDBRANCH  15  16
ENDBRANCH  13  14
ENDBRANCH  12  13
ENDBRANCH   1  11
TORSDOF 14
ENDMDL
MODEL 4
REMARK VINA RESULT:    -3.115      2.280      6.041
REMARK INTER + INTRA:          -8.610
REMARK INTER:                  -5.750
REMARK INTRA:                  -2.860
REMARK UNBOUND:                -2.945
REMARK SMILES CCCCCC=CCC=CCCCCCCCC(=O)[O-]
REMARK SMILES IDX 11 1 12 2 13 3 14 4 15 5 16 6 17 7 18 8 19 9 20 10 10 11
REMARK SMILES IDX 9 12 8 13 7 14 6 15 5 16 4 17 3 18 2 19 1 20
REMARK H PARENT
REMARK Flexibility Score: inf
ROOT
ATOM      1  C   UNL     1      13.388  42.783  68.978  1.00  0.00     0.027 C 
ENDROOT
BRANCH   1   2
ATOM      2  C   UNL     1      11.941  43.046  68.537  1.00  0.00     0.004 C 
BRANCH   2   3
ATOM      3  C   UNL     1      10.979  41.944  69.016  1.00  0.00     0.000 C 
BRANCH   3   4
ATOM      4  C   UNL     1      11.658  40.960  69.991  1.00  0.00     0.000 C 
BRANCH   4   5
ATOM      5  C   UNL     1      11.683  39.505  69.484  1.00  0.00     0.000 C 
BRANCH   5   6
ATOM      6  C   UNL     1      11.819  39.357  67.960  1.00  0.00     0.006 C 
BRANCH   6   7
ATOM      7  C   UNL     1      12.636  38.124  67.553  1.00  0.00     0.053 C 
BRANCH   7   8
ATOM      8  C   UNL     1      13.441  38.416  66.327  1.00  0.00     0.041 C 
ATOM      9  O   UNL     1      14.659  38.100  66.277  1.00  0.00    -0.550 OA
ATOM     10  O   UNL     1      12.835  38.994  65.219  1.00  0.00    -0.550 OA
ENDBRANCH   7   8
ENDBRANCH   6   7
ENDBRANCH   5   6
ENDBRANCH   4   5
ENDBRANCH   3   4
ENDBRANCH   2   3
ENDBRANCH   1   2
BRANCH   1  11
ATOM     11  C   UNL     1      14.292  42.469  67.816  1.00  0.00    -0.031 C 
ATOM     12  C   UNL     1      13.782  42.201  66.605  1.00  0.00    -0.027 C 
BRANCH  12  13
ATOM     13  C   UNL     1      14.666  41.872  65.435  1.00  0.00     0.054 C 
BRANCH  13  14
ATOM     14  C   UNL     1      14.373  42.772  64.261  1.00  0.00    -0.027 C 
ATOM     15  C   UNL     1      15.032  43.914  63.991  1.00  0.00    -0.031 C 
BRANCH  15  16
ATOM     16  C   UNL     1      16.115  44.504  64.861  1.00  0.00     0.027 C 
BRANCH  16  17
ATOM     17  C   UNL     1      15.545  45.470  65.911  1.00  0.00     0.004 C 
BRANCH  17  18
ATOM     18  C   UNL     1      14.239  46.132  65.438  1.00  0.00     0.000 C 
BRANCH  18  19
ATOM     19  C   UNL     1      13.064  45.867  66.393  1.00  0.00    -0.003 C 
ATOM     20  C   UNL     1      11.844  45.284  65.681  1.00  0.00     0.004 C 
ENDBRANCH  18  19
ENDBRANCH  17  18
ENDBRANCH  16  17
ENDBRANCH  15  16
ENDBRANCH  13  14
ENDBRANCH  12  13
ENDBRANCH   1  11
TORSDOF 14
ENDMDL
MODEL 5
REMARK VINA RESULT:    -3.083      1.505      3.775
REMARK INTER + INTRA:          -8.551
REMARK INTER:                  -6.006
REMARK INTRA:                  -2.545
REMARK UNBOUND:                -2.945
REMARK SMILES CCCCCC=CCC=CCCCCCCCC(=O)[O-]
REMARK SMILES IDX 11 1 12 2 13 3 14 4 15 5 16 6 17 7 18 8 19 9 20 10 10 11
REMARK SMILES IDX 9 12 8 13 7 14 6 15 5 16 4 17 3 18 2 19 1 20
REMARK H PARENT
REMARK Flexibility Score: inf
ROOT
ATOM      1  C   UNL     1      12.502  45.411  65.737  1.00  0.00     0.027 C 
ENDROOT
BRANCH   1   2
ATOM      2  C   UNL     1      13.010  46.836  65.471  1.00  0.00     0.004 C 
BRANCH   2   3
ATOM      3  C   UNL     1      14.511  46.862  65.129  1.00  0.00     0.000 C 
BRANCH   3   4
ATOM      4  C   UNL     1      15.232  45.570  65.568  1.00  0.00     0.000 C 
BRANCH   4   5
ATOM      5  C   UNL     1      15.954  44.844  64.417  1.00  0.00     0.000 C 
BRANCH   5   6
ATOM      6  C   UNL     1      15.113  43.773  63.703  1.00  0.00     0.006 C 
BRANCH   6   7
ATOM      7  C   UNL     1      14.925  44.063  62.209  1.00  0.00     0.053 C 
BRANCH   7   8
ATOM      8  C   UNL     1      13.903  45.138  62.013  1.00  0.00     0.041 C 
ATOM      9  O   UNL     1      12.689  44.909  62.251  1.00  0.00    -0.550 OA
ATOM     10  O   UNL     1      14.299  46.407  61.611  1.00  0.00    -0.550 OA
ENDBRANCH   7   8
ENDBRANCH   6   7
ENDBRANCH   5   6
ENDBRANCH   4   5
ENDBRANCH   3   4
ENDBRANCH   2   3
ENDBRANCH   1   2
BRANCH   1  11
ATOM     11  C   UNL     1      11.973  45.244  67.137  1.00  0.00    -0.031 C 
ATOM     12  C   UNL     1      12.536  45.899  68.163  1.00  0.00    -0.027 C 
BRANCH  12  13
ATOM     13  C   UNL     1      12.031  45.736  69.569  1.00  0.00     0.054 C 
BRANCH  13  14
ATOM     14  C   UNL     1      10.896  44.746  69.630  1.00  0.00    -0.027 C 
ATOM     15  C   UNL     1      11.036  43.442  69.929  1.00  0.00    -0.031 C 
BRANCH  15  16
ATOM     16  C   UNL     1      12.357  42.757  70.179  1.00  0.00     0.027 C 
BRANCH  16  17
ATOM     17  C   UNL     1      12.852  41.994  68.941  1.00  0.00     0.004 C 
BRANCH  17  18
ATOM     18  C   UNL     1      14.197  42.535  68.427  1.00  0.00     0.000 C 
BRANCH  18  19
ATOM     19  C   UNL     1      14.376  42.332  66.914  1.00  0.00    -0.003 C 
ATOM     20  C   UNL     1      14.281  40.864  66.501  1.00  0.00     0.004 C 
ENDBRANCH  18  19
ENDBRANCH  17  18
ENDBRANCH  16  17
ENDBRANCH  15  16
ENDBRANCH  13  14
ENDBRANCH  12  13
ENDBRANCH   1  11
TORSDOF 14
ENDMDL
MODEL 6
REMARK VINA RESULT:    -3.078      1.826      3.411
REMARK INTER + INTRA:          -8.542
REMARK INTER:                  -5.376
REMARK INTRA:                  -3.166
REMARK UNBOUND:                -2.945
REMARK SMILES CCCCCC=CCC=CCCCCCCCC(=O)[O-]
REMARK SMILES IDX 11 1 12 2 13 3 14 4 15 5 16 6 17 7 18 8 19 9 20 10 10 11
REMARK SMILES IDX 9 12 8 13 7 14 6 15 5 16 4 17 3 18 2 19 1 20
REMARK H PARENT
REMARK Flexibility Score: inf
ROOT
ATOM      1  C   UNL     1      10.768  43.434  64.998  1.00  0.00     0.027 C 
ENDROOT
BRANCH   1   2
ATOM      2  C   UNL     1      11.658  44.540  64.414  1.00  0.00     0.004 C 
BRANCH   2   3
ATOM      3  C   UNL     1      11.508  45.869  65.176  1.00  0.00     0.000 C 
BRANCH   3   4
ATOM      4  C   UNL     1      12.864  46.413  65.673  1.00  0.00     0.000 C 
BRANCH   4   5
ATOM      5  C   UNL     1      13.834  45.315  66.149  1.00  0.00     0.000 C 
BRANCH   5   6
ATOM      6  C   UNL     1      15.291  45.501  65.694  1.00  0.00     0.006 C 
BRANCH   6   7
ATOM      7  C   UNL     1      15.831  44.292  64.920  1.00  0.00     0.053 C 
BRANCH   7   8
ATOM      8  C   UNL     1      15.211  44.226  63.560  1.00  0.00     0.041 C 
ATOM      9  O   UNL     1      14.999  45.281  62.908  1.00  0.00    -0.550 OA
ATOM     10  O   UNL     1      14.911  42.994  62.993  1.00  0.00    -0.550 OA
ENDBRANCH   7   8
ENDBRANCH   6   7
ENDBRANCH   5   6
ENDBRANCH   4   5
ENDBRANCH   3   4
ENDBRANCH   2   3
ENDBRANCH   1   2
BRANCH   1  11
ATOM     11  C   UNL     1      11.516  42.536  65.946  1.00  0.00    -0.031 C 
ATOM     12  C   UNL     1      12.694  42.001  65.594  1.00  0.00    -0.027 C 
BRANCH  12  13
ATOM     13  C   UNL     1      13.452  41.091  66.521  1.00  0.00     0.054 C 
BRANCH  13  14
ATOM     14  C   UNL     1      14.514  41.847  67.278  1.00  0.00    -0.027 C 
ATOM     15  C   UNL     1      14.323  42.449  68.466  1.00  0.00    -0.031 C 
BRANCH  15  16
ATOM     16  C   UNL     1      12.999  42.521  69.187  1.00  0.00     0.027 C 
BRANCH  16  17
ATOM     17  C   UNL     1      12.624  43.964  69.556  1.00  0.00     0.004 C 
BRANCH  17  18
ATOM     18  C   UNL     1      11.218  44.341  69.058  1.00  0.00     0.000 C 
BRANCH  18  19
ATOM     19  C   UNL     1      11.042  45.858  68.883  1.00  0.00    -0.003 C 
ATOM     20  C   UNL     1      12.210  46.658  69.458  1.00  0.00     0.004 C 
ENDBRANCH  18  19
ENDBRANCH  17  18
ENDBRANCH  16  17
ENDBRANCH  15  16
ENDBRANCH  13  14
ENDBRANCH  12  13
ENDBRANCH   1  11
TORSDOF 14
ENDMDL
MODEL 7
REMARK VINA RESULT:    -3.062      1.204      3.072
REMARK INTER + INTRA:          -8.513
REMARK INTER:                  -5.638
REMARK INTRA:                  -2.875
REMARK UNBOUND:                -2.945
REMARK SMILES CCCCCC=CCC=CCCCCCCCC(=O)[O-]
REMARK SMILES IDX 11 1 12 2 13 3 14 4 15 5 16 6 17 7 18 8 19 9 20 10 10 11
REMARK SMILES IDX 9 12 8 13 7 14 6 15 5 16 4 17 3 18 2 19 1 20
REMARK H PARENT
REMARK Flexibility Score: inf
ROOT
ATOM      1  C   UNL     1      12.484  46.013  65.189  1.00  0.00     0.027 C 
ENDROOT
BRANCH   1   2
ATOM      2  C   UNL     1      13.643  46.974  65.490  1.00  0.00     0.004 C 
BRANCH   2   3
ATOM      3  C   UNL     1      14.857  46.722  64.578  1.00  0.00     0.000 C 
BRANCH   3   4
ATOM      4  C   UNL     1      15.953  45.894  65.281  1.00  0.00     0.000 C 
BRANCH   4   5
ATOM      5  C   UNL     1      16.013  44.426  64.817  1.00  0.00     0.000 C 
BRANCH   5   6
ATOM      6  C   UNL     1      15.258  44.133  63.509  1.00  0.00     0.006 C 
BRANCH   6   7
ATOM      7  C   UNL     1      14.611  42.743  63.496  1.00  0.00     0.053 C 
BRANCH   7   8
ATOM      8  C   UNL     1      13.222  42.821  62.946  1.00  0.00     0.041 C 
ATOM      9  O   UNL     1      12.825  43.869  62.371  1.00  0.00    -0.550 OA
ATOM     10  O   UNL     1      12.380  41.719  63.027  1.00  0.00    -0.550 OA
ENDBRANCH   7   8
ENDBRANCH   6   7
ENDBRANCH   5   6
ENDBRANCH   4   5
ENDBRANCH   3   4
ENDBRANCH   2   3
ENDBRANCH   1   2
BRANCH   1  11
ATOM     11  C   UNL     1      12.506  44.796  66.074  1.00  0.00    -0.031 C 
ATOM     12  C   UNL     1      13.133  44.822  67.259  1.00  0.00    -0.027 C 
BRANCH  12  13
ATOM     13  C   UNL     1      13.178  43.614  68.151  1.00  0.00     0.054 C 
BRANCH  13  14
ATOM     14  C   UNL     1      14.420  42.797  67.900  1.00  0.00    -0.027 C 
ATOM     15  C   UNL     1      14.468  41.702  67.119  1.00  0.00    -0.031 C 
BRANCH  15  16
ATOM     16  C   UNL     1      13.273  41.085  66.434  1.00  0.00     0.027 C 
BRANCH  16  17
ATOM     17  C   UNL     1      12.712  39.892  67.223  1.00  0.00     0.004 C 
BRANCH  17  18
ATOM     18  C   UNL     1      11.364  40.222  67.888  1.00  0.00     0.000 C 
BRANCH  18  19
ATOM     19  C   UNL     1      11.352  39.895  69.389  1.00  0.00    -0.003 C 
ATOM     20  C   UNL     1      11.658  41.112  70.261  1.00  0.00     0.004 C 
ENDBRANCH  18  19
ENDBRANCH  17  18
ENDBRANCH  16  17
ENDBRANCH  15  16
ENDBRANCH  13  14
ENDBRANCH  12  13
ENDBRANCH   1  11
TORSDOF 14
ENDMDL
MODEL 8
REMARK VINA RESULT:    -3.055      2.468      5.689
REMARK INTER + INTRA:          -8.500
REMARK INTER:                  -5.440
REMARK INTRA:                  -3.060
REMARK UNBOUND:                -2.945
REMARK SMILES CCCCCC=CCC=CCCCCCCCC(=O)[O-]
REMARK SMILES IDX 11 1 12 2 13 3 14 4 15 5 16 6 17 7 18 8 19 9 20 10 10 11
REMARK SMILES IDX 9 12 8 13 7 14 6 15 5 16 4 17 3 18 2 19 1 20
REMARK H PARENT
REMARK Flexibility Score: inf
ROOT
ATOM      1  C   UNL     1      11.454  45.623  67.677  1.00  0.00     0.027 C 
ENDROOT
BRANCH   1   2
ATOM      2  C   UNL     1      11.271  44.529  68.738  1.00  0.00     0.004 C 
BRANCH   2   3
ATOM      3  C   UNL     1      12.568  44.259  69.522  1.00  0.00     0.000 C 
BRANCH   3   4
ATOM      4  C   UNL     1      12.976  42.771  69.479  1.00  0.00     0.000 C 
BRANCH   4   5
ATOM      5  C   UNL     1      14.100  42.467  68.469  1.00  0.00     0.000 C 
BRANCH   5   6
ATOM      6  C   UNL     1      13.624  41.851  67.143  1.00  0.00     0.006 C 
BRANCH   6   7
ATOM      7  C   UNL     1      12.492  40.833  67.333  1.00  0.00     0.053 C 
BRANCH   7   8
ATOM      8  C   UNL     1      12.885  39.506  66.764  1.00  0.00     0.041 C 
ATOM      9  O   UNL     1      12.119  38.514  66.879  1.00  0.00    -0.550 OA
ATOM     10  O   UNL     1      14.078  39.377  66.063  1.00  0.00    -0.550 OA
ENDBRANCH   7   8
ENDBRANCH   6   7
ENDBRANCH   5   6
ENDBRANCH   4   5
ENDBRANCH   3   4
ENDBRANCH   2   3
ENDBRANCH   1   2
BRANCH   1  11
ATOM     11  C   UNL     1      12.835  45.617  67.079  1.00  0.00    -0.031 C 
ATOM     12  C   UNL     1      13.101  46.312  65.963  1.00  0.00    -0.027 C 
BRANCH  12  13
ATOM     13  C   UNL     1      14.470  46.308  65.343  1.00  0.00     0.054 C 
BRANCH  13  14
ATOM     14  C   UNL     1      15.310  45.179  65.884  1.00  0.00    -0.027 C 
ATOM     15  C   UNL     1      15.626  44.066  65.197  1.00  0.00    -0.031 C 
BRANCH  15  16
ATOM     16  C   UNL     1      15.128  43.745  63.809  1.00  0.00     0.027 C 
BRANCH  16  17
ATOM     17  C   UNL     1      14.662  42.286  63.690  1.00  0.00     0.004 C 
BRANCH  17  18
ATOM     18  C   UNL     1      13.166  42.185  63.343  1.00  0.00     0.000 C 
BRANCH  18  19
ATOM     19  C   UNL     1      12.397  43.474  63.670  1.00  0.00    -0.003 C 
ATOM     20  C   UNL     1      11.273  43.251  64.681  1.00  0.00     0.004 C 
ENDBRANCH  18  19
ENDBRANCH  17  18
ENDBRANCH  16  17
ENDBRANCH  15  16
ENDBRANCH  13  14
ENDBRANCH  12  13
ENDBRANCH   1  11
TORSDOF 14
ENDMDL
MODEL 9
REMARK VINA RESULT:    -2.990      2.729      6.304
REMARK INTER + INTRA:          -8.382
REMARK INTER:                  -5.754
REMARK INTRA:                  -2.629
REMARK UNBOUND:                -2.945
REMARK SMILES CCCCCC=CCC=CCCCCCCCC(=O)[O-]
REMARK SMILES IDX 11 1 12 2 13 3 14 4 15 5 16 6 17 7 18 8 19 9 20 10 10 11
REMARK SMILES IDX 9 12 8 13 7 14 6 15 5 16 4 17 3 18 2 19 1 20
REMARK H PARENT
REMARK Flexibility Score: inf
ROOT
ATOM      1  C   UNL     1      13.982  42.109  68.130  1.00  0.00     0.027 C 
ENDROOT
BRANCH   1   2
ATOM      2  C   UNL     1      12.877  42.490  69.125  1.00  0.00     0.004 C 
BRANCH   2   3
ATOM      3  C   UNL     1      11.672  41.536  69.048  1.00  0.00     0.000 C 
BRANCH   3   4
ATOM      4  C   UNL     1      12.101  40.054  69.039  1.00  0.00     0.000 C 
BRANCH   4   5
ATOM      5  C   UNL     1      11.296  39.184  68.055  1.00  0.00     0.000 C 
BRANCH   5   6
ATOM      6  C   UNL     1      11.987  37.874  67.639  1.00  0.00     0.006 C 
BRANCH   6   7
ATOM      7  C   UNL     1      12.319  37.827  66.142  1.00  0.00     0.053 C 
BRANCH   7   8
ATOM      8  C   UNL     1      13.800  37.863  65.937  1.00  0.00     0.041 C 
ATOM      9  O   UNL     1      14.478  38.830  66.372  1.00  0.00    -0.550 OA
ATOM     10  O   UNL     1      14.440  36.803  65.307  1.00  0.00    -0.550 OA
ENDBRANCH   7   8
ENDBRANCH   6   7
ENDBRANCH   5   6
ENDBRANCH   4   5
ENDBRANCH   3   4
ENDBRANCH   2   3
ENDBRANCH   1   2
BRANCH   1  11
ATOM     11  C   UNL     1      14.506  43.300  67.372  1.00  0.00    -0.031 C 
ATOM     12  C   UNL     1      13.665  44.218  66.874  1.00  0.00    -0.027 C 
BRANCH  12  13
ATOM     13  C   UNL     1      14.166  45.407  66.104  1.00  0.00     0.054 C 
BRANCH  13  14
ATOM     14  C   UNL     1      15.617  45.241  65.730  1.00  0.00    -0.027 C 
ATOM     15  C   UNL     1      16.051  44.807  64.533  1.00  0.00    -0.031 C 
BRANCH  15  16
ATOM     16  C   UNL     1      15.154  44.352  63.408  1.00  0.00     0.027 C 
BRANCH  16  17
ATOM     17  C   UNL     1      14.875  42.842  63.472  1.00  0.00     0.004 C 
BRANCH  17  18
ATOM     18  C   UNL     1      13.370  42.535  63.559  1.00  0.00     0.000 C 
BRANCH  18  19
ATOM     19  C   UNL     1      13.063  41.350  64.489  1.00  0.00    -0.003 C 
ATOM     20  C   UNL     1      11.714  41.487  65.193  1.00  0.00     0.004 C 
ENDBRANCH  18  19
ENDBRANCH  17  18
ENDBRANCH  16  17
ENDBRANCH  15  16
ENDBRANCH  13  14
ENDBRANCH  12  13
ENDBRANCH   1  11
TORSDOF 14
ENDMDL
