MODEL 1
REMARK VINA RESULT:    -5.661      0.000      0.000
REMARK INTER + INTRA:          -6.026
REMARK INTER:                  -5.992
REMARK INTRA:                  -0.034
REMARK UNBOUND:                -0.034
REMARK SMILES COc1ccc2ccc(=O)oc2c1
REMARK SMILES IDX 3 1 13 2 12 3 6 4 5 5 4 6 7 7 8 8 9 9 10 10 11 11 2 12 1 13
REMARK H PARENT
REMARK Flexibility Score: inf
ROOT
ATOM      1  C   UNL     1       6.038  29.500   0.592  1.00  0.00     0.122 A 
ATOM      2  C   UNL     1       6.404  28.724  -0.526  1.00  0.00     0.094 A 
ATOM      3  C   UNL     1       7.738  28.348  -0.718  1.00  0.00     0.142 A 
ATOM      4  C   UNL     1       8.722  28.747   0.212  1.00  0.00     0.018 A 
ATOM      5  C   UNL     1       8.358  29.518   1.325  1.00  0.00     0.016 A 
ATOM      6  C   UNL     1       7.024  29.889   1.509  1.00  0.00     0.047 A 
ATOM      7  C   UNL     1      10.046  28.355  -0.006  1.00  0.00     0.019 A 
ATOM      8  C   UNL     1      10.355  27.588  -1.129  1.00  0.00     0.094 A 
ATOM      9  C   UNL     1       9.329  27.229  -2.009  1.00  0.00     0.336 A 
ATOM     10  O   UNL     1       9.588  26.537  -3.028  1.00  0.00    -0.246 OA
ATOM     11  O   UNL     1       8.077  27.615  -1.776  1.00  0.00    -0.423 OA
ENDROOT
BRANCH   1  12
ATOM     12  O   UNL     1       4.715  29.902   0.828  1.00  0.00    -0.497 OA
ATOM     13  C   UNL     1       3.846  29.290   1.776  1.00  0.00     0.278 C 
ENDBRANCH   1  12
TORSDOF 1
ENDMDL
MODEL 2
REMARK VINA RESULT:    -5.647      9.163     11.064
REMARK INTER + INTRA:          -6.011
REMARK INTER:                  -5.978
REMARK INTRA:                  -0.033
REMARK UNBOUND:                -0.034
REMARK SMILES COc1ccc2ccc(=O)oc2c1
REMARK SMILES IDX 3 1 13 2 12 3 6 4 5 5 4 6 7 7 8 8 9 9 10 10 11 11 2 12 1 13
REMARK H PARENT
REMARK Flexibility Score: inf
ROOT
ATOM      1  C   UNL     1       3.651  38.605   4.600  1.00  0.00     0.122 A 
ATOM      2  C   UNL     1       2.832  37.716   5.325  1.00  0.00     0.094 A 
ATOM      3  C   UNL     1       2.798  36.358   4.991  1.00  0.00     0.142 A 
ATOM      4  C   UNL     1       3.589  35.876   3.926  1.00  0.00     0.018 A 
ATOM      5  C   UNL     1       4.403  36.759   3.205  1.00  0.00     0.016 A 
ATOM      6  C   UNL     1       4.431  38.115   3.544  1.00  0.00     0.047 A 
ATOM      7  C   UNL     1       3.534  34.513   3.617  1.00  0.00     0.019 A 
ATOM      8  C   UNL     1       2.707  33.675   4.365  1.00  0.00     0.094 A 
ATOM      9  C   UNL     1       1.952  34.222   5.407  1.00  0.00     0.336 A 
ATOM     10  O   UNL     1       1.200  33.483   6.094  1.00  0.00    -0.246 OA
ATOM     11  O   UNL     1       2.023  35.523   5.680  1.00  0.00    -0.423 OA
ENDROOT
BRANCH   1  12
ATOM     12  O   UNL     1       3.718  39.975   4.895  1.00  0.00    -0.497 OA
ATOM     13  C   UNL     1       4.714  40.571   5.721  1.00  0.00     0.278 C 
ENDBRANCH   1  12
TORSDOF 1
ENDMDL
MODEL 3
REMARK VINA RESULT:    -5.624      1.723      5.345
REMARK INTER + INTRA:          -5.986
REMARK INTER:                  -5.953
REMARK INTRA:                  -0.033
REMARK UNBOUND:                -0.034
REMARK SMILES COc1ccc2ccc(=O)oc2c1
REMARK SMILES IDX 3 1 13 2 12 3 6 4 5 5 4 6 7 7 8 8 9 9 10 10 11 11 2 12 1 13
REMARK H PARENT
REMARK Flexibility Score: inf
ROOT
ATOM      1  C   UNL     1      10.618  27.612  -0.987  1.00  0.00     0.122 A 
ATOM      2  C   UNL     1      10.162  28.385   0.100  1.00  0.00     0.094 A 
ATOM      3  C   UNL     1       8.812  28.742   0.195  1.00  0.00     0.142 A 
ATOM      4  C   UNL     1       7.903  28.325  -0.802  1.00  0.00     0.018 A 
ATOM      5  C   UNL     1       8.356  27.556  -1.882  1.00  0.00     0.016 A 
ATOM      6  C   UNL     1       9.706  27.204  -1.969  1.00  0.00     0.047 A 
ATOM      7  C   UNL     1       6.561  28.696  -0.680  1.00  0.00     0.019 A 
ATOM      8  C   UNL     1       6.161  29.463   0.415  1.00  0.00     0.094 A 
ATOM      9  C   UNL     1       7.117  29.840   1.364  1.00  0.00     0.336 A 
ATOM     10  O   UNL     1       6.775  30.531   2.359  1.00  0.00    -0.246 OA
ATOM     11  O   UNL     1       8.387  29.472   1.223  1.00  0.00    -0.423 OA
ENDROOT
BRANCH   1  12
ATOM     12  O   UNL     1      11.960  27.230  -1.126  1.00  0.00    -0.497 OA
ATOM     13  C   UNL     1      12.976  28.053  -1.690  1.00  0.00     0.278 C 
ENDBRANCH   1  12
TORSDOF 1
ENDMDL
MODEL 4
REMARK VINA RESULT:    -5.579      1.458      1.734
REMARK INTER + INTRA:          -5.938
REMARK INTER:                  -5.905
REMARK INTRA:                  -0.033
REMARK UNBOUND:                -0.034
REMARK SMILES COc1ccc2ccc(=O)oc2c1
REMARK SMILES IDX 3 1 13 2 12 3 6 4 5 5 4 6 7 7 8 8 9 9 10 10 11 11 2 12 1 13
REMARK H PARENT
REMARK Flexibility Score: inf
ROOT
ATOM      1  C   UNL     1       5.365  28.346  -0.714  1.00  0.00     0.122 A 
ATOM      2  C   UNL     1       6.460  27.711  -1.335  1.00  0.00     0.094 A 
ATOM      3  C   UNL     1       7.763  27.955  -0.888  1.00  0.00     0.142 A 
ATOM      4  C   UNL     1       7.982  28.838   0.191  1.00  0.00     0.018 A 
ATOM      5  C   UNL     1       6.894  29.469   0.809  1.00  0.00     0.016 A 
ATOM      6  C   UNL     1       5.596  29.220   0.356  1.00  0.00     0.047 A 
ATOM      7  C   UNL     1       9.296  29.061   0.616  1.00  0.00     0.019 A 
ATOM      8  C   UNL     1      10.344  28.409  -0.034  1.00  0.00     0.094 A 
ATOM      9  C   UNL     1      10.052  27.547  -1.096  1.00  0.00     0.336 A 
ATOM     10  O   UNL     1      10.984  26.949  -1.694  1.00  0.00    -0.246 OA
ATOM     11  O   UNL     1       8.793  27.353  -1.479  1.00  0.00    -0.423 OA
ENDROOT
BRANCH   1  12
ATOM     12  O   UNL     1       4.041  28.134  -1.126  1.00  0.00    -0.497 OA
ATOM     13  C   UNL     1       3.154  27.194  -0.529  1.00  0.00     0.278 C 
ENDBRANCH   1  12
TORSDOF 1
ENDMDL
MODEL 5
REMARK VINA RESULT:    -5.572      1.637      2.467
REMARK INTER + INTRA:          -5.931
REMARK INTER:                  -5.897
REMARK INTRA:                  -0.033
REMARK UNBOUND:                -0.034
REMARK SMILES COc1ccc2ccc(=O)oc2c1
REMARK SMILES IDX 3 1 13 2 12 3 6 4 5 5 4 6 7 7 8 8 9 9 10 10 11 11 2 12 1 13
REMARK H PARENT
REMARK Flexibility Score: inf
ROOT
ATOM      1  C   UNL     1       7.132  29.894   1.414  1.00  0.00     0.122 A 
ATOM      2  C   UNL     1       8.461  29.431   1.326  1.00  0.00     0.094 A 
ATOM      3  C   UNL     1       8.855  28.619   0.257  1.00  0.00     0.142 A 
ATOM      4  C   UNL     1       7.919  28.263  -0.738  1.00  0.00     0.018 A 
ATOM      5  C   UNL     1       6.599  28.723  -0.651  1.00  0.00     0.016 A 
ATOM      6  C   UNL     1       6.212  29.533   0.420  1.00  0.00     0.047 A 
ATOM      7  C   UNL     1       8.343  27.451  -1.794  1.00  0.00     0.019 A 
ATOM      8  C   UNL     1       9.669  27.019  -1.834  1.00  0.00     0.094 A 
ATOM      9  C   UNL     1      10.542  27.412  -0.814  1.00  0.00     0.336 A 
ATOM     10  O   UNL     1      11.741  27.033  -0.832  1.00  0.00    -0.246 OA
ATOM     11  O   UNL     1      10.111  28.186   0.179  1.00  0.00    -0.423 OA
ENDROOT
BRANCH   1  12
ATOM     12  O   UNL     1       6.688  30.710   2.465  1.00  0.00    -0.497 OA
ATOM     13  C   UNL     1       7.079  32.066   2.650  1.00  0.00     0.278 C 
ENDBRANCH   1  12
TORSDOF 1
ENDMDL
MODEL 6
REMARK VINA RESULT:    -5.521      1.544      4.659
REMARK INTER + INTRA:          -5.877
REMARK INTER:                  -5.838
REMARK INTRA:                  -0.039
REMARK UNBOUND:                -0.034
REMARK SMILES COc1ccc2ccc(=O)oc2c1
REMARK SMILES IDX 3 1 13 2 12 3 6 4 5 5 4 6 7 7 8 8 9 9 10 10 11 11 2 12 1 13
REMARK H PARENT
REMARK Flexibility Score: inf
ROOT
ATOM      1  C   UNL     1       9.839  27.734  -1.035  1.00  0.00     0.122 A 
ATOM      2  C   UNL     1       8.603  27.459  -1.657  1.00  0.00     0.094 A 
ATOM      3  C   UNL     1       7.415  27.965  -1.118  1.00  0.00     0.142 A 
ATOM      4  C   UNL     1       7.454  28.754   0.052  1.00  0.00     0.018 A 
ATOM      5  C   UNL     1       8.681  29.027   0.670  1.00  0.00     0.016 A 
ATOM      6  C   UNL     1       9.864  28.518   0.125  1.00  0.00     0.047 A 
ATOM      7  C   UNL     1       6.250  29.245   0.566  1.00  0.00     0.019 A 
ATOM      8  C   UNL     1       5.054  28.944  -0.086  1.00  0.00     0.094 A 
ATOM      9  C   UNL     1       5.092  28.156  -1.241  1.00  0.00     0.336 A 
ATOM     10  O   UNL     1       4.025  27.874  -1.845  1.00  0.00    -0.246 OA
ATOM     11  O   UNL     1       6.252  27.702  -1.709  1.00  0.00    -0.423 OA
ENDROOT
BRANCH   1  12
ATOM     12  O   UNL     1      11.056  27.250  -1.537  1.00  0.00    -0.497 OA
ATOM     13  C   UNL     1      12.328  27.824  -1.252  1.00  0.00     0.278 C 
ENDBRANCH   1  12
TORSDOF 1
ENDMDL
MODEL 7
REMARK VINA RESULT:    -5.484      9.021     10.739
REMARK INTER + INTRA:          -5.838
REMARK INTER:                  -5.799
REMARK INTRA:                  -0.040
REMARK UNBOUND:                -0.034
REMARK SMILES COc1ccc2ccc(=O)oc2c1
REMARK SMILES IDX 3 1 13 2 12 3 6 4 5 5 4 6 7 7 8 8 9 9 10 10 11 11 2 12 1 13
REMARK H PARENT
REMARK Flexibility Score: inf
ROOT
ATOM      1  C   UNL     1       2.254  34.360   5.118  1.00  0.00     0.122 A 
ATOM      2  C   UNL     1       2.244  35.717   5.498  1.00  0.00     0.094 A 
ATOM      3  C   UNL     1       3.055  36.642   4.830  1.00  0.00     0.142 A 
ATOM      4  C   UNL     1       3.884  36.215   3.771  1.00  0.00     0.018 A 
ATOM      5  C   UNL     1       3.894  34.866   3.393  1.00  0.00     0.016 A 
ATOM      6  C   UNL     1       3.082  33.948   4.065  1.00  0.00     0.047 A 
ATOM      7  C   UNL     1       4.681  37.162   3.122  1.00  0.00     0.019 A 
ATOM      8  C   UNL     1       4.635  38.493   3.537  1.00  0.00     0.094 A 
ATOM      9  C   UNL     1       3.789  38.845   4.594  1.00  0.00     0.336 A 
ATOM     10  O   UNL     1       3.733  40.041   4.983  1.00  0.00    -0.246 OA
ATOM     11  O   UNL     1       3.041  37.923   5.193  1.00  0.00    -0.423 OA
ENDROOT
BRANCH   1  12
ATOM     12  O   UNL     1       1.461  33.395   5.756  1.00  0.00    -0.497 OA
ATOM     13  C   UNL     1       1.617  31.989   5.592  1.00  0.00     0.278 C 
ENDBRANCH   1  12
TORSDOF 1
ENDMDL
MODEL 8
REMARK VINA RESULT:    -5.416      7.768     10.785
REMARK INTER + INTRA:          -5.766
REMARK INTER:                  -5.729
REMARK INTRA:                  -0.036
REMARK UNBOUND:                -0.034
REMARK SMILES COc1ccc2ccc(=O)oc2c1
REMARK SMILES IDX 3 1 13 2 12 3 6 4 5 5 4 6 7 7 8 8 9 9 10 10 11 11 2 12 1 13
REMARK H PARENT
REMARK Flexibility Score: inf
ROOT
ATOM      1  C   UNL     1       3.930  34.552   2.913  1.00  0.00     0.122 A 
ATOM      2  C   UNL     1       4.225  35.930   2.879  1.00  0.00     0.094 A 
ATOM      3  C   UNL     1       3.793  36.769   3.911  1.00  0.00     0.142 A 
ATOM      4  C   UNL     1       3.059  36.234   4.992  1.00  0.00     0.018 A 
ATOM      5  C   UNL     1       2.765  34.864   5.026  1.00  0.00     0.016 A 
ATOM      6  C   UNL     1       3.200  34.032   3.991  1.00  0.00     0.047 A 
ATOM      7  C   UNL     1       2.641  37.098   6.009  1.00  0.00     0.019 A 
ATOM      8  C   UNL     1       2.959  38.454   5.927  1.00  0.00     0.094 A 
ATOM      9  C   UNL     1       3.690  38.914   4.827  1.00  0.00     0.336 A 
ATOM     10  O   UNL     1       3.987  40.133   4.736  1.00  0.00    -0.246 OA
ATOM     11  O   UNL     1       4.075  38.069   3.874  1.00  0.00    -0.423 OA
ENDROOT
BRANCH   1  12
ATOM     12  O   UNL     1       4.340  33.670   1.902  1.00  0.00    -0.497 OA
ATOM     13  C   UNL     1       4.323  33.977   0.512  1.00  0.00     0.278 C 
ENDBRANCH   1  12
TORSDOF 1
ENDMDL
MODEL 9
REMARK VINA RESULT:    -5.409      7.324     10.465
REMARK INTER + INTRA:          -5.759
REMARK INTER:                  -5.719
REMARK INTRA:                  -0.039
REMARK UNBOUND:                -0.034
REMARK SMILES COc1ccc2ccc(=O)oc2c1
REMARK SMILES IDX 3 1 13 2 12 3 6 4 5 5 4 6 7 7 8 8 9 9 10 10 11 11 2 12 1 13
REMARK H PARENT
REMARK Flexibility Score: inf
ROOT
ATOM      1  C   UNL     1       3.568  33.736   3.351  1.00  0.00     0.122 A 
ATOM      2  C   UNL     1       3.036  34.346   4.505  1.00  0.00     0.094 A 
ATOM      3  C   UNL     1       3.165  35.726   4.696  1.00  0.00     0.142 A 
ATOM      4  C   UNL     1       3.829  36.510   3.729  1.00  0.00     0.018 A 
ATOM      5  C   UNL     1       4.357  35.904   2.581  1.00  0.00     0.016 A 
ATOM      6  C   UNL     1       4.225  34.525   2.398  1.00  0.00     0.047 A 
ATOM      7  C   UNL     1       3.941  37.887   3.947  1.00  0.00     0.019 A 
ATOM      8  C   UNL     1       3.398  38.441   5.107  1.00  0.00     0.094 A 
ATOM      9  C   UNL     1       2.754  37.603   6.022  1.00  0.00     0.336 A 
ATOM     10  O   UNL     1       2.257  38.084   7.073  1.00  0.00    -0.246 OA
ATOM     11  O   UNL     1       2.661  36.296   5.788  1.00  0.00    -0.423 OA
ENDROOT
BRANCH   1  12
ATOM     12  O   UNL     1       3.465  32.356   3.115  1.00  0.00    -0.497 OA
ATOM     13  C   UNL     1       3.607  31.748   1.835  1.00  0.00     0.278 C 
ENDBRANCH   1  12
TORSDOF 1
ENDMDL
