MODEL 1
REMARK VINA RESULT:    -2.634      0.000      0.000
REMARK INTER + INTRA:          -2.975
REMARK INTER:                  -2.942
REMARK INTRA:                  -0.032
REMARK UNBOUND:                -0.032
REMARK SMILES CCCC(=O)[O-]
REMARK SMILES IDX 3 1 4 2 5 3 6 4 2 5 1 6
REMARK H PARENT
REMARK Flexibility Score: inf
ROOT
ATOM      1  C   UNL     1       0.965  -3.262   1.240  1.00  0.00     0.052 C 
ENDROOT
BRANCH   1   2
ATOM      2  C   UNL     1       1.915  -3.242   0.081  1.00  0.00     0.041 C 
ATOM      3  O   UNL     1       1.534  -3.620  -1.058  1.00  0.00    -0.550 OA
ATOM      4  O   UNL     1       3.212  -2.774   0.253  1.00  0.00    -0.550 OA
ENDBRANCH   1   2
BRANCH   1   5
ATOM      5  C   UNL     1       1.700  -3.454   2.573  1.00  0.00     0.003 C 
ATOM      6  C   UNL     1       1.371  -2.356   3.583  1.00  0.00     0.004 C 
ENDBRANCH   1   5
TORSDOF 2
ENDMDL
MODEL 2
REMARK VINA RESULT:    -2.577      1.641      2.300
REMARK INTER + INTRA:          -2.910
REMARK INTER:                  -2.849
REMARK INTRA:                  -0.061
REMARK UNBOUND:                -0.032
REMARK SMILES CCCC(=O)[O-]
REMARK SMILES IDX 3 1 4 2 5 3 6 4 2 5 1 6
REMARK H PARENT
REMARK Flexibility Score: inf
ROOT
ATOM      1  C   UNL     1       2.389  -3.820   2.320  1.00  0.00     0.052 C 
ENDROOT
BRANCH   1   2
ATOM      2  C   UNL     1       3.425  -3.867   1.238  1.00  0.00     0.041 C 
ATOM      3  O   UNL     1       4.024  -4.945   0.981  1.00  0.00    -0.550 OA
ATOM      4  O   UNL     1       3.704  -2.729   0.493  1.00  0.00    -0.550 OA
ENDBRANCH   1   2
BRANCH   1   5
ATOM      5  C   UNL     1       1.138  -3.052   1.874  1.00  0.00     0.003 C 
ATOM      6  C   UNL     1       0.337  -3.810   0.816  1.00  0.00     0.004 C 
ENDBRANCH   1   5
TORSDOF 2
ENDMDL
MODEL 3
REMARK VINA RESULT:    -2.500      1.841      3.113
REMARK INTER + INTRA:          -2.824
REMARK INTER:                  -2.786
REMARK INTRA:                  -0.038
REMARK UNBOUND:                -0.032
REMARK SMILES CCCC(=O)[O-]
REMARK SMILES IDX 3 1 4 2 5 3 6 4 2 5 1 6
REMARK H PARENT
REMARK Flexibility Score: inf
ROOT
ATOM      1  C   UNL     1       1.223  -3.419   0.684  1.00  0.00     0.052 C 
ENDROOT
BRANCH   1   2
ATOM      2  C   UNL     1       2.635  -3.456   1.185  1.00  0.00     0.041 C 
ATOM      3  O   UNL     1       2.923  -4.106   2.224  1.00  0.00    -0.550 OA
ATOM      4  O   UNL     1       3.638  -2.797   0.484  1.00  0.00    -0.550 OA
ENDBRANCH   1   2
BRANCH   1   5
ATOM      5  C   UNL     1       1.157  -3.578  -0.840  1.00  0.00     0.003 C 
ATOM      6  C   UNL     1       0.938  -5.030  -1.264  1.00  0.00     0.004 C 
ENDBRANCH   1   5
TORSDOF 2
ENDMDL
MODEL 4
REMARK VINA RESULT:    -2.355      2.270      3.501
REMARK INTER + INTRA:          -2.662
REMARK INTER:                  -2.625
REMARK INTRA:                  -0.037
REMARK UNBOUND:                -0.032
REMARK SMILES CCCC(=O)[O-]
REMARK SMILES IDX 3 1 4 2 5 3 6 4 2 5 1 6
REMARK H PARENT
REMARK Flexibility Score: inf
ROOT
ATOM      1  C   UNL     1       1.931  -3.633   0.907  1.00  0.00     0.052 C 
ENDROOT
BRANCH   1   2
ATOM      2  C   UNL     1       1.042  -3.183   2.027  1.00  0.00     0.041 C 
ATOM      3  O   UNL     1       1.250  -2.082   2.599  1.00  0.00    -0.550 OA
ATOM      4  O   UNL     1      -0.038  -3.968   2.414  1.00  0.00    -0.550 OA
ENDBRANCH   1   2
BRANCH   1   5
ATOM      5  C   UNL     1       1.398  -3.179  -0.458  1.00  0.00     0.003 C 
ATOM      6  C   UNL     1       0.441  -4.197  -1.077  1.00  0.00     0.004 C 
ENDBRANCH   1   5
TORSDOF 2
ENDMDL
MODEL 5
REMARK VINA RESULT:    -2.294     12.825     13.460
REMARK INTER + INTRA:          -2.595
REMARK INTER:                  -2.560
REMARK INTRA:                  -0.035
REMARK UNBOUND:                -0.032
REMARK SMILES CCCC(=O)[O-]
REMARK SMILES IDX 3 1 4 2 5 3 6 4 2 5 1 6
REMARK H PARENT
REMARK Flexibility Score: inf
ROOT
ATOM      1  C   UNL     1       7.237   9.898   2.347  1.00  0.00     0.052 C 
ENDROOT
BRANCH   1   2
ATOM      2  C   UNL     1       6.361   9.039   1.485  1.00  0.00     0.041 C 
ATOM      3  O   UNL     1       5.803   8.018   1.965  1.00  0.00    -0.550 OA
ATOM      4  O   UNL     1       6.136   9.388   0.158  1.00  0.00    -0.550 OA
ENDBRANCH   1   2
BRANCH   1   5
ATOM      5  C   UNL     1       8.082   9.057   3.312  1.00  0.00     0.003 C 
ATOM      6  C   UNL     1       7.883   9.469   4.770  1.00  0.00     0.004 C 
ENDBRANCH   1   5
TORSDOF 2
ENDMDL
MODEL 6
REMARK VINA RESULT:    -2.268     11.941     12.463
REMARK INTER + INTRA:          -2.565
REMARK INTER:                  -2.538
REMARK INTRA:                  -0.027
REMARK UNBOUND:                -0.032
REMARK SMILES CCCC(=O)[O-]
REMARK SMILES IDX 3 1 4 2 5 3 6 4 2 5 1 6
REMARK H PARENT
REMARK Flexibility Score: inf
ROOT
ATOM      1  C   UNL     1       8.244   7.959   1.908  1.00  0.00     0.052 C 
ENDROOT
BRANCH   1   2
ATOM      2  C   UNL     1       8.582   6.894   0.909  1.00  0.00     0.041 C 
ATOM      3  O   UNL     1       8.659   5.690   1.267  1.00  0.00    -0.550 OA
ATOM      4  O   UNL     1       8.778   7.230  -0.425  1.00  0.00    -0.550 OA
ENDBRANCH   1   2
BRANCH   1   5
ATOM      5  C   UNL     1       6.738   8.249   1.941  1.00  0.00     0.003 C 
ATOM      6  C   UNL     1       6.326   9.301   0.913  1.00  0.00     0.004 C 
ENDBRANCH   1   5
TORSDOF 2
ENDMDL
MODEL 7
REMARK VINA RESULT:    -2.190     17.490     17.849
REMARK INTER + INTRA:          -2.478
REMARK INTER:                  -2.442
REMARK INTRA:                  -0.036
REMARK UNBOUND:                -0.032
REMARK SMILES CCCC(=O)[O-]
REMARK SMILES IDX 3 1 4 2 5 3 6 4 2 5 1 6
REMARK H PARENT
REMARK Flexibility Score: inf
ROOT
ATOM      1  C   UNL     1      -4.086  12.662  -0.297  1.00  0.00     0.052 C 
ENDROOT
BRANCH   1   2
ATOM      2  C   UNL     1      -2.923  13.602  -0.193  1.00  0.00     0.041 C 
ATOM      3  O   UNL     1      -2.365  14.038  -1.234  1.00  0.00    -0.550 OA
ATOM      4  O   UNL     1      -2.478  14.022   1.054  1.00  0.00    -0.550 OA
ENDBRANCH   1   2
BRANCH   1   5
ATOM      5  C   UNL     1      -5.412  13.362   0.030  1.00  0.00     0.003 C 
ATOM      6  C   UNL     1      -6.162  13.801  -1.226  1.00  0.00     0.004 C 
ENDBRANCH   1   5
TORSDOF 2
ENDMDL
MODEL 8
REMARK VINA RESULT:    -2.180     10.231     10.727
REMARK INTER + INTRA:          -2.467
REMARK INTER:                  -2.441
REMARK INTRA:                  -0.026
REMARK UNBOUND:                -0.032
REMARK SMILES CCCC(=O)[O-]
REMARK SMILES IDX 3 1 4 2 5 3 6 4 2 5 1 6
REMARK H PARENT
REMARK Flexibility Score: inf
ROOT
ATOM      1  C   UNL     1      10.420   4.057   1.297  1.00  0.00     0.052 C 
ENDROOT
BRANCH   1   2
ATOM      2  C   UNL     1       9.640   2.782   1.185  1.00  0.00     0.041 C 
ATOM      3  O   UNL     1       9.357   2.308   0.053  1.00  0.00    -0.550 OA
ATOM      4  O   UNL     1       9.255   2.100   2.333  1.00  0.00    -0.550 OA
ENDBRANCH   1   2
BRANCH   1   5
ATOM      5  C   UNL     1       9.991   5.079   0.237  1.00  0.00     0.003 C 
ATOM      6  C   UNL     1       9.134   6.200   0.824  1.00  0.00     0.004 C 
ENDBRANCH   1   5
TORSDOF 2
ENDMDL
MODEL 9
REMARK VINA RESULT:    -2.150     13.114     13.733
REMARK INTER + INTRA:          -2.434
REMARK INTER:                  -2.428
REMARK INTRA:                  -0.005
REMARK UNBOUND:                -0.032
REMARK SMILES CCCC(=O)[O-]
REMARK SMILES IDX 3 1 4 2 5 3 6 4 2 5 1 6
REMARK H PARENT
REMARK Flexibility Score: inf
ROOT
ATOM      1  C   UNL     1       7.248   8.937   0.005  1.00  0.00     0.052 C 
ENDROOT
BRANCH   1   2
ATOM      2  C   UNL     1       6.550   9.223   1.301  1.00  0.00     0.041 C 
ATOM      3  O   UNL     1       5.854   8.333   1.855  1.00  0.00    -0.550 OA
ATOM      4  O   UNL     1       6.698  10.462   1.911  1.00  0.00    -0.550 OA
ENDBRANCH   1   2
BRANCH   1   5
ATOM      5  C   UNL     1       6.536   9.602  -1.181  1.00  0.00     0.003 C 
ATOM      6  C   UNL     1       6.889   8.944  -2.514  1.00  0.00     0.004 C 
ENDBRANCH   1   5
TORSDOF 2
ENDMDL
