MODEL 1
REMARK VINA RESULT:    -3.490      0.000      0.000
REMARK INTER + INTRA:          -5.099
REMARK INTER:                  -4.919
REMARK INTRA:                  -0.180
REMARK UNBOUND:                -0.180
REMARK SMILES CCCCCCCCC(=O)[O-]
REMARK SMILES IDX 6 1 7 2 8 3 9 4 10 5 11 6 5 7 4 8 3 9 2 10 1 11
REMARK H PARENT
REMARK Flexibility Score: inf
ROOT
ATOM      1  C   UNL     1      15.411   1.558  -1.946  1.00  0.00     0.000 C 
ENDROOT
BRANCH   1   2
ATOM      2  C   UNL     1      16.876   1.989  -1.815  1.00  0.00     0.006 C 
BRANCH   2   3
ATOM      3  C   UNL     1      17.668   1.638  -3.078  1.00  0.00     0.053 C 
BRANCH   3   4
ATOM      4  C   UNL     1      19.098   1.360  -2.739  1.00  0.00     0.041 C 
ATOM      5  O   UNL     1      19.476   0.182  -2.503  1.00  0.00    -0.550 OA
ATOM      6  O   UNL     1      20.005   2.407  -2.636  1.00  0.00    -0.550 OA
ENDBRANCH   3   4
ENDBRANCH   2   3
ENDBRANCH   1   2
BRANCH   1   7
ATOM      7  C   UNL     1      14.532   2.724  -2.414  1.00  0.00     0.000 C 
BRANCH   7   8
ATOM      8  C   UNL     1      14.144   3.628  -1.239  1.00  0.00    -0.000 C 
BRANCH   8   9
ATOM      9  C   UNL     1      13.136   4.697  -1.675  1.00  0.00    -0.000 C 
BRANCH   9  10
ATOM     10  C   UNL     1      12.099   4.957  -0.576  1.00  0.00    -0.003 C 
ATOM     11  C   UNL     1      10.680   4.902  -1.134  1.00  0.00     0.004 C 
ENDBRANCH   9  10
ENDBRANCH   8   9
ENDBRANCH   7   8
ENDBRANCH   1   7
TORSDOF 7
ENDMDL
MODEL 2
REMARK VINA RESULT:    -3.480      1.188      2.007
REMARK INTER + INTRA:          -5.085
REMARK INTER:                  -4.792
REMARK INTRA:                  -0.293
REMARK UNBOUND:                -0.180
REMARK SMILES CCCCCCCCC(=O)[O-]
REMARK SMILES IDX 6 1 7 2 8 3 9 4 10 5 11 6 5 7 4 8 3 9 2 10 1 11
REMARK H PARENT
REMARK Flexibility Score: inf
ROOT
ATOM      1  C   UNL     1      13.993   3.149  -2.573  1.00  0.00     0.000 C 
ENDROOT
BRANCH   1   2
ATOM      2  C   UNL     1      14.826   1.882  -2.349  1.00  0.00     0.006 C 
BRANCH   2   3
ATOM      3  C   UNL     1      16.285   2.230  -2.038  1.00  0.00     0.053 C 
BRANCH   3   4
ATOM      4  C   UNL     1      17.202   1.184  -2.588  1.00  0.00     0.041 C 
ATOM      5  O   UNL     1      16.731   0.147  -3.124  1.00  0.00    -0.550 OA
ATOM      6  O   UNL     1      18.578   1.331  -2.465  1.00  0.00    -0.550 OA
ENDBRANCH   3   4
ENDBRANCH   2   3
ENDBRANCH   1   2
BRANCH   1   7
ATOM      7  C   UNL     1      13.749   3.889  -1.252  1.00  0.00     0.000 C 
BRANCH   7   8
ATOM      8  C   UNL     1      12.882   5.134  -1.470  1.00  0.00    -0.000 C 
BRANCH   8   9
ATOM      9  C   UNL     1      11.697   5.158  -0.497  1.00  0.00    -0.000 C 
BRANCH   9  10
ATOM     10  C   UNL     1      10.367   5.259  -1.253  1.00  0.00    -0.003 C 
ATOM     11  C   UNL     1      10.404   4.445  -2.544  1.00  0.00     0.004 C 
ENDBRANCH   9  10
ENDBRANCH   8   9
ENDBRANCH   7   8
ENDBRANCH   1   7
TORSDOF 7
ENDMDL
MODEL 3
REMARK VINA RESULT:    -3.428      1.784      3.013
REMARK INTER + INTRA:          -5.011
REMARK INTER:                  -4.632
REMARK INTRA:                  -0.379
REMARK UNBOUND:                -0.180
REMARK SMILES CCCCCCCCC(=O)[O-]
REMARK SMILES IDX 6 1 7 2 8 3 9 4 10 5 11 6 5 7 4 8 3 9 2 10 1 11
REMARK H PARENT
REMARK Flexibility Score: inf
ROOT
ATOM      1  C   UNL     1      12.798   3.552  -2.427  1.00  0.00     0.000 C 
ENDROOT
BRANCH   1   2
ATOM      2  C   UNL     1      13.939   2.613  -2.837  1.00  0.00     0.006 C 
BRANCH   2   3
ATOM      3  C   UNL     1      15.123   2.732  -1.873  1.00  0.00     0.053 C 
BRANCH   3   4
ATOM      4  C   UNL     1      16.193   1.752  -2.234  1.00  0.00     0.041 C 
ATOM      5  O   UNL     1      17.401   2.012  -1.989  1.00  0.00    -0.550 OA
ATOM      6  O   UNL     1      15.863   0.571  -2.888  1.00  0.00    -0.550 OA
ENDBRANCH   3   4
ENDBRANCH   2   3
ENDBRANCH   1   2
BRANCH   1   7
ATOM      7  C   UNL     1      13.249   4.521  -1.327  1.00  0.00     0.000 C 
BRANCH   7   8
ATOM      8  C   UNL     1      12.070   4.934  -0.440  1.00  0.00    -0.000 C 
BRANCH   8   9
ATOM      9  C   UNL     1      10.785   5.080  -1.263  1.00  0.00    -0.000 C 
BRANCH   9  10
ATOM     10  C   UNL     1      10.170   6.472  -1.082  1.00  0.00    -0.003 C 
ATOM     11  C   UNL     1      11.132   7.563  -1.546  1.00  0.00     0.004 C 
ENDBRANCH   9  10
ENDBRANCH   8   9
ENDBRANCH   7   8
ENDBRANCH   1   7
TORSDOF 7
ENDMDL
MODEL 4
REMARK VINA RESULT:    -3.425      0.720      1.533
REMARK INTER + INTRA:          -5.006
REMARK INTER:                  -4.790
REMARK INTRA:                  -0.216
REMARK UNBOUND:                -0.180
REMARK SMILES CCCCCCCCC(=O)[O-]
REMARK SMILES IDX 6 1 7 2 8 3 9 4 10 5 11 6 5 7 4 8 3 9 2 10 1 11
REMARK H PARENT
REMARK Flexibility Score: inf
ROOT
ATOM      1  C   UNL     1      16.443   1.859  -1.680  1.00  0.00     0.000 C 
ENDROOT
BRANCH   1   2
ATOM      2  C   UNL     1      17.518   1.884  -2.773  1.00  0.00     0.006 C 
BRANCH   2   3
ATOM      3  C   UNL     1      18.277   0.555  -2.827  1.00  0.00     0.053 C 
BRANCH   3   4
ATOM      4  C   UNL     1      19.718   0.762  -2.483  1.00  0.00     0.041 C 
ATOM      5  O   UNL     1      20.218   1.918  -2.513  1.00  0.00    -0.550 OA
ATOM      6  O   UNL     1      20.523  -0.328  -2.177  1.00  0.00    -0.550 OA
ENDBRANCH   3   4
ENDBRANCH   2   3
ENDBRANCH   1   2
BRANCH   1   7
ATOM      7  C   UNL     1      15.045   1.675  -2.284  1.00  0.00     0.000 C 
BRANCH   7   8
ATOM      8  C   UNL     1      14.418   3.026  -2.643  1.00  0.00    -0.000 C 
BRANCH   8   9
ATOM      9  C   UNL     1      13.954   3.770  -1.385  1.00  0.00    -0.000 C 
BRANCH   9  10
ATOM     10  C   UNL     1      12.811   4.739  -1.708  1.00  0.00    -0.003 C 
ATOM     11  C   UNL     1      11.963   5.024  -0.472  1.00  0.00     0.004 C 
ENDBRANCH   9  10
ENDBRANCH   8   9
ENDBRANCH   7   8
ENDBRANCH   1   7
TORSDOF 7
ENDMDL
MODEL 5
REMARK VINA RESULT:    -3.389      5.304      7.691
REMARK INTER + INTRA:          -4.956
REMARK INTER:                  -4.667
REMARK INTRA:                  -0.288
REMARK UNBOUND:                -0.180
REMARK SMILES CCCCCCCCC(=O)[O-]
REMARK SMILES IDX 6 1 7 2 8 3 9 4 10 5 11 6 5 7 4 8 3 9 2 10 1 11
REMARK H PARENT
REMARK Flexibility Score: inf
ROOT
ATOM      1  C   UNL     1      12.514   4.856  -0.836  1.00  0.00     0.000 C 
ENDROOT
BRANCH   1   2
ATOM      2  C   UNL     1      11.098   5.332  -0.493  1.00  0.00     0.006 C 
BRANCH   2   3
ATOM      3  C   UNL     1      10.870   6.770  -0.969  1.00  0.00     0.053 C 
BRANCH   3   4
ATOM      4  C   UNL     1       9.488   6.927  -1.518  1.00  0.00     0.041 C 
ATOM      5  O   UNL     1       9.057   6.127  -2.390  1.00  0.00    -0.550 OA
ATOM      6  O   UNL     1       8.691   7.987  -1.103  1.00  0.00    -0.550 OA
ENDBRANCH   3   4
ENDBRANCH   2   3
ENDBRANCH   1   2
BRANCH   1   7
ATOM      7  C   UNL     1      12.522   4.037  -2.132  1.00  0.00     0.000 C 
BRANCH   7   8
ATOM      8  C   UNL     1      13.944   3.597  -2.496  1.00  0.00    -0.000 C 
BRANCH   8   9
ATOM      9  C   UNL     1      14.739   3.208  -1.244  1.00  0.00    -0.000 C 
BRANCH   9  10
ATOM     10  C   UNL     1      16.040   2.488  -1.619  1.00  0.00    -0.003 C 
ATOM     11  C   UNL     1      15.767   1.054  -2.063  1.00  0.00     0.004 C 
ENDBRANCH   9  10
ENDBRANCH   8   9
ENDBRANCH   7   8
ENDBRANCH   1   7
TORSDOF 7
ENDMDL
MODEL 6
REMARK VINA RESULT:    -3.378      4.921      7.339
REMARK INTER + INTRA:          -4.941
REMARK INTER:                  -4.568
REMARK INTRA:                  -0.374
REMARK UNBOUND:                -0.180
REMARK SMILES CCCCCCCCC(=O)[O-]
REMARK SMILES IDX 6 1 7 2 8 3 9 4 10 5 11 6 5 7 4 8 3 9 2 10 1 11
REMARK H PARENT
REMARK Flexibility Score: inf
ROOT
ATOM      1  C   UNL     1      12.826   4.781  -0.838  1.00  0.00     0.000 C 
ENDROOT
BRANCH   1   2
ATOM      2  C   UNL     1      11.397   5.152  -0.423  1.00  0.00     0.006 C 
BRANCH   2   3
ATOM      3  C   UNL     1      10.603   5.701  -1.612  1.00  0.00     0.053 C 
BRANCH   3   4
ATOM      4  C   UNL     1      10.304   7.153  -1.416  1.00  0.00     0.041 C 
ATOM      5  O   UNL     1       9.131   7.528  -1.151  1.00  0.00    -0.550 OA
ATOM      6  O   UNL     1      11.309   8.098  -1.574  1.00  0.00    -0.550 OA
ENDBRANCH   3   4
ENDBRANCH   2   3
ENDBRANCH   1   2
BRANCH   1   7
ATOM      7  C   UNL     1      12.860   4.231  -2.268  1.00  0.00     0.000 C 
BRANCH   7   8
ATOM      8  C   UNL     1      13.938   3.152  -2.419  1.00  0.00    -0.000 C 
BRANCH   8   9
ATOM      9  C   UNL     1      14.938   3.207  -1.258  1.00  0.00    -0.000 C 
BRANCH   9  10
ATOM     10  C   UNL     1      16.184   2.368  -1.565  1.00  0.00    -0.003 C 
ATOM     11  C   UNL     1      15.818   1.094  -2.321  1.00  0.00     0.004 C 
ENDBRANCH   9  10
ENDBRANCH   8   9
ENDBRANCH   7   8
ENDBRANCH   1   7
TORSDOF 7
ENDMDL
MODEL 7
REMARK VINA RESULT:    -3.330      2.515      4.033
REMARK INTER + INTRA:          -4.873
REMARK INTER:                  -4.564
REMARK INTRA:                  -0.309
REMARK UNBOUND:                -0.180
REMARK SMILES CCCCCCCCC(=O)[O-]
REMARK SMILES IDX 6 1 7 2 8 3 9 4 10 5 11 6 5 7 4 8 3 9 2 10 1 11
REMARK H PARENT
REMARK Flexibility Score: inf
ROOT
ATOM      1  C   UNL     1      12.816   5.159  -1.587  1.00  0.00     0.000 C 
ENDROOT
BRANCH   1   2
ATOM      2  C   UNL     1      13.383   3.781  -1.950  1.00  0.00     0.006 C 
BRANCH   2   3
ATOM      3  C   UNL     1      14.655   3.482  -1.152  1.00  0.00     0.053 C 
BRANCH   3   4
ATOM      4  C   UNL     1      15.462   2.422  -1.832  1.00  0.00     0.041 C 
ATOM      5  O   UNL     1      16.652   2.207  -1.478  1.00  0.00    -0.550 OA
ATOM      6  O   UNL     1      14.918   1.704  -2.889  1.00  0.00    -0.550 OA
ENDBRANCH   3   4
ENDBRANCH   2   3
ENDBRANCH   1   2
BRANCH   1   7
ATOM      7  C   UNL     1      11.805   5.055  -0.439  1.00  0.00     0.000 C 
BRANCH   7   8
ATOM      8  C   UNL     1      10.863   6.263  -0.423  1.00  0.00    -0.000 C 
BRANCH   8   9
ATOM      9  C   UNL     1      11.269   7.293  -1.483  1.00  0.00    -0.000 C 
BRANCH   9  10
ATOM     10  C   UNL     1      10.057   8.106  -1.954  1.00  0.00    -0.003 C 
ATOM     11  C   UNL     1       8.792   7.688  -1.211  1.00  0.00     0.004 C 
ENDBRANCH   9  10
ENDBRANCH   8   9
ENDBRANCH   7   8
ENDBRANCH   1   7
TORSDOF 7
ENDMDL
MODEL 8
REMARK VINA RESULT:    -3.247      4.502      7.070
REMARK INTER + INTRA:          -4.756
REMARK INTER:                  -4.517
REMARK INTRA:                  -0.238
REMARK UNBOUND:                -0.180
REMARK SMILES CCCCCCCCC(=O)[O-]
REMARK SMILES IDX 6 1 7 2 8 3 9 4 10 5 11 6 5 7 4 8 3 9 2 10 1 11
REMARK H PARENT
REMARK Flexibility Score: inf
ROOT
ATOM      1  C   UNL     1      14.224   3.663  -1.286  1.00  0.00     0.000 C 
ENDROOT
BRANCH   1   2
ATOM      2  C   UNL     1      12.904   4.317  -1.713  1.00  0.00     0.006 C 
BRANCH   2   3
ATOM      3  C   UNL     1      12.155   4.884  -0.503  1.00  0.00     0.053 C 
BRANCH   3   4
ATOM      4  C   UNL     1      10.835   5.449  -0.923  1.00  0.00     0.041 C 
ATOM      5  O   UNL     1      10.416   6.524  -0.418  1.00  0.00    -0.550 OA
ATOM      6  O   UNL     1      10.044   4.762  -1.835  1.00  0.00    -0.550 OA
ENDBRANCH   3   4
ENDBRANCH   2   3
ENDBRANCH   1   2
BRANCH   1   7
ATOM      7  C   UNL     1      14.912   2.981  -2.475  1.00  0.00     0.000 C 
BRANCH   7   8
ATOM      8  C   UNL     1      14.865   1.456  -2.339  1.00  0.00    -0.000 C 
BRANCH   8   9
ATOM      9  C   UNL     1      16.218   0.829  -2.696  1.00  0.00    -0.000 C 
BRANCH   9  10
ATOM     10  C   UNL     1      17.377   1.698  -2.196  1.00  0.00    -0.003 C 
ATOM     11  C   UNL     1      18.723   1.126  -2.633  1.00  0.00     0.004 C 
ENDBRANCH   9  10
ENDBRANCH   8   9
ENDBRANCH   7   8
ENDBRANCH   1   7
TORSDOF 7
ENDMDL
MODEL 9
REMARK VINA RESULT:    -3.172      3.558      6.819
REMARK INTER + INTRA:          -4.650
REMARK INTER:                  -4.481
REMARK INTRA:                  -0.169
REMARK UNBOUND:                -0.180
REMARK SMILES CCCCCCCCC(=O)[O-]
REMARK SMILES IDX 6 1 7 2 8 3 9 4 10 5 11 6 5 7 4 8 3 9 2 10 1 11
REMARK H PARENT
REMARK Flexibility Score: inf
ROOT
ATOM      1  C   UNL     1      15.601   1.316  -2.000  1.00  0.00     0.000 C 
ENDROOT
BRANCH   1   2
ATOM      2  C   UNL     1      14.614   2.361  -2.534  1.00  0.00     0.006 C 
BRANCH   2   3
ATOM      3  C   UNL     1      14.398   3.485  -1.516  1.00  0.00     0.053 C 
BRANCH   3   4
ATOM      4  C   UNL     1      13.036   4.083  -1.677  1.00  0.00     0.041 C 
ATOM      5  O   UNL     1      12.596   4.895  -0.821  1.00  0.00    -0.550 OA
ATOM      6  O   UNL     1      12.233   3.706  -2.746  1.00  0.00    -0.550 OA
ENDBRANCH   3   4
ENDBRANCH   2   3
ENDBRANCH   1   2
BRANCH   1   7
ATOM      7  C   UNL     1      17.035   1.859  -2.001  1.00  0.00     0.000 C 
BRANCH   7   8
ATOM      8  C   UNL     1      17.980   0.918  -2.754  1.00  0.00    -0.000 C 
BRANCH   8   9
ATOM      9  C   UNL     1      19.431   1.405  -2.664  1.00  0.00    -0.000 C 
BRANCH   9  10
ATOM     10  C   UNL     1      20.367   0.270  -2.233  1.00  0.00    -0.003 C 
ATOM     11  C   UNL     1      21.467   0.783  -1.310  1.00  0.00     0.004 C 
ENDBRANCH   9  10
ENDBRANCH   8   9
ENDBRANCH   7   8
ENDBRANCH   1   7
TORSDOF 7
ENDMDL
