MODEL 1
REMARK VINA RESULT:    -5.228      0.000      0.000
REMARK INTER + INTRA:          -8.032
REMARK INTER:                  -7.061
REMARK INTRA:                  -0.971
REMARK UNBOUND:                -0.971
REMARK SMILES C=CC(C)=CCC=C(C)CCC=C(C)C
REMARK SMILES IDX 8 1 7 2 9 3 10 4 11 5 12 6 14 7 13 8 15 9 6 10 5 11 3 12
REMARK SMILES IDX 4 13 2 14 1 15
REMARK H PARENT
REMARK Flexibility Score: inf
ROOT
ATOM      1  C   UNL     1     163.257 167.905 200.412  1.00  0.00    -0.077 C 
ATOM      2  C   UNL     1     163.678 168.945 199.657  1.00  0.00    -0.024 C 
ATOM      3  C   UNL     1     163.628 167.780 201.870  1.00  0.00     0.039 C 
ENDROOT
BRANCH   1   4
ATOM      4  C   UNL     1     162.441 166.803 199.770  1.00  0.00     0.034 C 
BRANCH   4   5
ATOM      5  C   UNL     1     162.472 165.516 200.605  1.00  0.00     0.032 C 
BRANCH   5   6
ATOM      6  C   UNL     1     163.036 164.347 199.831  1.00  0.00    -0.028 C 
ATOM      7  C   UNL     1     164.267 162.255 199.463  1.00  0.00     0.039 C 
ATOM      8  C   UNL     1     163.830 163.389 200.354  1.00  0.00    -0.080 C 
ATOM      9  C   UNL     1     164.304 163.434 201.788  1.00  0.00     0.039 C 
ENDBRANCH   5   6
ENDBRANCH   4   5
ENDBRANCH   1   4
BRANCH   2  10
ATOM     10  C   UNL     1     164.561 170.056 200.166  1.00  0.00     0.055 C 
BRANCH  10  11
ATOM     11  C   UNL     1     165.853 170.120 199.392  1.00  0.00    -0.020 C 
ATOM     12  C   UNL     1     167.025 169.631 199.846  1.00  0.00    -0.055 C 
ATOM     13  C   UNL     1     168.248 169.747 198.968  1.00  0.00     0.044 C 
BRANCH  12  14
ATOM     14  C   UNL     1     167.128 168.978 201.183  1.00  0.00    -0.005 C 
ATOM     15  C   UNL     1     168.174 168.241 201.562  1.00  0.00     0.009 C 
ENDBRANCH  12  14
ENDBRANCH  10  11
ENDBRANCH   2  10
TORSDOF 6
ENDMDL
MODEL 2
REMARK VINA RESULT:    -5.218      2.514      4.383
REMARK INTER + INTRA:          -8.019
REMARK INTER:                  -7.019
REMARK INTRA:                  -1.000
REMARK UNBOUND:                -0.971
REMARK SMILES C=CC(C)=CCC=C(C)CCC=C(C)C
REMARK SMILES IDX 8 1 7 2 9 3 10 4 11 5 12 6 14 7 13 8 15 9 6 10 5 11 3 12
REMARK SMILES IDX 4 13 2 14 1 15
REMARK H PARENT
REMARK Flexibility Score: inf
ROOT
ATOM      1  C   UNL     1     168.805 164.412 200.391  1.00  0.00    -0.077 C 
ATOM      2  C   UNL     1     169.382 165.405 199.676  1.00  0.00    -0.024 C 
ATOM      3  C   UNL     1     168.425 164.593 201.841  1.00  0.00     0.039 C 
ENDROOT
BRANCH   1   4
ATOM      4  C   UNL     1     168.586 163.061 199.743  1.00  0.00     0.034 C 
BRANCH   4   5
ATOM      5  C   UNL     1     167.495 162.257 200.465  1.00  0.00     0.032 C 
BRANCH   5   6
ATOM      6  C   UNL     1     166.303 161.987 199.576  1.00  0.00    -0.028 C 
ATOM      7  C   UNL     1     163.969 162.091 198.822  1.00  0.00     0.039 C 
ATOM      8  C   UNL     1     165.042 162.392 199.837  1.00  0.00    -0.080 C 
ATOM      9  C   UNL     1     164.678 163.112 201.113  1.00  0.00     0.039 C 
ENDBRANCH   5   6
ENDBRANCH   4   5
ENDBRANCH   1   4
BRANCH   2  10
ATOM     10  C   UNL     1     169.722 166.762 200.238  1.00  0.00     0.055 C 
BRANCH  10  11
ATOM     11  C   UNL     1     168.962 167.850 199.525  1.00  0.00    -0.020 C 
ATOM     12  C   UNL     1     168.130 168.713 200.141  1.00  0.00    -0.055 C 
ATOM     13  C   UNL     1     167.436 169.768 199.313  1.00  0.00     0.044 C 
BRANCH  12  14
ATOM     14  C   UNL     1     167.893 168.647 201.612  1.00  0.00    -0.005 C 
ATOM     15  C   UNL     1     166.685 168.751 202.168  1.00  0.00     0.009 C 
ENDBRANCH  12  14
ENDBRANCH  10  11
ENDBRANCH   2  10
TORSDOF 6
ENDMDL
MODEL 3
REMARK VINA RESULT:    -5.213      0.492      5.747
REMARK INTER + INTRA:          -8.013
REMARK INTER:                  -6.967
REMARK INTRA:                  -1.045
REMARK UNBOUND:                -0.971
REMARK SMILES C=CC(C)=CCC=C(C)CCC=C(C)C
REMARK SMILES IDX 8 1 7 2 9 3 10 4 11 5 12 6 14 7 13 8 15 9 6 10 5 11 3 12
REMARK SMILES IDX 4 13 2 14 1 15
REMARK H PARENT
REMARK Flexibility Score: inf
ROOT
ATOM      1  C   UNL     1     163.145 167.601 200.607  1.00  0.00    -0.077 C 
ATOM      2  C   UNL     1     162.592 166.607 199.875  1.00  0.00    -0.024 C 
ATOM      3  C   UNL     1     163.530 167.403 202.054  1.00  0.00     0.039 C 
ENDROOT
BRANCH   1   4
ATOM      4  C   UNL     1     163.330 168.969 199.984  1.00  0.00     0.034 C 
BRANCH   4   5
ATOM      5  C   UNL     1     164.515 169.719 200.608  1.00  0.00     0.032 C 
BRANCH   5   6
ATOM      6  C   UNL     1     165.583 170.046 199.590  1.00  0.00    -0.028 C 
ATOM      7  C   UNL     1     167.816 170.046 198.570  1.00  0.00     0.039 C 
ATOM      8  C   UNL     1     166.881 169.693 199.699  1.00  0.00    -0.080 C 
ATOM      9  C   UNL     1     167.420 168.979 200.916  1.00  0.00     0.039 C 
ENDBRANCH   5   6
ENDBRANCH   4   5
ENDBRANCH   1   4
BRANCH   2  10
ATOM     10  C   UNL     1     162.286 165.232 200.412  1.00  0.00     0.055 C 
BRANCH  10  11
ATOM     11  C   UNL     1     163.078 164.177 199.684  1.00  0.00    -0.020 C 
ATOM     12  C   UNL     1     163.939 163.333 200.287  1.00  0.00    -0.055 C 
ATOM     13  C   UNL     1     164.664 162.311 199.446  1.00  0.00     0.044 C 
BRANCH  12  14
ATOM     14  C   UNL     1     164.176 163.388 201.759  1.00  0.00    -0.005 C 
ATOM     15  C   UNL     1     165.268 163.924 202.308  1.00  0.00     0.009 C 
ENDBRANCH  12  14
ENDBRANCH  10  11
ENDBRANCH   2  10
TORSDOF 6
ENDMDL
MODEL 4
REMARK VINA RESULT:    -5.209      1.591      3.243
REMARK INTER + INTRA:          -8.007
REMARK INTER:                  -7.000
REMARK INTRA:                  -1.007
REMARK UNBOUND:                -0.971
REMARK SMILES C=CC(C)=CCC=C(C)CCC=C(C)C
REMARK SMILES IDX 8 1 7 2 9 3 10 4 11 5 12 6 14 7 13 8 15 9 6 10 5 11 3 12
REMARK SMILES IDX 4 13 2 14 1 15
REMARK H PARENT
REMARK Flexibility Score: inf
ROOT
ATOM      1  C   UNL     1     164.990 169.635 199.762  1.00  0.00    -0.077 C 
ATOM      2  C   UNL     1     166.180 169.596 199.119  1.00  0.00    -0.024 C 
ATOM      3  C   UNL     1     164.899 169.877 201.250  1.00  0.00     0.039 C 
ENDROOT
BRANCH   1   4
ATOM      4  C   UNL     1     163.717 169.371 198.985  1.00  0.00     0.034 C 
BRANCH   4   5
ATOM      5  C   UNL     1     162.616 168.793 199.885  1.00  0.00     0.032 C 
BRANCH   5   6
ATOM      6  C   UNL     1     162.350 167.334 199.595  1.00  0.00    -0.028 C 
ATOM      7  C   UNL     1     162.287 164.916 200.014  1.00  0.00     0.039 C 
ATOM      8  C   UNL     1     162.668 166.316 200.422  1.00  0.00    -0.080 C 
ATOM      9  C   UNL     1     163.405 166.538 201.722  1.00  0.00     0.039 C 
ENDBRANCH   5   6
ENDBRANCH   4   5
ENDBRANCH   1   4
BRANCH   2  10
ATOM     10  C   UNL     1     167.514 169.762 199.800  1.00  0.00     0.055 C 
BRANCH  10  11
ATOM     11  C   UNL     1     168.107 168.426 200.166  1.00  0.00    -0.020 C 
ATOM     12  C   UNL     1     169.018 167.777 199.413  1.00  0.00    -0.055 C 
ATOM     13  C   UNL     1     169.544 166.446 199.897  1.00  0.00     0.044 C 
BRANCH  12  14
ATOM     14  C   UNL     1     169.513 168.350 198.128  1.00  0.00    -0.005 C 
ATOM     15  C   UNL     1     169.258 167.810 196.935  1.00  0.00     0.009 C 
ENDBRANCH  12  14
ENDBRANCH  10  11
ENDBRANCH   2  10
TORSDOF 6
ENDMDL
MODEL 5
REMARK VINA RESULT:    -5.201      2.519      7.243
REMARK INTER + INTRA:          -7.997
REMARK INTER:                  -6.952
REMARK INTRA:                  -1.044
REMARK UNBOUND:                -0.971
REMARK SMILES C=CC(C)=CCC=C(C)CCC=C(C)C
REMARK SMILES IDX 8 1 7 2 9 3 10 4 11 5 12 6 14 7 13 8 15 9 6 10 5 11 3 12
REMARK SMILES IDX 4 13 2 14 1 15
REMARK H PARENT
REMARK Flexibility Score: inf
ROOT
ATOM      1  C   UNL     1     168.705 163.987 200.536  1.00  0.00    -0.077 C 
ATOM      2  C   UNL     1     168.215 163.031 199.715  1.00  0.00    -0.024 C 
ATOM      3  C   UNL     1     168.402 163.997 202.015  1.00  0.00     0.039 C 
ENDROOT
BRANCH   1   4
ATOM      4  C   UNL     1     169.533 165.114 199.953  1.00  0.00     0.034 C 
BRANCH   4   5
ATOM      5  C   UNL     1     169.403 166.399 200.783  1.00  0.00     0.032 C 
BRANCH   5   6
ATOM      6  C   UNL     1     168.979 167.581 199.943  1.00  0.00    -0.028 C 
ATOM      7  C   UNL     1     167.942 169.749 199.443  1.00  0.00     0.039 C 
ATOM      8  C   UNL     1     168.237 168.615 200.391  1.00  0.00    -0.080 C 
ATOM      9  C   UNL     1     167.685 168.658 201.797  1.00  0.00     0.039 C 
ENDBRANCH   5   6
ENDBRANCH   4   5
ENDBRANCH   1   4
BRANCH   2  10
ATOM     10  C   UNL     1     167.314 161.910 200.167  1.00  0.00     0.055 C 
BRANCH  10  11
ATOM     11  C   UNL     1     166.057 161.855 199.339  1.00  0.00    -0.020 C 
ATOM     12  C   UNL     1     164.871 162.355 199.740  1.00  0.00    -0.055 C 
ATOM     13  C   UNL     1     163.686 162.248 198.810  1.00  0.00     0.044 C 
BRANCH  12  14
ATOM     14  C   UNL     1     164.716 163.013 201.070  1.00  0.00    -0.005 C 
ATOM     15  C   UNL     1     164.640 164.335 201.232  1.00  0.00     0.009 C 
ENDBRANCH  12  14
ENDBRANCH  10  11
ENDBRANCH   2  10
TORSDOF 6
ENDMDL
MODEL 6
REMARK VINA RESULT:    -5.197      2.876      6.953
REMARK INTER + INTRA:          -7.991
REMARK INTER:                  -6.992
REMARK INTRA:                  -0.998
REMARK UNBOUND:                -0.971
REMARK SMILES C=CC(C)=CCC=C(C)CCC=C(C)C
REMARK SMILES IDX 8 1 7 2 9 3 10 4 11 5 12 6 14 7 13 8 15 9 6 10 5 11 3 12
REMARK SMILES IDX 4 13 2 14 1 15
REMARK H PARENT
REMARK Flexibility Score: inf
ROOT
ATOM      1  C   UNL     1     166.984 162.388 199.874  1.00  0.00    -0.077 C 
ATOM      2  C   UNL     1     165.806 162.376 199.210  1.00  0.00    -0.024 C 
ATOM      3  C   UNL     1     167.053 162.232 201.375  1.00  0.00     0.039 C 
ENDROOT
BRANCH   1   4
ATOM      4  C   UNL     1     168.268 162.622 199.106  1.00  0.00     0.034 C 
BRANCH   4   5
ATOM      5  C   UNL     1     169.356 163.238 199.997  1.00  0.00     0.032 C 
BRANCH   5   6
ATOM      6  C   UNL     1     169.642 164.677 199.637  1.00  0.00    -0.028 C 
ATOM      7  C   UNL     1     169.746 167.111 199.942  1.00  0.00     0.039 C 
ATOM      8  C   UNL     1     169.346 165.738 200.418  1.00  0.00    -0.080 C 
ATOM      9  C   UNL     1     168.616 165.589 201.732  1.00  0.00     0.039 C 
ENDBRANCH   5   6
ENDBRANCH   4   5
ENDBRANCH   1   4
BRANCH   2  10
ATOM     10  C   UNL     1     164.462 162.232 199.877  1.00  0.00     0.055 C 
BRANCH  10  11
ATOM     11  C   UNL     1     163.897 163.577 200.255  1.00  0.00    -0.020 C 
ATOM     12  C   UNL     1     163.005 164.255 199.506  1.00  0.00    -0.055 C 
ATOM     13  C   UNL     1     162.506 165.591 200.002  1.00  0.00     0.044 C 
BRANCH  12  14
ATOM     14  C   UNL     1     162.502 163.707 198.213  1.00  0.00    -0.005 C 
ATOM     15  C   UNL     1     162.925 164.131 197.020  1.00  0.00     0.009 C 
ENDBRANCH  12  14
ENDBRANCH  10  11
ENDBRANCH   2  10
TORSDOF 6
ENDMDL
MODEL 7
REMARK VINA RESULT:    -5.163      2.573      4.764
REMARK INTER + INTRA:          -7.945
REMARK INTER:                  -7.222
REMARK INTRA:                  -0.722
REMARK UNBOUND:                -0.971
REMARK SMILES C=CC(C)=CCC=C(C)CCC=C(C)C
REMARK SMILES IDX 8 1 7 2 9 3 10 4 11 5 12 6 14 7 13 8 15 9 6 10 5 11 3 12
REMARK SMILES IDX 4 13 2 14 1 15
REMARK H PARENT
REMARK Flexibility Score: inf
ROOT
ATOM      1  C   UNL     1     163.187 163.587 198.820  1.00  0.00    -0.077 C 
ATOM      2  C   UNL     1     163.032 164.298 199.959  1.00  0.00    -0.024 C 
ATOM      3  C   UNL     1     162.693 164.101 197.488  1.00  0.00     0.039 C 
ENDROOT
BRANCH   1   4
ATOM      4  C   UNL     1     163.819 162.212 198.882  1.00  0.00     0.034 C 
BRANCH   4   5
ATOM      5  C   UNL     1     165.042 162.193 199.809  1.00  0.00     0.032 C 
BRANCH   5   6
ATOM      6  C   UNL     1     166.329 162.457 199.062  1.00  0.00    -0.028 C 
ATOM      7  C   UNL     1     168.744 162.763 198.747  1.00  0.00     0.039 C 
ATOM      8  C   UNL     1     167.546 162.552 199.637  1.00  0.00    -0.080 C 
ATOM      9  C   UNL     1     167.735 162.471 201.134  1.00  0.00     0.039 C 
ENDBRANCH   5   6
ENDBRANCH   4   5
ENDBRANCH   1   4
BRANCH   2  10
ATOM     10  C   UNL     1     162.346 165.639 200.032  1.00  0.00     0.055 C 
BRANCH  10  11
ATOM     11  C   UNL     1     163.110 166.592 200.913  1.00  0.00    -0.020 C 
ATOM     12  C   UNL     1     163.092 167.932 200.764  1.00  0.00    -0.055 C 
ATOM     13  C   UNL     1     163.895 168.780 201.722  1.00  0.00     0.044 C 
BRANCH  12  14
ATOM     14  C   UNL     1     162.294 168.582 199.684  1.00  0.00    -0.005 C 
ATOM     15  C   UNL     1     162.829 169.044 198.552  1.00  0.00     0.009 C 
ENDBRANCH  12  14
ENDBRANCH  10  11
ENDBRANCH   2  10
TORSDOF 6
ENDMDL
MODEL 8
REMARK VINA RESULT:    -5.158      2.587      5.390
REMARK INTER + INTRA:          -7.938
REMARK INTER:                  -7.028
REMARK INTRA:                  -0.910
REMARK UNBOUND:                -0.971
REMARK SMILES C=CC(C)=CCC=C(C)CCC=C(C)C
REMARK SMILES IDX 8 1 7 2 9 3 10 4 11 5 12 6 14 7 13 8 15 9 6 10 5 11 3 12
REMARK SMILES IDX 4 13 2 14 1 15
REMARK H PARENT
REMARK Flexibility Score: inf
ROOT
ATOM      1  C   UNL     1     167.744 168.781 200.111  1.00  0.00    -0.077 C 
ATOM      2  C   UNL     1     168.706 167.985 199.592  1.00  0.00    -0.024 C 
ATOM      3  C   UNL     1     167.463 168.825 201.595  1.00  0.00     0.039 C 
ENDROOT
BRANCH   1   4
ATOM      4  C   UNL     1     166.882 169.608 199.181  1.00  0.00     0.034 C 
BRANCH   4   5
ATOM      5  C   UNL     1     165.622 170.126 199.888  1.00  0.00     0.032 C 
BRANCH   5   6
ATOM      6  C   UNL     1     164.370 169.430 199.406  1.00  0.00    -0.028 C 
ATOM      7  C   UNL     1     162.258 168.190 199.577  1.00  0.00     0.039 C 
ATOM      8  C   UNL     1     163.491 168.789 200.204  1.00  0.00    -0.080 C 
ATOM      9  C   UNL     1     163.716 168.642 201.691  1.00  0.00     0.039 C 
ENDBRANCH   5   6
ENDBRANCH   4   5
ENDBRANCH   1   4
BRANCH   2  10
ATOM     10  C   UNL     1     169.569 167.059 200.411  1.00  0.00     0.055 C 
BRANCH  10  11
ATOM     11  C   UNL     1     169.727 165.723 199.733  1.00  0.00    -0.020 C 
ATOM     12  C   UNL     1     169.282 164.560 200.251  1.00  0.00    -0.055 C 
ATOM     13  C   UNL     1     169.492 163.288 199.465  1.00  0.00     0.044 C 
BRANCH  12  14
ATOM     14  C   UNL     1     168.585 164.513 201.569  1.00  0.00    -0.005 C 
ATOM     15  C   UNL     1     168.153 163.384 202.133  1.00  0.00     0.009 C 
ENDBRANCH  12  14
ENDBRANCH  10  11
ENDBRANCH   2  10
TORSDOF 6
ENDMDL
MODEL 9
REMARK VINA RESULT:    -5.135      1.437      6.290
REMARK INTER + INTRA:          -7.907
REMARK INTER:                  -6.977
REMARK INTRA:                  -0.930
REMARK UNBOUND:                -0.971
REMARK SMILES C=CC(C)=CCC=C(C)CCC=C(C)C
REMARK SMILES IDX 8 1 7 2 9 3 10 4 11 5 12 6 14 7 13 8 15 9 6 10 5 11 3 12
REMARK SMILES IDX 4 13 2 14 1 15
REMARK H PARENT
REMARK Flexibility Score: inf
ROOT
ATOM      1  C   UNL     1     163.150 168.014 200.290  1.00  0.00    -0.077 C 
ATOM      2  C   UNL     1     163.144 166.731 200.719  1.00  0.00    -0.024 C 
ATOM      3  C   UNL     1     162.309 168.464 199.119  1.00  0.00     0.039 C 
ENDROOT
BRANCH   1   4
ATOM      4  C   UNL     1     164.067 169.016 200.959  1.00  0.00     0.034 C 
BRANCH   4   5
ATOM      5  C   UNL     1     164.512 170.115 199.983  1.00  0.00     0.032 C 
BRANCH   5   6
ATOM      6  C   UNL     1     165.999 170.073 199.717  1.00  0.00    -0.028 C 
ATOM      7  C   UNL     1     168.061 169.760 198.423  1.00  0.00     0.039 C 
ATOM      8  C   UNL     1     166.561 169.695 198.550  1.00  0.00    -0.080 C 
ATOM      9  C   UNL     1     165.736 169.196 197.387  1.00  0.00     0.039 C 
ENDBRANCH   5   6
ENDBRANCH   4   5
ENDBRANCH   1   4
BRANCH   2  10
ATOM     10  C   UNL     1     162.336 165.630 200.080  1.00  0.00     0.055 C 
BRANCH  10  11
ATOM     11  C   UNL     1     163.124 164.348 200.013  1.00  0.00    -0.020 C 
ATOM     12  C   UNL     1     163.116 163.515 198.953  1.00  0.00    -0.055 C 
ATOM     13  C   UNL     1     163.960 162.264 199.005  1.00  0.00     0.044 C 
BRANCH  12  14
ATOM     14  C   UNL     1     162.300 163.812 197.739  1.00  0.00    -0.005 C 
ATOM     15  C   UNL     1     162.813 164.306 196.611  1.00  0.00     0.009 C 
ENDBRANCH  12  14
ENDBRANCH  10  11
ENDBRANCH   2  10
TORSDOF 6
ENDMDL
