MODEL 1
REMARK VINA RESULT:    -3.235      0.000      0.000
REMARK INTER + INTRA:          -4.217
REMARK INTER:                  -3.991
REMARK INTRA:                  -0.226
REMARK UNBOUND:                -0.226
REMARK SMILES CCCCCC(=O)[O-]
REMARK SMILES IDX 4 1 5 2 6 3 7 4 8 5 3 6 2 7 1 8
REMARK H PARENT
REMARK Flexibility Score: inf
ROOT
ATOM      1  C   UNL     1     176.853 176.392 182.062  1.00  0.00     0.006 C 
ENDROOT
BRANCH   1   2
ATOM      2  C   UNL     1     177.098 177.662 181.236  1.00  0.00     0.053 C 
BRANCH   2   3
ATOM      3  C   UNL     1     176.646 177.500 179.817  1.00  0.00     0.041 C 
ATOM      4  O   UNL     1     177.444 177.071 178.942  1.00  0.00    -0.550 OA
ATOM      5  O   UNL     1     175.334 177.793 179.466  1.00  0.00    -0.550 OA
ENDBRANCH   2   3
ENDBRANCH   1   2
BRANCH   1   6
ATOM      6  C   UNL     1     175.706 176.570 183.073  1.00  0.00     0.000 C 
BRANCH   6   7
ATOM      7  C   UNL     1     174.350 176.113 182.512  1.00  0.00    -0.003 C 
ATOM      8  C   UNL     1     173.306 177.230 182.504  1.00  0.00     0.004 C 
ENDBRANCH   6   7
ENDBRANCH   1   6
TORSDOF 4
ENDMDL
MODEL 2
REMARK VINA RESULT:    -3.157      1.833      2.275
REMARK INTER + INTRA:          -4.121
REMARK INTER:                  -3.904
REMARK INTRA:                  -0.218
REMARK UNBOUND:                -0.226
REMARK SMILES CCCCCC(=O)[O-]
REMARK SMILES IDX 4 1 5 2 6 3 7 4 8 5 3 6 2 7 1 8
REMARK H PARENT
REMARK Flexibility Score: inf
ROOT
ATOM      1  C   UNL     1     177.020 176.748 180.916  1.00  0.00     0.006 C 
ENDROOT
BRANCH   1   2
ATOM      2  C   UNL     1     176.356 177.678 179.891  1.00  0.00     0.053 C 
BRANCH   2   3
ATOM      3  C   UNL     1     174.952 177.256 179.584  1.00  0.00     0.041 C 
ATOM      4  O   UNL     1     174.246 177.935 178.792  1.00  0.00    -0.550 OA
ATOM      5  O   UNL     1     174.433 176.097 180.147  1.00  0.00    -0.550 OA
ENDBRANCH   2   3
ENDBRANCH   1   2
BRANCH   1   6
ATOM      6  C   UNL     1     177.011 177.347 182.333  1.00  0.00     0.000 C 
BRANCH   6   7
ATOM      7  C   UNL     1     176.026 176.630 183.270  1.00  0.00    -0.003 C 
ATOM      8  C   UNL     1     176.128 175.107 183.183  1.00  0.00     0.004 C 
ENDBRANCH   6   7
ENDBRANCH   1   6
TORSDOF 4
ENDMDL
MODEL 3
REMARK VINA RESULT:    -3.111      1.390      2.275
REMARK INTER + INTRA:          -4.064
REMARK INTER:                  -3.880
REMARK INTRA:                  -0.184
REMARK UNBOUND:                -0.226
REMARK SMILES CCCCCC(=O)[O-]
REMARK SMILES IDX 4 1 5 2 6 3 7 4 8 5 3 6 2 7 1 8
REMARK H PARENT
REMARK Flexibility Score: inf
ROOT
ATOM      1  C   UNL     1     175.848 176.792 182.617  1.00  0.00     0.006 C 
ENDROOT
BRANCH   1   2
ATOM      2  C   UNL     1     176.926 177.417 181.720  1.00  0.00     0.053 C 
BRANCH   2   3
ATOM      3  C   UNL     1     176.588 177.283 180.267  1.00  0.00     0.041 C 
ATOM      4  O   UNL     1     177.446 176.847 179.454  1.00  0.00    -0.550 OA
ATOM      5  O   UNL     1     175.316 177.610 179.814  1.00  0.00    -0.550 OA
ENDBRANCH   2   3
ENDBRANCH   1   2
BRANCH   1   6
ATOM      6  C   UNL     1     176.313 175.466 183.244  1.00  0.00     0.000 C 
BRANCH   6   7
ATOM      7  C   UNL     1     176.177 174.277 182.279  1.00  0.00    -0.003 C 
ATOM      8  C   UNL     1     177.529 173.740 181.808  1.00  0.00     0.004 C 
ENDBRANCH   6   7
ENDBRANCH   1   6
TORSDOF 4
ENDMDL
MODEL 4
REMARK VINA RESULT:    -3.092      2.473      3.588
REMARK INTER + INTRA:          -4.041
REMARK INTER:                  -3.810
REMARK INTRA:                  -0.231
REMARK UNBOUND:                -0.226
REMARK SMILES CCCCCC(=O)[O-]
REMARK SMILES IDX 4 1 5 2 6 3 7 4 8 5 3 6 2 7 1 8
REMARK H PARENT
REMARK Flexibility Score: inf
ROOT
ATOM      1  C   UNL     1     176.210 175.277 183.280  1.00  0.00     0.006 C 
ENDROOT
BRANCH   1   2
ATOM      2  C   UNL     1     175.866 174.144 182.303  1.00  0.00     0.053 C 
BRANCH   2   3
ATOM      3  C   UNL     1     176.978 173.888 181.333  1.00  0.00     0.041 C 
ATOM      4  O   UNL     1     176.889 174.298 180.145  1.00  0.00    -0.550 OA
ATOM      5  O   UNL     1     178.125 173.223 181.747  1.00  0.00    -0.550 OA
ENDBRANCH   2   3
ENDBRANCH   1   2
BRANCH   1   6
ATOM      6  C   UNL     1     175.795 176.656 182.738  1.00  0.00     0.000 C 
BRANCH   6   7
ATOM      7  C   UNL     1     176.998 177.495 182.277  1.00  0.00    -0.003 C 
ATOM      8  C   UNL     1     177.007 177.735 180.767  1.00  0.00     0.004 C 
ENDBRANCH   6   7
ENDBRANCH   1   6
TORSDOF 4
ENDMDL
MODEL 5
REMARK VINA RESULT:    -3.078      1.622      1.976
REMARK INTER + INTRA:          -4.024
REMARK INTER:                  -3.809
REMARK INTRA:                  -0.214
REMARK UNBOUND:                -0.226
REMARK SMILES CCCCCC(=O)[O-]
REMARK SMILES IDX 4 1 5 2 6 3 7 4 8 5 3 6 2 7 1 8
REMARK H PARENT
REMARK Flexibility Score: inf
ROOT
ATOM      1  C   UNL     1     177.018 177.394 181.550  1.00  0.00     0.006 C 
ENDROOT
BRANCH   1   2
ATOM      2  C   UNL     1     176.316 177.381 180.185  1.00  0.00     0.053 C 
BRANCH   2   3
ATOM      3  C   UNL     1     176.893 176.344 179.271  1.00  0.00     0.041 C 
ATOM      4  O   UNL     1     177.056 175.162 179.675  1.00  0.00    -0.550 OA
ATOM      5  O   UNL     1     177.222 176.675 177.962  1.00  0.00    -0.550 OA
ENDBRANCH   2   3
ENDBRANCH   1   2
BRANCH   1   6
ATOM      6  C   UNL     1     176.073 176.983 182.692  1.00  0.00     0.000 C 
BRANCH   6   7
ATOM      7  C   UNL     1     176.301 175.536 183.155  1.00  0.00    -0.003 C 
ATOM      8  C   UNL     1     175.086 174.639 182.914  1.00  0.00     0.004 C 
ENDBRANCH   6   7
ENDBRANCH   1   6
TORSDOF 4
ENDMDL
MODEL 6
REMARK VINA RESULT:    -3.020      2.057      3.636
REMARK INTER + INTRA:          -3.952
REMARK INTER:                  -3.838
REMARK INTRA:                  -0.114
REMARK UNBOUND:                -0.226
REMARK SMILES CCCCCC(=O)[O-]
REMARK SMILES IDX 4 1 5 2 6 3 7 4 8 5 3 6 2 7 1 8
REMARK H PARENT
REMARK Flexibility Score: inf
ROOT
ATOM      1  C   UNL     1     175.391 176.688 182.846  1.00  0.00     0.006 C 
ENDROOT
BRANCH   1   2
ATOM      2  C   UNL     1     173.928 176.383 182.494  1.00  0.00     0.053 C 
BRANCH   2   3
ATOM      3  C   UNL     1     173.446 177.215 181.346  1.00  0.00     0.041 C 
ATOM      4  O   UNL     1     172.323 177.783 181.403  1.00  0.00    -0.550 OA
ATOM      5  O   UNL     1     174.248 177.390 180.226  1.00  0.00    -0.550 OA
ENDBRANCH   2   3
ENDBRANCH   1   2
BRANCH   1   6
ATOM      6  C   UNL     1     176.227 175.407 183.013  1.00  0.00     0.000 C 
BRANCH   6   7
ATOM      7  C   UNL     1     176.954 175.003 181.721  1.00  0.00    -0.003 C 
ATOM      8  C   UNL     1     177.613 173.627 181.817  1.00  0.00     0.004 C 
ENDBRANCH   6   7
ENDBRANCH   1   6
TORSDOF 4
ENDMDL
MODEL 7
REMARK VINA RESULT:    -3.006      1.371      1.922
REMARK INTER + INTRA:          -3.934
REMARK INTER:                  -3.720
REMARK INTRA:                  -0.214
REMARK UNBOUND:                -0.226
REMARK SMILES CCCCCC(=O)[O-]
REMARK SMILES IDX 4 1 5 2 6 3 7 4 8 5 3 6 2 7 1 8
REMARK H PARENT
REMARK Flexibility Score: inf
ROOT
ATOM      1  C   UNL     1     175.771 176.568 182.868  1.00  0.00     0.006 C 
ENDROOT
BRANCH   1   2
ATOM      2  C   UNL     1     176.732 177.322 181.939  1.00  0.00     0.053 C 
BRANCH   2   3
ATOM      3  C   UNL     1     177.054 176.531 180.709  1.00  0.00     0.041 C 
ATOM      4  O   UNL     1     177.384 177.119 179.645  1.00  0.00    -0.550 OA
ATOM      5  O   UNL     1     177.020 175.142 180.744  1.00  0.00    -0.550 OA
ENDBRANCH   2   3
ENDBRANCH   1   2
BRANCH   1   6
ATOM      6  C   UNL     1     174.297 176.838 182.521  1.00  0.00     0.000 C 
BRANCH   6   7
ATOM      7  C   UNL     1     173.447 175.558 182.519  1.00  0.00    -0.003 C 
ATOM      8  C   UNL     1     174.253 174.311 182.885  1.00  0.00     0.004 C 
ENDBRANCH   6   7
ENDBRANCH   1   6
TORSDOF 4
ENDMDL
MODEL 8
REMARK VINA RESULT:    -3.000     13.461     15.288
REMARK INTER + INTRA:          -3.927
REMARK INTER:                  -3.846
REMARK INTRA:                  -0.081
REMARK UNBOUND:                -0.226
REMARK SMILES CCCCCC(=O)[O-]
REMARK SMILES IDX 4 1 5 2 6 3 7 4 8 5 3 6 2 7 1 8
REMARK H PARENT
REMARK Flexibility Score: inf
ROOT
ATOM      1  C   UNL     1     161.558 175.739 182.350  1.00  0.00     0.006 C 
ENDROOT
BRANCH   1   2
ATOM      2  C   UNL     1     160.132 175.209 182.556  1.00  0.00     0.053 C 
BRANCH   2   3
ATOM      3  C   UNL     1     159.822 174.069 181.635  1.00  0.00     0.041 C 
ATOM      4  O   UNL     1     159.052 174.240 180.653  1.00  0.00    -0.550 OA
ATOM      5  O   UNL     1     160.406 172.826 181.843  1.00  0.00    -0.550 OA
ENDBRANCH   2   3
ENDBRANCH   1   2
BRANCH   1   6
ATOM      6  C   UNL     1     161.579 177.251 182.065  1.00  0.00     0.000 C 
BRANCH   6   7
ATOM      7  C   UNL     1     162.396 178.035 183.104  1.00  0.00    -0.003 C 
ATOM      8  C   UNL     1     163.795 177.454 183.317  1.00  0.00     0.004 C 
ENDBRANCH   6   7
ENDBRANCH   1   6
TORSDOF 4
ENDMDL
