MODEL 1
REMARK VINA RESULT:    -4.691      0.000      0.000
REMARK INTER + INTRA:          -9.367
REMARK INTER:                  -7.982
REMARK INTRA:                  -1.385
REMARK UNBOUND:                -1.385
REMARK SMILES CCCCCCCCCCCCCC(=O)[O-]
REMARK SMILES IDX 8 1 9 2 10 3 11 4 12 5 13 6 14 7 15 8 16 9 7 10 6 11 5 12
REMARK SMILES IDX 4 13 3 14 2 15 1 16
REMARK H PARENT
REMARK Flexibility Score: inf
ROOT
ATOM      1  C   UNL     1     -18.448   0.107  28.220  1.00  0.00     0.000 C 
ENDROOT
BRANCH   1   2
ATOM      2  C   UNL     1     -18.906   1.251  27.304  1.00  0.00     0.000 C 
BRANCH   2   3
ATOM      3  C   UNL     1     -20.436   1.367  27.222  1.00  0.00     0.000 C 
BRANCH   3   4
ATOM      4  C   UNL     1     -21.032   0.523  26.082  1.00  0.00     0.000 C 
BRANCH   4   5
ATOM      5  C   UNL     1     -22.495   0.129  26.343  1.00  0.00     0.006 C 
BRANCH   5   6
ATOM      6  C   UNL     1     -22.912   0.345  27.804  1.00  0.00     0.053 C 
BRANCH   6   7
ATOM      7  C   UNL     1     -23.022  -0.968  28.514  1.00  0.00     0.041 C 
ATOM      8  O   UNL     1     -23.305  -2.013  27.871  1.00  0.00    -0.550 OA
ATOM      9  O   UNL     1     -22.862  -1.029  29.892  1.00  0.00    -0.550 OA
ENDBRANCH   6   7
ENDBRANCH   5   6
ENDBRANCH   4   5
ENDBRANCH   3   4
ENDBRANCH   2   3
ENDBRANCH   1   2
BRANCH   1  10
ATOM     10  C   UNL     1     -19.456  -0.130  29.350  1.00  0.00     0.000 C 
BRANCH  10  11
ATOM     11  C   UNL     1     -19.401  -1.582  29.843  1.00  0.00    -0.000 C 
BRANCH  11  12
ATOM     12  C   UNL     1     -18.118  -2.277  29.366  1.00  0.00    -0.000 C 
BRANCH  12  13
ATOM     13  C   UNL     1     -17.184  -2.673  30.524  1.00  0.00    -0.000 C 
BRANCH  13  14
ATOM     14  C   UNL     1     -16.539  -1.492  31.273  1.00  0.00    -0.000 C 
BRANCH  14  15
ATOM     15  C   UNL     1     -17.149  -1.261  32.663  1.00  0.00    -0.003 C 
ATOM     16  C   UNL     1     -17.723  -2.556  33.234  1.00  0.00     0.004 C 
ENDBRANCH  14  15
ENDBRANCH  13  14
ENDBRANCH  12  13
ENDBRANCH  11  12
ENDBRANCH  10  11
ENDBRANCH   1  10
TORSDOF 12
ENDMDL
MODEL 2
REMARK VINA RESULT:    -4.656      1.950      3.402
REMARK INTER + INTRA:          -9.307
REMARK INTER:                  -8.361
REMARK INTRA:                  -0.946
REMARK UNBOUND:                -1.385
REMARK SMILES CCCCCCCCCCCCCC(=O)[O-]
REMARK SMILES IDX 8 1 9 2 10 3 11 4 12 5 13 6 14 7 15 8 16 9 7 10 6 11 5 12
REMARK SMILES IDX 4 13 3 14 2 15 1 16
REMARK H PARENT
REMARK Flexibility Score: inf
ROOT
ATOM      1  C   UNL     1     -19.125  -2.458  29.811  1.00  0.00     0.000 C 
ENDROOT
BRANCH   1   2
ATOM      2  C   UNL     1     -19.506  -1.071  29.275  1.00  0.00     0.000 C 
BRANCH   2   3
ATOM      3  C   UNL     1     -18.384  -0.427  28.447  1.00  0.00     0.000 C 
BRANCH   3   4
ATOM      4  C   UNL     1     -18.775   0.955  27.895  1.00  0.00     0.000 C 
BRANCH   4   5
ATOM      5  C   UNL     1     -20.280   1.069  27.601  1.00  0.00     0.006 C 
BRANCH   5   6
ATOM      6  C   UNL     1     -20.650   0.538  26.210  1.00  0.00     0.053 C 
BRANCH   6   7
ATOM      7  C   UNL     1     -22.082   0.108  26.180  1.00  0.00     0.041 C 
ATOM      8  O   UNL     1     -22.840   0.496  25.252  1.00  0.00    -0.550 OA
ATOM      9  O   UNL     1     -22.594  -0.680  27.202  1.00  0.00    -0.550 OA
ENDBRANCH   6   7
ENDBRANCH   5   6
ENDBRANCH   4   5
ENDBRANCH   3   4
ENDBRANCH   2   3
ENDBRANCH   1   2
BRANCH   1  10
ATOM     10  C   UNL     1     -17.698  -2.458  30.373  1.00  0.00     0.000 C 
BRANCH  10  11
ATOM     11  C   UNL     1     -17.695  -2.144  31.874  1.00  0.00    -0.000 C 
BRANCH  11  12
ATOM     12  C   UNL     1     -16.730  -0.994  32.194  1.00  0.00    -0.000 C 
BRANCH  12  13
ATOM     13  C   UNL     1     -15.672  -0.775  31.098  1.00  0.00    -0.000 C 
BRANCH  13  14
ATOM     14  C   UNL     1     -14.346  -0.163  31.586  1.00  0.00    -0.000 C 
BRANCH  14  15
ATOM     15  C   UNL     1     -13.445   0.306  30.435  1.00  0.00    -0.003 C 
ATOM     16  C   UNL     1     -14.022   1.544  29.753  1.00  0.00     0.004 C 
ENDBRANCH  14  15
ENDBRANCH  13  14
ENDBRANCH  12  13
ENDBRANCH  11  12
ENDBRANCH  10  11
ENDBRANCH   1  10
TORSDOF 12
ENDMDL
MODEL 3
REMARK VINA RESULT:    -4.624      2.615      6.057
REMARK INTER + INTRA:          -9.252
REMARK INTER:                  -7.660
REMARK INTRA:                  -1.593
REMARK UNBOUND:                -1.385
REMARK SMILES CCCCCCCCCCCCCC(=O)[O-]
REMARK SMILES IDX 8 1 9 2 10 3 11 4 12 5 13 6 14 7 15 8 16 9 7 10 6 11 5 12
REMARK SMILES IDX 4 13 3 14 2 15 1 16
REMARK H PARENT
REMARK Flexibility Score: inf
ROOT
ATOM      1  C   UNL     1     -18.574  -0.311  28.229  1.00  0.00     0.000 C 
ENDROOT
BRANCH   1   2
ATOM      2  C   UNL     1     -19.427  -0.146  29.495  1.00  0.00     0.000 C 
BRANCH   2   3
ATOM      3  C   UNL     1     -20.031  -1.473  29.979  1.00  0.00     0.000 C 
BRANCH   3   4
ATOM      4  C   UNL     1     -19.086  -2.667  29.758  1.00  0.00     0.000 C 
BRANCH   4   5
ATOM      5  C   UNL     1     -18.279  -3.022  31.018  1.00  0.00     0.006 C 
BRANCH   5   6
ATOM      6  C   UNL     1     -16.795  -2.651  30.890  1.00  0.00     0.053 C 
BRANCH   6   7
ATOM      7  C   UNL     1     -16.520  -1.357  31.587  1.00  0.00     0.041 C 
ATOM      8  O   UNL     1     -15.523  -0.661  31.260  1.00  0.00    -0.550 OA
ATOM      9  O   UNL     1     -17.335  -0.942  32.632  1.00  0.00    -0.550 OA
ENDBRANCH   6   7
ENDBRANCH   5   6
ENDBRANCH   4   5
ENDBRANCH   3   4
ENDBRANCH   2   3
ENDBRANCH   1   2
BRANCH   1  10
ATOM     10  C   UNL     1     -18.495   1.004  27.444  1.00  0.00     0.000 C 
BRANCH  10  11
ATOM     11  C   UNL     1     -19.850   1.356  26.819  1.00  0.00    -0.000 C 
BRANCH  11  12
ATOM     12  C   UNL     1     -20.455   0.144  26.096  1.00  0.00    -0.000 C 
BRANCH  12  13
ATOM     13  C   UNL     1     -21.980   0.035  26.279  1.00  0.00    -0.000 C 
BRANCH  13  14
ATOM     14  C   UNL     1     -22.513   0.559  27.624  1.00  0.00    -0.000 C 
BRANCH  14  15
ATOM     15  C   UNL     1     -23.609  -0.335  28.222  1.00  0.00    -0.003 C 
ATOM     16  C   UNL     1     -23.246  -1.812  28.089  1.00  0.00     0.004 C 
ENDBRANCH  14  15
ENDBRANCH  13  14
ENDBRANCH  12  13
ENDBRANCH  11  12
ENDBRANCH  10  11
ENDBRANCH   1  10
TORSDOF 12
ENDMDL
MODEL 4
REMARK VINA RESULT:    -4.470     15.660     17.845
REMARK INTER + INTRA:          -8.991
REMARK INTER:                  -7.449
REMARK INTRA:                  -1.542
REMARK UNBOUND:                -1.385
REMARK SMILES CCCCCCCCCCCCCC(=O)[O-]
REMARK SMILES IDX 8 1 9 2 10 3 11 4 12 5 13 6 14 7 15 8 16 9 7 10 6 11 5 12
REMARK SMILES IDX 4 13 3 14 2 15 1 16
REMARK H PARENT
REMARK Flexibility Score: inf
ROOT
ATOM      1  C   UNL     1      -4.570   7.232  25.101  1.00  0.00     0.000 C 
ENDROOT
BRANCH   1   2
ATOM      2  C   UNL     1      -4.428   8.385  26.106  1.00  0.00     0.000 C 
BRANCH   2   3
ATOM      3  C   UNL     1      -5.016   8.044  27.484  1.00  0.00     0.000 C 
BRANCH   3   4
ATOM      4  C   UNL     1      -5.780   6.708  27.486  1.00  0.00     0.000 C 
BRANCH   4   5
ATOM      5  C   UNL     1      -6.670   6.539  28.728  1.00  0.00     0.006 C 
BRANCH   5   6
ATOM      6  C   UNL     1      -5.926   5.885  29.900  1.00  0.00     0.053 C 
BRANCH   6   7
ATOM      7  C   UNL     1      -5.756   6.863  31.020  1.00  0.00     0.041 C 
ATOM      8  O   UNL     1      -5.263   6.490  32.117  1.00  0.00    -0.550 OA
ATOM      9  O   UNL     1      -6.188   8.174  30.870  1.00  0.00    -0.550 OA
ENDBRANCH   6   7
ENDBRANCH   5   6
ENDBRANCH   4   5
ENDBRANCH   3   4
ENDBRANCH   2   3
ENDBRANCH   1   2
BRANCH   1  10
ATOM     10  C   UNL     1      -4.375   7.729  23.663  1.00  0.00     0.000 C 
BRANCH  10  11
ATOM     11  C   UNL     1      -4.268   9.258  23.617  1.00  0.00    -0.000 C 
BRANCH  11  12
ATOM     12  C   UNL     1      -4.972   9.822  22.374  1.00  0.00    -0.000 C 
BRANCH  12  13
ATOM     13  C   UNL     1      -6.268  10.580  22.710  1.00  0.00    -0.000 C 
BRANCH  13  14
ATOM     14  C   UNL     1      -6.855  10.282  24.102  1.00  0.00    -0.000 C 
BRANCH  14  15
ATOM     15  C   UNL     1      -7.882   9.141  24.086  1.00  0.00    -0.003 C 
ATOM     16  C   UNL     1      -8.258   8.719  25.505  1.00  0.00     0.004 C 
ENDBRANCH  14  15
ENDBRANCH  13  14
ENDBRANCH  12  13
ENDBRANCH  11  12
ENDBRANCH  10  11
ENDBRANCH   1  10
TORSDOF 12
ENDMDL
MODEL 5
REMARK VINA RESULT:    -4.467      2.622      5.972
REMARK INTER + INTRA:          -8.986
REMARK INTER:                  -7.691
REMARK INTRA:                  -1.295
REMARK UNBOUND:                -1.385
REMARK SMILES CCCCCCCCCCCCCC(=O)[O-]
REMARK SMILES IDX 8 1 9 2 10 3 11 4 12 5 13 6 14 7 15 8 16 9 7 10 6 11 5 12
REMARK SMILES IDX 4 13 3 14 2 15 1 16
REMARK H PARENT
REMARK Flexibility Score: inf
ROOT
ATOM      1  C   UNL     1     -18.968   0.897  27.242  1.00  0.00     0.000 C 
ENDROOT
BRANCH   1   2
ATOM      2  C   UNL     1     -19.141   0.446  28.700  1.00  0.00     0.000 C 
BRANCH   2   3
ATOM      3  C   UNL     1     -18.730  -1.018  28.920  1.00  0.00     0.000 C 
BRANCH   3   4
ATOM      4  C   UNL     1     -18.746  -1.419  30.406  1.00  0.00     0.000 C 
BRANCH   4   5
ATOM      5  C   UNL     1     -17.343  -1.736  30.946  1.00  0.00     0.006 C 
BRANCH   5   6
ATOM      6  C   UNL     1     -17.202  -1.418  32.441  1.00  0.00     0.053 C 
BRANCH   6   7
ATOM      7  C   UNL     1     -17.432  -2.649  33.259  1.00  0.00     0.041 C 
ATOM      8  O   UNL     1     -18.603  -3.066  33.459  1.00  0.00    -0.550 OA
ATOM      9  O   UNL     1     -16.357  -3.307  33.843  1.00  0.00    -0.550 OA
ENDBRANCH   6   7
ENDBRANCH   5   6
ENDBRANCH   4   5
ENDBRANCH   3   4
ENDBRANCH   2   3
ENDBRANCH   1   2
BRANCH   1  10
ATOM     10  C   UNL     1     -20.315   1.289  26.623  1.00  0.00     0.000 C 
BRANCH  10  11
ATOM     11  C   UNL     1     -20.910   0.131  25.813  1.00  0.00    -0.000 C 
BRANCH  11  12
ATOM     12  C   UNL     1     -22.433   0.058  25.993  1.00  0.00    -0.000 C 
BRANCH  12  13
ATOM     13  C   UNL     1     -22.851  -0.667  27.285  1.00  0.00    -0.000 C 
BRANCH  13  14
ATOM     14  C   UNL     1     -23.267   0.256  28.445  1.00  0.00    -0.000 C 
BRANCH  14  15
ATOM     15  C   UNL     1     -22.660  -0.164  29.791  1.00  0.00    -0.003 C 
ATOM     16  C   UNL     1     -22.456  -1.676  29.854  1.00  0.00     0.004 C 
ENDBRANCH  14  15
ENDBRANCH  13  14
ENDBRANCH  12  13
ENDBRANCH  11  12
ENDBRANCH  10  11
ENDBRANCH   1  10
TORSDOF 12
ENDMDL
MODEL 6
REMARK VINA RESULT:    -4.441      2.789      5.367
REMARK INTER + INTRA:          -8.941
REMARK INTER:                  -7.385
REMARK INTRA:                  -1.556
REMARK UNBOUND:                -1.385
REMARK SMILES CCCCCCCCCCCCCC(=O)[O-]
REMARK SMILES IDX 8 1 9 2 10 3 11 4 12 5 13 6 14 7 15 8 16 9 7 10 6 11 5 12
REMARK SMILES IDX 4 13 3 14 2 15 1 16
REMARK H PARENT
REMARK Flexibility Score: inf
ROOT
ATOM      1  C   UNL     1     -20.318   0.008  26.300  1.00  0.00     0.000 C 
ENDROOT
BRANCH   1   2
ATOM      2  C   UNL     1     -19.465   1.178  26.813  1.00  0.00     0.000 C 
BRANCH   2   3
ATOM      3  C   UNL     1     -18.478   0.753  27.912  1.00  0.00     0.000 C 
BRANCH   3   4
ATOM      4  C   UNL     1     -18.849  -0.598  28.549  1.00  0.00     0.000 C 
BRANCH   4   5
ATOM      5  C   UNL     1     -18.504  -0.658  30.046  1.00  0.00     0.006 C 
BRANCH   5   6
ATOM      6  C   UNL     1     -17.499  -1.771  30.374  1.00  0.00     0.053 C 
BRANCH   6   7
ATOM      7  C   UNL     1     -16.634  -1.368  31.526  1.00  0.00     0.041 C 
ATOM      8  O   UNL     1     -16.964  -1.672  32.703  1.00  0.00    -0.550 OA
ATOM      9  O   UNL     1     -15.489  -0.614  31.306  1.00  0.00    -0.550 OA
ENDBRANCH   6   7
ENDBRANCH   5   6
ENDBRANCH   4   5
ENDBRANCH   3   4
ENDBRANCH   2   3
ENDBRANCH   1   2
BRANCH   1  10
ATOM     10  C   UNL     1     -21.740   0.471  25.965  1.00  0.00     0.000 C 
BRANCH  10  11
ATOM     11  C   UNL     1     -22.764  -0.154  26.921  1.00  0.00    -0.000 C 
BRANCH  11  12
ATOM     12  C   UNL     1     -22.721   0.528  28.295  1.00  0.00    -0.000 C 
BRANCH  12  13
ATOM     13  C   UNL     1     -22.415  -0.451  29.443  1.00  0.00    -0.000 C 
BRANCH  13  14
ATOM     14  C   UNL     1     -22.366  -1.936  29.036  1.00  0.00    -0.000 C 
BRANCH  14  15
ATOM     15  C   UNL     1     -22.251  -2.882  30.239  1.00  0.00    -0.003 C 
ATOM     16  C   UNL     1     -20.854  -3.491  30.328  1.00  0.00     0.004 C 
ENDBRANCH  14  15
ENDBRANCH  13  14
ENDBRANCH  12  13
ENDBRANCH  11  12
ENDBRANCH  10  11
ENDBRANCH   1  10
TORSDOF 12
ENDMDL
MODEL 7
REMARK VINA RESULT:    -4.412     15.345     16.587
REMARK INTER + INTRA:          -8.892
REMARK INTER:                  -7.616
REMARK INTRA:                  -1.276
REMARK UNBOUND:                -1.385
REMARK SMILES CCCCCCCCCCCCCC(=O)[O-]
REMARK SMILES IDX 8 1 9 2 10 3 11 4 12 5 13 6 14 7 15 8 16 9 7 10 6 11 5 12
REMARK SMILES IDX 4 13 3 14 2 15 1 16
REMARK H PARENT
REMARK Flexibility Score: inf
ROOT
ATOM      1  C   UNL     1      -7.007   6.866  28.031  1.00  0.00     0.000 C 
ENDROOT
BRANCH   1   2
ATOM      2  C   UNL     1      -5.933   6.095  27.250  1.00  0.00     0.000 C 
BRANCH   2   3
ATOM      3  C   UNL     1      -4.580   6.823  27.227  1.00  0.00     0.000 C 
BRANCH   3   4
ATOM      4  C   UNL     1      -4.729   8.340  27.017  1.00  0.00     0.000 C 
BRANCH   4   5
ATOM      5  C   UNL     1      -4.624   8.744  25.537  1.00  0.00     0.006 C 
BRANCH   5   6
ATOM      6  C   UNL     1      -5.972   9.186  24.950  1.00  0.00     0.053 C 
BRANCH   6   7
ATOM      7  C   UNL     1      -6.440   8.204  23.924  1.00  0.00     0.041 C 
ATOM      8  O   UNL     1      -7.451   8.461  23.218  1.00  0.00    -0.550 OA
ATOM      9  O   UNL     1      -5.792   6.985  23.780  1.00  0.00    -0.550 OA
ENDBRANCH   6   7
ENDBRANCH   5   6
ENDBRANCH   4   5
ENDBRANCH   3   4
ENDBRANCH   2   3
ENDBRANCH   1   2
BRANCH   1  10
ATOM     10  C   UNL     1      -7.055   6.411  29.495  1.00  0.00     0.000 C 
BRANCH  10  11
ATOM     11  C   UNL     1      -6.401   7.447  30.417  1.00  0.00    -0.000 C 
BRANCH  11  12
ATOM     12  C   UNL     1      -5.332   6.796  31.305  1.00  0.00    -0.000 C 
BRANCH  12  13
ATOM     13  C   UNL     1      -4.962   5.371  30.854  1.00  0.00    -0.000 C 
BRANCH  13  14
ATOM     14  C   UNL     1      -5.149   4.280  31.923  1.00  0.00    -0.000 C 
BRANCH  14  15
ATOM     15  C   UNL     1      -3.875   4.021  32.742  1.00  0.00    -0.003 C 
ATOM     16  C   UNL     1      -4.212   3.698  34.195  1.00  0.00     0.004 C 
ENDBRANCH  14  15
ENDBRANCH  13  14
ENDBRANCH  12  13
ENDBRANCH  11  12
ENDBRANCH  10  11
ENDBRANCH   1  10
TORSDOF 12
ENDMDL
MODEL 8
REMARK VINA RESULT:    -4.336     15.306     17.415
REMARK INTER + INTRA:          -8.763
REMARK INTER:                  -7.159
REMARK INTRA:                  -1.603
REMARK UNBOUND:                -1.385
REMARK SMILES CCCCCCCCCCCCCC(=O)[O-]
REMARK SMILES IDX 8 1 9 2 10 3 11 4 12 5 13 6 14 7 15 8 16 9 7 10 6 11 5 12
REMARK SMILES IDX 4 13 3 14 2 15 1 16
REMARK H PARENT
REMARK Flexibility Score: inf
ROOT
ATOM      1  C   UNL     1      -4.570   8.499  24.912  1.00  0.00     0.000 C 
ENDROOT
BRANCH   1   2
ATOM      2  C   UNL     1      -4.031   7.133  25.358  1.00  0.00     0.000 C 
BRANCH   2   3
ATOM      3  C   UNL     1      -3.959   6.995  26.887  1.00  0.00     0.000 C 
BRANCH   3   4
ATOM      4  C   UNL     1      -4.184   8.334  27.611  1.00  0.00     0.000 C 
BRANCH   4   5
ATOM      5  C   UNL     1      -4.846   8.156  28.988  1.00  0.00     0.006 C 
BRANCH   5   6
ATOM      6  C   UNL     1      -4.791   6.705  29.484  1.00  0.00     0.053 C 
BRANCH   6   7
ATOM      7  C   UNL     1      -5.373   6.602  30.858  1.00  0.00     0.041 C 
ATOM      8  O   UNL     1      -5.771   7.636  31.456  1.00  0.00    -0.550 OA
ATOM      9  O   UNL     1      -5.433   5.371  31.498  1.00  0.00    -0.550 OA
ENDBRANCH   6   7
ENDBRANCH   5   6
ENDBRANCH   4   5
ENDBRANCH   3   4
ENDBRANCH   2   3
ENDBRANCH   1   2
BRANCH   1  10
ATOM     10  C   UNL     1      -5.286   8.394  23.560  1.00  0.00     0.000 C 
BRANCH  10  11
ATOM     11  C   UNL     1      -6.174   9.618  23.309  1.00  0.00    -0.000 C 
BRANCH  11  12
ATOM     12  C   UNL     1      -7.147   9.841  24.476  1.00  0.00    -0.000 C 
BRANCH  12  13
ATOM     13  C   UNL     1      -8.222   8.745  24.580  1.00  0.00    -0.000 C 
BRANCH  13  14
ATOM     14  C   UNL     1      -8.613   8.351  26.016  1.00  0.00    -0.000 C 
BRANCH  14  15
ATOM     15  C   UNL     1      -7.686   7.285  26.617  1.00  0.00    -0.003 C 
ATOM     16  C   UNL     1      -8.229   6.770  27.947  1.00  0.00     0.004 C 
ENDBRANCH  14  15
ENDBRANCH  13  14
ENDBRANCH  12  13
ENDBRANCH  11  12
ENDBRANCH  10  11
ENDBRANCH   1  10
TORSDOF 12
ENDMDL
MODEL 9
REMARK VINA RESULT:    -4.330      1.362      2.582
REMARK INTER + INTRA:          -8.754
REMARK INTER:                  -7.353
REMARK INTRA:                  -1.401
REMARK UNBOUND:                -1.385
REMARK SMILES CCCCCCCCCCCCCC(=O)[O-]
REMARK SMILES IDX 8 1 9 2 10 3 11 4 12 5 13 6 14 7 15 8 16 9 7 10 6 11 5 12
REMARK SMILES IDX 4 13 3 14 2 15 1 16
REMARK H PARENT
REMARK Flexibility Score: inf
ROOT
ATOM      1  C   UNL     1     -20.380   1.056  26.385  1.00  0.00     0.000 C 
ENDROOT
BRANCH   1   2
ATOM      2  C   UNL     1     -21.528   0.240  25.771  1.00  0.00     0.000 C 
BRANCH   2   3
ATOM      3  C   UNL     1     -22.530  -0.257  26.825  1.00  0.00     0.000 C 
BRANCH   3   4
ATOM      4  C   UNL     1     -22.428   0.520  28.149  1.00  0.00     0.000 C 
BRANCH   4   5
ATOM      5  C   UNL     1     -22.349  -0.407  29.373  1.00  0.00     0.006 C 
BRANCH   5   6
ATOM      6  C   UNL     1     -22.420  -1.892  28.992  1.00  0.00     0.053 C 
BRANCH   6   7
ATOM      7  C   UNL     1     -22.257  -2.750  30.206  1.00  0.00     0.041 C 
ATOM      8  O   UNL     1     -23.222  -2.917  30.998  1.00  0.00    -0.550 OA
ATOM      9  O   UNL     1     -21.026  -3.326  30.492  1.00  0.00    -0.550 OA
ENDBRANCH   6   7
ENDBRANCH   5   6
ENDBRANCH   4   5
ENDBRANCH   3   4
ENDBRANCH   2   3
ENDBRANCH   1   2
BRANCH   1  10
ATOM     10  C   UNL     1     -19.188   0.155  26.730  1.00  0.00     0.000 C 
BRANCH  10  11
ATOM     11  C   UNL     1     -18.441   0.677  27.963  1.00  0.00    -0.000 C 
BRANCH  11  12
ATOM     12  C   UNL     1     -18.733  -0.195  29.193  1.00  0.00    -0.000 C 
BRANCH  12  13
ATOM     13  C   UNL     1     -18.314  -1.663  29.002  1.00  0.00    -0.000 C 
BRANCH  13  14
ATOM     14  C   UNL     1     -17.647  -2.315  30.227  1.00  0.00    -0.000 C 
BRANCH  14  15
ATOM     15  C   UNL     1     -17.023  -1.289  31.184  1.00  0.00    -0.003 C 
ATOM     16  C   UNL     1     -16.943  -1.839  32.605  1.00  0.00     0.004 C 
ENDBRANCH  14  15
ENDBRANCH  13  14
ENDBRANCH  12  13
ENDBRANCH  11  12
ENDBRANCH  10  11
ENDBRANCH   1  10
TORSDOF 12
ENDMDL
