MODEL 1
REMARK VINA RESULT:    -2.802      0.000      0.000
REMARK INTER + INTRA:          -4.033
REMARK INTER:                  -3.949
REMARK INTRA:                  -0.084
REMARK UNBOUND:                -0.084
REMARK SMILES CCCCCCCCC(=O)[O-]
REMARK SMILES IDX 6 1 7 2 8 3 9 4 10 5 11 6 5 7 4 8 3 9 2 10 1 11
REMARK H PARENT
REMARK Flexibility Score: inf
ROOT
ATOM      1  C   UNL     1       6.948  20.894  55.821  1.00  0.00     0.000 C 
ENDROOT
BRANCH   1   2
ATOM      2  C   UNL     1       6.029  22.125  55.809  1.00  0.00     0.006 C 
BRANCH   2   3
ATOM      3  C   UNL     1       4.543  21.743  55.824  1.00  0.00     0.053 C 
BRANCH   3   4
ATOM      4  C   UNL     1       4.134  21.050  54.560  1.00  0.00     0.041 C 
ATOM      5  O   UNL     1       4.123  19.792  54.502  1.00  0.00    -0.550 OA
ATOM      6  O   UNL     1       3.798  21.793  53.435  1.00  0.00    -0.550 OA
ENDBRANCH   3   4
ENDBRANCH   2   3
ENDBRANCH   1   2
BRANCH   1   7
ATOM      7  C   UNL     1       8.398  21.296  56.125  1.00  0.00     0.000 C 
BRANCH   7   8
ATOM      8  C   UNL     1       9.423  20.312  55.537  1.00  0.00    -0.000 C 
BRANCH   8   9
ATOM      9  C   UNL     1      10.849  20.561  56.061  1.00  0.00    -0.000 C 
BRANCH   9  10
ATOM     10  C   UNL     1      11.929  20.124  55.058  1.00  0.00    -0.003 C 
ATOM     11  C   UNL     1      13.160  21.029  55.081  1.00  0.00     0.004 C 
ENDBRANCH   9  10
ENDBRANCH   8   9
ENDBRANCH   7   8
ENDBRANCH   1   7
TORSDOF 7
ENDMDL
MODEL 2
REMARK VINA RESULT:    -2.586      4.490      7.224
REMARK INTER + INTRA:          -3.728
REMARK INTER:                  -3.604
REMARK INTRA:                  -0.125
REMARK UNBOUND:                -0.084
REMARK SMILES CCCCCCCCC(=O)[O-]
REMARK SMILES IDX 6 1 7 2 8 3 9 4 10 5 11 6 5 7 4 8 3 9 2 10 1 11
REMARK H PARENT
REMARK Flexibility Score: inf
ROOT
ATOM      1  C   UNL     1       9.970  20.283  55.530  1.00  0.00     0.000 C 
ENDROOT
BRANCH   1   2
ATOM      2  C   UNL     1      11.348  20.643  56.106  1.00  0.00     0.006 C 
BRANCH   2   3
ATOM      3  C   UNL     1      12.433  20.711  55.023  1.00  0.00     0.053 C 
BRANCH   3   4
ATOM      4  C   UNL     1      13.780  20.334  55.561  1.00  0.00     0.041 C 
ATOM      5  O   UNL     1      14.042  19.131  55.825  1.00  0.00    -0.550 OA
ATOM      6  O   UNL     1      14.734  21.315  55.800  1.00  0.00    -0.550 OA
ENDBRANCH   3   4
ENDBRANCH   2   3
ENDBRANCH   1   2
BRANCH   1   7
ATOM      7  C   UNL     1       8.876  21.180  56.125  1.00  0.00     0.000 C 
BRANCH   7   8
ATOM      8  C   UNL     1       7.459  20.737  55.722  1.00  0.00    -0.000 C 
BRANCH   8   9
ATOM      9  C   UNL     1       6.514  21.928  55.482  1.00  0.00    -0.000 C 
BRANCH   9  10
ATOM     10  C   UNL     1       5.033  21.519  55.516  1.00  0.00    -0.003 C 
ATOM     11  C   UNL     1       4.580  20.827  54.230  1.00  0.00     0.004 C 
ENDBRANCH   9  10
ENDBRANCH   8   9
ENDBRANCH   7   8
ENDBRANCH   1   7
TORSDOF 7
ENDMDL
MODEL 3
REMARK VINA RESULT:    -2.249      3.689      6.517
REMARK INTER + INTRA:          -3.254
REMARK INTER:                  -2.981
REMARK INTRA:                  -0.273
REMARK UNBOUND:                -0.084
REMARK SMILES CCCCCCCCC(=O)[O-]
REMARK SMILES IDX 6 1 7 2 8 3 9 4 10 5 11 6 5 7 4 8 3 9 2 10 1 11
REMARK H PARENT
REMARK Flexibility Score: inf
ROOT
ATOM      1  C   UNL     1       8.026  21.001  55.333  1.00  0.00     0.000 C 
ENDROOT
BRANCH   1   2
ATOM      2  C   UNL     1       9.252  20.520  56.124  1.00  0.00     0.006 C 
BRANCH   2   3
ATOM      3  C   UNL     1      10.532  21.266  55.725  1.00  0.00     0.053 C 
BRANCH   3   4
ATOM      4  C   UNL     1      11.745  20.396  55.853  1.00  0.00     0.041 C 
ATOM      5  O   UNL     1      11.621  19.171  56.118  1.00  0.00    -0.550 OA
ATOM      6  O   UNL     1      13.014  20.945  55.713  1.00  0.00    -0.550 OA
ENDBRANCH   3   4
ENDBRANCH   2   3
ENDBRANCH   1   2
BRANCH   1   7
ATOM      7  C   UNL     1       7.252  22.069  56.118  1.00  0.00     0.000 C 
BRANCH   7   8
ATOM      8  C   UNL     1       5.737  22.017  55.860  1.00  0.00    -0.000 C 
BRANCH   8   9
ATOM      9  C   UNL     1       5.321  20.789  55.030  1.00  0.00    -0.000 C 
BRANCH   9  10
ATOM     10  C   UNL     1       3.905  20.924  54.449  1.00  0.00    -0.003 C 
ATOM     11  C   UNL     1       3.844  21.869  53.249  1.00  0.00     0.004 C 
ENDBRANCH   9  10
ENDBRANCH   8   9
ENDBRANCH   7   8
ENDBRANCH   1   7
TORSDOF 7
ENDMDL
