MODEL 1
REMARK VINA RESULT:    -4.778      0.000      0.000
REMARK INTER + INTRA:          -8.244
REMARK INTER:                  -7.292
REMARK INTRA:                  -0.952
REMARK UNBOUND:                -0.952
REMARK SMILES OC[C@@H]1O[C@H](O[C@@]2(CO)O[C@H](CO)[C@H](O)[C@@H]2O)[C@@H](O)[C@H](O)[C@H]1O
REMARK SMILES IDX 6 1 5 2 3 3 22 4 4 5 20 6 18 7 2 8 1 9 23 11 21 13 19 15
REMARK SMILES IDX 7 17 16 18 10 19 14 20 11 21 8 22 9 23 17 25 15 27 12 29
REMARK SMILES IDX 13 30
REMARK H PARENT 1 10 23 12 21 14 19 16 9 24 17 26 15 28 13 31
REMARK Flexibility Score: inf
ROOT
ATOM      1  O   UNL     1      -4.785   3.934 -22.097  1.00  0.00    -0.313 OA
ENDROOT
BRANCH   1   2
ATOM      2  C   UNL     1      -3.763   3.673 -23.052  1.00  0.00     0.285 C 
ATOM      3  C   UNL     1      -2.187   4.748 -24.411  1.00  0.00     0.178 C 
ATOM      4  C   UNL     1      -1.002   3.857 -23.938  1.00  0.00     0.177 C 
ATOM      5  O   UNL     1      -3.148   4.907 -23.376  1.00  0.00    -0.341 OA
ATOM      6  C   UNL     1      -1.530   2.513 -23.405  1.00  0.00     0.179 C 
ATOM      7  C   UNL     1      -2.700   2.741 -22.423  1.00  0.00     0.202 C 
BRANCH   3   8
ATOM      8  C   UNL     1      -1.708   6.155 -24.829  1.00  0.00     0.191 C 
BRANCH   8   9
ATOM      9  O   UNL     1      -0.610   6.595 -24.073  1.00  0.00    -0.394 OA
ATOM     10  H   UNL     1      -0.257   7.408 -24.523  1.00  0.00     0.210 HD
ENDBRANCH   8   9
ENDBRANCH   3   8
BRANCH   4  11
ATOM     11  O   UNL     1      -0.123   3.612 -25.003  1.00  0.00    -0.387 OA
ATOM     12  H   UNL     1      -0.426   4.191 -25.750  1.00  0.00     0.211 HD
ENDBRANCH   4  11
BRANCH   6  13
ATOM     13  O   UNL     1      -0.503   1.814 -22.750  1.00  0.00    -0.387 OA
ATOM     14  H   UNL     1      -0.105   2.436 -22.086  1.00  0.00     0.211 HD
ENDBRANCH   6  13
BRANCH   7  15
ATOM     15  O   UNL     1      -3.233   1.499 -22.033  1.00  0.00    -0.385 OA
ATOM     16  H   UNL     1      -4.212   1.535 -22.194  1.00  0.00     0.211 HD
ENDBRANCH   7  15
ENDBRANCH   1   2
BRANCH   1  17
ATOM     17  C   UNL     1      -6.121   3.713 -22.568  1.00  0.00     0.224 C 
ATOM     18  C   UNL     1      -6.341   4.114 -24.055  1.00  0.00     0.208 C 
ATOM     19  O   UNL     1      -6.953   4.585 -21.824  1.00  0.00    -0.337 OA
ATOM     20  C   UNL     1      -6.460   5.629 -23.937  1.00  0.00     0.180 C 
ATOM     21  C   UNL     1      -7.002   5.829 -22.506  1.00  0.00     0.179 C 
BRANCH  17  22
ATOM     22  C   UNL     1      -6.547   2.245 -22.283  1.00  0.00     0.225 C 
BRANCH  22  23
ATOM     23  O   UNL     1      -5.835   1.715 -21.191  1.00  0.00    -0.391 OA
ATOM     24  H   UNL     1      -6.492   1.340 -20.548  1.00  0.00     0.210 HD
ENDBRANCH  22  23
ENDBRANCH  17  22
BRANCH  18  25
ATOM     25  O   UNL     1      -7.518   3.530 -24.581  1.00  0.00    -0.385 OA
ATOM     26  H   UNL     1      -7.616   3.830 -25.522  1.00  0.00     0.211 HD
ENDBRANCH  18  25
BRANCH  20  27
ATOM     27  O   UNL     1      -7.188   6.259 -24.970  1.00  0.00    -0.387 OA
ATOM     28  H   UNL     1      -8.052   6.582 -24.616  1.00  0.00     0.211 HD
ENDBRANCH  20  27
BRANCH  21  29
ATOM     29  C   UNL     1      -8.428   6.427 -22.396  1.00  0.00     0.191 C 
BRANCH  29  30
ATOM     30  O   UNL     1      -8.976   6.112 -21.142  1.00  0.00    -0.394 OA
ATOM     31  H   UNL     1      -8.410   5.396 -20.755  1.00  0.00     0.210 HD
ENDBRANCH  29  30
ENDBRANCH  21  29
ENDBRANCH   1  17
TORSDOF 13
ENDMDL
MODEL 2
REMARK VINA RESULT:    -4.242      1.797      4.050
REMARK INTER + INTRA:          -7.426
REMARK INTER:                  -5.853
REMARK INTRA:                  -1.573
REMARK UNBOUND:                -0.952
REMARK SMILES OC[C@@H]1O[C@H](O[C@@]2(CO)O[C@H](CO)[C@H](O)[C@@H]2O)[C@@H](O)[C@H](O)[C@H]1O
REMARK SMILES IDX 6 1 5 2 3 3 22 4 4 5 20 6 18 7 2 8 1 9 23 11 21 13 19 15
REMARK SMILES IDX 7 17 16 18 10 19 14 20 11 21 8 22 9 23 17 25 15 27 12 29
REMARK SMILES IDX 13 30
REMARK H PARENT 1 10 23 12 21 14 19 16 9 24 17 26 15 28 13 31
REMARK Flexibility Score: inf
ROOT
ATOM      1  O   UNL     1      -5.585   6.133 -24.843  1.00  0.00    -0.313 OA
ENDROOT
BRANCH   1   2
ATOM      2  C   UNL     1      -4.230   6.201 -24.414  1.00  0.00     0.285 C 
ATOM      3  C   UNL     1      -2.188   5.061 -24.558  1.00  0.00     0.178 C 
ATOM      4  C   UNL     1      -1.384   6.322 -24.985  1.00  0.00     0.177 C 
ATOM      5  O   UNL     1      -3.529   5.132 -25.024  1.00  0.00    -0.341 OA
ATOM      6  C   UNL     1      -2.110   7.597 -24.518  1.00  0.00     0.179 C 
ATOM      7  C   UNL     1      -3.608   7.535 -24.890  1.00  0.00     0.202 C 
BRANCH   3   8
ATOM      8  C   UNL     1      -1.561   3.768 -25.123  1.00  0.00     0.191 C 
BRANCH   8   9
ATOM      9  O   UNL     1      -0.397   3.392 -24.434  1.00  0.00    -0.394 OA
ATOM     10  H   UNL     1       0.012   2.645 -24.946  1.00  0.00     0.210 HD
ENDBRANCH   8   9
ENDBRANCH   3   8
BRANCH   4  11
ATOM     11  O   UNL     1      -0.101   6.294 -24.420  1.00  0.00    -0.387 OA
ATOM     12  H   UNL     1       0.156   7.241 -24.269  1.00  0.00     0.211 HD
ENDBRANCH   4  11
BRANCH   6  13
ATOM     13  O   UNL     1      -1.531   8.730 -25.112  1.00  0.00    -0.387 OA
ATOM     14  H   UNL     1      -0.551   8.670 -24.960  1.00  0.00     0.211 HD
ENDBRANCH   6  13
BRANCH   7  15
ATOM     15  O   UNL     1      -4.268   8.658 -24.360  1.00  0.00    -0.385 OA
ATOM     16  H   UNL     1      -3.585   9.212 -23.901  1.00  0.00     0.211 HD
ENDBRANCH   7  15
ENDBRANCH   1   2
BRANCH   1  17
ATOM     17  C   UNL     1      -6.533   5.848 -23.806  1.00  0.00     0.224 C 
ATOM     18  C   UNL     1      -5.973   4.944 -22.670  1.00  0.00     0.208 C 
ATOM     19  O   UNL     1      -7.563   5.086 -24.409  1.00  0.00    -0.337 OA
ATOM     20  C   UNL     1      -6.036   3.570 -23.329  1.00  0.00     0.180 C 
ATOM     21  C   UNL     1      -7.193   3.717 -24.339  1.00  0.00     0.179 C 
BRANCH  17  22
ATOM     22  C   UNL     1      -7.137   7.172 -23.261  1.00  0.00     0.225 C 
BRANCH  22  23
ATOM     23  O   UNL     1      -6.384   7.664 -22.179  1.00  0.00    -0.391 OA
ATOM     24  H   UNL     1      -6.507   7.047 -21.411  1.00  0.00     0.210 HD
ENDBRANCH  22  23
ENDBRANCH  17  22
BRANCH  18  25
ATOM     25  O   UNL     1      -6.778   5.011 -21.508  1.00  0.00    -0.385 OA
ATOM     26  H   UNL     1      -6.958   4.083 -21.205  1.00  0.00     0.211 HD
ENDBRANCH  18  25
BRANCH  20  27
ATOM     27  O   UNL     1      -6.124   2.477 -22.439  1.00  0.00    -0.387 OA
ATOM     28  H   UNL     1      -6.196   1.637 -22.953  1.00  0.00     0.211 HD
ENDBRANCH  20  27
BRANCH  21  29
ATOM     29  C   UNL     1      -8.448   2.851 -24.066  1.00  0.00     0.191 C 
BRANCH  29  30
ATOM     30  O   UNL     1      -8.985   3.180 -22.810  1.00  0.00    -0.394 OA
ATOM     31  H   UNL     1      -9.810   3.702 -22.980  1.00  0.00     0.210 HD
ENDBRANCH  29  30
ENDBRANCH  21  29
ENDBRANCH   1  17
TORSDOF 13
ENDMDL
MODEL 3
REMARK VINA RESULT:    -3.569      1.587      4.031
REMARK INTER + INTRA:          -6.399
REMARK INTER:                  -5.396
REMARK INTRA:                  -1.003
REMARK UNBOUND:                -0.952
REMARK SMILES OC[C@@H]1O[C@H](O[C@@]2(CO)O[C@H](CO)[C@H](O)[C@@H]2O)[C@@H](O)[C@H](O)[C@H]1O
REMARK SMILES IDX 6 1 5 2 3 3 22 4 4 5 20 6 18 7 2 8 1 9 23 11 21 13 19 15
REMARK SMILES IDX 7 17 16 18 10 19 14 20 11 21 8 22 9 23 17 25 15 27 12 29
REMARK SMILES IDX 13 30
REMARK H PARENT 1 10 23 12 21 14 19 16 9 24 17 26 15 28 13 31
REMARK Flexibility Score: inf
ROOT
ATOM      1  O   UNL     1      -5.338   5.148 -25.125  1.00  0.00    -0.313 OA
ENDROOT
BRANCH   1   2
ATOM      2  C   UNL     1      -4.094   5.427 -24.495  1.00  0.00     0.285 C 
ATOM      3  C   UNL     1      -1.969   4.515 -24.119  1.00  0.00     0.178 C 
ATOM      4  C   UNL     1      -1.213   5.788 -24.599  1.00  0.00     0.177 C 
ATOM      5  O   UNL     1      -3.204   4.369 -24.805  1.00  0.00    -0.341 OA
ATOM      6  C   UNL     1      -2.119   7.025 -24.464  1.00  0.00     0.179 C 
ATOM      7  C   UNL     1      -3.514   6.744 -25.064  1.00  0.00     0.202 C 
BRANCH   3   8
ATOM      8  C   UNL     1      -1.140   3.236 -24.362  1.00  0.00     0.191 C 
BRANCH   8   9
ATOM      9  O   UNL     1       0.062   3.495 -25.038  1.00  0.00    -0.394 OA
ATOM     10  H   UNL     1       0.323   2.653 -25.496  1.00  0.00     0.210 HD
ENDBRANCH   8   9
ENDBRANCH   3   8
BRANCH   4  11
ATOM     11  O   UNL     1      -0.055   5.983 -23.832  1.00  0.00    -0.387 OA
ATOM     12  H   UNL     1       0.143   5.111 -23.403  1.00  0.00     0.211 HD
ENDBRANCH   4  11
BRANCH   6  13
ATOM     13  O   UNL     1      -1.542   8.122 -25.125  1.00  0.00    -0.387 OA
ATOM     14  H   UNL     1      -1.998   8.938 -24.787  1.00  0.00     0.211 HD
ENDBRANCH   6  13
BRANCH   7  15
ATOM     15  O   UNL     1      -4.354   7.848 -24.834  1.00  0.00    -0.385 OA
ATOM     16  H   UNL     1      -4.618   7.822 -23.878  1.00  0.00     0.211 HD
ENDBRANCH   7  15
ENDBRANCH   1   2
BRANCH   1  17
ATOM     17  C   UNL     1      -6.475   5.164 -24.251  1.00  0.00     0.224 C 
ATOM     18  C   UNL     1      -6.122   5.441 -22.762  1.00  0.00     0.208 C 
ATOM     19  O   UNL     1      -7.005   3.851 -24.266  1.00  0.00    -0.337 OA
ATOM     20  C   UNL     1      -5.600   4.077 -22.324  1.00  0.00     0.180 C 
ATOM     21  C   UNL     1      -6.341   3.100 -23.261  1.00  0.00     0.179 C 
BRANCH  17  22
ATOM     22  C   UNL     1      -7.548   6.148 -24.796  1.00  0.00     0.225 C 
BRANCH  22  23
ATOM     23  O   UNL     1      -7.310   7.458 -24.340  1.00  0.00    -0.391 OA
ATOM     24  H   UNL     1      -7.382   7.458 -23.350  1.00  0.00     0.210 HD
ENDBRANCH  22  23
ENDBRANCH  17  22
BRANCH  18  25
ATOM     25  O   UNL     1      -7.263   5.834 -22.022  1.00  0.00    -0.385 OA
ATOM     26  H   UNL     1      -7.730   5.013 -21.720  1.00  0.00     0.211 HD
ENDBRANCH  18  25
BRANCH  20  27
ATOM     27  O   UNL     1      -5.702   3.808 -20.941  1.00  0.00    -0.387 OA
ATOM     28  H   UNL     1      -6.585   3.411 -20.746  1.00  0.00     0.211 HD
ENDBRANCH  20  27
BRANCH  21  29
ATOM     29  C   UNL     1      -7.346   2.136 -22.582  1.00  0.00     0.191 C 
BRANCH  29  30
ATOM     30  O   UNL     1      -6.653   1.246 -21.744  1.00  0.00    -0.394 OA
ATOM     31  H   UNL     1      -6.499   0.420 -22.270  1.00  0.00     0.210 HD
ENDBRANCH  29  30
ENDBRANCH  21  29
ENDBRANCH   1  17
TORSDOF 13
ENDMDL
MODEL 4
REMARK VINA RESULT:    -3.537      1.513      6.249
REMARK INTER + INTRA:          -6.349
REMARK INTER:                  -5.038
REMARK INTRA:                  -1.311
REMARK UNBOUND:                -0.952
REMARK SMILES OC[C@@H]1O[C@H](O[C@@]2(CO)O[C@H](CO)[C@H](O)[C@@H]2O)[C@@H](O)[C@H](O)[C@H]1O
REMARK SMILES IDX 6 1 5 2 3 3 22 4 4 5 20 6 18 7 2 8 1 9 23 11 21 13 19 15
REMARK SMILES IDX 7 17 16 18 10 19 14 20 11 21 8 22 9 23 17 25 15 27 12 29
REMARK SMILES IDX 13 30
REMARK H PARENT 1 10 23 12 21 14 19 16 9 24 17 26 15 28 13 31
REMARK Flexibility Score: inf
ROOT
ATOM      1  O   UNL     1      -3.668   3.830 -24.446  1.00  0.00    -0.313 OA
ENDROOT
BRANCH   1   2
ATOM      2  C   UNL     1      -4.573   4.653 -23.720  1.00  0.00     0.285 C 
ATOM      3  C   UNL     1      -5.950   6.534 -23.951  1.00  0.00     0.178 C 
ATOM      4  C   UNL     1      -7.201   5.833 -23.347  1.00  0.00     0.177 C 
ATOM      5  O   UNL     1      -5.118   5.599 -24.623  1.00  0.00    -0.341 OA
ATOM      6  C   UNL     1      -6.770   4.664 -22.444  1.00  0.00     0.179 C 
ATOM      7  C   UNL     1      -5.723   3.782 -23.161  1.00  0.00     0.202 C 
BRANCH   3   8
ATOM      8  C   UNL     1      -6.345   7.628 -24.966  1.00  0.00     0.191 C 
BRANCH   8   9
ATOM      9  O   UNL     1      -7.737   7.766 -25.091  1.00  0.00    -0.394 OA
ATOM     10  H   UNL     1      -8.074   8.093 -24.216  1.00  0.00     0.210 HD
ENDBRANCH   8   9
ENDBRANCH   3   8
BRANCH   4  11
ATOM     11  O   UNL     1      -7.950   6.744 -22.589  1.00  0.00    -0.387 OA
ATOM     12  H   UNL     1      -8.137   6.295 -21.723  1.00  0.00     0.211 HD
ENDBRANCH   4  11
BRANCH   6  13
ATOM     13  O   UNL     1      -7.883   3.877 -22.103  1.00  0.00    -0.387 OA
ATOM     14  H   UNL     1      -8.425   4.404 -21.459  1.00  0.00     0.211 HD
ENDBRANCH   6  13
BRANCH   7  15
ATOM     15  O   UNL     1      -5.267   2.786 -22.278  1.00  0.00    -0.385 OA
ATOM     16  H   UNL     1      -4.285   2.711 -22.402  1.00  0.00     0.211 HD
ENDBRANCH   7  15
ENDBRANCH   1   2
BRANCH   1  17
ATOM     17  C   UNL     1      -2.288   3.991 -24.093  1.00  0.00     0.224 C 
ATOM     18  C   UNL     1      -1.297   3.380 -25.125  1.00  0.00     0.208 C 
ATOM     19  O   UNL     1      -2.092   3.241 -22.907  1.00  0.00    -0.337 OA
ATOM     20  C   UNL     1      -1.382   1.899 -24.775  1.00  0.00     0.180 C 
ATOM     21  C   UNL     1      -1.761   1.913 -23.279  1.00  0.00     0.179 C 
BRANCH  17  22
ATOM     22  C   UNL     1      -1.987   5.487 -23.800  1.00  0.00     0.225 C 
BRANCH  22  23
ATOM     23  O   UNL     1      -0.866   5.623 -22.961  1.00  0.00    -0.391 OA
ATOM     24  H   UNL     1      -1.184   5.635 -22.020  1.00  0.00     0.210 HD
ENDBRANCH  22  23
ENDBRANCH  17  22
BRANCH  18  25
ATOM     25  O   UNL     1       0.012   3.891 -24.953  1.00  0.00    -0.385 OA
ATOM     26  H   UNL     1       0.654   3.204 -25.269  1.00  0.00     0.211 HD
ENDBRANCH  18  25
BRANCH  20  27
ATOM     27  O   UNL     1      -0.248   1.131 -25.120  1.00  0.00    -0.387 OA
ATOM     28  H   UNL     1       0.322   1.007 -24.323  1.00  0.00     0.211 HD
ENDBRANCH  20  27
BRANCH  21  29
ATOM     29  C   UNL     1      -0.699   1.347 -22.303  1.00  0.00     0.191 C 
BRANCH  29  30
ATOM     30  O   UNL     1      -0.448  -0.001 -22.607  1.00  0.00    -0.394 OA
ATOM     31  H   UNL     1      -1.315  -0.400 -22.872  1.00  0.00     0.210 HD
ENDBRANCH  29  30
ENDBRANCH  21  29
ENDBRANCH   1  17
TORSDOF 13
ENDMDL
MODEL 5
REMARK VINA RESULT:    -3.489      1.718      6.014
REMARK INTER + INTRA:          -6.276
REMARK INTER:                  -5.210
REMARK INTRA:                  -1.066
REMARK UNBOUND:                -0.952
REMARK SMILES OC[C@@H]1O[C@H](O[C@@]2(CO)O[C@H](CO)[C@H](O)[C@@H]2O)[C@@H](O)[C@H](O)[C@H]1O
REMARK SMILES IDX 6 1 5 2 3 3 22 4 4 5 20 6 18 7 2 8 1 9 23 11 21 13 19 15
REMARK SMILES IDX 7 17 16 18 10 19 14 20 11 21 8 22 9 23 17 25 15 27 12 29
REMARK SMILES IDX 13 30
REMARK H PARENT 1 10 23 12 21 14 19 16 9 24 17 26 15 28 13 31
REMARK Flexibility Score: inf
ROOT
ATOM      1  O   UNL     1      -4.319   3.584 -24.252  1.00  0.00    -0.313 OA
ENDROOT
BRANCH   1   2
ATOM      2  C   UNL     1      -5.362   4.461 -23.844  1.00  0.00     0.285 C 
ATOM      3  C   UNL     1      -6.263   6.582 -24.267  1.00  0.00     0.178 C 
ATOM      4  C   UNL     1      -7.718   6.057 -24.426  1.00  0.00     0.177 C 
ATOM      5  O   UNL     1      -5.321   5.602 -24.682  1.00  0.00    -0.341 OA
ATOM      6  C   UNL     1      -7.884   4.720 -23.682  1.00  0.00     0.179 C 
ATOM      7  C   UNL     1      -6.727   3.758 -24.032  1.00  0.00     0.202 C 
BRANCH   3   8
ATOM      8  C   UNL     1      -6.021   7.854 -25.108  1.00  0.00     0.191 C 
BRANCH   8   9
ATOM      9  O   UNL     1      -6.273   9.031 -24.385  1.00  0.00    -0.394 OA
ATOM     10  H   UNL     1      -5.430   9.558 -24.390  1.00  0.00     0.210 HD
ENDBRANCH   8   9
ENDBRANCH   3   8
BRANCH   4  11
ATOM     11  O   UNL     1      -8.630   6.986 -23.904  1.00  0.00    -0.387 OA
ATOM     12  H   UNL     1      -9.345   6.456 -23.466  1.00  0.00     0.211 HD
ENDBRANCH   4  11
BRANCH   6  13
ATOM     13  O   UNL     1      -9.106   4.120 -24.028  1.00  0.00    -0.387 OA
ATOM     14  H   UNL     1      -8.892   3.281 -24.513  1.00  0.00     0.211 HD
ENDBRANCH   6  13
BRANCH   7  15
ATOM     15  O   UNL     1      -6.843   2.587 -23.260  1.00  0.00    -0.385 OA
ATOM     16  H   UNL     1      -6.713   1.818 -23.873  1.00  0.00     0.211 HD
ENDBRANCH   7  15
ENDBRANCH   1   2
BRANCH   1  17
ATOM     17  C   UNL     1      -3.188   3.539 -23.372  1.00  0.00     0.224 C 
ATOM     18  C   UNL     1      -2.063   4.549 -23.739  1.00  0.00     0.208 C 
ATOM     19  O   UNL     1      -2.604   2.260 -23.541  1.00  0.00    -0.337 OA
ATOM     20  C   UNL     1      -1.390   3.831 -24.904  1.00  0.00     0.180 C 
ATOM     21  C   UNL     1      -1.672   2.343 -24.609  1.00  0.00     0.179 C 
BRANCH  17  22
ATOM     22  C   UNL     1      -3.657   3.689 -21.898  1.00  0.00     0.225 C 
BRANCH  22  23
ATOM     23  O   UNL     1      -3.915   2.433 -21.319  1.00  0.00    -0.391 OA
ATOM     24  H   UNL     1      -4.857   2.189 -21.518  1.00  0.00     0.210 HD
ENDBRANCH  22  23
ENDBRANCH  17  22
BRANCH  18  25
ATOM     25  O   UNL     1      -1.173   4.752 -22.657  1.00  0.00    -0.385 OA
ATOM     26  H   UNL     1      -0.856   3.863 -22.350  1.00  0.00     0.211 HD
ENDBRANCH  18  25
BRANCH  20  27
ATOM     27  O   UNL     1      -0.039   4.175 -25.125  1.00  0.00    -0.387 OA
ATOM     28  H   UNL     1       0.008   4.979 -25.697  1.00  0.00     0.211 HD
ENDBRANCH  20  27
BRANCH  21  29
ATOM     29  C   UNL     1      -0.434   1.467 -24.288  1.00  0.00     0.191 C 
BRANCH  29  30
ATOM     30  O   UNL     1      -0.203   1.466 -22.903  1.00  0.00    -0.394 OA
ATOM     31  H   UNL     1      -0.409   0.552 -22.579  1.00  0.00     0.210 HD
ENDBRANCH  29  30
ENDBRANCH  21  29
ENDBRANCH   1  17
TORSDOF 13
ENDMDL
MODEL 6
REMARK VINA RESULT:    -3.469      1.726      3.494
REMARK INTER + INTRA:          -6.246
REMARK INTER:                  -5.179
REMARK INTRA:                  -1.067
REMARK UNBOUND:                -0.952
REMARK SMILES OC[C@@H]1O[C@H](O[C@@]2(CO)O[C@H](CO)[C@H](O)[C@@H]2O)[C@@H](O)[C@H](O)[C@H]1O
REMARK SMILES IDX 6 1 5 2 3 3 22 4 4 5 20 6 18 7 2 8 1 9 23 11 21 13 19 15
REMARK SMILES IDX 7 17 16 18 10 19 14 20 11 21 8 22 9 23 17 25 15 27 12 29
REMARK SMILES IDX 13 30
REMARK H PARENT 1 10 23 12 21 14 19 16 9 24 17 26 15 28 13 31
REMARK Flexibility Score: inf
ROOT
ATOM      1  O   UNL     1      -4.943   5.089 -24.615  1.00  0.00    -0.313 OA
ENDROOT
BRANCH   1   2
ATOM      2  C   UNL     1      -3.764   5.803 -24.265  1.00  0.00     0.285 C 
ATOM      3  C   UNL     1      -1.435   5.763 -24.519  1.00  0.00     0.178 C 
ATOM      4  C   UNL     1      -1.347   7.242 -24.996  1.00  0.00     0.177 C 
ATOM      5  O   UNL     1      -2.669   5.176 -24.908  1.00  0.00    -0.341 OA
ATOM      6  C   UNL     1      -2.568   8.034 -24.494  1.00  0.00     0.179 C 
ATOM      7  C   UNL     1      -3.873   7.259 -24.781  1.00  0.00     0.202 C 
BRANCH   3   8
ATOM      8  C   UNL     1      -0.297   4.905 -25.112  1.00  0.00     0.191 C 
BRANCH   8   9
ATOM      9  O   UNL     1      -0.488   3.532 -24.889  1.00  0.00    -0.394 OA
ATOM     10  H   UNL     1      -0.491   3.093 -25.780  1.00  0.00     0.210 HD
ENDBRANCH   8   9
ENDBRANCH   3   8
BRANCH   4  11
ATOM     11  O   UNL     1      -0.180   7.842 -24.504  1.00  0.00    -0.387 OA
ATOM     12  H   UNL     1       0.387   8.035 -25.296  1.00  0.00     0.211 HD
ENDBRANCH   4  11
BRANCH   6  13
ATOM     13  O   UNL     1      -2.625   9.287 -25.125  1.00  0.00    -0.387 OA
ATOM     14  H   UNL     1      -3.581   9.556 -25.152  1.00  0.00     0.211 HD
ENDBRANCH   6  13
BRANCH   7  15
ATOM     15  O   UNL     1      -4.961   7.951 -24.219  1.00  0.00    -0.385 OA
ATOM     16  H   UNL     1      -5.053   8.805 -24.715  1.00  0.00     0.211 HD
ENDBRANCH   7  15
ENDBRANCH   1   2
BRANCH   1  17
ATOM     17  C   UNL     1      -5.667   4.538 -23.507  1.00  0.00     0.224 C 
ATOM     18  C   UNL     1      -6.661   3.409 -23.902  1.00  0.00     0.208 C 
ATOM     19  O   UNL     1      -6.478   5.584 -23.004  1.00  0.00    -0.337 OA
ATOM     20  C   UNL     1      -7.822   4.222 -24.466  1.00  0.00     0.180 C 
ATOM     21  C   UNL     1      -7.706   5.565 -23.716  1.00  0.00     0.179 C 
BRANCH  17  22
ATOM     22  C   UNL     1      -4.676   4.089 -22.397  1.00  0.00     0.225 C 
BRANCH  22  23
ATOM     23  O   UNL     1      -3.862   3.031 -22.843  1.00  0.00    -0.391 OA
ATOM     24  H   UNL     1      -4.251   2.181 -22.509  1.00  0.00     0.210 HD
ENDBRANCH  22  23
ENDBRANCH  17  22
BRANCH  18  25
ATOM     25  O   UNL     1      -7.049   2.642 -22.778  1.00  0.00    -0.385 OA
ATOM     26  H   UNL     1      -6.677   1.728 -22.886  1.00  0.00     0.211 HD
ENDBRANCH  18  25
BRANCH  20  27
ATOM     27  O   UNL     1      -9.083   3.588 -24.414  1.00  0.00    -0.387 OA
ATOM     28  H   UNL     1      -9.347   3.455 -23.472  1.00  0.00     0.211 HD
ENDBRANCH  20  27
BRANCH  21  29
ATOM     29  C   UNL     1      -8.871   5.909 -22.753  1.00  0.00     0.191 C 
BRANCH  29  30
ATOM     30  O   UNL     1      -8.359   6.201 -21.478  1.00  0.00    -0.394 OA
ATOM     31  H   UNL     1      -9.116   6.541 -20.937  1.00  0.00     0.210 HD
ENDBRANCH  29  30
ENDBRANCH  21  29
ENDBRANCH   1  17
TORSDOF 13
ENDMDL
MODEL 7
REMARK VINA RESULT:    -3.026      1.639      6.351
REMARK INTER + INTRA:          -5.570
REMARK INTER:                  -6.829
REMARK INTRA:                   1.259
REMARK UNBOUND:                -0.952
REMARK SMILES OC[C@@H]1O[C@H](O[C@@]2(CO)O[C@H](CO)[C@H](O)[C@@H]2O)[C@@H](O)[C@H](O)[C@H]1O
REMARK SMILES IDX 6 1 5 2 3 3 22 4 4 5 20 6 18 7 2 8 1 9 23 11 21 13 19 15
REMARK SMILES IDX 7 17 16 18 10 19 14 20 11 21 8 22 9 23 17 25 15 27 12 29
REMARK SMILES IDX 13 30
REMARK H PARENT 1 10 23 12 21 14 19 16 9 24 17 26 15 28 13 31
REMARK Flexibility Score: inf
ROOT
ATOM      1  O   UNL     1      -4.125   4.166 -25.071  1.00  0.00    -0.313 OA
ENDROOT
BRANCH   1   2
ATOM      2  C   UNL     1      -5.441   4.513 -24.659  1.00  0.00     0.285 C 
ATOM      3  C   UNL     1      -7.368   3.612 -23.676  1.00  0.00     0.178 C 
ATOM      4  C   UNL     1      -7.490   4.740 -22.611  1.00  0.00     0.177 C 
ATOM      5  O   UNL     1      -6.008   3.384 -24.020  1.00  0.00    -0.341 OA
ATOM      6  C   UNL     1      -6.778   6.013 -23.103  1.00  0.00     0.179 C 
ATOM      7  C   UNL     1      -5.369   5.675 -23.638  1.00  0.00     0.202 C 
BRANCH   3   8
ATOM      8  C   UNL     1      -7.955   2.280 -23.164  1.00  0.00     0.191 C 
BRANCH   8   9
ATOM      9  O   UNL     1      -7.987   1.290 -24.159  1.00  0.00    -0.394 OA
ATOM     10  H   UNL     1      -7.046   1.018 -24.326  1.00  0.00     0.210 HD
ENDBRANCH   8   9
ENDBRANCH   3   8
BRANCH   4  11
ATOM     11  O   UNL     1      -8.839   5.036 -22.370  1.00  0.00    -0.387 OA
ATOM     12  H   UNL     1      -9.361   4.290 -22.765  1.00  0.00     0.211 HD
ENDBRANCH   4  11
BRANCH   6  13
ATOM     13  O   UNL     1      -6.666   6.942 -22.055  1.00  0.00    -0.387 OA
ATOM     14  H   UNL     1      -7.564   7.344 -21.925  1.00  0.00     0.211 HD
ENDBRANCH   6  13
BRANCH   7  15
ATOM     15  O   UNL     1      -4.783   6.833 -24.178  1.00  0.00    -0.385 OA
ATOM     16  H   UNL     1      -4.970   7.578 -23.549  1.00  0.00     0.211 HD
ENDBRANCH   7  15
ENDBRANCH   1   2
BRANCH   1  17
ATOM     17  C   UNL     1      -3.208   3.898 -24.003  1.00  0.00     0.224 C 
ATOM     18  C   UNL     1      -1.931   4.786 -24.030  1.00  0.00     0.208 C 
ATOM     19  O   UNL     1      -2.742   2.575 -24.202  1.00  0.00    -0.337 OA
ATOM     20  C   UNL     1      -1.116   4.096 -25.119  1.00  0.00     0.180 C 
ATOM     21  C   UNL     1      -1.609   2.636 -25.055  1.00  0.00     0.179 C 
BRANCH  17  22
ATOM     22  C   UNL     1      -3.949   3.972 -22.638  1.00  0.00     0.225 C 
BRANCH  22  23
ATOM     23  O   UNL     1      -3.400   3.062 -21.715  1.00  0.00    -0.391 OA
ATOM     24  H   UNL     1      -3.652   2.145 -21.999  1.00  0.00     0.210 HD
ENDBRANCH  22  23
ENDBRANCH  17  22
BRANCH  18  25
ATOM     25  O   UNL     1      -1.263   4.774 -22.781  1.00  0.00    -0.385 OA
ATOM     26  H   UNL     1      -0.495   5.398 -22.838  1.00  0.00     0.211 HD
ENDBRANCH  18  25
BRANCH  20  27
ATOM     27  O   UNL     1       0.282   4.284 -25.036  1.00  0.00    -0.387 OA
ATOM     28  H   UNL     1       0.597   4.772 -25.835  1.00  0.00     0.211 HD
ENDBRANCH  20  27
BRANCH  21  29
ATOM     29  C   UNL     1      -0.563   1.583 -24.606  1.00  0.00     0.191 C 
BRANCH  29  30
ATOM     30  O   UNL     1      -0.298   1.737 -23.235  1.00  0.00    -0.394 OA
ATOM     31  H   UNL     1      -1.079   2.206 -22.844  1.00  0.00     0.210 HD
ENDBRANCH  29  30
ENDBRANCH  21  29
ENDBRANCH   1  17
TORSDOF 13
ENDMDL
MODEL 8
REMARK VINA RESULT:    -2.858      2.253      5.880
REMARK INTER + INTRA:          -5.313
REMARK INTER:                  -4.022
REMARK INTRA:                  -1.291
REMARK UNBOUND:                -0.952
REMARK SMILES OC[C@@H]1O[C@H](O[C@@]2(CO)O[C@H](CO)[C@H](O)[C@@H]2O)[C@@H](O)[C@H](O)[C@H]1O
REMARK SMILES IDX 6 1 5 2 3 3 22 4 4 5 20 6 18 7 2 8 1 9 23 11 21 13 19 15
REMARK SMILES IDX 7 17 16 18 10 19 14 20 11 21 8 22 9 23 17 25 15 27 12 29
REMARK SMILES IDX 13 30
REMARK H PARENT 1 10 23 12 21 14 19 16 9 24 17 26 15 28 13 31
REMARK Flexibility Score: inf
ROOT
ATOM      1  O   UNL     1      -4.883   4.958 -25.102  1.00  0.00    -0.313 OA
ENDROOT
BRANCH   1   2
ATOM      2  C   UNL     1      -5.317   6.186 -24.531  1.00  0.00     0.285 C 
ATOM      3  C   UNL     1      -4.739   8.450 -24.357  1.00  0.00     0.178 C 
ATOM      4  C   UNL     1      -6.145   8.959 -24.785  1.00  0.00     0.177 C 
ATOM      5  O   UNL     1      -4.440   7.206 -24.975  1.00  0.00    -0.341 OA
ATOM      6  C   UNL     1      -7.208   7.883 -24.500  1.00  0.00     0.179 C 
ATOM      7  C   UNL     1      -6.745   6.509 -25.033  1.00  0.00     0.202 C 
BRANCH   3   8
ATOM      8  C   UNL     1      -3.629   9.449 -24.748  1.00  0.00     0.191 C 
BRANCH   8   9
ATOM      9  O   UNL     1      -2.346   8.884 -24.664  1.00  0.00    -0.394 OA
ATOM     10  H   UNL     1      -2.140   8.502 -25.559  1.00  0.00     0.210 HD
ENDBRANCH   8   9
ENDBRANCH   3   8
BRANCH   4  11
ATOM     11  O   UNL     1      -6.475  10.125 -24.078  1.00  0.00    -0.387 OA
ATOM     12  H   UNL     1      -5.661  10.693 -24.087  1.00  0.00     0.211 HD
ENDBRANCH   4  11
BRANCH   6  13
ATOM     13  O   UNL     1      -8.425   8.230 -25.109  1.00  0.00    -0.387 OA
ATOM     14  H   UNL     1      -8.343   9.174 -25.408  1.00  0.00     0.211 HD
ENDBRANCH   6  13
BRANCH   7  15
ATOM     15  O   UNL     1      -7.682   5.526 -24.667  1.00  0.00    -0.385 OA
ATOM     16  H   UNL     1      -7.778   4.910 -25.440  1.00  0.00     0.211 HD
ENDBRANCH   7  15
ENDBRANCH   1   2
BRANCH   1  17
ATOM     17  C   UNL     1      -4.326   4.022 -24.171  1.00  0.00     0.224 C 
ATOM     18  C   UNL     1      -3.348   4.660 -23.143  1.00  0.00     0.208 C 
ATOM     19  O   UNL     1      -3.530   3.131 -24.932  1.00  0.00    -0.337 OA
ATOM     20  C   UNL     1      -2.089   4.815 -23.989  1.00  0.00     0.180 C 
ATOM     21  C   UNL     1      -2.227   3.686 -25.033  1.00  0.00     0.179 C 
BRANCH  17  22
ATOM     22  C   UNL     1      -5.464   3.219 -23.482  1.00  0.00     0.225 C 
BRANCH  22  23
ATOM     23  O   UNL     1      -6.021   3.947 -22.414  1.00  0.00    -0.391 OA
ATOM     24  H   UNL     1      -5.939   4.914 -22.623  1.00  0.00     0.210 HD
ENDBRANCH  22  23
ENDBRANCH  17  22
BRANCH  18  25
ATOM     25  O   UNL     1      -3.137   3.811 -22.030  1.00  0.00    -0.385 OA
ATOM     26  H   UNL     1      -3.974   3.789 -21.497  1.00  0.00     0.211 HD
ENDBRANCH  18  25
BRANCH  20  27
ATOM     27  O   UNL     1      -0.876   4.847 -23.266  1.00  0.00    -0.387 OA
ATOM     28  H   UNL     1      -0.247   5.468 -23.706  1.00  0.00     0.211 HD
ENDBRANCH  20  27
BRANCH  21  29
ATOM     29  C   UNL     1      -1.171   2.555 -24.955  1.00  0.00     0.191 C 
BRANCH  29  30
ATOM     30  O   UNL     1      -1.082   2.083 -23.635  1.00  0.00    -0.394 OA
ATOM     31  H   UNL     1      -1.884   1.521 -23.478  1.00  0.00     0.210 HD
ENDBRANCH  29  30
ENDBRANCH  21  29
ENDBRANCH   1  17
TORSDOF 13
ENDMDL
