MODEL 1
REMARK VINA RESULT:    -4.598      0.000      0.000
REMARK INTER + INTRA:          -4.598
REMARK INTER:                  -4.598
REMARK INTRA:                   0.000
REMARK UNBOUND:                 0.000
REMARK SMILES C[C@H]1C(=O)CC[C@@H]2[C@]3(C)CC[C@@]4(C)[C@@H]5CC(C)(C)CC[C@]5(C)CC[C@@]4(C)[C@@H]3CC[C@]21C
REMARK SMILES IDX 1 1 2 2 3 3 4 4 5 5 6 6 7 7 30 8 29 9 28 10 27 11 8 12 10 13
REMARK SMILES IDX 11 14 12 15 25 16 24 17 23 18 21 19 14 20 15 21 16 22 19 23
REMARK SMILES IDX 20 24 17 25 18 26 22 27 26 28 13 29 9 30 31 31
REMARK H PARENT
REMARK Flexibility Score: inf
ROOT
ATOM      1  C   UNL     1     147.491 150.201 137.631  1.00  0.00     0.016 C 
ATOM      2  C   UNL     1     146.718 150.751 136.417  1.00  0.00     0.059 C 
ATOM      3  C   UNL     1     145.260 150.338 136.523  1.00  0.00     0.136 C 
ATOM      4  O   UNL     1     144.918 149.247 136.091  1.00  0.00    -0.299 OA
ATOM      5  C   UNL     1     144.239 151.201 137.228  1.00  0.00     0.076 C 
ATOM      6  C   UNL     1     144.489 152.719 137.098  1.00  0.00     0.012 C 
ATOM      7  C   UNL     1     145.997 153.054 137.262  1.00  0.00     0.002 C 
ATOM      8  C   UNL     1     146.829 152.303 136.160  1.00  0.00    -0.020 C 
ATOM      9  C   UNL     1     148.304 152.793 136.166  1.00  0.00     0.008 C 
ATOM     10  C   UNL     1     148.787 153.421 137.487  1.00  0.00     0.005 C 
ATOM     11  C   UNL     1     147.894 154.568 138.137  1.00  0.00     0.002 C 
ATOM     12  C   UNL     1     146.419 154.563 137.560  1.00  0.00    -0.026 C 
ATOM     13  C   UNL     1     146.385 155.469 136.315  1.00  0.00     0.008 C 
ATOM     14  C   UNL     1     146.868 156.892 136.601  1.00  0.00     0.008 C 
ATOM     15  C   UNL     1     148.358 157.039 137.117  1.00  0.00    -0.024 C 
ATOM     16  C   UNL     1     148.603 156.025 138.363  1.00  0.00    -0.024 C 
ATOM     17  C   UNL     1     148.106 156.646 139.739  1.00  0.00     0.008 C 
ATOM     18  C   UNL     1     147.534 158.072 139.717  1.00  0.00     0.007 C 
ATOM     19  C   UNL     1     148.364 159.102 138.923  1.00  0.00    -0.029 C 
ATOM     20  C   UNL     1     148.556 158.627 137.440  1.00  0.00     0.002 C 
ATOM     21  C   UNL     1     149.631 159.491 136.665  1.00  0.00     0.011 C 
ATOM     22  C   UNL     1     150.930 159.911 137.420  1.00  0.00    -0.035 C 
ATOM     23  C   UNL     1     150.629 160.342 138.878  1.00  0.00     0.007 C 
ATOM     24  C   UNL     1     149.718 159.371 139.634  1.00  0.00     0.007 C 
ATOM     25  C   UNL     1     151.979 158.785 137.377  1.00  0.00     0.011 C 
ATOM     26  C   UNL     1     151.556 161.125 136.690  1.00  0.00     0.011 C 
ATOM     27  C   UNL     1     147.540 160.427 138.955  1.00  0.00     0.011 C 
ATOM     28  C   UNL     1     150.130 155.749 138.621  1.00  0.00     0.012 C 
ATOM     29  C   UNL     1     149.260 156.639 135.911  1.00  0.00     0.012 C 
ATOM     30  C   UNL     1     145.404 155.116 138.606  1.00  0.00     0.012 C 
ATOM     31  C   UNL     1     146.268 152.523 134.710  1.00  0.00     0.012 C 
ENDROOT
TORSDOF 0
ENDMDL
MODEL 2
REMARK VINA RESULT:    -4.597      7.311      9.763
REMARK INTER + INTRA:          -4.597
REMARK INTER:                  -4.597
REMARK INTRA:                   0.000
REMARK UNBOUND:                 0.000
REMARK SMILES C[C@H]1C(=O)CC[C@@H]2[C@]3(C)CC[C@@]4(C)[C@@H]5CC(C)(C)CC[C@]5(C)CC[C@@]4(C)[C@@H]3CC[C@]21C
REMARK SMILES IDX 1 1 2 2 3 3 4 4 5 5 6 6 7 7 30 8 29 9 28 10 27 11 8 12 10 13
REMARK SMILES IDX 11 14 12 15 25 16 24 17 23 18 21 19 14 20 15 21 16 22 19 23
REMARK SMILES IDX 20 24 17 25 18 26 22 27 26 28 13 29 9 30 31 31
REMARK H PARENT
REMARK Flexibility Score: inf
ROOT
ATOM      1  C   UNL     1     150.204 153.796 137.632  1.00  0.00     0.016 C 
ATOM      2  C   UNL     1     150.753 154.574 136.421  1.00  0.00     0.059 C 
ATOM      3  C   UNL     1     150.341 156.032 136.535  1.00  0.00     0.136 C 
ATOM      4  O   UNL     1     149.250 156.376 136.105  1.00  0.00    -0.299 OA
ATOM      5  C   UNL     1     151.205 157.049 137.243  1.00  0.00     0.076 C 
ATOM      6  C   UNL     1     152.723 156.799 137.110  1.00  0.00     0.012 C 
ATOM      7  C   UNL     1     153.057 155.290 137.267  1.00  0.00     0.002 C 
ATOM      8  C   UNL     1     152.304 154.464 136.162  1.00  0.00    -0.020 C 
ATOM      9  C   UNL     1     152.793 152.988 136.160  1.00  0.00     0.008 C 
ATOM     10  C   UNL     1     153.423 152.499 137.478  1.00  0.00     0.005 C 
ATOM     11  C   UNL     1     154.572 153.388 138.130  1.00  0.00     0.002 C 
ATOM     12  C   UNL     1     154.567 154.866 137.561  1.00  0.00    -0.026 C 
ATOM     13  C   UNL     1     155.471 154.905 136.315  1.00  0.00     0.008 C 
ATOM     14  C   UNL     1     156.894 154.420 136.597  1.00  0.00     0.008 C 
ATOM     15  C   UNL     1     157.041 152.928 137.105  1.00  0.00    -0.024 C 
ATOM     16  C   UNL     1     156.029 152.677 138.352  1.00  0.00    -0.024 C 
ATOM     17  C   UNL     1     156.652 153.168 139.729  1.00  0.00     0.008 C 
ATOM     18  C   UNL     1     158.077 153.739 139.708  1.00  0.00     0.007 C 
ATOM     19  C   UNL     1     159.106 152.913 138.909  1.00  0.00    -0.029 C 
ATOM     20  C   UNL     1     158.629 152.728 137.425  1.00  0.00     0.002 C 
ATOM     21  C   UNL     1     159.492 151.656 136.645  1.00  0.00     0.011 C 
ATOM     22  C   UNL     1     159.912 150.353 137.394  1.00  0.00    -0.035 C 
ATOM     23  C   UNL     1     160.345 150.647 138.852  1.00  0.00     0.007 C 
ATOM     24  C   UNL     1     159.375 151.555 139.614  1.00  0.00     0.007 C 
ATOM     25  C   UNL     1     158.786 149.305 137.347  1.00  0.00     0.011 C 
ATOM     26  C   UNL     1     161.125 149.730 136.659  1.00  0.00     0.011 C 
ATOM     27  C   UNL     1     160.432 153.736 138.944  1.00  0.00     0.011 C 
ATOM     28  C   UNL     1     155.752 151.149 138.603  1.00  0.00     0.012 C 
ATOM     29  C   UNL     1     156.639 152.032 135.896  1.00  0.00     0.012 C 
ATOM     30  C   UNL     1     155.121 155.876 138.611  1.00  0.00     0.012 C 
ATOM     31  C   UNL     1     152.523 155.031 134.714  1.00  0.00     0.012 C 
ENDROOT
TORSDOF 0
ENDMDL
MODEL 3
REMARK VINA RESULT:    -4.417      4.027      6.096
REMARK INTER + INTRA:          -4.417
REMARK INTER:                  -4.417
REMARK INTRA:                   0.000
REMARK UNBOUND:                 0.000
REMARK SMILES C[C@H]1C(=O)CC[C@@H]2[C@]3(C)CC[C@@]4(C)[C@@H]5CC(C)(C)CC[C@]5(C)CC[C@@]4(C)[C@@H]3CC[C@]21C
REMARK SMILES IDX 1 1 2 2 3 3 4 4 5 5 6 6 7 7 30 8 29 9 28 10 27 11 8 12 10 13
REMARK SMILES IDX 11 14 12 15 25 16 24 17 23 18 21 19 14 20 15 21 16 22 19 23
REMARK SMILES IDX 20 24 17 25 18 26 22 27 26 28 13 29 9 30 31 31
REMARK H PARENT
REMARK Flexibility Score: inf
ROOT
ATOM      1  C   UNL     1     156.016 153.377 136.994  1.00  0.00     0.016 C 
ATOM      2  C   UNL     1     155.666 153.861 135.573  1.00  0.00     0.059 C 
ATOM      3  C   UNL     1     155.627 152.668 134.634  1.00  0.00     0.136 C 
ATOM      4  O   UNL     1     156.666 152.285 134.116  1.00  0.00    -0.299 OA
ATOM      5  C   UNL     1     154.356 151.887 134.393  1.00  0.00     0.076 C 
ATOM      6  C   UNL     1     153.068 152.739 134.436  1.00  0.00     0.012 C 
ATOM      7  C   UNL     1     153.112 153.761 135.605  1.00  0.00     0.002 C 
ATOM      8  C   UNL     1     154.349 154.715 135.428  1.00  0.00    -0.020 C 
ATOM      9  C   UNL     1     154.289 155.878 136.457  1.00  0.00     0.008 C 
ATOM     10  C   UNL     1     153.448 155.603 137.717  1.00  0.00     0.005 C 
ATOM     11  C   UNL     1     151.966 155.056 137.520  1.00  0.00     0.002 C 
ATOM     12  C   UNL     1     151.751 154.449 136.073  1.00  0.00    -0.026 C 
ATOM     13  C   UNL     1     151.281 155.582 135.141  1.00  0.00     0.008 C 
ATOM     14  C   UNL     1     150.019 156.283 135.646  1.00  0.00     0.008 C 
ATOM     15  C   UNL     1     150.125 156.994 137.056  1.00  0.00    -0.024 C 
ATOM     16  C   UNL     1     150.750 155.957 138.141  1.00  0.00    -0.024 C 
ATOM     17  C   UNL     1     149.640 154.998 138.751  1.00  0.00     0.008 C 
ATOM     18  C   UNL     1     148.187 155.201 138.295  1.00  0.00     0.007 C 
ATOM     19  C   UNL     1     147.698 156.665 138.288  1.00  0.00    -0.029 C 
ATOM     20  C   UNL     1     148.626 157.549 137.382  1.00  0.00     0.002 C 
ATOM     21  C   UNL     1     148.348 159.096 137.566  1.00  0.00     0.011 C 
ATOM     22  C   UNL     1     148.083 159.637 139.005  1.00  0.00    -0.035 C 
ATOM     23  C   UNL     1     147.174 158.680 139.816  1.00  0.00     0.007 C 
ATOM     24  C   UNL     1     147.599 157.210 139.738  1.00  0.00     0.007 C 
ATOM     25  C   UNL     1     149.406 159.909 139.742  1.00  0.00     0.011 C 
ATOM     26  C   UNL     1     147.353 160.999 138.894  1.00  0.00     0.011 C 
ATOM     27  C   UNL     1     146.255 156.628 137.695  1.00  0.00     0.011 C 
ATOM     28  C   UNL     1     151.332 156.690 139.405  1.00  0.00     0.012 C 
ATOM     29  C   UNL     1     151.090 158.199 136.845  1.00  0.00     0.012 C 
ATOM     30  C   UNL     1     150.664 153.332 136.087  1.00  0.00     0.012 C 
ATOM     31  C   UNL     1     154.429 155.358 133.998  1.00  0.00     0.012 C 
ENDROOT
TORSDOF 0
ENDMDL
MODEL 4
REMARK VINA RESULT:    -4.376      8.033      9.845
REMARK INTER + INTRA:          -4.376
REMARK INTER:                  -4.376
REMARK INTRA:                   0.000
REMARK UNBOUND:                 0.000
REMARK SMILES C[C@H]1C(=O)CC[C@@H]2[C@]3(C)CC[C@@]4(C)[C@@H]5CC(C)(C)CC[C@]5(C)CC[C@@]4(C)[C@@H]3CC[C@]21C
REMARK SMILES IDX 1 1 2 2 3 3 4 4 5 5 6 6 7 7 30 8 29 9 28 10 27 11 8 12 10 13
REMARK SMILES IDX 11 14 12 15 25 16 24 17 23 18 21 19 14 20 15 21 16 22 19 23
REMARK SMILES IDX 20 24 17 25 18 26 22 27 26 28 13 29 9 30 31 31
REMARK H PARENT
REMARK Flexibility Score: inf
ROOT
ATOM      1  C   UNL     1     153.364 145.384 136.848  1.00  0.00     0.016 C 
ATOM      2  C   UNL     1     153.845 145.768 135.436  1.00  0.00     0.059 C 
ATOM      3  C   UNL     1     152.649 145.837 134.501  1.00  0.00     0.136 C 
ATOM      4  O   UNL     1     152.261 144.814 133.957  1.00  0.00    -0.299 OA
ATOM      5  C   UNL     1     151.874 147.117 134.296  1.00  0.00     0.076 C 
ATOM      6  C   UNL     1     152.731 148.400 134.370  1.00  0.00     0.012 C 
ATOM      7  C   UNL     1     153.756 148.321 135.534  1.00  0.00     0.002 C 
ATOM      8  C   UNL     1     154.704 147.085 135.322  1.00  0.00    -0.020 C 
ATOM      9  C   UNL     1     155.871 147.114 136.349  1.00  0.00     0.008 C 
ATOM     10  C   UNL     1     155.602 147.922 137.632  1.00  0.00     0.005 C 
ATOM     11  C   UNL     1     155.061 149.412 137.475  1.00  0.00     0.002 C 
ATOM     12  C   UNL     1     154.451 149.667 136.036  1.00  0.00    -0.026 C 
ATOM     13  C   UNL     1     155.583 150.156 135.113  1.00  0.00     0.008 C 
ATOM     14  C   UNL     1     156.291 151.402 135.649  1.00  0.00     0.008 C 
ATOM     15  C   UNL     1     157.006 151.256 137.054  1.00  0.00    -0.024 C 
ATOM     16  C   UNL     1     155.969 150.607 138.125  1.00  0.00    -0.024 C 
ATOM     17  C   UNL     1     155.016 151.705 138.767  1.00  0.00     0.008 C 
ATOM     18  C   UNL     1     155.224 153.168 138.348  1.00  0.00     0.007 C 
ATOM     19  C   UNL     1     156.689 153.651 138.349  1.00  0.00    -0.029 C 
ATOM     20  C   UNL     1     157.568 152.744 137.417  1.00  0.00     0.002 C 
ATOM     21  C   UNL     1     159.116 153.011 137.603  1.00  0.00     0.011 C 
ATOM     22  C   UNL     1     159.662 153.236 139.048  1.00  0.00    -0.035 C 
ATOM     23  C   UNL     1     158.711 154.127 139.885  1.00  0.00     0.007 C 
ATOM     24  C   UNL     1     157.239 153.711 139.800  1.00  0.00     0.007 C 
ATOM     25  C   UNL     1     159.931 151.892 139.749  1.00  0.00     0.011 C 
ATOM     26  C   UNL     1     161.027 153.963 138.952  1.00  0.00     0.011 C 
ATOM     27  C   UNL     1     156.657 155.110 137.795  1.00  0.00     0.011 C 
ATOM     28  C   UNL     1     156.703 149.990 139.372  1.00  0.00     0.012 C 
ATOM     29  C   UNL     1     158.206 150.292 136.814  1.00  0.00     0.012 C 
ATOM     30  C   UNL     1     153.338 150.758 136.081  1.00  0.00     0.012 C 
ATOM     31  C   UNL     1     155.343 147.040 133.888  1.00  0.00     0.012 C 
ENDROOT
TORSDOF 0
ENDMDL
MODEL 5
REMARK VINA RESULT:    -4.368      6.478      8.983
REMARK INTER + INTRA:          -4.368
REMARK INTER:                  -4.368
REMARK INTRA:                   0.000
REMARK UNBOUND:                 0.000
REMARK SMILES C[C@H]1C(=O)CC[C@@H]2[C@]3(C)CC[C@@]4(C)[C@@H]5CC(C)(C)CC[C@]5(C)CC[C@@]4(C)[C@@H]3CC[C@]21C
REMARK SMILES IDX 1 1 2 2 3 3 4 4 5 5 6 6 7 7 30 8 29 9 28 10 27 11 8 12 10 13
REMARK SMILES IDX 11 14 12 15 25 16 24 17 23 18 21 19 14 20 15 21 16 22 19 23
REMARK SMILES IDX 20 24 17 25 18 26 22 27 26 28 13 29 9 30 31 31
REMARK H PARENT
REMARK Flexibility Score: inf
ROOT
ATOM      1  C   UNL     1     150.601 146.408 137.957  1.00  0.00     0.016 C 
ATOM      2  C   UNL     1     149.837 145.495 136.979  1.00  0.00     0.059 C 
ATOM      3  C   UNL     1     149.783 144.087 137.548  1.00  0.00     0.136 C 
ATOM      4  O   UNL     1     150.716 143.325 137.338  1.00  0.00    -0.299 OA
ATOM      5  C   UNL     1     148.650 143.633 138.439  1.00  0.00     0.076 C 
ATOM      6  C   UNL     1     147.282 144.263 138.100  1.00  0.00     0.012 C 
ATOM      7  C   UNL     1     147.426 145.776 137.782  1.00  0.00     0.002 C 
ATOM      8  C   UNL     1     148.394 145.970 136.558  1.00  0.00    -0.020 C 
ATOM      9  C   UNL     1     148.380 147.450 136.084  1.00  0.00     0.008 C 
ATOM     10  C   UNL     1     147.933 148.478 137.140  1.00  0.00     0.005 C 
ATOM     11  C   UNL     1     146.569 148.207 137.914  1.00  0.00     0.002 C 
ATOM     12  C   UNL     1     146.120 146.692 137.801  1.00  0.00    -0.026 C 
ATOM     13  C   UNL     1     145.244 146.542 136.542  1.00  0.00     0.008 C 
ATOM     14  C   UNL     1     144.039 147.484 136.540  1.00  0.00     0.008 C 
ATOM     15  C   UNL     1     144.357 149.034 136.579  1.00  0.00    -0.024 C 
ATOM     16  C   UNL     1     145.400 149.344 137.786  1.00  0.00    -0.024 C 
ATOM     17  C   UNL     1     144.659 149.500 139.183  1.00  0.00     0.008 C 
ATOM     18  C   UNL     1     143.127 149.393 139.199  1.00  0.00     0.007 C 
ATOM     19  C   UNL     1     142.400 150.200 138.104  1.00  0.00    -0.029 C 
ATOM     20  C   UNL     1     142.907 149.777 136.680  1.00  0.00     0.002 C 
ATOM     21  C   UNL     1     142.412 150.764 135.547  1.00  0.00     0.011 C 
ATOM     22  C   UNL     1     142.413 152.296 135.844  1.00  0.00    -0.035 C 
ATOM     23  C   UNL     1     141.914 152.599 137.279  1.00  0.00     0.007 C 
ATOM     24  C   UNL     1     142.560 151.724 138.357  1.00  0.00     0.007 C 
ATOM     25  C   UNL     1     143.806 152.902 135.598  1.00  0.00     0.011 C 
ATOM     26  C   UNL     1     141.448 152.992 134.852  1.00  0.00     0.011 C 
ATOM     27  C   UNL     1     140.886 149.852 138.254  1.00  0.00     0.011 C 
ATOM     28  C   UNL     1     146.132 150.725 137.607  1.00  0.00     0.012 C 
ATOM     29  C   UNL     1     145.012 149.361 135.203  1.00  0.00     0.012 C 
ATOM     30  C   UNL     1     145.285 146.258 139.044  1.00  0.00     0.012 C 
ATOM     31  C   UNL     1     148.009 145.079 135.324  1.00  0.00     0.012 C 
ENDROOT
TORSDOF 0
ENDMDL
MODEL 6
REMARK VINA RESULT:    -4.355      9.239     13.709
REMARK INTER + INTRA:          -4.355
REMARK INTER:                  -4.355
REMARK INTRA:                   0.000
REMARK UNBOUND:                 0.000
REMARK SMILES C[C@H]1C(=O)CC[C@@H]2[C@]3(C)CC[C@@]4(C)[C@@H]5CC(C)(C)CC[C@]5(C)CC[C@@]4(C)[C@@H]3CC[C@]21C
REMARK SMILES IDX 1 1 2 2 3 3 4 4 5 5 6 6 7 7 30 8 29 9 28 10 27 11 8 12 10 13
REMARK SMILES IDX 11 14 12 15 25 16 24 17 23 18 21 19 14 20 15 21 16 22 19 23
REMARK SMILES IDX 20 24 17 25 18 26 22 27 26 28 13 29 9 30 31 31
REMARK H PARENT
REMARK Flexibility Score: inf
ROOT
ATOM      1  C   UNL     1     154.858 150.586 137.890  1.00  0.00     0.016 C 
ATOM      2  C   UNL     1     155.782 149.817 136.925  1.00  0.00     0.059 C 
ATOM      3  C   UNL     1     157.183 149.764 137.511  1.00  0.00     0.136 C 
ATOM      4  O   UNL     1     157.948 150.696 137.306  1.00  0.00    -0.299 OA
ATOM      5  C   UNL     1     157.626 148.635 138.412  1.00  0.00     0.076 C 
ATOM      6  C   UNL     1     156.998 147.266 138.072  1.00  0.00     0.012 C 
ATOM      7  C   UNL     1     155.489 147.410 137.735  1.00  0.00     0.002 C 
ATOM      8  C   UNL     1     155.310 148.373 136.505  1.00  0.00    -0.020 C 
ATOM      9  C   UNL     1     153.835 148.358 136.014  1.00  0.00     0.008 C 
ATOM     10  C   UNL     1     152.795 147.917 137.060  1.00  0.00     0.005 C 
ATOM     11  C   UNL     1     153.056 146.555 137.843  1.00  0.00     0.002 C 
ATOM     12  C   UNL     1     154.571 146.104 137.749  1.00  0.00    -0.026 C 
ATOM     13  C   UNL     1     154.736 145.224 136.496  1.00  0.00     0.008 C 
ATOM     14  C   UNL     1     153.793 144.019 136.489  1.00  0.00     0.008 C 
ATOM     15  C   UNL     1     152.242 144.338 136.508  1.00  0.00    -0.024 C 
ATOM     16  C   UNL     1     151.919 145.387 137.707  1.00  0.00    -0.024 C 
ATOM     17  C   UNL     1     151.746 144.652 139.105  1.00  0.00     0.008 C 
ATOM     18  C   UNL     1     151.852 143.120 139.129  1.00  0.00     0.007 C 
ATOM     19  C   UNL     1     151.057 142.389 138.027  1.00  0.00    -0.029 C 
ATOM     20  C   UNL     1     151.497 142.890 136.607  1.00  0.00     0.002 C 
ATOM     21  C   UNL     1     150.523 142.391 135.464  1.00  0.00     0.011 C 
ATOM     22  C   UNL     1     148.987 142.395 135.744  1.00  0.00    -0.035 C 
ATOM     23  C   UNL     1     148.667 141.901 137.177  1.00  0.00     0.007 C 
ATOM     24  C   UNL     1     149.530 142.552 138.262  1.00  0.00     0.007 C 
ATOM     25  C   UNL     1     148.385 143.787 135.485  1.00  0.00     0.011 C 
ATOM     26  C   UNL     1     148.302 141.426 134.748  1.00  0.00     0.011 C 
ATOM     27  C   UNL     1     151.402 140.875 138.188  1.00  0.00     0.011 C 
ATOM     28  C   UNL     1     150.541 146.119 137.509  1.00  0.00     0.012 C 
ATOM     29  C   UNL     1     151.932 144.988 135.126  1.00  0.00     0.012 C 
ATOM     30  C   UNL     1     154.991 145.274 139.000  1.00  0.00     0.012 C 
ATOM     31  C   UNL     1     156.215 147.982 135.283  1.00  0.00     0.012 C 
ENDROOT
TORSDOF 0
ENDMDL
MODEL 7
REMARK VINA RESULT:    -4.231      4.627      7.574
REMARK INTER + INTRA:          -4.231
REMARK INTER:                  -4.231
REMARK INTRA:                   0.000
REMARK UNBOUND:                 0.000
REMARK SMILES C[C@H]1C(=O)CC[C@@H]2[C@]3(C)CC[C@@]4(C)[C@@H]5CC(C)(C)CC[C@]5(C)CC[C@@]4(C)[C@@H]3CC[C@]21C
REMARK SMILES IDX 1 1 2 2 3 3 4 4 5 5 6 6 7 7 30 8 29 9 28 10 27 11 8 12 10 13
REMARK SMILES IDX 11 14 12 15 25 16 24 17 23 18 21 19 14 20 15 21 16 22 19 23
REMARK SMILES IDX 20 24 17 25 18 26 22 27 26 28 13 29 9 30 31 31
REMARK H PARENT
REMARK Flexibility Score: inf
ROOT
ATOM      1  C   UNL     1     155.507 156.827 132.596  1.00  0.00     0.016 C 
ATOM      2  C   UNL     1     155.462 155.302 132.815  1.00  0.00     0.059 C 
ATOM      3  C   UNL     1     156.837 154.817 133.239  1.00  0.00     0.136 C 
ATOM      4  O   UNL     1     157.664 154.546 132.380  1.00  0.00    -0.299 OA
ATOM      5  C   UNL     1     157.241 154.745 134.694  1.00  0.00     0.076 C 
ATOM      6  C   UNL     1     156.087 154.392 135.658  1.00  0.00     0.012 C 
ATOM      7  C   UNL     1     154.786 155.150 135.276  1.00  0.00     0.002 C 
ATOM      8  C   UNL     1     154.363 154.769 133.811  1.00  0.00    -0.020 C 
ATOM      9  C   UNL     1     152.953 155.339 133.487  1.00  0.00     0.008 C 
ATOM     10  C   UNL     1     152.516 156.544 134.341  1.00  0.00     0.005 C 
ATOM     11  C   UNL     1     152.634 156.418 135.925  1.00  0.00     0.002 C 
ATOM     12  C   UNL     1     153.610 155.245 136.349  1.00  0.00    -0.026 C 
ATOM     13  C   UNL     1     152.783 153.951 136.472  1.00  0.00     0.008 C 
ATOM     14  C   UNL     1     151.612 154.084 137.447  1.00  0.00     0.008 C 
ATOM     15  C   UNL     1     150.523 155.178 137.094  1.00  0.00    -0.024 C 
ATOM     16  C   UNL     1     151.258 156.596 136.791  1.00  0.00    -0.024 C 
ATOM     17  C   UNL     1     151.575 157.396 138.127  1.00  0.00     0.008 C 
ATOM     18  C   UNL     1     151.122 156.778 139.458  1.00  0.00     0.007 C 
ATOM     19  C   UNL     1     149.677 156.240 139.476  1.00  0.00    -0.029 C 
ATOM     20  C   UNL     1     149.474 155.171 138.344  1.00  0.00     0.002 C 
ATOM     21  C   UNL     1     147.950 154.802 138.131  1.00  0.00     0.011 C 
ATOM     22  C   UNL     1     146.894 155.949 138.183  1.00  0.00    -0.035 C 
ATOM     23  C   UNL     1     147.199 156.955 139.321  1.00  0.00     0.007 C 
ATOM     24  C   UNL     1     148.661 157.410 139.369  1.00  0.00     0.007 C 
ATOM     25  C   UNL     1     146.788 156.661 136.823  1.00  0.00     0.011 C 
ATOM     26  C   UNL     1     145.503 155.327 138.465  1.00  0.00     0.011 C 
ATOM     27  C   UNL     1     149.488 155.575 140.875  1.00  0.00     0.011 C 
ATOM     28  C   UNL     1     150.341 157.586 135.983  1.00  0.00     0.012 C 
ATOM     29  C   UNL     1     149.807 154.657 135.812  1.00  0.00     0.012 C 
ATOM     30  C   UNL     1     154.280 155.541 137.725  1.00  0.00     0.012 C 
ATOM     31  C   UNL     1     154.306 153.218 133.572  1.00  0.00     0.012 C 
ENDROOT
TORSDOF 0
ENDMDL
MODEL 8
REMARK VINA RESULT:    -4.221      9.259     11.113
REMARK INTER + INTRA:          -4.221
REMARK INTER:                  -4.221
REMARK INTRA:                   0.000
REMARK UNBOUND:                 0.000
REMARK SMILES C[C@H]1C(=O)CC[C@@H]2[C@]3(C)CC[C@@]4(C)[C@@H]5CC(C)(C)CC[C@]5(C)CC[C@@]4(C)[C@@H]3CC[C@]21C
REMARK SMILES IDX 1 1 2 2 3 3 4 4 5 5 6 6 7 7 30 8 29 9 28 10 27 11 8 12 10 13
REMARK SMILES IDX 11 14 12 15 25 16 24 17 23 18 21 19 14 20 15 21 16 22 19 23
REMARK SMILES IDX 20 24 17 25 18 26 22 27 26 28 13 29 9 30 31 31
REMARK H PARENT
REMARK Flexibility Score: inf
ROOT
ATOM      1  C   UNL     1     146.116 144.357 132.299  1.00  0.00     0.016 C 
ATOM      2  C   UNL     1     146.104 145.879 132.546  1.00  0.00     0.059 C 
ATOM      3  C   UNL     1     144.699 146.311 132.929  1.00  0.00     0.136 C 
ATOM      4  O   UNL     1     143.895 146.572 132.046  1.00  0.00    -0.299 OA
ATOM      5  C   UNL     1     144.242 146.343 134.369  1.00  0.00     0.076 C 
ATOM      6  C   UNL     1     145.349 146.715 135.380  1.00  0.00     0.012 C 
ATOM      7  C   UNL     1     146.686 146.006 135.032  1.00  0.00     0.002 C 
ATOM      8  C   UNL     1     147.149 146.428 133.590  1.00  0.00    -0.020 C 
ATOM      9  C   UNL     1     148.587 145.908 133.307  1.00  0.00     0.008 C 
ATOM     10  C   UNL     1     149.032 144.703 134.155  1.00  0.00     0.005 C 
ATOM     11  C   UNL     1     148.854 144.796 135.735  1.00  0.00     0.002 C 
ATOM     12  C   UNL     1     147.827 145.929 136.145  1.00  0.00    -0.026 C 
ATOM     13  C   UNL     1     148.606 147.246 136.320  1.00  0.00     0.008 C 
ATOM     14  C   UNL     1     149.746 147.132 137.334  1.00  0.00     0.008 C 
ATOM     15  C   UNL     1     150.881 146.080 137.001  1.00  0.00    -0.024 C 
ATOM     16  C   UNL     1     150.204 144.645 136.647  1.00  0.00    -0.024 C 
ATOM     17  C   UNL     1     149.867 143.810 137.956  1.00  0.00     0.008 C 
ATOM     18  C   UNL     1     150.252 144.417 139.314  1.00  0.00     0.007 C 
ATOM     19  C   UNL     1     151.678 145.001 139.392  1.00  0.00    -0.029 C 
ATOM     20  C   UNL     1     151.885 146.096 138.288  1.00  0.00     0.002 C 
ATOM     21  C   UNL     1     153.403 146.518 138.136  1.00  0.00     0.011 C 
ATOM     22  C   UNL     1     154.493 145.404 138.206  1.00  0.00    -0.035 C 
ATOM     23  C   UNL     1     154.181 144.368 139.315  1.00  0.00     0.007 C 
ATOM     24  C   UNL     1     152.734 143.866 139.302  1.00  0.00     0.007 C 
ATOM     25  C   UNL     1     154.670 144.721 136.838  1.00  0.00     0.011 C 
ATOM     26  C   UNL     1     155.852 146.064 138.548  1.00  0.00     0.011 C 
ATOM     27  C   UNL     1     151.795 145.645 140.809  1.00  0.00     0.011 C 
ATOM     28  C   UNL     1     151.181 143.700 135.855  1.00  0.00     0.012 C 
ATOM     29  C   UNL     1     151.625 146.647 135.755  1.00  0.00     0.012 C 
ATOM     30  C   UNL     1     147.118 145.586 137.491  1.00  0.00     0.012 C 
ATOM     31  C   UNL     1     147.164 147.984 133.380  1.00  0.00     0.012 C 
ENDROOT
TORSDOF 0
ENDMDL
MODEL 9
REMARK VINA RESULT:    -4.141      9.671     11.515
REMARK INTER + INTRA:          -4.141
REMARK INTER:                  -4.141
REMARK INTRA:                   0.000
REMARK UNBOUND:                 0.000
REMARK SMILES C[C@H]1C(=O)CC[C@@H]2[C@]3(C)CC[C@@]4(C)[C@@H]5CC(C)(C)CC[C@]5(C)CC[C@@]4(C)[C@@H]3CC[C@]21C
REMARK SMILES IDX 1 1 2 2 3 3 4 4 5 5 6 6 7 7 30 8 29 9 28 10 27 11 8 12 10 13
REMARK SMILES IDX 11 14 12 15 25 16 24 17 23 18 21 19 14 20 15 21 16 22 19 23
REMARK SMILES IDX 20 24 17 25 18 26 22 27 26 28 13 29 9 30 31 31
REMARK H PARENT
REMARK Flexibility Score: inf
ROOT
ATOM      1  C   UNL     1     154.750 144.628 134.960  1.00  0.00     0.016 C 
ATOM      2  C   UNL     1     153.778 145.338 135.922  1.00  0.00     0.059 C 
ATOM      3  C   UNL     1     153.423 144.395 137.059  1.00  0.00     0.136 C 
ATOM      4  O   UNL     1     152.503 143.604 136.910  1.00  0.00    -0.299 OA
ATOM      5  C   UNL     1     154.232 144.347 138.335  1.00  0.00     0.076 C 
ATOM      6  C   UNL     1     154.826 145.707 138.763  1.00  0.00     0.012 C 
ATOM      7  C   UNL     1     155.394 146.479 137.542  1.00  0.00     0.002 C 
ATOM      8  C   UNL     1     154.250 146.729 136.494  1.00  0.00    -0.020 C 
ATOM      9  C   UNL     1     154.741 147.687 135.372  1.00  0.00     0.008 C 
ATOM     10  C   UNL     1     156.267 147.746 135.175  1.00  0.00     0.005 C 
ATOM     11  C   UNL     1     157.175 148.000 136.458  1.00  0.00     0.002 C 
ATOM     12  C   UNL     1     156.393 147.696 137.801  1.00  0.00    -0.026 C 
ATOM     13  C   UNL     1     155.685 148.988 138.250  1.00  0.00     0.008 C 
ATOM     14  C   UNL     1     156.647 150.165 138.418  1.00  0.00     0.008 C 
ATOM     15  C   UNL     1     157.440 150.617 137.124  1.00  0.00    -0.024 C 
ATOM     16  C   UNL     1     158.141 149.320 136.438  1.00  0.00    -0.024 C 
ATOM     17  C   UNL     1     159.532 148.968 137.121  1.00  0.00     0.008 C 
ATOM     18  C   UNL     1     160.029 149.883 138.250  1.00  0.00     0.007 C 
ATOM     19  C   UNL     1     159.932 151.396 137.961  1.00  0.00    -0.029 C 
ATOM     20  C   UNL     1     158.454 151.796 137.619  1.00  0.00     0.002 C 
ATOM     21  C   UNL     1     158.347 153.264 137.038  1.00  0.00     0.011 C 
ATOM     22  C   UNL     1     159.435 153.743 136.027  1.00  0.00    -0.035 C 
ATOM     23  C   UNL     1     160.851 153.278 136.450  1.00  0.00     0.007 C 
ATOM     24  C   UNL     1     160.926 151.798 136.838  1.00  0.00     0.007 C 
ATOM     25  C   UNL     1     159.099 153.280 134.598  1.00  0.00     0.011 C 
ATOM     26  C   UNL     1     159.436 155.292 136.000  1.00  0.00     0.011 C 
ATOM     27  C   UNL     1     160.387 152.109 139.273  1.00  0.00     0.011 C 
ATOM     28  C   UNL     1     158.529 149.573 134.935  1.00  0.00     0.012 C 
ATOM     29  C   UNL     1     156.370 151.221 136.166  1.00  0.00     0.012 C 
ATOM     30  C   UNL     1     157.368 147.244 138.930  1.00  0.00     0.012 C 
ATOM     31  C   UNL     1     152.965 147.372 137.129  1.00  0.00     0.012 C 
ENDROOT
TORSDOF 0
ENDMDL
