MODEL 1
REMARK VINA RESULT:    -3.857      0.000      0.000
REMARK INTER + INTRA:          -6.203
REMARK INTER:                  -5.887
REMARK INTRA:                  -0.316
REMARK UNBOUND:                -0.316
REMARK SMILES CC1=CCC[C@H](C)C(=O)C[C@@H](C(C)C)C(=O)C1
REMARK SMILES IDX 8 1 9 2 6 3 7 4 5 5 4 6 3 7 2 8 1 9 10 11 11 12 15 13 16 14
REMARK SMILES IDX 17 15 12 17 13 18 14 19
REMARK H PARENT
REMARK Flexibility Score: 70.00
ROOT
ATOM      1  C   UNL     1       6.940   5.612  -7.209  1.00  0.00     0.136 C 
ATOM      2  O   UNL     1       7.152   6.518  -6.415  1.00  0.00    -0.299 OA
ENDROOT
BRANCH   1   3
ATOM      3  C   UNL     1       7.197   5.872  -8.684  1.00  0.00     0.053 C 
ATOM      4  C   UNL     1       8.630   5.491  -9.070  1.00  0.00     0.016 C 
BRANCH   3   5
ATOM      5  C   UNL     1       6.173   5.165  -9.596  1.00  0.00     0.015 C 
BRANCH   5   6
ATOM      6  C   UNL     1       6.823   4.134 -10.548  1.00  0.00     0.028 C 
BRANCH   6   7
ATOM      7  C   UNL     1       6.101   2.809 -10.482  1.00  0.00    -0.028 C 
ATOM      8  C   UNL     1       6.478   1.750  -9.725  1.00  0.00    -0.070 CG0
ATOM      9  C   UNL     1       5.711   0.461  -9.882  1.00  0.00     0.039 C 
ATOM     10  G   UNL     1       7.625   1.802  -8.728  1.00  0.00     0.000 G0
ENDBRANCH   6   7
ENDBRANCH   5   6
ENDBRANCH   3   5
ENDBRANCH   1   3
BRANCH   1  11
ATOM     11  C   UNL     1       6.436   4.286  -6.671  1.00  0.00     0.087 C 
BRANCH  11  12
ATOM     12  C   UNL     1       7.561   3.234  -6.476  1.00  0.00     0.066 C 
BRANCH  12  13
ATOM     13  C   UNL     1       7.299   1.959  -7.273  1.00  0.00     0.140 C 
ATOM     14  O   UNL     1       6.777   1.011  -6.705  1.00  0.00    -0.299 OA
BRANCH  13  15
ATOM     15  C   UNL     1       7.644   1.790  -8.740  1.00  0.00     0.106 CG0
ATOM     16  G   UNL     1       6.463   1.756  -9.698  1.00  0.00     0.000 G0
ENDBRANCH  13  15
ENDBRANCH  12  13
BRANCH  12  17
ATOM     17  C   UNL     1       7.874   2.908  -4.982  1.00  0.00    -0.006 C 
ATOM     18  C   UNL     1       9.347   2.510  -4.784  1.00  0.00     0.008 C 
ATOM     19  C   UNL     1       7.499   4.023  -3.992  1.00  0.00     0.008 C 
ENDBRANCH  12  17
ENDBRANCH  11  12
ENDBRANCH   1  11
TORSDOF 1
ENDMDL
MODEL 2
REMARK VINA RESULT:    -3.709      2.138      4.540
REMARK INTER + INTRA:          -5.976
REMARK INTER:                  -5.568
REMARK INTRA:                  -0.408
REMARK UNBOUND:                -0.316
REMARK SMILES CC1=CCC[C@H](C)C(=O)C[C@@H](C(C)C)C(=O)C1
REMARK SMILES IDX 8 1 9 2 6 3 7 4 5 5 4 6 3 7 2 8 1 9 10 11 11 12 15 13 16 14
REMARK SMILES IDX 17 15 12 17 13 18 14 19
REMARK H PARENT
REMARK Flexibility Score: 70.00
ROOT
ATOM      1  C   UNL     1       6.840   1.832  -6.323  1.00  0.00     0.136 C 
ATOM      2  O   UNL     1       6.992   0.645  -6.067  1.00  0.00    -0.299 OA
ENDROOT
BRANCH   1   3
ATOM      3  C   UNL     1       6.706   2.807  -5.165  1.00  0.00     0.053 C 
ATOM      4  C   UNL     1       8.082   3.212  -4.623  1.00  0.00     0.016 C 
BRANCH   3   5
ATOM      5  C   UNL     1       5.870   4.050  -5.533  1.00  0.00     0.015 C 
BRANCH   5   6
ATOM      6  C   UNL     1       6.739   5.285  -5.867  1.00  0.00     0.028 C 
BRANCH   6   7
ATOM      7  C   UNL     1       6.252   5.963  -7.125  1.00  0.00    -0.028 C 
ATOM      8  C   UNL     1       6.934   6.024  -8.296  1.00  0.00    -0.070 CG0
ATOM      9  C   UNL     1       6.351   6.854  -9.411  1.00  0.00     0.039 C 
ATOM     10  G   UNL     1       8.246   5.293  -8.536  1.00  0.00     0.000 G0
ENDBRANCH   6   7
ENDBRANCH   5   6
ENDBRANCH   3   5
ENDBRANCH   1   3
BRANCH   1  11
ATOM     11  C   UNL     1       6.796   2.254  -7.779  1.00  0.00     0.087 C 
BRANCH  11  12
ATOM     12  C   UNL     1       8.191   2.613  -8.358  1.00  0.00     0.066 C 
BRANCH  12  13
ATOM     13  C   UNL     1       8.163   3.911  -9.161  1.00  0.00     0.140 C 
ATOM     14  O   UNL     1       8.052   3.846 -10.376  1.00  0.00    -0.299 OA
BRANCH  13  15
ATOM     15  C   UNL     1       8.262   5.292  -8.542  1.00  0.00     0.106 CG0
ATOM     16  G   UNL     1       6.939   6.000  -8.290  1.00  0.00     0.000 G0
ENDBRANCH  13  15
ENDBRANCH  12  13
BRANCH  12  17
ATOM     17  C   UNL     1       8.855   1.462  -9.176  1.00  0.00    -0.006 C 
ATOM     18  C   UNL     1       9.862   0.668  -8.327  1.00  0.00     0.008 C 
ATOM     19  C   UNL     1       7.860   0.495  -9.842  1.00  0.00     0.008 C 
ENDBRANCH  12  17
ENDBRANCH  11  12
ENDBRANCH   1  11
TORSDOF 1
ENDMDL
MODEL 3
REMARK VINA RESULT:    -3.575      1.611      4.102
REMARK INTER + INTRA:          -5.772
REMARK INTER:                  -5.361
REMARK INTRA:                  -0.411
REMARK UNBOUND:                -0.316
REMARK SMILES CC1=CCC[C@H](C)C(=O)C[C@@H](C(C)C)C(=O)C1
REMARK SMILES IDX 8 1 9 2 6 3 7 4 5 5 4 6 3 7 2 8 1 9 10 11 11 12 15 13 16 14
REMARK SMILES IDX 17 15 12 17 13 18 14 19
REMARK H PARENT
REMARK Flexibility Score: 70.00
ROOT
ATOM      1  C   UNL     1       6.926   5.240  -6.482  1.00  0.00     0.136 C 
ATOM      2  O   UNL     1       6.437   6.333  -6.235  1.00  0.00    -0.299 OA
ENDROOT
BRANCH   1   3
ATOM      3  C   UNL     1       6.836   4.154  -5.423  1.00  0.00     0.053 C 
ATOM      4  C   UNL     1       5.530   3.362  -5.554  1.00  0.00     0.016 C 
BRANCH   3   5
ATOM      5  C   UNL     1       8.057   3.211  -5.436  1.00  0.00     0.015 C 
BRANCH   5   6
ATOM      6  C   UNL     1       7.713   1.785  -5.926  1.00  0.00     0.028 C 
BRANCH   6   7
ATOM      7  C   UNL     1       8.593   1.387  -7.088  1.00  0.00    -0.028 C 
ATOM      8  C   UNL     1       8.227   1.416  -8.393  1.00  0.00    -0.070 CG0
ATOM      9  C   UNL     1       9.191   0.860  -9.410  1.00  0.00     0.039 C 
ATOM     10  G   UNL     1       6.901   1.984  -8.875  1.00  0.00     0.000 G0
ENDBRANCH   6   7
ENDBRANCH   5   6
ENDBRANCH   3   5
ENDBRANCH   1   3
BRANCH   1  11
ATOM     11  C   UNL     1       7.592   5.037  -7.830  1.00  0.00     0.087 C 
BRANCH  11  12
ATOM     12  C   UNL     1       6.595   4.644  -8.954  1.00  0.00     0.066 C 
BRANCH  12  13
ATOM     13  C   UNL     1       6.962   3.315  -9.608  1.00  0.00     0.140 C 
ATOM     14  O   UNL     1       7.339   3.318 -10.770  1.00  0.00    -0.299 OA
BRANCH  13  15
ATOM     15  C   UNL     1       6.892   1.974  -8.901  1.00  0.00     0.106 CG0
ATOM     16  G   UNL     1       8.214   1.431  -8.381  1.00  0.00     0.000 G0
ENDBRANCH  13  15
ENDBRANCH  12  13
BRANCH  12  17
ATOM     17  C   UNL     1       6.378   5.756 -10.028  1.00  0.00    -0.006 C 
ATOM     18  C   UNL     1       4.884   6.025 -10.274  1.00  0.00     0.008 C 
ATOM     19  C   UNL     1       7.104   7.080  -9.732  1.00  0.00     0.008 C 
ENDBRANCH  12  17
ENDBRANCH  11  12
ENDBRANCH   1  11
TORSDOF 1
ENDMDL
MODEL 4
REMARK VINA RESULT:    -3.418      1.192      1.809
REMARK INTER + INTRA:          -5.533
REMARK INTER:                  -5.389
REMARK INTRA:                  -0.144
REMARK UNBOUND:                -0.316
REMARK SMILES CC1=CCC[C@H](C)C(=O)C[C@@H](C(C)C)C(=O)C1
REMARK SMILES IDX 8 1 9 2 6 3 7 4 5 5 4 6 3 7 2 8 1 9 10 11 11 12 15 13 16 14
REMARK SMILES IDX 17 15 12 17 13 18 14 19
REMARK H PARENT
REMARK Flexibility Score: 70.00
ROOT
ATOM      1  C   UNL     1       6.676   5.182  -6.408  1.00  0.00     0.136 C 
ATOM      2  O   UNL     1       6.860   5.733  -5.333  1.00  0.00    -0.299 OA
ENDROOT
BRANCH   1   3
ATOM      3  C   UNL     1       6.729   6.026  -7.670  1.00  0.00     0.053 C 
ATOM      4  C   UNL     1       6.230   7.451  -7.402  1.00  0.00     0.016 C 
BRANCH   3   5
ATOM      5  C   UNL     1       8.132   6.044  -8.312  1.00  0.00     0.015 C 
BRANCH   5   6
ATOM      6  C   UNL     1       8.151   5.442  -9.737  1.00  0.00     0.028 C 
BRANCH   6   7
ATOM      7  C   UNL     1       6.802   4.868 -10.098  1.00  0.00    -0.028 C 
ATOM      8  C   UNL     1       6.487   3.550 -10.104  1.00  0.00    -0.070 CG0
ATOM      9  C   UNL     1       5.127   3.149 -10.616  1.00  0.00     0.039 C 
ATOM     10  G   UNL     1       7.434   2.464  -9.615  1.00  0.00     0.000 G0
ENDBRANCH   6   7
ENDBRANCH   5   6
ENDBRANCH   3   5
ENDBRANCH   1   3
BRANCH   1  11
ATOM     11  C   UNL     1       6.407   3.689  -6.415  1.00  0.00     0.087 C 
BRANCH  11  12
ATOM     12  C   UNL     1       7.601   2.852  -6.952  1.00  0.00     0.066 C 
BRANCH  12  13
ATOM     13  C   UNL     1       7.214   2.016  -8.169  1.00  0.00     0.140 C 
ATOM     14  O   UNL     1       6.702   0.921  -7.989  1.00  0.00    -0.299 OA
BRANCH  13  15
ATOM     15  C   UNL     1       7.423   2.462  -9.604  1.00  0.00     0.106 CG0
ATOM     16  G   UNL     1       6.486   3.551 -10.101  1.00  0.00     0.000 G0
ENDBRANCH  13  15
ENDBRANCH  12  13
BRANCH  12  17
ATOM     17  C   UNL     1       8.299   1.973  -5.867  1.00  0.00    -0.006 C 
ATOM     18  C   UNL     1       9.502   1.208  -6.443  1.00  0.00     0.008 C 
ATOM     19  C   UNL     1       8.726   2.738  -4.602  1.00  0.00     0.008 C 
ENDBRANCH  12  17
ENDBRANCH  11  12
ENDBRANCH   1  11
TORSDOF 1
ENDMDL
MODEL 5
REMARK VINA RESULT:    -3.412      1.852      4.192
REMARK INTER + INTRA:          -5.523
REMARK INTER:                  -5.581
REMARK INTRA:                   0.058
REMARK UNBOUND:                -0.316
REMARK SMILES CC1=CCC[C@H](C)C(=O)C[C@@H](C(C)C)C(=O)C1
REMARK SMILES IDX 8 1 9 2 6 3 7 4 5 5 4 6 3 7 2 8 1 9 10 11 11 12 15 13 16 14
REMARK SMILES IDX 17 15 12 17 13 18 14 19
REMARK H PARENT
REMARK Flexibility Score: 70.00
ROOT
ATOM      1  C   UNL     1       7.479   4.645  -7.339  1.00  0.00     0.136 C 
ATOM      2  O   UNL     1       8.617   4.822  -7.749  1.00  0.00    -0.299 OA
ENDROOT
BRANCH   1   3
ATOM      3  C   UNL     1       7.296   4.118  -5.925  1.00  0.00     0.053 C 
ATOM      4  C   UNL     1       5.815   3.863  -5.619  1.00  0.00     0.016 C 
BRANCH   3   5
ATOM      5  C   UNL     1       8.143   2.859  -5.648  1.00  0.00     0.015 C 
BRANCH   5   6
ATOM      6  C   UNL     1       7.728   1.650  -6.519  1.00  0.00     0.028 C 
BRANCH   6   7
ATOM      7  C   UNL     1       8.744   1.394  -7.607  1.00  0.00    -0.028 C 
ATOM      8  C   UNL     1       8.461   1.258  -8.925  1.00  0.00    -0.070 CG0
ATOM      9  C   UNL     1       9.587   0.878  -9.854  1.00  0.00     0.039 C 
ATOM     10  G   UNL     1       7.073   1.476  -9.508  1.00  0.00     0.000 G0
ENDBRANCH   6   7
ENDBRANCH   5   6
ENDBRANCH   3   5
ENDBRANCH   1   3
BRANCH   1  11
ATOM     11  C   UNL     1       6.322   4.962  -8.267  1.00  0.00     0.087 C 
BRANCH  11  12
ATOM     12  C   UNL     1       5.688   3.700  -8.913  1.00  0.00     0.066 C 
BRANCH  12  13
ATOM     13  C   UNL     1       6.689   2.931  -9.771  1.00  0.00     0.140 C 
ATOM     14  O   UNL     1       7.214   3.504 -10.714  1.00  0.00    -0.299 OA
BRANCH  13  15
ATOM     15  C   UNL     1       7.082   1.486  -9.525  1.00  0.00     0.106 CG0
ATOM     16  G   UNL     1       8.464   1.269  -8.930  1.00  0.00     0.000 G0
ENDBRANCH  13  15
ENDBRANCH  12  13
BRANCH  12  17
ATOM     17  C   UNL     1       4.373   3.983  -9.704  1.00  0.00    -0.006 C 
ATOM     18  C   UNL     1       4.521   5.197 -10.637  1.00  0.00     0.008 C 
ATOM     19  C   UNL     1       3.832   2.781 -10.496  1.00  0.00     0.008 C 
ENDBRANCH  12  17
ENDBRANCH  11  12
ENDBRANCH   1  11
TORSDOF 1
ENDMDL
MODEL 6
REMARK VINA RESULT:    -3.374      1.534      3.901
REMARK INTER + INTRA:          -5.466
REMARK INTER:                  -5.496
REMARK INTRA:                   0.030
REMARK UNBOUND:                -0.316
REMARK SMILES CC1=CCC[C@H](C)C(=O)C[C@@H](C(C)C)C(=O)C1
REMARK SMILES IDX 8 1 9 2 6 3 7 4 5 5 4 6 3 7 2 8 1 9 10 11 11 12 15 13 16 14
REMARK SMILES IDX 17 15 12 17 13 18 14 19
REMARK H PARENT
REMARK Flexibility Score: 70.00
ROOT
ATOM      1  C   UNL     1       6.572   4.047  -5.953  1.00  0.00     0.136 C 
ATOM      2  O   UNL     1       5.476   3.694  -5.541  1.00  0.00    -0.299 OA
ENDROOT
BRANCH   1   3
ATOM      3  C   UNL     1       7.758   3.123  -5.731  1.00  0.00     0.053 C 
ATOM      4  C   UNL     1       8.221   3.161  -4.270  1.00  0.00     0.016 C 
BRANCH   3   5
ATOM      5  C   UNL     1       7.472   1.675  -6.182  1.00  0.00     0.015 C 
BRANCH   5   6
ATOM      6  C   UNL     1       8.027   1.362  -7.591  1.00  0.00     0.028 C 
BRANCH   6   7
ATOM      7  C   UNL     1       6.933   1.433  -8.630  1.00  0.00    -0.028 C 
ATOM      8  C   UNL     1       6.815   2.394  -9.578  1.00  0.00    -0.070 CG0
ATOM      9  C   UNL     1       5.586   2.379 -10.452  1.00  0.00     0.039 C 
ATOM     10  G   UNL     1       7.860   3.476  -9.804  1.00  0.00     0.000 G0
ENDBRANCH   6   7
ENDBRANCH   5   6
ENDBRANCH   3   5
ENDBRANCH   1   3
BRANCH   1  11
ATOM     11  C   UNL     1       6.679   5.385  -6.661  1.00  0.00     0.087 C 
BRANCH  11  12
ATOM     12  C   UNL     1       6.628   5.267  -8.208  1.00  0.00     0.066 C 
BRANCH  12  13
ATOM     13  C   UNL     1       7.876   4.594  -8.774  1.00  0.00     0.140 C 
ATOM     14  O   UNL     1       8.971   4.952  -8.366  1.00  0.00    -0.299 OA
BRANCH  13  15
ATOM     15  C   UNL     1       7.846   3.495  -9.819  1.00  0.00     0.106 CG0
ATOM     16  G   UNL     1       6.825   2.391  -9.588  1.00  0.00     0.000 G0
ENDBRANCH  13  15
ENDBRANCH  12  13
BRANCH  12  17
ATOM     17  C   UNL     1       6.339   6.615  -8.939  1.00  0.00    -0.006 C 
ATOM     18  C   UNL     1       5.051   6.543  -9.777  1.00  0.00     0.008 C 
ATOM     19  C   UNL     1       6.291   7.845  -8.016  1.00  0.00     0.008 C 
ENDBRANCH  12  17
ENDBRANCH  11  12
ENDBRANCH   1  11
TORSDOF 1
ENDMDL
MODEL 7
REMARK VINA RESULT:    -3.281      1.856      3.967
REMARK INTER + INTRA:          -5.323
REMARK INTER:                  -5.116
REMARK INTRA:                  -0.206
REMARK UNBOUND:                -0.316
REMARK SMILES CC1=CCC[C@H](C)C(=O)C[C@@H](C(C)C)C(=O)C1
REMARK SMILES IDX 8 1 9 2 6 3 7 4 5 5 4 6 3 7 2 8 1 9 10 11 11 12 15 13 16 14
REMARK SMILES IDX 17 15 12 17 13 18 14 19
REMARK H PARENT
REMARK Flexibility Score: 70.00
ROOT
ATOM      1  C   UNL     1       9.007   1.460  -7.979  1.00  0.00     0.136 C 
ATOM      2  O   UNL     1       9.385   0.590  -7.208  1.00  0.00    -0.299 OA
ENDROOT
BRANCH   1   3
ATOM      3  C   UNL     1       8.526   1.041  -9.359  1.00  0.00     0.053 C 
ATOM      4  C   UNL     1       7.004   0.859  -9.381  1.00  0.00     0.016 C 
BRANCH   3   5
ATOM      5  C   UNL     1       8.983   2.014 -10.466  1.00  0.00     0.015 C 
BRANCH   5   6
ATOM      6  C   UNL     1       7.821   2.853 -11.048  1.00  0.00     0.028 C 
BRANCH   6   7
ATOM      7  C   UNL     1       8.195   4.315 -11.120  1.00  0.00    -0.028 C 
ATOM      8  C   UNL     1       7.682   5.293 -10.335  1.00  0.00    -0.070 CG0
ATOM      9  C   UNL     1       8.075   6.718 -10.633  1.00  0.00     0.039 C 
ATOM     10  G   UNL     1       6.741   5.021  -9.171  1.00  0.00     0.000 G0
ENDBRANCH   6   7
ENDBRANCH   5   6
ENDBRANCH   3   5
ENDBRANCH   1   3
BRANCH   1  11
ATOM     11  C   UNL     1       9.041   2.903  -7.511  1.00  0.00     0.087 C 
BRANCH  11  12
ATOM     12  C   UNL     1       7.637   3.470  -7.166  1.00  0.00     0.066 C 
BRANCH  12  13
ATOM     13  C   UNL     1       7.395   4.834  -7.806  1.00  0.00     0.140 C 
ATOM     14  O   UNL     1       7.753   5.835  -7.204  1.00  0.00    -0.299 OA
BRANCH  13  15
ATOM     15  C   UNL     1       6.735   5.030  -9.158  1.00  0.00     0.106 CG0
ATOM     16  G   UNL     1       7.678   5.285 -10.324  1.00  0.00     0.000 G0
ENDBRANCH  13  15
ENDBRANCH  12  13
BRANCH  12  17
ATOM     17  C   UNL     1       7.324   3.505  -5.637  1.00  0.00    -0.006 C 
ATOM     18  C   UNL     1       5.818   3.358  -5.361  1.00  0.00     0.008 C 
ATOM     19  C   UNL     1       8.109   2.480  -4.800  1.00  0.00     0.008 C 
ENDBRANCH  12  17
ENDBRANCH  11  12
ENDBRANCH   1  11
TORSDOF 1
ENDMDL
MODEL 8
REMARK VINA RESULT:    -3.212      1.759      4.253
REMARK INTER + INTRA:          -5.217
REMARK INTER:                  -5.339
REMARK INTRA:                   0.122
REMARK UNBOUND:                -0.316
REMARK SMILES CC1=CCC[C@H](C)C(=O)C[C@@H](C(C)C)C(=O)C1
REMARK SMILES IDX 8 1 9 2 6 3 7 4 5 5 4 6 3 7 2 8 1 9 10 11 11 12 15 13 16 14
REMARK SMILES IDX 17 15 12 17 13 18 14 19
REMARK H PARENT
REMARK Flexibility Score: 70.00
ROOT
ATOM      1  C   UNL     1       6.421   3.088  -6.225  1.00  0.00     0.136 C 
ATOM      2  O   UNL     1       5.565   2.513  -5.568  1.00  0.00    -0.299 OA
ENDROOT
BRANCH   1   3
ATOM      3  C   UNL     1       7.849   3.086  -5.706  1.00  0.00     0.053 C 
ATOM      4  C   UNL     1       7.935   3.748  -4.326  1.00  0.00     0.016 C 
BRANCH   3   5
ATOM      5  C   UNL     1       8.468   1.674  -5.680  1.00  0.00     0.015 C 
BRANCH   5   6
ATOM      6  C   UNL     1       9.214   1.318  -6.988  1.00  0.00     0.028 C 
BRANCH   6   7
ATOM      7  C   UNL     1       9.435   2.549  -7.835  1.00  0.00    -0.028 C 
ATOM      8  C   UNL     1       8.868   2.779  -9.045  1.00  0.00    -0.070 CG0
ATOM      9  C   UNL     1       9.303   4.004  -9.808  1.00  0.00     0.039 C 
ATOM     10  G   UNL     1       7.818   1.867  -9.661  1.00  0.00     0.000 G0
ENDBRANCH   6   7
ENDBRANCH   5   6
ENDBRANCH   3   5
ENDBRANCH   1   3
BRANCH   1  11
ATOM     11  C   UNL     1       6.004   3.766  -7.516  1.00  0.00     0.087 C 
BRANCH  11  12
ATOM     12  C   UNL     1       5.512   2.771  -8.602  1.00  0.00     0.066 C 
BRANCH  12  13
ATOM     13  C   UNL     1       6.531   1.668  -8.874  1.00  0.00     0.140 C 
ATOM     14  O   UNL     1       6.315   0.549  -8.433  1.00  0.00    -0.299 OA
BRANCH  13  15
ATOM     15  C   UNL     1       7.808   1.871  -9.667  1.00  0.00     0.106 CG0
ATOM     16  G   UNL     1       8.852   2.769  -9.021  1.00  0.00     0.000 G0
ENDBRANCH  13  15
ENDBRANCH  12  13
BRANCH  12  17
ATOM     17  C   UNL     1       5.058   3.454  -9.930  1.00  0.00    -0.006 C 
ATOM     18  C   UNL     1       3.610   3.083 -10.293  1.00  0.00     0.008 C 
ATOM     19  C   UNL     1       5.224   4.983  -9.952  1.00  0.00     0.008 C 
ENDBRANCH  12  17
ENDBRANCH  11  12
ENDBRANCH   1  11
TORSDOF 1
ENDMDL
MODEL 9
REMARK VINA RESULT:    -3.196      1.441      1.695
REMARK INTER + INTRA:          -5.193
REMARK INTER:                  -5.346
REMARK INTRA:                   0.153
REMARK UNBOUND:                -0.316
REMARK SMILES CC1=CCC[C@H](C)C(=O)C[C@@H](C(C)C)C(=O)C1
REMARK SMILES IDX 8 1 9 2 6 3 7 4 5 5 4 6 3 7 2 8 1 9 10 11 11 12 15 13 16 14
REMARK SMILES IDX 17 15 12 17 13 18 14 19
REMARK H PARENT
REMARK Flexibility Score: 70.00
ROOT
ATOM      1  C   UNL     1       7.431   6.206  -8.248  1.00  0.00     0.136 C 
ATOM      2  O   UNL     1       8.623   6.373  -8.036  1.00  0.00    -0.299 OA
ENDROOT
BRANCH   1   3
ATOM      3  C   UNL     1       6.752   7.087  -9.284  1.00  0.00     0.053 C 
ATOM      4  C   UNL     1       7.735   7.503 -10.384  1.00  0.00     0.016 C 
BRANCH   3   5
ATOM      5  C   UNL     1       5.494   6.429  -9.888  1.00  0.00     0.015 C 
BRANCH   5   6
ATOM      6  C   UNL     1       5.823   5.404 -10.998  1.00  0.00     0.028 C 
BRANCH   6   7
ATOM      7  C   UNL     1       5.340   4.024 -10.619  1.00  0.00    -0.028 C 
ATOM      8  C   UNL     1       6.106   3.049 -10.073  1.00  0.00    -0.070 CG0
ATOM      9  C   UNL     1       5.487   1.688  -9.878  1.00  0.00     0.039 C 
ATOM     10  G   UNL     1       7.550   3.264  -9.646  1.00  0.00     0.000 G0
ENDBRANCH   6   7
ENDBRANCH   5   6
ENDBRANCH   3   5
ENDBRANCH   1   3
BRANCH   1  11
ATOM     11  C   UNL     1       6.704   5.130  -7.464  1.00  0.00     0.087 C 
BRANCH  11  12
ATOM     12  C   UNL     1       7.624   3.953  -7.038  1.00  0.00     0.066 C 
BRANCH  12  13
ATOM     13  C   UNL     1       7.863   2.969  -8.179  1.00  0.00     0.140 C 
ATOM     14  O   UNL     1       8.339   1.874  -7.919  1.00  0.00    -0.299 OA
BRANCH  13  15
ATOM     15  C   UNL     1       7.543   3.263  -9.633  1.00  0.00     0.106 CG0
ATOM     16  G   UNL     1       6.098   3.034 -10.051  1.00  0.00     0.000 G0
ENDBRANCH  13  15
ENDBRANCH  12  13
BRANCH  12  17
ATOM     17  C   UNL     1       7.151   3.212  -5.748  1.00  0.00    -0.006 C 
ATOM     18  C   UNL     1       7.806   3.795  -4.485  1.00  0.00     0.008 C 
ATOM     19  C   UNL     1       5.624   3.158  -5.566  1.00  0.00     0.008 C 
ENDBRANCH  12  17
ENDBRANCH  11  12
ENDBRANCH   1  11
TORSDOF 1
ENDMDL
