MODEL 1
REMARK VINA RESULT:    -0.927      0.000      0.000
REMARK INTER + INTRA:          -0.625
REMARK INTER:                  -1.143
REMARK INTRA:                   0.518
REMARK UNBOUND:                 0.518
REMARK SMILES C=C1[C@@H]2CC[C@H]3[C@H]2C(C)(C)CCC[C@@]13C
REMARK SMILES IDX 14 1 6 2 7 3 3 4 2 5 1 6 4 7 5 8 15 9 8 10 9 11 10 12 11 13
REMARK SMILES IDX 13 15 12 16
REMARK H PARENT
REMARK Flexibility Score: 80.00
ROOT
ATOM      1  C   UNL     1       4.414   8.162  13.854  1.00  0.00    -0.008 C 
ATOM      2  C   UNL     1       4.833   6.743  13.497  1.00  0.00     0.003 C 
ATOM      3  C   UNL     1       5.894   7.067  12.429  1.00  0.00     0.006 C 
ATOM      4  C   UNL     1       4.895   7.675  11.459  1.00  0.00     0.019 C 
ATOM      5  C   UNL     1       4.300   8.724  12.428  1.00  0.00    -0.068 C 
ATOM      6  C   UNL     1       3.844   9.931  12.081  1.00  0.00     0.009 C 
ATOM      7  C   UNL     1       3.857   6.574  11.285  1.00  0.00     0.008 C 
ATOM      8  C   UNL     1       3.790   5.944  12.679  1.00  0.00     0.005 C 
ATOM      9  C   UNL     1       3.056   8.231  14.584  1.00  0.00     0.016 C 
ENDROOT
BRANCH   3  10
ATOM     10  C   UNL     1       7.247   6.417  12.794  1.00  0.00    -0.032 C 
ATOM     11  C   UNL     1       7.142   4.876  12.790  1.00  0.00     0.011 C 
ATOM     12  C   UNL     1       8.363   6.809  11.785  1.00  0.00     0.011 C 
BRANCH  10  13
ATOM     13  C   UNL     1       7.602   6.957  14.255  1.00  0.00     0.007 CG0
ATOM     14  G   UNL     1       7.123   8.432  14.611  1.00  0.00     0.000 G0
ENDBRANCH  10  13
ENDBRANCH   3  10
BRANCH   1  15
ATOM     15  C   UNL     1       5.559   8.759  14.795  1.00  0.00     0.011 C 
BRANCH  15  16
ATOM     16  C   UNL     1       7.111   8.423  14.616  1.00  0.00     0.001 CG0
ATOM     17  G   UNL     1       7.596   6.954  14.247  1.00  0.00     0.000 G0
ENDBRANCH  15  16
ENDBRANCH   1  15
TORSDOF 0
ENDMDL
MODEL 2
REMARK VINA RESULT:     0.677      2.100      4.577
REMARK INTER + INTRA:           1.353
REMARK INTER:                   0.844
REMARK INTRA:                   0.509
REMARK UNBOUND:                 0.518
REMARK SMILES C=C1[C@@H]2CC[C@H]3[C@H]2C(C)(C)CCC[C@@]13C
REMARK SMILES IDX 14 1 6 2 7 3 3 4 2 5 1 6 4 7 5 8 15 9 8 10 9 11 10 12 11 13
REMARK SMILES IDX 13 15 12 16
REMARK H PARENT
REMARK Flexibility Score: 80.00
ROOT
ATOM      1  C   UNL     1       4.845   7.244  12.995  1.00  0.00    -0.008 C 
ATOM      2  C   UNL     1       3.531   7.895  13.402  1.00  0.00     0.003 C 
ATOM      3  C   UNL     1       4.033   9.335  13.620  1.00  0.00     0.006 C 
ATOM      4  C   UNL     1       4.926   8.966  14.793  1.00  0.00     0.019 C 
ATOM      5  C   UNL     1       5.744   7.868  14.074  1.00  0.00    -0.068 C 
ATOM      6  C   UNL     1       7.027   7.577  14.307  1.00  0.00     0.009 C 
ATOM      7  C   UNL     1       3.973   8.269  15.755  1.00  0.00     0.008 C 
ATOM      8  C   UNL     1       3.028   7.515  14.816  1.00  0.00     0.005 C 
ATOM      9  C   UNL     1       4.825   5.705  13.115  1.00  0.00     0.016 C 
ENDROOT
BRANCH   3  10
ATOM     10  C   UNL     1       3.223  10.327  12.756  1.00  0.00    -0.032 C 
ATOM     11  C   UNL     1       1.735  10.339  13.171  1.00  0.00     0.011 C 
ATOM     12  C   UNL     1       3.756  11.781  12.900  1.00  0.00     0.011 C 
BRANCH  10  13
ATOM     13  C   UNL     1       3.387   9.819  11.250  1.00  0.00     0.007 CG0
ATOM     14  G   UNL     1       4.751   9.086  10.885  1.00  0.00     0.000 G0
ENDBRANCH  10  13
ENDBRANCH   3  10
BRANCH   1  15
ATOM     15  C   UNL     1       5.115   7.659  11.476  1.00  0.00     0.011 C 
BRANCH  15  16
ATOM     16  C   UNL     1       4.746   9.093  10.875  1.00  0.00     0.001 CG0
ATOM     17  G   UNL     1       3.378   9.813  11.250  1.00  0.00     0.000 G0
ENDBRANCH  15  16
ENDBRANCH   1  15
TORSDOF 0
ENDMDL
MODEL 3
REMARK VINA RESULT:     0.761      1.833      3.483
REMARK INTER + INTRA:           1.457
REMARK INTER:                   0.945
REMARK INTRA:                   0.512
REMARK UNBOUND:                 0.518
REMARK SMILES C=C1[C@@H]2CC[C@H]3[C@H]2C(C)(C)CCC[C@@]13C
REMARK SMILES IDX 14 1 6 2 7 3 3 4 2 5 1 6 4 7 5 8 15 9 8 10 9 11 10 12 11 13
REMARK SMILES IDX 13 15 12 16
REMARK H PARENT
REMARK Flexibility Score: 80.00
ROOT
ATOM      1  C   UNL     1       3.820  10.048  13.100  1.00  0.00    -0.008 C 
ATOM      2  C   UNL     1       4.827   9.167  13.826  1.00  0.00     0.003 C 
ATOM      3  C   UNL     1       4.141   7.802  13.626  1.00  0.00     0.006 C 
ATOM      4  C   UNL     1       2.926   8.164  14.463  1.00  0.00     0.019 C 
ATOM      5  C   UNL     1       2.535   9.446  13.690  1.00  0.00    -0.068 C 
ATOM      6  C   UNL     1       1.289   9.895  13.511  1.00  0.00     0.009 C 
ATOM      7  C   UNL     1       3.529   8.599  15.792  1.00  0.00     0.008 C 
ATOM      8  C   UNL     1       4.819   9.305  15.367  1.00  0.00     0.005 C 
ATOM      9  C   UNL     1       3.946  11.543  13.462  1.00  0.00     0.016 C 
ENDROOT
BRANCH   3  10
ATOM     10  C   UNL     1       5.106   6.805  12.948  1.00  0.00    -0.032 C 
ATOM     11  C   UNL     1       6.336   6.528  13.841  1.00  0.00     0.011 C 
ATOM     12  C   UNL     1       4.418   5.438  12.672  1.00  0.00     0.011 C 
BRANCH  10  13
ATOM     13  C   UNL     1       5.545   7.496  11.577  1.00  0.00     0.007 CG0
ATOM     14  G   UNL     1       4.477   8.447  10.879  1.00  0.00     0.000 G0
ENDBRANCH  10  13
ENDBRANCH   3  10
BRANCH   1  15
ATOM     15  C   UNL     1       4.078   9.851  11.536  1.00  0.00     0.011 C 
BRANCH  15  16
ATOM     16  C   UNL     1       4.479   8.452  10.877  1.00  0.00     0.001 CG0
ATOM     17  G   UNL     1       5.539   7.491  11.571  1.00  0.00     0.000 G0
ENDBRANCH  15  16
ENDBRANCH   1  15
TORSDOF 0
ENDMDL
MODEL 4
REMARK VINA RESULT:     1.021      1.905      4.311
REMARK INTER + INTRA:           1.778
REMARK INTER:                   1.274
REMARK INTRA:                   0.504
REMARK UNBOUND:                 0.518
REMARK SMILES C=C1[C@@H]2CC[C@H]3[C@H]2C(C)(C)CCC[C@@]13C
REMARK SMILES IDX 14 1 6 2 7 3 3 4 2 5 1 6 4 7 5 8 15 9 8 10 9 11 10 12 11 13
REMARK SMILES IDX 13 15 12 16
REMARK H PARENT
REMARK Flexibility Score: 80.00
ROOT
ATOM      1  C   UNL     1       6.269   5.661  13.677  1.00  0.00    -0.008 C 
ATOM      2  C   UNL     1       5.901   7.095  14.029  1.00  0.00     0.003 C 
ATOM      3  C   UNL     1       5.807   7.676  12.605  1.00  0.00     0.006 C 
ATOM      4  C   UNL     1       7.283   7.475  12.305  1.00  0.00     0.019 C 
ATOM      5  C   UNL     1       7.339   5.961  12.616  1.00  0.00    -0.068 C 
ATOM      6  C   UNL     1       8.128   5.071  12.006  1.00  0.00     0.009 C 
ATOM      7  C   UNL     1       7.978   8.201  13.448  1.00  0.00     0.008 C 
ATOM      8  C   UNL     1       7.053   7.930  14.638  1.00  0.00     0.005 C 
ATOM      9  C   UNL     1       6.872   4.878  14.863  1.00  0.00     0.016 C 
ENDROOT
BRANCH   3  10
ATOM     10  C   UNL     1       4.425   8.325  12.375  1.00  0.00    -0.032 C 
ATOM     11  C   UNL     1       4.204   9.515  13.334  1.00  0.00     0.011 C 
ATOM     12  C   UNL     1       4.279   8.866  10.924  1.00  0.00     0.011 C 
BRANCH  10  13
ATOM     13  C   UNL     1       3.356   7.169  12.649  1.00  0.00     0.007 CG0
ATOM     14  G   UNL     1       3.802   5.683  12.299  1.00  0.00     0.000 G0
ENDBRANCH  10  13
ENDBRANCH   3  10
BRANCH   1  15
ATOM     15  C   UNL     1       4.925   4.946  13.191  1.00  0.00     0.011 C 
BRANCH  15  16
ATOM     16  C   UNL     1       3.802   5.677  12.321  1.00  0.00     0.001 CG0
ATOM     17  G   UNL     1       3.368   7.175  12.632  1.00  0.00     0.000 G0
ENDBRANCH  15  16
ENDBRANCH   1  15
TORSDOF 0
ENDMDL
