MODEL 1
REMARK VINA RESULT:    -2.924      0.000      0.000
REMARK INTER + INTRA:          -3.477
REMARK INTER:                  -3.437
REMARK INTRA:                  -0.041
REMARK UNBOUND:                -0.041
REMARK SMILES O=C([O-])CCC(=O)[O-]
REMARK SMILES IDX 4 1 2 2 1 3 3 4 5 5 6 6 7 7 8 8
REMARK H PARENT
REMARK Flexibility Score: inf
ROOT
ATOM      1  C   UNL     1      -0.399   5.690   6.470  1.00  0.00     0.059 C 
ENDROOT
BRANCH   1   2
ATOM      2  C   UNL     1      -0.525   5.969   5.004  1.00  0.00     0.042 C 
ATOM      3  O   UNL     1      -0.010   5.186   4.162  1.00  0.00    -0.550 OA
ATOM      4  O   UNL     1      -1.177   7.115   4.568  1.00  0.00    -0.550 OA
ENDBRANCH   1   2
BRANCH   1   5
ATOM      5  C   UNL     1       0.626   4.586   6.748  1.00  0.00     0.059 C 
BRANCH   5   6
ATOM      6  C   UNL     1       0.327   3.867   8.028  1.00  0.00     0.042 C 
ATOM      7  O   UNL     1       0.724   2.684   8.200  1.00  0.00    -0.550 OA
ATOM      8  O   UNL     1      -0.425   4.490   9.017  1.00  0.00    -0.550 OA
ENDBRANCH   5   6
ENDBRANCH   1   5
TORSDOF 3
ENDMDL
MODEL 2
REMARK VINA RESULT:    -2.917      0.771      3.980
REMARK INTER + INTRA:          -3.469
REMARK INTER:                  -3.387
REMARK INTRA:                  -0.082
REMARK UNBOUND:                -0.041
REMARK SMILES O=C([O-])CCC(=O)[O-]
REMARK SMILES IDX 4 1 2 2 1 3 3 4 5 5 6 6 7 7 8 8
REMARK H PARENT
REMARK Flexibility Score: inf
ROOT
ATOM      1  C   UNL     1       0.999   5.023   6.740  1.00  0.00     0.059 C 
ENDROOT
BRANCH   1   2
ATOM      2  C   UNL     1       0.798   3.656   7.318  1.00  0.00     0.042 C 
ATOM      3  O   UNL     1       1.286   2.646   6.746  1.00  0.00    -0.550 OA
ATOM      4  O   UNL     1       0.037   3.493   8.469  1.00  0.00    -0.550 OA
ENDBRANCH   1   2
BRANCH   1   5
ATOM      5  C   UNL     1      -0.337   5.717   6.457  1.00  0.00     0.059 C 
BRANCH   5   6
ATOM      6  C   UNL     1      -0.526   5.971   4.992  1.00  0.00     0.042 C 
ATOM      7  O   UNL     1       0.014   5.215   4.142  1.00  0.00    -0.550 OA
ATOM      8  O   UNL     1      -1.267   7.066   4.566  1.00  0.00    -0.550 OA
ENDBRANCH   5   6
ENDBRANCH   1   5
TORSDOF 3
ENDMDL
MODEL 3
REMARK VINA RESULT:    -2.891      3.718      4.894
REMARK INTER + INTRA:          -3.438
REMARK INTER:                  -3.341
REMARK INTRA:                  -0.097
REMARK UNBOUND:                -0.041
REMARK SMILES O=C([O-])CCC(=O)[O-]
REMARK SMILES IDX 4 1 2 2 1 3 3 4 5 5 6 6 7 7 8 8
REMARK H PARENT
REMARK Flexibility Score: inf
ROOT
ATOM      1  C   UNL     1       3.401   5.036   2.967  1.00  0.00     0.059 C 
ENDROOT
BRANCH   1   2
ATOM      2  C   UNL     1       3.122   4.803   1.515  1.00  0.00     0.042 C 
ATOM      3  O   UNL     1       2.187   5.421   0.940  1.00  0.00    -0.550 OA
ATOM      4  O   UNL     1       3.870   3.872   0.804  1.00  0.00    -0.550 OA
ENDBRANCH   1   2
BRANCH   1   5
ATOM      5  C   UNL     1       2.313   5.895   3.620  1.00  0.00     0.059 C 
BRANCH   5   6
ATOM      6  C   UNL     1       1.305   5.053   4.340  1.00  0.00     0.042 C 
ATOM      7  O   UNL     1       0.077   5.173   4.084  1.00  0.00    -0.550 OA
ATOM      8  O   UNL     1       1.718   4.163   5.325  1.00  0.00    -0.550 OA
ENDBRANCH   5   6
ENDBRANCH   1   5
TORSDOF 3
ENDMDL
MODEL 4
REMARK VINA RESULT:    -2.858     12.063     13.107
REMARK INTER + INTRA:          -3.400
REMARK INTER:                  -3.360
REMARK INTRA:                  -0.040
REMARK UNBOUND:                -0.041
REMARK SMILES O=C([O-])CCC(=O)[O-]
REMARK SMILES IDX 4 1 2 2 1 3 3 4 5 5 6 6 7 7 8 8
REMARK H PARENT
REMARK Flexibility Score: inf
ROOT
ATOM      1  C   UNL     1      -7.046   4.929  -4.496  1.00  0.00     0.059 C 
ENDROOT
BRANCH   1   2
ATOM      2  C   UNL     1      -5.732   5.619  -4.300  1.00  0.00     0.042 C 
ATOM      3  O   UNL     1      -4.711   5.231  -4.927  1.00  0.00    -0.550 OA
ATOM      4  O   UNL     1      -5.625   6.666  -3.393  1.00  0.00    -0.550 OA
ENDBRANCH   1   2
BRANCH   1   5
ATOM      5  C   UNL     1      -7.871   4.909  -3.205  1.00  0.00     0.059 C 
BRANCH   5   6
ATOM      6  C   UNL     1      -9.337   5.036  -3.485  1.00  0.00     0.042 C 
ATOM      7  O   UNL     1      -9.914   4.208  -4.239  1.00  0.00    -0.550 OA
ATOM      8  O   UNL     1     -10.059   6.094  -2.946  1.00  0.00    -0.550 OA
ENDBRANCH   5   6
ENDBRANCH   1   5
TORSDOF 3
ENDMDL
MODEL 5
REMARK VINA RESULT:    -2.854      2.380      3.420
REMARK INTER + INTRA:          -3.395
REMARK INTER:                  -3.274
REMARK INTRA:                  -0.121
REMARK UNBOUND:                -0.041
REMARK SMILES O=C([O-])CCC(=O)[O-]
REMARK SMILES IDX 4 1 2 2 1 3 3 4 5 5 6 6 7 7 8 8
REMARK H PARENT
REMARK Flexibility Score: inf
ROOT
ATOM      1  C   UNL     1      -0.601   5.989   6.506  1.00  0.00     0.059 C 
ENDROOT
BRANCH   1   2
ATOM      2  C   UNL     1      -0.611   6.159   5.018  1.00  0.00     0.042 C 
ATOM      3  O   UNL     1      -1.190   7.147   4.496  1.00  0.00    -0.550 OA
ATOM      4  O   UNL     1      -0.013   5.203   4.206  1.00  0.00    -0.550 OA
ENDBRANCH   1   2
BRANCH   1   5
ATOM      5  C   UNL     1      -1.834   6.628   7.155  1.00  0.00     0.059 C 
BRANCH   5   6
ATOM      6  C   UNL     1      -1.461   7.796   8.015  1.00  0.00     0.042 C 
ATOM      7  O   UNL     1      -1.176   8.905   7.491  1.00  0.00    -0.550 OA
ATOM      8  O   UNL     1      -1.389   7.648   9.395  1.00  0.00    -0.550 OA
ENDBRANCH   5   6
ENDBRANCH   1   5
TORSDOF 3
ENDMDL
MODEL 6
REMARK VINA RESULT:    -2.852      3.666      5.648
REMARK INTER + INTRA:          -3.393
REMARK INTER:                  -3.293
REMARK INTRA:                  -0.100
REMARK UNBOUND:                -0.041
REMARK SMILES O=C([O-])CCC(=O)[O-]
REMARK SMILES IDX 4 1 2 2 1 3 3 4 5 5 6 6 7 7 8 8
REMARK H PARENT
REMARK Flexibility Score: inf
ROOT
ATOM      1  C   UNL     1       2.317   5.826   3.746  1.00  0.00     0.059 C 
ENDROOT
BRANCH   1   2
ATOM      2  C   UNL     1       1.262   4.977   4.387  1.00  0.00     0.042 C 
ATOM      3  O   UNL     1       0.049   5.142   4.091  1.00  0.00    -0.550 OA
ATOM      4  O   UNL     1       1.615   4.031   5.340  1.00  0.00    -0.550 OA
ENDBRANCH   1   2
BRANCH   1   5
ATOM      5  C   UNL     1       3.379   4.972   3.045  1.00  0.00     0.059 C 
BRANCH   5   6
ATOM      6  C   UNL     1       3.085   4.816   1.585  1.00  0.00     0.042 C 
ATOM      7  O   UNL     1       2.186   5.511   1.041  1.00  0.00    -0.550 OA
ATOM      8  O   UNL     1       3.776   3.875   0.832  1.00  0.00    -0.550 OA
ENDBRANCH   5   6
ENDBRANCH   1   5
TORSDOF 3
ENDMDL
MODEL 7
REMARK VINA RESULT:    -2.837     12.586     13.708
REMARK INTER + INTRA:          -3.376
REMARK INTER:                  -3.349
REMARK INTRA:                  -0.026
REMARK UNBOUND:                -0.041
REMARK SMILES O=C([O-])CCC(=O)[O-]
REMARK SMILES IDX 4 1 2 2 1 3 3 4 5 5 6 6 7 7 8 8
REMARK H PARENT
REMARK Flexibility Score: inf
ROOT
ATOM      1  C   UNL     1      -0.679  -3.795  -2.491  1.00  0.00     0.059 C 
ENDROOT
BRANCH   1   2
ATOM      2  C   UNL     1       0.010  -5.063  -2.090  1.00  0.00     0.042 C 
ATOM      3  O   UNL     1       1.262  -5.092  -1.962  1.00  0.00    -0.550 OA
ATOM      4  O   UNL     1      -0.728  -6.224  -1.897  1.00  0.00    -0.550 OA
ENDBRANCH   1   2
BRANCH   1   5
ATOM      5  C   UNL     1      -0.680  -3.610  -4.012  1.00  0.00     0.059 C 
BRANCH   5   6
ATOM      6  C   UNL     1      -1.369  -2.341  -4.413  1.00  0.00     0.042 C 
ATOM      7  O   UNL     1      -2.433  -2.381  -5.086  1.00  0.00    -0.550 OA
ATOM      8  O   UNL     1      -0.813  -1.113  -4.077  1.00  0.00    -0.550 OA
ENDBRANCH   5   6
ENDBRANCH   1   5
TORSDOF 3
ENDMDL
MODEL 8
REMARK VINA RESULT:    -2.833     12.576     13.136
REMARK INTER + INTRA:          -3.370
REMARK INTER:                  -3.344
REMARK INTRA:                  -0.026
REMARK UNBOUND:                -0.041
REMARK SMILES O=C([O-])CCC(=O)[O-]
REMARK SMILES IDX 4 1 2 2 1 3 3 4 5 5 6 6 7 7 8 8
REMARK H PARENT
REMARK Flexibility Score: inf
ROOT
ATOM      1  C   UNL     1      -0.718  -3.599  -4.020  1.00  0.00     0.059 C 
ENDROOT
BRANCH   1   2
ATOM      2  C   UNL     1      -1.397  -2.333  -4.442  1.00  0.00     0.042 C 
ATOM      3  O   UNL     1      -2.435  -2.375  -5.154  1.00  0.00    -0.550 OA
ATOM      4  O   UNL     1      -0.859  -1.103  -4.083  1.00  0.00    -0.550 OA
ENDBRANCH   1   2
BRANCH   1   5
ATOM      5  C   UNL     1      -0.729  -3.763  -2.496  1.00  0.00     0.059 C 
BRANCH   5   6
ATOM      6  C   UNL     1      -0.078  -5.046  -2.076  1.00  0.00     0.042 C 
ATOM      7  O   UNL     1      -0.779  -6.062  -1.826  1.00  0.00    -0.550 OA
ATOM      8  O   UNL     1       1.301  -5.107  -1.922  1.00  0.00    -0.550 OA
ENDBRANCH   5   6
ENDBRANCH   1   5
TORSDOF 3
ENDMDL
MODEL 9
REMARK VINA RESULT:    -2.692      1.553      1.861
REMARK INTER + INTRA:          -3.204
REMARK INTER:                  -3.118
REMARK INTRA:                  -0.086
REMARK UNBOUND:                -0.041
REMARK SMILES O=C([O-])CCC(=O)[O-]
REMARK SMILES IDX 4 1 2 2 1 3 3 4 5 5 6 6 7 7 8 8
REMARK H PARENT
REMARK Flexibility Score: inf
ROOT
ATOM      1  C   UNL     1       0.424   5.877   6.354  1.00  0.00     0.059 C 
ENDROOT
BRANCH   1   2
ATOM      2  C   UNL     1      -0.400   5.876   5.103  1.00  0.00     0.042 C 
ATOM      3  O   UNL     1      -0.020   5.227   4.093  1.00  0.00    -0.550 OA
ATOM      4  O   UNL     1      -1.569   6.624   5.040  1.00  0.00    -0.550 OA
ENDBRANCH   1   2
BRANCH   1   5
ATOM      5  C   UNL     1       0.367   4.522   7.067  1.00  0.00     0.059 C 
BRANCH   5   6
ATOM      6  C   UNL     1       1.526   3.651   6.689  1.00  0.00     0.042 C 
ATOM      7  O   UNL     1       2.612   4.168   6.312  1.00  0.00    -0.550 OA
ATOM      8  O   UNL     1       1.395   2.268   6.714  1.00  0.00    -0.550 OA
ENDBRANCH   5   6
ENDBRANCH   1   5
TORSDOF 3
ENDMDL
