MODEL 1
REMARK VINA RESULT:    -3.889      0.000      0.000
REMARK INTER + INTRA:          -5.644
REMARK INTER:                  -5.254
REMARK INTRA:                  -0.391
REMARK UNBOUND:                -0.391
REMARK SMILES CCCCCCCC(=O)[O-]
REMARK SMILES IDX 5 1 6 2 7 3 8 4 9 5 10 6 4 7 3 8 2 9 1 10
REMARK H PARENT
REMARK Flexibility Score: inf
ROOT
ATOM      1  C   UNL     1      11.717  40.546  -0.475  1.00  0.00     0.000 C 
ENDROOT
BRANCH   1   2
ATOM      2  C   UNL     1      10.964  41.626  -1.268  1.00  0.00     0.006 C 
BRANCH   2   3
ATOM      3  C   UNL     1       9.520  41.817  -0.785  1.00  0.00     0.053 C 
BRANCH   3   4
ATOM      4  C   UNL     1       8.980  43.129  -1.264  1.00  0.00     0.041 C 
ATOM      5  O   UNL     1       8.146  43.763  -0.565  1.00  0.00    -0.550 OA
ATOM      6  O   UNL     1       9.359  43.625  -2.504  1.00  0.00    -0.550 OA
ENDBRANCH   3   4
ENDBRANCH   2   3
ENDBRANCH   1   2
BRANCH   1   7
ATOM      7  C   UNL     1      11.525  40.688   1.045  1.00  0.00     0.000 C 
BRANCH   7   8
ATOM      8  C   UNL     1      11.110  39.367   1.713  1.00  0.00    -0.000 C 
BRANCH   8   9
ATOM      9  C   UNL     1      10.480  38.375   0.725  1.00  0.00    -0.003 C 
ATOM     10  C   UNL     1       9.173  37.809   1.274  1.00  0.00     0.004 C 
ENDBRANCH   8   9
ENDBRANCH   7   8
ENDBRANCH   1   7
TORSDOF 6
ENDMDL
MODEL 2
REMARK VINA RESULT:    -3.789      2.862      4.860
REMARK INTER + INTRA:          -5.509
REMARK INTER:                  -5.200
REMARK INTRA:                  -0.309
REMARK UNBOUND:                -0.391
REMARK SMILES CCCCCCCC(=O)[O-]
REMARK SMILES IDX 5 1 6 2 7 3 8 4 9 5 10 6 4 7 3 8 2 9 1 10
REMARK H PARENT
REMARK Flexibility Score: inf
ROOT
ATOM      1  C   UNL     1      11.630  40.207  -0.522  1.00  0.00     0.000 C 
ENDROOT
BRANCH   1   2
ATOM      2  C   UNL     1      11.226  40.360   0.953  1.00  0.00     0.006 C 
BRANCH   2   3
ATOM      3  C   UNL     1      11.112  39.012   1.678  1.00  0.00     0.053 C 
BRANCH   3   4
ATOM      4  C   UNL     1      10.004  38.196   1.090  1.00  0.00     0.041 C 
ATOM      5  O   UNL     1      10.196  36.986   0.797  1.00  0.00    -0.550 OA
ATOM      6  O   UNL     1       8.776  38.784   0.818  1.00  0.00    -0.550 OA
ENDBRANCH   3   4
ENDBRANCH   2   3
ENDBRANCH   1   2
BRANCH   1   7
ATOM      7  C   UNL     1      11.147  41.382  -1.391  1.00  0.00     0.000 C 
BRANCH   7   8
ATOM      8  C   UNL     1       9.789  41.936  -0.932  1.00  0.00    -0.000 C 
BRANCH   8   9
ATOM      9  C   UNL     1       9.608  43.422  -1.275  1.00  0.00    -0.003 C 
ATOM     10  C   UNL     1       8.163  43.863  -1.061  1.00  0.00     0.004 C 
ENDBRANCH   8   9
ENDBRANCH   7   8
ENDBRANCH   1   7
TORSDOF 6
ENDMDL
MODEL 3
REMARK VINA RESULT:    -3.785      4.868      6.120
REMARK INTER + INTRA:          -5.503
REMARK INTER:                  -5.040
REMARK INTRA:                  -0.463
REMARK UNBOUND:                -0.391
REMARK SMILES CCCCCCCC(=O)[O-]
REMARK SMILES IDX 5 1 6 2 7 3 8 4 9 5 10 6 4 7 3 8 2 9 1 10
REMARK H PARENT
REMARK Flexibility Score: inf
ROOT
ATOM      1  C   UNL     1      11.384  39.586   3.178  1.00  0.00     0.000 C 
ENDROOT
BRANCH   1   2
ATOM      2  C   UNL     1      12.651  39.155   3.934  1.00  0.00     0.006 C 
BRANCH   2   3
ATOM      3  C   UNL     1      13.424  38.045   3.209  1.00  0.00     0.053 C 
BRANCH   3   4
ATOM      4  C   UNL     1      14.887  38.361   3.184  1.00  0.00     0.041 C 
ATOM      5  O   UNL     1      15.277  39.536   2.957  1.00  0.00    -0.550 OA
ATOM      6  O   UNL     1      15.819  37.347   3.361  1.00  0.00    -0.550 OA
ENDBRANCH   3   4
ENDBRANCH   2   3
ENDBRANCH   1   2
BRANCH   1   7
ATOM      7  C   UNL     1      11.673  39.984   1.720  1.00  0.00     0.000 C 
BRANCH   7   8
ATOM      8  C   UNL     1      10.617  39.447   0.741  1.00  0.00    -0.000 C 
BRANCH   8   9
ATOM      9  C   UNL     1       9.703  38.390   1.376  1.00  0.00    -0.003 C 
ATOM     10  C   UNL     1       9.946  37.013   0.763  1.00  0.00     0.004 C 
ENDBRANCH   8   9
ENDBRANCH   7   8
ENDBRANCH   1   7
TORSDOF 6
ENDMDL
MODEL 4
REMARK VINA RESULT:    -3.718      4.440      5.483
REMARK INTER + INTRA:          -5.413
REMARK INTER:                  -5.145
REMARK INTRA:                  -0.267
REMARK UNBOUND:                -0.391
REMARK SMILES CCCCCCCC(=O)[O-]
REMARK SMILES IDX 5 1 6 2 7 3 8 4 9 5 10 6 4 7 3 8 2 9 1 10
REMARK H PARENT
REMARK Flexibility Score: inf
ROOT
ATOM      1  C   UNL     1      11.934  40.717   1.131  1.00  0.00     0.000 C 
ENDROOT
BRANCH   1   2
ATOM      2  C   UNL     1      12.272  40.345   2.584  1.00  0.00     0.006 C 
BRANCH   2   3
ATOM      3  C   UNL     1      13.782  40.357   2.862  1.00  0.00     0.053 C 
BRANCH   3   4
ATOM      4  C   UNL     1      14.281  38.963   3.085  1.00  0.00     0.041 C 
ATOM      5  O   UNL     1      15.517  38.723   3.065  1.00  0.00    -0.550 OA
ATOM      6  O   UNL     1      13.379  37.923   3.264  1.00  0.00    -0.550 OA
ENDBRANCH   3   4
ENDBRANCH   2   3
ENDBRANCH   1   2
BRANCH   1   7
ATOM      7  C   UNL     1      10.773  39.882   0.564  1.00  0.00     0.000 C 
BRANCH   7   8
ATOM      8  C   UNL     1      10.764  38.442   1.102  1.00  0.00    -0.000 C 
BRANCH   8   9
ATOM      9  C   UNL     1       9.358  37.825   1.121  1.00  0.00    -0.003 C 
ATOM     10  C   UNL     1       9.397  36.355   0.712  1.00  0.00     0.004 C 
ENDBRANCH   8   9
ENDBRANCH   7   8
ENDBRANCH   1   7
TORSDOF 6
ENDMDL
MODEL 5
REMARK VINA RESULT:    -3.692      3.995      5.606
REMARK INTER + INTRA:          -5.378
REMARK INTER:                  -5.080
REMARK INTRA:                  -0.298
REMARK UNBOUND:                -0.391
REMARK SMILES CCCCCCCC(=O)[O-]
REMARK SMILES IDX 5 1 6 2 7 3 8 4 9 5 10 6 4 7 3 8 2 9 1 10
REMARK H PARENT
REMARK Flexibility Score: inf
ROOT
ATOM      1  C   UNL     1      10.550  39.720   0.670  1.00  0.00     0.000 C 
ENDROOT
BRANCH   1   2
ATOM      2  C   UNL     1      10.949  38.876   1.891  1.00  0.00     0.006 C 
BRANCH   2   3
ATOM      3  C   UNL     1      11.631  39.705   2.986  1.00  0.00     0.053 C 
BRANCH   3   4
ATOM      4  C   UNL     1      12.877  39.022   3.458  1.00  0.00     0.041 C 
ATOM      5  O   UNL     1      13.159  37.866   3.046  1.00  0.00    -0.550 OA
ATOM      6  O   UNL     1      13.700  39.642   4.389  1.00  0.00    -0.550 OA
ENDBRANCH   3   4
ENDBRANCH   2   3
ENDBRANCH   1   2
BRANCH   1   7
ATOM      7  C   UNL     1      11.596  40.796   0.329  1.00  0.00     0.000 C 
BRANCH   7   8
ATOM      8  C   UNL     1      11.013  41.938  -0.519  1.00  0.00    -0.000 C 
BRANCH   8   9
ATOM      9  C   UNL     1       9.502  41.791  -0.753  1.00  0.00    -0.003 C 
ATOM     10  C   UNL     1       8.851  43.148  -1.005  1.00  0.00     0.004 C 
ENDBRANCH   8   9
ENDBRANCH   7   8
ENDBRANCH   1   7
TORSDOF 6
ENDMDL
MODEL 6
REMARK VINA RESULT:    -3.658      2.122      2.668
REMARK INTER + INTRA:          -5.332
REMARK INTER:                  -5.092
REMARK INTRA:                  -0.241
REMARK UNBOUND:                -0.391
REMARK SMILES CCCCCCCC(=O)[O-]
REMARK SMILES IDX 5 1 6 2 7 3 8 4 9 5 10 6 4 7 3 8 2 9 1 10
REMARK H PARENT
REMARK Flexibility Score: inf
ROOT
ATOM      1  C   UNL     1      11.625  40.251   1.221  1.00  0.00     0.000 C 
ENDROOT
BRANCH   1   2
ATOM      2  C   UNL     1      10.692  40.770   0.116  1.00  0.00     0.006 C 
BRANCH   2   3
ATOM      3  C   UNL     1      11.381  41.775  -0.817  1.00  0.00     0.053 C 
BRANCH   3   4
ATOM      4  C   UNL     1      11.593  41.169  -2.170  1.00  0.00     0.041 C 
ATOM      5  O   UNL     1      11.908  39.955  -2.277  1.00  0.00    -0.550 OA
ATOM      6  O   UNL     1      11.490  41.958  -3.308  1.00  0.00    -0.550 OA
ENDBRANCH   3   4
ENDBRANCH   2   3
ENDBRANCH   1   2
BRANCH   1   7
ATOM      7  C   UNL     1      10.971  39.154   2.079  1.00  0.00     0.000 C 
BRANCH   7   8
ATOM      8  C   UNL     1       9.779  38.486   1.374  1.00  0.00    -0.000 C 
BRANCH   8   9
ATOM      9  C   UNL     1      10.154  37.154   0.708  1.00  0.00    -0.003 C 
ATOM     10  C   UNL     1       8.983  36.176   0.738  1.00  0.00     0.004 C 
ENDBRANCH   8   9
ENDBRANCH   7   8
ENDBRANCH   1   7
TORSDOF 6
ENDMDL
MODEL 7
REMARK VINA RESULT:    -3.591      7.878      8.640
REMARK INTER + INTRA:          -5.242
REMARK INTER:                  -4.882
REMARK INTRA:                  -0.360
REMARK UNBOUND:                -0.391
REMARK SMILES CCCCCCCC(=O)[O-]
REMARK SMILES IDX 5 1 6 2 7 3 8 4 9 5 10 6 4 7 3 8 2 9 1 10
REMARK H PARENT
REMARK Flexibility Score: inf
ROOT
ATOM      1  C   UNL     1       4.893  36.845  -4.654  1.00  0.00     0.000 C 
ENDROOT
BRANCH   1   2
ATOM      2  C   UNL     1       5.340  38.269  -5.022  1.00  0.00     0.006 C 
BRANCH   2   3
ATOM      3  C   UNL     1       4.304  39.012  -5.876  1.00  0.00     0.053 C 
BRANCH   3   4
ATOM      4  C   UNL     1       4.980  39.752  -6.988  1.00  0.00     0.041 C 
ATOM      5  O   UNL     1       6.148  39.438  -7.339  1.00  0.00    -0.550 OA
ATOM      6  O   UNL     1       4.340  40.821  -7.601  1.00  0.00    -0.550 OA
ENDBRANCH   3   4
ENDBRANCH   2   3
ENDBRANCH   1   2
BRANCH   1   7
ATOM      7  C   UNL     1       4.930  35.885  -5.856  1.00  0.00     0.000 C 
BRANCH   7   8
ATOM      8  C   UNL     1       6.284  35.904  -6.584  1.00  0.00    -0.000 C 
BRANCH   8   9
ATOM      9  C   UNL     1       6.961  34.525  -6.613  1.00  0.00    -0.003 C 
ATOM     10  C   UNL     1       6.870  33.841  -5.252  1.00  0.00     0.004 C 
ENDBRANCH   8   9
ENDBRANCH   7   8
ENDBRANCH   1   7
TORSDOF 6
ENDMDL
MODEL 8
REMARK VINA RESULT:    -3.533      1.087      2.056
REMARK INTER + INTRA:          -5.163
REMARK INTER:                  -4.892
REMARK INTRA:                  -0.271
REMARK UNBOUND:                -0.391
REMARK SMILES CCCCCCCC(=O)[O-]
REMARK SMILES IDX 5 1 6 2 7 3 8 4 9 5 10 6 4 7 3 8 2 9 1 10
REMARK H PARENT
REMARK Flexibility Score: inf
ROOT
ATOM      1  C   UNL     1      11.688  40.757   0.462  1.00  0.00     0.000 C 
ENDROOT
BRANCH   1   2
ATOM      2  C   UNL     1      11.238  41.743  -0.628  1.00  0.00     0.006 C 
BRANCH   2   3
ATOM      3  C   UNL     1       9.713  41.776  -0.802  1.00  0.00     0.053 C 
BRANCH   3   4
ATOM      4  C   UNL     1       9.285  43.083  -1.393  1.00  0.00     0.041 C 
ATOM      5  O   UNL     1       9.891  43.557  -2.390  1.00  0.00    -0.550 OA
ATOM      6  O   UNL     1       8.249  43.802  -0.811  1.00  0.00    -0.550 OA
ENDBRANCH   3   4
ENDBRANCH   2   3
ENDBRANCH   1   2
BRANCH   1   7
ATOM      7  C   UNL     1      10.755  39.539   0.579  1.00  0.00     0.000 C 
BRANCH   7   8
ATOM      8  C   UNL     1      10.894  38.817   1.928  1.00  0.00    -0.000 C 
BRANCH   8   9
ATOM      9  C   UNL     1      11.627  39.661   2.981  1.00  0.00    -0.003 C 
ATOM     10  C   UNL     1      12.773  38.876   3.613  1.00  0.00     0.004 C 
ENDBRANCH   8   9
ENDBRANCH   7   8
ENDBRANCH   1   7
TORSDOF 6
ENDMDL
MODEL 9
REMARK VINA RESULT:    -3.505      8.552      9.771
REMARK INTER + INTRA:          -5.125
REMARK INTER:                  -4.675
REMARK INTRA:                  -0.450
REMARK UNBOUND:                -0.391
REMARK SMILES CCCCCCCC(=O)[O-]
REMARK SMILES IDX 5 1 6 2 7 3 8 4 9 5 10 6 4 7 3 8 2 9 1 10
REMARK H PARENT
REMARK Flexibility Score: inf
ROOT
ATOM      1  C   UNL     1       4.931  36.778  -4.645  1.00  0.00     0.000 C 
ENDROOT
BRANCH   1   2
ATOM      2  C   UNL     1       4.938  35.908  -5.913  1.00  0.00     0.006 C 
BRANCH   2   3
ATOM      3  C   UNL     1       6.340  35.756  -6.518  1.00  0.00     0.053 C 
BRANCH   3   4
ATOM      4  C   UNL     1       6.895  34.400  -6.212  1.00  0.00     0.041 C 
ATOM      5  O   UNL     1       7.041  34.030  -5.017  1.00  0.00    -0.550 OA
ATOM      6  O   UNL     1       7.297  33.565  -7.246  1.00  0.00    -0.550 OA
ENDBRANCH   3   4
ENDBRANCH   2   3
ENDBRANCH   1   2
BRANCH   1   7
ATOM      7  C   UNL     1       5.302  38.243  -4.933  1.00  0.00     0.000 C 
BRANCH   7   8
ATOM      8  C   UNL     1       4.270  38.950  -5.826  1.00  0.00    -0.000 C 
BRANCH   8   9
ATOM      9  C   UNL     1       4.908  39.627  -7.048  1.00  0.00    -0.003 C 
ATOM     10  C   UNL     1       6.394  39.295  -7.146  1.00  0.00     0.004 C 
ENDBRANCH   8   9
ENDBRANCH   7   8
ENDBRANCH   1   7
TORSDOF 6
ENDMDL
