MODEL 1
REMARK VINA RESULT:    -3.806      0.000      0.000
REMARK INTER + INTRA:          -5.063
REMARK INTER:                  -4.696
REMARK INTRA:                  -0.367
REMARK UNBOUND:                -0.367
REMARK SMILES C=CC[C@H](C)C(=O)CC
REMARK SMILES IDX 4 1 5 2 6 3 7 4 8 5 9 6 3 7 2 8 1 9
REMARK H PARENT
REMARK Flexibility Score: inf
ROOT
ATOM      1  C   UNL     1     -58.067 -74.097 214.873  1.00  0.00     0.057 C 
ATOM      2  C   UNL     1     -57.446 -72.817 214.297  1.00  0.00     0.016 C 
ENDROOT
BRANCH   1   3
ATOM      3  C   UNL     1     -58.220 -73.965 216.374  1.00  0.00     0.135 C 
ATOM      4  O   UNL     1     -58.415 -72.863 216.869  1.00  0.00    -0.299 OA
BRANCH   3   5
ATOM      5  C   UNL     1     -58.139 -75.169 217.275  1.00  0.00     0.072 C 
ATOM      6  C   UNL     1     -59.506 -75.830 217.415  1.00  0.00     0.012 C 
ENDBRANCH   3   5
ENDBRANCH   1   3
BRANCH   1   7
ATOM      7  C   UNL     1     -57.222 -75.343 214.539  1.00  0.00     0.038 C 
BRANCH   7   8
ATOM      8  C   UNL     1     -58.041 -76.441 213.914  1.00  0.00    -0.034 C 
ATOM      9  C   UNL     1     -58.036 -77.686 214.399  1.00  0.00     0.004 C 
ENDBRANCH   7   8
ENDBRANCH   1   7
TORSDOF 4
ENDMDL
MODEL 2
REMARK VINA RESULT:    -3.804      1.414      3.155
REMARK INTER + INTRA:          -5.060
REMARK INTER:                  -4.828
REMARK INTRA:                  -0.232
REMARK UNBOUND:                -0.367
REMARK SMILES C=CC[C@H](C)C(=O)CC
REMARK SMILES IDX 4 1 5 2 6 3 7 4 8 5 9 6 3 7 2 8 1 9
REMARK H PARENT
REMARK Flexibility Score: inf
ROOT
ATOM      1  C   UNL     1     -58.897 -75.015 217.024  1.00  0.00     0.057 C 
ATOM      2  C   UNL     1     -60.402 -75.100 216.736  1.00  0.00     0.016 C 
ENDROOT
BRANCH   1   3
ATOM      3  C   UNL     1     -58.293 -73.848 216.270  1.00  0.00     0.135 C 
ATOM      4  O   UNL     1     -58.285 -72.736 216.780  1.00  0.00    -0.299 OA
BRANCH   3   5
ATOM      5  C   UNL     1     -57.696 -74.030 214.900  1.00  0.00     0.072 C 
ATOM      6  C   UNL     1     -57.472 -72.681 214.225  1.00  0.00     0.012 C 
ENDBRANCH   3   5
ENDBRANCH   1   3
BRANCH   1   7
ATOM      7  C   UNL     1     -58.168 -76.320 216.644  1.00  0.00     0.038 C 
BRANCH   7   8
ATOM      8  C   UNL     1     -56.961 -76.576 217.508  1.00  0.00    -0.034 C 
ATOM      9  C   UNL     1     -55.984 -77.403 217.127  1.00  0.00     0.004 C 
ENDBRANCH   7   8
ENDBRANCH   1   7
TORSDOF 4
ENDMDL
MODEL 3
REMARK VINA RESULT:    -3.658      6.830      8.832
REMARK INTER + INTRA:          -4.880
REMARK INTER:                  -4.605
REMARK INTRA:                  -0.275
REMARK UNBOUND:                -0.367
REMARK SMILES C=CC[C@H](C)C(=O)CC
REMARK SMILES IDX 4 1 5 2 6 3 7 4 8 5 9 6 3 7 2 8 1 9
REMARK H PARENT
REMARK Flexibility Score: inf
ROOT
ATOM      1  C   UNL     1     -63.261 -76.255 221.896  1.00  0.00     0.057 C 
ATOM      2  C   UNL     1     -63.537 -74.773 222.186  1.00  0.00     0.016 C 
ENDROOT
BRANCH   1   3
ATOM      3  C   UNL     1     -63.944 -77.119 222.936  1.00  0.00     0.135 C 
ATOM      4  O   UNL     1     -65.137 -76.967 223.162  1.00  0.00    -0.299 OA
BRANCH   3   5
ATOM      5  C   UNL     1     -63.182 -78.172 223.698  1.00  0.00     0.072 C 
ATOM      6  C   UNL     1     -63.803 -78.397 225.073  1.00  0.00     0.012 C 
ENDBRANCH   3   5
ENDBRANCH   1   3
BRANCH   1   7
ATOM      7  C   UNL     1     -61.749 -76.560 221.872  1.00  0.00     0.038 C 
BRANCH   7   8
ATOM      8  C   UNL     1     -61.269 -76.971 220.505  1.00  0.00    -0.034 C 
ATOM      9  C   UNL     1     -61.928 -76.628 219.395  1.00  0.00     0.004 C 
ENDBRANCH   7   8
ENDBRANCH   1   7
TORSDOF 4
ENDMDL
MODEL 4
REMARK VINA RESULT:    -3.632     11.683     12.933
REMARK INTER + INTRA:          -4.848
REMARK INTER:                  -4.502
REMARK INTRA:                  -0.346
REMARK UNBOUND:                -0.367
REMARK SMILES C=CC[C@H](C)C(=O)CC
REMARK SMILES IDX 4 1 5 2 6 3 7 4 8 5 9 6 3 7 2 8 1 9
REMARK H PARENT
REMARK Flexibility Score: inf
ROOT
ATOM      1  C   UNL     1     -70.653 -74.380 216.580  1.00  0.00     0.057 C 
ATOM      2  C   UNL     1     -70.858 -74.887 218.014  1.00  0.00     0.016 C 
ENDROOT
BRANCH   1   3
ATOM      3  C   UNL     1     -71.994 -74.206 215.898  1.00  0.00     0.135 C 
ATOM      4  O   UNL     1     -73.004 -74.652 216.425  1.00  0.00    -0.299 OA
BRANCH   3   5
ATOM      5  C   UNL     1     -72.112 -73.487 214.580  1.00  0.00     0.072 C 
ATOM      6  C   UNL     1     -71.410 -72.135 214.638  1.00  0.00     0.012 C 
ENDBRANCH   3   5
ENDBRANCH   1   3
BRANCH   1   7
ATOM      7  C   UNL     1     -69.766 -75.337 215.757  1.00  0.00     0.038 C 
BRANCH   7   8
ATOM      8  C   UNL     1     -68.462 -74.704 215.350  1.00  0.00    -0.034 C 
ATOM      9  C   UNL     1     -67.377 -74.767 216.126  1.00  0.00     0.004 C 
ENDBRANCH   7   8
ENDBRANCH   1   7
TORSDOF 4
ENDMDL
MODEL 5
REMARK VINA RESULT:    -3.587      7.191      9.141
REMARK INTER + INTRA:          -4.792
REMARK INTER:                  -4.545
REMARK INTRA:                  -0.247
REMARK UNBOUND:                -0.367
REMARK SMILES C=CC[C@H](C)C(=O)CC
REMARK SMILES IDX 4 1 5 2 6 3 7 4 8 5 9 6 3 7 2 8 1 9
REMARK H PARENT
REMARK Flexibility Score: inf
ROOT
ATOM      1  C   UNL     1     -61.740 -77.082 222.135  1.00  0.00     0.057 C 
ATOM      2  C   UNL     1     -60.882 -77.479 220.925  1.00  0.00     0.016 C 
ENDROOT
BRANCH   1   3
ATOM      3  C   UNL     1     -61.596 -78.117 223.231  1.00  0.00     0.135 C 
ATOM      4  O   UNL     1     -60.510 -78.647 223.426  1.00  0.00    -0.299 OA
BRANCH   3   5
ATOM      5  C   UNL     1     -62.767 -78.507 224.094  1.00  0.00     0.072 C 
ATOM      6  C   UNL     1     -62.291 -79.041 225.441  1.00  0.00     0.012 C 
ENDBRANCH   3   5
ENDBRANCH   1   3
BRANCH   1   7
ATOM      7  C   UNL     1     -63.226 -76.924 221.754  1.00  0.00     0.038 C 
BRANCH   7   8
ATOM      8  C   UNL     1     -63.584 -75.500 221.416  1.00  0.00    -0.034 C 
ATOM      9  C   UNL     1     -63.516 -74.523 222.323  1.00  0.00     0.004 C 
ENDBRANCH   7   8
ENDBRANCH   1   7
TORSDOF 4
ENDMDL
MODEL 6
REMARK VINA RESULT:    -3.565     13.656     14.752
REMARK INTER + INTRA:          -4.765
REMARK INTER:                  -4.333
REMARK INTRA:                  -0.432
REMARK UNBOUND:                -0.367
REMARK SMILES C=CC[C@H](C)C(=O)CC
REMARK SMILES IDX 4 1 5 2 6 3 7 4 8 5 9 6 3 7 2 8 1 9
REMARK H PARENT
REMARK Flexibility Score: inf
ROOT
ATOM      1  C   UNL     1     -72.072 -73.325 214.566  1.00  0.00     0.057 C 
ATOM      2  C   UNL     1     -71.258 -72.024 214.581  1.00  0.00     0.016 C 
ENDROOT
BRANCH   1   3
ATOM      3  C   UNL     1     -73.478 -73.059 215.063  1.00  0.00     0.135 C 
ATOM      4  O   UNL     1     -73.774 -71.946 215.477  1.00  0.00    -0.299 OA
BRANCH   3   5
ATOM      5  C   UNL     1     -74.526 -74.140 215.054  1.00  0.00     0.072 C 
ATOM      6  C   UNL     1     -75.010 -74.435 216.470  1.00  0.00     0.012 C 
ENDBRANCH   3   5
ENDBRANCH   1   3
BRANCH   1   7
ATOM      7  C   UNL     1     -71.411 -74.423 215.425  1.00  0.00     0.038 C 
BRANCH   7   8
ATOM      8  C   UNL     1     -71.098 -73.949 216.819  1.00  0.00    -0.034 C 
ATOM      9  C   UNL     1     -71.079 -74.786 217.860  1.00  0.00     0.004 C 
ENDBRANCH   7   8
ENDBRANCH   1   7
TORSDOF 4
ENDMDL
MODEL 7
REMARK VINA RESULT:    -3.559      8.477     10.297
REMARK INTER + INTRA:          -4.759
REMARK INTER:                  -4.534
REMARK INTRA:                  -0.225
REMARK UNBOUND:                -0.367
REMARK SMILES C=CC[C@H](C)C(=O)CC
REMARK SMILES IDX 4 1 5 2 6 3 7 4 8 5 9 6 3 7 2 8 1 9
REMARK H PARENT
REMARK Flexibility Score: inf
ROOT
ATOM      1  C   UNL     1     -62.567 -78.243 223.241  1.00  0.00     0.057 C 
ATOM      2  C   UNL     1     -61.244 -78.577 223.945  1.00  0.00     0.016 C 
ENDROOT
BRANCH   1   3
ATOM      3  C   UNL     1     -62.394 -77.012 222.376  1.00  0.00     0.135 C 
ATOM      4  O   UNL     1     -61.269 -76.608 222.114  1.00  0.00    -0.299 OA
BRANCH   3   5
ATOM      5  C   UNL     1     -63.585 -76.273 221.824  1.00  0.00     0.072 C 
ATOM      6  C   UNL     1     -63.540 -74.802 222.224  1.00  0.00     0.012 C 
ENDBRANCH   3   5
ENDBRANCH   1   3
BRANCH   1   7
ATOM      7  C   UNL     1     -63.710 -78.017 224.253  1.00  0.00     0.038 C 
BRANCH   7   8
ATOM      8  C   UNL     1     -63.382 -78.560 225.619  1.00  0.00    -0.034 C 
ATOM      9  C   UNL     1     -64.332 -78.805 226.525  1.00  0.00     0.004 C 
ENDBRANCH   7   8
ENDBRANCH   1   7
TORSDOF 4
ENDMDL
MODEL 8
REMARK VINA RESULT:    -3.548     11.096     12.442
REMARK INTER + INTRA:          -4.745
REMARK INTER:                  -4.433
REMARK INTRA:                  -0.312
REMARK UNBOUND:                -0.367
REMARK SMILES C=CC[C@H](C)C(=O)CC
REMARK SMILES IDX 4 1 5 2 6 3 7 4 8 5 9 6 3 7 2 8 1 9
REMARK H PARENT
REMARK Flexibility Score: inf
ROOT
ATOM      1  C   UNL     1     -70.756 -75.228 216.062  1.00  0.00     0.057 C 
ATOM      2  C   UNL     1     -70.777 -74.444 217.382  1.00  0.00     0.016 C 
ENDROOT
BRANCH   1   3
ATOM      3  C   UNL     1     -69.331 -75.368 215.569  1.00  0.00     0.135 C 
ATOM      4  O   UNL     1     -69.116 -75.876 214.476  1.00  0.00    -0.299 OA
BRANCH   3   5
ATOM      5  C   UNL     1     -68.168 -74.889 216.397  1.00  0.00     0.072 C 
ATOM      6  C   UNL     1     -67.031 -74.406 215.503  1.00  0.00     0.012 C 
ENDBRANCH   3   5
ENDBRANCH   1   3
BRANCH   1   7
ATOM      7  C   UNL     1     -71.621 -74.548 214.981  1.00  0.00     0.038 C 
BRANCH   7   8
ATOM      8  C   UNL     1     -71.867 -73.091 215.275  1.00  0.00    -0.034 C 
ATOM      9  C   UNL     1     -71.350 -72.123 214.514  1.00  0.00     0.004 C 
ENDBRANCH   7   8
ENDBRANCH   1   7
TORSDOF 4
ENDMDL
MODEL 9
REMARK VINA RESULT:    -3.509      6.359      8.849
REMARK INTER + INTRA:          -4.696
REMARK INTER:                  -4.408
REMARK INTRA:                  -0.288
REMARK UNBOUND:                -0.367
REMARK SMILES C=CC[C@H](C)C(=O)CC
REMARK SMILES IDX 4 1 5 2 6 3 7 4 8 5 9 6 3 7 2 8 1 9
REMARK H PARENT
REMARK Flexibility Score: inf
ROOT
ATOM      1  C   UNL     1     -63.159 -76.134 222.492  1.00  0.00     0.057 C 
ATOM      2  C   UNL     1     -63.565 -74.692 222.155  1.00  0.00     0.016 C 
ENDROOT
BRANCH   1   3
ATOM      3  C   UNL     1     -62.066 -76.594 221.550  1.00  0.00     0.135 C 
ATOM      4  O   UNL     1     -61.016 -77.028 222.006  1.00  0.00    -0.299 OA
BRANCH   3   5
ATOM      5  C   UNL     1     -62.246 -76.533 220.056  1.00  0.00     0.072 C 
ATOM      6  C   UNL     1     -60.962 -76.939 219.341  1.00  0.00     0.012 C 
ENDBRANCH   3   5
ENDBRANCH   1   3
BRANCH   1   7
ATOM      7  C   UNL     1     -64.360 -77.099 222.414  1.00  0.00     0.038 C 
BRANCH   7   8
ATOM      8  C   UNL     1     -64.162 -78.331 223.256  1.00  0.00    -0.034 C 
ATOM      9  C   UNL     1     -63.833 -78.256 224.548  1.00  0.00     0.004 C 
ENDBRANCH   7   8
ENDBRANCH   1   7
TORSDOF 4
ENDMDL
