MODEL 1
REMARK VINA RESULT:    -5.526      0.000      0.000
REMARK INTER + INTRA:         -11.213
REMARK INTER:                 -10.372
REMARK INTRA:                  -0.842
REMARK UNBOUND:                -0.842
REMARK SMILES O=C([O-])CCCCCCCCCCCCCCC(=O)[O-]
REMARK SMILES IDX 10 1 9 2 8 3 7 4 6 5 5 6 4 7 2 8 1 9 3 10 11 11 12 12 13 13
REMARK SMILES IDX 14 14 15 15 16 16 17 17 18 18 19 19 20 20
REMARK H PARENT
REMARK Flexibility Score: inf
ROOT
ATOM      1  C   UNL     1      82.931  59.655  10.312  1.00  0.00     0.000 C 
ENDROOT
BRANCH   1   2
ATOM      2  C   UNL     1      81.710  58.825  10.739  1.00  0.00     0.000 C 
BRANCH   2   3
ATOM      3  C   UNL     1      80.404  59.538  10.366  1.00  0.00     0.000 C 
BRANCH   3   4
ATOM      4  C   UNL     1      79.248  58.537  10.240  1.00  0.00     0.000 C 
BRANCH   4   5
ATOM      5  C   UNL     1      79.748  57.095  10.392  1.00  0.00     0.000 C 
BRANCH   5   6
ATOM      6  C   UNL     1      78.659  56.091   9.982  1.00  0.00     0.006 C 
BRANCH   6   7
ATOM      7  C   UNL     1      77.634  56.705   9.019  1.00  0.00     0.053 C 
BRANCH   7   8
ATOM      8  C   UNL     1      77.785  56.166   7.629  1.00  0.00     0.041 C 
ATOM      9  O   UNL     1      77.847  54.923   7.434  1.00  0.00    -0.550 OA
ATOM     10  O   UNL     1      77.888  57.037   6.551  1.00  0.00    -0.550 OA
ENDBRANCH   7   8
ENDBRANCH   6   7
ENDBRANCH   5   6
ENDBRANCH   4   5
ENDBRANCH   3   4
ENDBRANCH   2   3
ENDBRANCH   1   2
BRANCH   1  11
ATOM     11  C   UNL     1      84.262  58.991  10.698  1.00  0.00     0.000 C 
BRANCH  11  12
ATOM     12  C   UNL     1      85.247  59.972  11.357  1.00  0.00     0.000 C 
BRANCH  12  13
ATOM     13  C   UNL     1      84.629  60.693  12.575  1.00  0.00     0.000 C 
BRANCH  13  14
ATOM     14  C   UNL     1      85.331  60.372  13.908  1.00  0.00     0.000 C 
BRANCH  14  15
ATOM     15  C   UNL     1      84.516  60.711  15.170  1.00  0.00     0.000 C 
BRANCH  15  16
ATOM     16  C   UNL     1      85.134  61.799  16.070  1.00  0.00     0.006 C 
BRANCH  16  17
ATOM     17  C   UNL     1      86.088  62.731  15.311  1.00  0.00     0.053 C 
BRANCH  17  18
ATOM     18  C   UNL     1      85.562  64.132  15.315  1.00  0.00     0.041 C 
ATOM     19  O   UNL     1      86.290  65.084  14.925  1.00  0.00    -0.550 OA
ATOM     20  O   UNL     1      84.283  64.393  15.793  1.00  0.00    -0.550 OA
ENDBRANCH  17  18
ENDBRANCH  16  17
ENDBRANCH  15  16
ENDBRANCH  14  15
ENDBRANCH  13  14
ENDBRANCH  12  13
ENDBRANCH  11  12
ENDBRANCH   1  11
TORSDOF 15
ENDMDL
MODEL 2
REMARK VINA RESULT:    -5.287      3.856      4.913
REMARK INTER + INTRA:         -10.765
REMARK INTER:                  -9.893
REMARK INTRA:                  -0.872
REMARK UNBOUND:                -0.842
REMARK SMILES O=C([O-])CCCCCCCCCCCCCCC(=O)[O-]
REMARK SMILES IDX 10 1 9 2 8 3 7 4 6 5 5 6 4 7 2 8 1 9 3 10 11 11 12 12 13 13
REMARK SMILES IDX 14 14 15 15 16 16 17 17 18 18 19 19 20 20
REMARK H PARENT
REMARK Flexibility Score: inf
ROOT
ATOM      1  C   UNL     1      79.361  58.632  10.002  1.00  0.00     0.000 C 
ENDROOT
BRANCH   1   2
ATOM      2  C   UNL     1      79.537  57.301  10.749  1.00  0.00     0.000 C 
BRANCH   2   3
ATOM      3  C   UNL     1      78.490  56.275  10.298  1.00  0.00     0.000 C 
BRANCH   3   4
ATOM      4  C   UNL     1      77.718  56.779   9.071  1.00  0.00     0.000 C 
BRANCH   4   5
ATOM      5  C   UNL     1      78.087  55.974   7.819  1.00  0.00     0.000 C 
BRANCH   5   6
ATOM      6  C   UNL     1      78.097  54.466   8.120  1.00  0.00     0.006 C 
BRANCH   6   7
ATOM      7  C   UNL     1      79.393  53.790   7.654  1.00  0.00     0.053 C 
BRANCH   7   8
ATOM      8  C   UNL     1      79.669  52.531   8.419  1.00  0.00     0.041 C 
ATOM      9  O   UNL     1      80.543  52.519   9.326  1.00  0.00    -0.550 OA
ATOM     10  O   UNL     1      78.983  51.362   8.109  1.00  0.00    -0.550 OA
ENDBRANCH   7   8
ENDBRANCH   6   7
ENDBRANCH   5   6
ENDBRANCH   4   5
ENDBRANCH   3   4
ENDBRANCH   2   3
ENDBRANCH   1   2
BRANCH   1  11
ATOM     11  C   UNL     1      80.346  59.713  10.477  1.00  0.00     0.000 C 
BRANCH  11  12
ATOM     12  C   UNL     1      81.761  59.161  10.722  1.00  0.00     0.000 C 
BRANCH  12  13
ATOM     13  C   UNL     1      82.845  60.255  10.608  1.00  0.00     0.000 C 
BRANCH  13  14
ATOM     14  C   UNL     1      82.346  61.556   9.949  1.00  0.00     0.000 C 
BRANCH  14  15
ATOM     15  C   UNL     1      83.400  62.673   9.836  1.00  0.00     0.000 C 
BRANCH  15  16
ATOM     16  C   UNL     1      84.844  62.238  10.153  1.00  0.00     0.006 C 
BRANCH  16  17
ATOM     17  C   UNL     1      85.714  62.093   8.897  1.00  0.00     0.053 C 
BRANCH  17  18
ATOM     18  C   UNL     1      85.964  63.432   8.279  1.00  0.00     0.041 C 
ATOM     19  O   UNL     1      85.335  63.781   7.244  1.00  0.00    -0.550 OA
ATOM     20  O   UNL     1      86.925  64.279   8.819  1.00  0.00    -0.550 OA
ENDBRANCH  17  18
ENDBRANCH  16  17
ENDBRANCH  15  16
ENDBRANCH  14  15
ENDBRANCH  13  14
ENDBRANCH  12  13
ENDBRANCH  11  12
ENDBRANCH   1  11
TORSDOF 15
ENDMDL
MODEL 3
REMARK VINA RESULT:    -5.270      2.027      3.222
REMARK INTER + INTRA:         -10.733
REMARK INTER:                 -10.034
REMARK INTRA:                  -0.700
REMARK UNBOUND:                -0.842
REMARK SMILES O=C([O-])CCCCCCCCCCCCCCC(=O)[O-]
REMARK SMILES IDX 10 1 9 2 8 3 7 4 6 5 5 6 4 7 2 8 1 9 3 10 11 11 12 12 13 13
REMARK SMILES IDX 14 14 15 15 16 16 17 17 18 18 19 19 20 20
REMARK H PARENT
REMARK Flexibility Score: inf
ROOT
ATOM      1  C   UNL     1      80.024  59.230  10.345  1.00  0.00     0.000 C 
ENDROOT
BRANCH   1   2
ATOM      2  C   UNL     1      80.058  57.726  10.662  1.00  0.00     0.000 C 
BRANCH   2   3
ATOM      3  C   UNL     1      78.664  57.102  10.518  1.00  0.00     0.000 C 
BRANCH   3   4
ATOM      4  C   UNL     1      78.729  55.781   9.742  1.00  0.00     0.000 C 
BRANCH   4   5
ATOM      5  C   UNL     1      77.794  55.809   8.527  1.00  0.00     0.000 C 
BRANCH   5   6
ATOM      6  C   UNL     1      78.173  54.714   7.518  1.00  0.00     0.006 C 
BRANCH   6   7
ATOM      7  C   UNL     1      79.386  53.895   7.977  1.00  0.00     0.053 C 
BRANCH   7   8
ATOM      8  C   UNL     1      79.180  52.426   7.761  1.00  0.00     0.041 C 
ATOM      9  O   UNL     1      79.512  51.602   8.654  1.00  0.00    -0.550 OA
ATOM     10  O   UNL     1      78.649  51.965   6.562  1.00  0.00    -0.550 OA
ENDBRANCH   7   8
ENDBRANCH   6   7
ENDBRANCH   5   6
ENDBRANCH   4   5
ENDBRANCH   3   4
ENDBRANCH   2   3
ENDBRANCH   1   2
BRANCH   1  11
ATOM     11  C   UNL     1      81.240  59.982  10.908  1.00  0.00     0.000 C 
BRANCH  11  12
ATOM     12  C   UNL     1      82.561  59.223  10.692  1.00  0.00     0.000 C 
BRANCH  12  13
ATOM     13  C   UNL     1      83.797  60.105  10.977  1.00  0.00     0.000 C 
BRANCH  13  14
ATOM     14  C   UNL     1      85.073  59.301  11.291  1.00  0.00     0.000 C 
BRANCH  14  15
ATOM     15  C   UNL     1      85.663  59.538  12.693  1.00  0.00     0.000 C 
BRANCH  15  16
ATOM     16  C   UNL     1      85.105  60.770  13.433  1.00  0.00     0.006 C 
BRANCH  16  17
ATOM     17  C   UNL     1      84.635  60.449  14.857  1.00  0.00     0.053 C 
BRANCH  17  18
ATOM     18  C   UNL     1      85.352  61.310  15.850  1.00  0.00     0.041 C 
ATOM     19  O   UNL     1      85.434  60.954  17.056  1.00  0.00    -0.550 OA
ATOM     20  O   UNL     1      85.891  62.527  15.452  1.00  0.00    -0.550 OA
ENDBRANCH  17  18
ENDBRANCH  16  17
ENDBRANCH  15  16
ENDBRANCH  14  15
ENDBRANCH  13  14
ENDBRANCH  12  13
ENDBRANCH  11  12
ENDBRANCH   1  11
TORSDOF 15
ENDMDL
MODEL 4
REMARK VINA RESULT:    -5.188      4.045      8.723
REMARK INTER + INTRA:         -10.579
REMARK INTER:                  -8.960
REMARK INTRA:                  -1.619
REMARK UNBOUND:                -0.842
REMARK SMILES O=C([O-])CCCCCCCCCCCCCCC(=O)[O-]
REMARK SMILES IDX 10 1 9 2 8 3 7 4 6 5 5 6 4 7 2 8 1 9 3 10 11 11 12 12 13 13
REMARK SMILES IDX 14 14 15 15 16 16 17 17 18 18 19 19 20 20
REMARK H PARENT
REMARK Flexibility Score: inf
ROOT
ATOM      1  C   UNL     1      78.117  56.784   8.437  1.00  0.00     0.000 C 
ENDROOT
BRANCH   1   2
ATOM      2  C   UNL     1      78.020  56.399   9.922  1.00  0.00     0.000 C 
BRANCH   2   3
ATOM      3  C   UNL     1      78.933  57.284  10.780  1.00  0.00     0.000 C 
BRANCH   3   4
ATOM      4  C   UNL     1      79.348  58.549  10.017  1.00  0.00     0.000 C 
BRANCH   4   5
ATOM      5  C   UNL     1      80.581  59.198  10.657  1.00  0.00     0.000 C 
BRANCH   5   6
ATOM      6  C   UNL     1      81.784  58.242  10.625  1.00  0.00     0.006 C 
BRANCH   6   7
ATOM      7  C   UNL     1      83.110  58.983  10.411  1.00  0.00     0.053 C 
BRANCH   7   8
ATOM      8  C   UNL     1      83.163  60.264  11.187  1.00  0.00     0.041 C 
ATOM      9  O   UNL     1      83.131  61.371  10.587  1.00  0.00    -0.550 OA
ATOM     10  O   UNL     1      83.279  60.235  12.572  1.00  0.00    -0.550 OA
ENDBRANCH   7   8
ENDBRANCH   6   7
ENDBRANCH   5   6
ENDBRANCH   4   5
ENDBRANCH   3   4
ENDBRANCH   2   3
ENDBRANCH   1   2
BRANCH   1  11
ATOM     11  C   UNL     1      77.612  55.672   7.503  1.00  0.00     0.000 C 
BRANCH  11  12
ATOM     12  C   UNL     1      78.230  54.300   7.823  1.00  0.00     0.000 C 
BRANCH  12  13
ATOM     13  C   UNL     1      79.757  54.277   7.591  1.00  0.00     0.000 C 
BRANCH  13  14
ATOM     14  C   UNL     1      80.560  53.759   8.800  1.00  0.00     0.000 C 
BRANCH  14  15
ATOM     15  C   UNL     1      81.495  54.795   9.451  1.00  0.00     0.000 C 
BRANCH  15  16
ATOM     16  C   UNL     1      82.146  54.342  10.773  1.00  0.00     0.006 C 
BRANCH  16  17
ATOM     17  C   UNL     1      81.842  52.878  11.117  1.00  0.00     0.053 C 
BRANCH  17  18
ATOM     18  C   UNL     1      83.111  52.122  11.351  1.00  0.00     0.041 C 
ATOM     19  O   UNL     1      83.442  51.782  12.519  1.00  0.00    -0.550 OA
ATOM     20  O   UNL     1      83.953  51.831  10.284  1.00  0.00    -0.550 OA
ENDBRANCH  17  18
ENDBRANCH  16  17
ENDBRANCH  15  16
ENDBRANCH  14  15
ENDBRANCH  13  14
ENDBRANCH  12  13
ENDBRANCH  11  12
ENDBRANCH   1  11
TORSDOF 15
ENDMDL
MODEL 5
REMARK VINA RESULT:    -5.172      3.838      9.211
REMARK INTER + INTRA:         -10.548
REMARK INTER:                  -9.460
REMARK INTRA:                  -1.089
REMARK UNBOUND:                -0.842
REMARK SMILES O=C([O-])CCCCCCCCCCCCCCC(=O)[O-]
REMARK SMILES IDX 10 1 9 2 8 3 7 4 6 5 5 6 4 7 2 8 1 9 3 10 11 11 12 12 13 13
REMARK SMILES IDX 14 14 15 15 16 16 17 17 18 18 19 19 20 20
REMARK H PARENT
REMARK Flexibility Score: inf
ROOT
ATOM      1  C   UNL     1      83.629  60.406  11.143  1.00  0.00     0.000 C 
ENDROOT
BRANCH   1   2
ATOM      2  C   UNL     1      84.836  59.667  10.544  1.00  0.00     0.000 C 
BRANCH   2   3
ATOM      3  C   UNL     1      84.423  58.846   9.316  1.00  0.00     0.000 C 
BRANCH   3   4
ATOM      4  C   UNL     1      85.229  59.263   8.079  1.00  0.00     0.000 C 
BRANCH   4   5
ATOM      5  C   UNL     1      86.700  59.510   8.437  1.00  0.00     0.000 C 
BRANCH   5   6
ATOM      6  C   UNL     1      87.574  58.317   8.020  1.00  0.00     0.006 C 
BRANCH   6   7
ATOM      7  C   UNL     1      88.599  57.943   9.099  1.00  0.00     0.053 C 
BRANCH   7   8
ATOM      8  C   UNL     1      87.973  57.166  10.217  1.00  0.00     0.041 C 
ATOM      9  O   UNL     1      88.420  57.271  11.390  1.00  0.00    -0.550 OA
ATOM     10  O   UNL     1      86.915  56.302   9.958  1.00  0.00    -0.550 OA
ENDBRANCH   7   8
ENDBRANCH   6   7
ENDBRANCH   5   6
ENDBRANCH   4   5
ENDBRANCH   3   4
ENDBRANCH   2   3
ENDBRANCH   1   2
BRANCH   1  11
ATOM     11  C   UNL     1      82.345  59.562  11.117  1.00  0.00     0.000 C 
BRANCH  11  12
ATOM     12  C   UNL     1      81.230  60.201  10.272  1.00  0.00     0.000 C 
BRANCH  12  13
ATOM     13  C   UNL     1      79.926  59.373  10.299  1.00  0.00     0.000 C 
BRANCH  13  14
ATOM     14  C   UNL     1      80.157  57.857  10.446  1.00  0.00     0.000 C 
BRANCH  14  15
ATOM     15  C   UNL     1      78.953  57.065  10.987  1.00  0.00     0.000 C 
BRANCH  15  16
ATOM     16  C   UNL     1      78.286  56.120   9.968  1.00  0.00     0.006 C 
BRANCH  16  17
ATOM     17  C   UNL     1      77.538  56.870   8.858  1.00  0.00     0.053 C 
BRANCH  17  18
ATOM     18  C   UNL     1      77.756  56.200   7.538  1.00  0.00     0.041 C 
ATOM     19  O   UNL     1      77.891  56.890   6.492  1.00  0.00    -0.550 OA
ATOM     20  O   UNL     1      77.766  54.813   7.455  1.00  0.00    -0.550 OA
ENDBRANCH  17  18
ENDBRANCH  16  17
ENDBRANCH  15  16
ENDBRANCH  14  15
ENDBRANCH  13  14
ENDBRANCH  12  13
ENDBRANCH  11  12
ENDBRANCH   1  11
TORSDOF 15
ENDMDL
MODEL 6
REMARK VINA RESULT:    -5.163      4.351      6.904
REMARK INTER + INTRA:         -10.533
REMARK INTER:                  -9.549
REMARK INTRA:                  -0.984
REMARK UNBOUND:                -0.842
REMARK SMILES O=C([O-])CCCCCCCCCCCCCCC(=O)[O-]
REMARK SMILES IDX 10 1 9 2 8 3 7 4 6 5 5 6 4 7 2 8 1 9 3 10 11 11 12 12 13 13
REMARK SMILES IDX 14 14 15 15 16 16 17 17 18 18 19 19 20 20
REMARK H PARENT
REMARK Flexibility Score: inf
ROOT
ATOM      1  C   UNL     1      77.926  55.952   7.742  1.00  0.00     0.000 C 
ENDROOT
BRANCH   1   2
ATOM      2  C   UNL     1      78.141  54.461   8.044  1.00  0.00     0.000 C 
BRANCH   2   3
ATOM      3  C   UNL     1      79.578  54.035   7.717  1.00  0.00     0.000 C 
BRANCH   3   4
ATOM      4  C   UNL     1      79.939  52.723   8.424  1.00  0.00     0.000 C 
BRANCH   4   5
ATOM      5  C   UNL     1      80.790  52.986   9.673  1.00  0.00     0.000 C 
BRANCH   5   6
ATOM      6  C   UNL     1      81.908  51.940   9.805  1.00  0.00     0.006 C 
BRANCH   6   7
ATOM      7  C   UNL     1      81.988  51.351  11.219  1.00  0.00     0.053 C 
BRANCH   7   8
ATOM      8  C   UNL     1      83.212  51.818  11.948  1.00  0.00     0.041 C 
ATOM      9  O   UNL     1      83.861  52.811  11.525  1.00  0.00    -0.550 OA
ATOM     10  O   UNL     1      83.652  51.138  13.078  1.00  0.00    -0.550 OA
ENDBRANCH   7   8
ENDBRANCH   6   7
ENDBRANCH   5   6
ENDBRANCH   4   5
ENDBRANCH   3   4
ENDBRANCH   2   3
ENDBRANCH   1   2
BRANCH   1  11
ATOM     11  C   UNL     1      77.671  56.782   9.011  1.00  0.00     0.000 C 
BRANCH  11  12
ATOM     12  C   UNL     1      78.490  56.292  10.217  1.00  0.00     0.000 C 
BRANCH  12  13
ATOM     13  C   UNL     1      79.501  57.351  10.709  1.00  0.00     0.000 C 
BRANCH  13  14
ATOM     14  C   UNL     1      79.276  58.751  10.105  1.00  0.00     0.000 C 
BRANCH  14  15
ATOM     15  C   UNL     1      80.462  59.721  10.255  1.00  0.00     0.000 C 
BRANCH  15  16
ATOM     16  C   UNL     1      81.770  59.077  10.754  1.00  0.00     0.006 C 
BRANCH  16  17
ATOM     17  C   UNL     1      82.714  60.084  11.425  1.00  0.00     0.053 C 
BRANCH  17  18
ATOM     18  C   UNL     1      83.541  60.789  10.396  1.00  0.00     0.041 C 
ATOM     19  O   UNL     1      84.519  60.204   9.858  1.00  0.00    -0.550 OA
ATOM     20  O   UNL     1      83.259  62.109  10.063  1.00  0.00    -0.550 OA
ENDBRANCH  17  18
ENDBRANCH  16  17
ENDBRANCH  15  16
ENDBRANCH  14  15
ENDBRANCH  13  14
ENDBRANCH  12  13
ENDBRANCH  11  12
ENDBRANCH   1  11
TORSDOF 15
ENDMDL
MODEL 7
REMARK VINA RESULT:    -5.129      3.544      4.994
REMARK INTER + INTRA:         -10.468
REMARK INTER:                  -9.314
REMARK INTRA:                  -1.154
REMARK UNBOUND:                -0.842
REMARK SMILES O=C([O-])CCCCCCCCCCCCCCC(=O)[O-]
REMARK SMILES IDX 10 1 9 2 8 3 7 4 6 5 5 6 4 7 2 8 1 9 3 10 11 11 12 12 13 13
REMARK SMILES IDX 14 14 15 15 16 16 17 17 18 18 19 19 20 20
REMARK H PARENT
REMARK Flexibility Score: inf
ROOT
ATOM      1  C   UNL     1      79.217  57.248  10.668  1.00  0.00     0.000 C 
ENDROOT
BRANCH   1   2
ATOM      2  C   UNL     1      78.131  56.371  10.024  1.00  0.00     0.000 C 
BRANCH   2   3
ATOM      3  C   UNL     1      77.730  56.915   8.647  1.00  0.00     0.000 C 
BRANCH   3   4
ATOM      4  C   UNL     1      77.875  55.838   7.565  1.00  0.00     0.000 C 
BRANCH   4   5
ATOM      5  C   UNL     1      78.155  54.465   8.189  1.00  0.00     0.000 C 
BRANCH   5   6
ATOM      6  C   UNL     1      79.535  53.939   7.760  1.00  0.00     0.006 C 
BRANCH   6   7
ATOM      7  C   UNL     1      80.013  52.778   8.641  1.00  0.00     0.053 C 
BRANCH   7   8
ATOM      8  C   UNL     1      81.055  53.218   9.624  1.00  0.00     0.041 C 
ATOM      9  O   UNL     1      80.747  53.986  10.574  1.00  0.00    -0.550 OA
ATOM     10  O   UNL     1      82.374  52.804   9.474  1.00  0.00    -0.550 OA
ENDBRANCH   7   8
ENDBRANCH   6   7
ENDBRANCH   5   6
ENDBRANCH   4   5
ENDBRANCH   3   4
ENDBRANCH   2   3
ENDBRANCH   1   2
BRANCH   1  11
ATOM     11  C   UNL     1      79.495  58.530   9.866  1.00  0.00     0.000 C 
BRANCH  11  12
ATOM     12  C   UNL     1      80.041  59.671  10.741  1.00  0.00     0.000 C 
BRANCH  12  13
ATOM     13  C   UNL     1      81.415  60.179  10.253  1.00  0.00     0.000 C 
BRANCH  13  14
ATOM     14  C   UNL     1      82.608  59.558  11.004  1.00  0.00     0.000 C 
BRANCH  14  15
ATOM     15  C   UNL     1      83.807  59.174  10.118  1.00  0.00     0.000 C 
BRANCH  15  16
ATOM     16  C   UNL     1      84.642  60.363   9.603  1.00  0.00     0.006 C 
BRANCH  16  17
ATOM     17  C   UNL     1      84.783  61.487  10.639  1.00  0.00     0.053 C 
BRANCH  17  18
ATOM     18  C   UNL     1      84.490  62.814  10.013  1.00  0.00     0.041 C 
ATOM     19  O   UNL     1      83.298  63.172   9.813  1.00  0.00    -0.550 OA
ATOM     20  O   UNL     1      85.534  63.637   9.608  1.00  0.00    -0.550 OA
ENDBRANCH  17  18
ENDBRANCH  16  17
ENDBRANCH  15  16
ENDBRANCH  14  15
ENDBRANCH  13  14
ENDBRANCH  12  13
ENDBRANCH  11  12
ENDBRANCH   1  11
TORSDOF 15
ENDMDL
MODEL 8
REMARK VINA RESULT:    -5.049      2.116      9.487
REMARK INTER + INTRA:         -10.319
REMARK INTER:                  -8.969
REMARK INTRA:                  -1.349
REMARK UNBOUND:                -0.842
REMARK SMILES O=C([O-])CCCCCCCCCCCCCCC(=O)[O-]
REMARK SMILES IDX 10 1 9 2 8 3 7 4 6 5 5 6 4 7 2 8 1 9 3 10 11 11 12 12 13 13
REMARK SMILES IDX 14 14 15 15 16 16 17 17 18 18 19 19 20 20
REMARK H PARENT
REMARK Flexibility Score: inf
ROOT
ATOM      1  C   UNL     1      80.417  58.726  10.749  1.00  0.00     0.000 C 
ENDROOT
BRANCH   1   2
ATOM      2  C   UNL     1      80.957  60.110  10.357  1.00  0.00     0.000 C 
BRANCH   2   3
ATOM      3  C   UNL     1      82.438  60.248  10.730  1.00  0.00     0.000 C 
BRANCH   3   4
ATOM      4  C   UNL     1      83.198  58.944  10.458  1.00  0.00     0.000 C 
BRANCH   4   5
ATOM      5  C   UNL     1      84.714  59.175  10.481  1.00  0.00     0.000 C 
BRANCH   5   6
ATOM      6  C   UNL     1      85.094  60.219  11.544  1.00  0.00     0.006 C 
BRANCH   6   7
ATOM      7  C   UNL     1      85.419  59.577  12.899  1.00  0.00     0.053 C 
BRANCH   7   8
ATOM      8  C   UNL     1      84.964  60.431  14.043  1.00  0.00     0.041 C 
ATOM      9  O   UNL     1      85.737  61.297  14.534  1.00  0.00    -0.550 OA
ATOM     10  O   UNL     1      83.698  60.252  14.587  1.00  0.00    -0.550 OA
ENDBRANCH   7   8
ENDBRANCH   6   7
ENDBRANCH   5   6
ENDBRANCH   4   5
ENDBRANCH   3   4
ENDBRANCH   2   3
ENDBRANCH   1   2
BRANCH   1  11
ATOM     11  C   UNL     1      79.116  58.367  10.012  1.00  0.00     0.000 C 
BRANCH  11  12
ATOM     12  C   UNL     1      78.843  56.853   9.991  1.00  0.00     0.000 C 
BRANCH  12  13
ATOM     13  C   UNL     1      79.234  56.168  11.319  1.00  0.00     0.000 C 
BRANCH  13  14
ATOM     14  C   UNL     1      80.285  55.053  11.156  1.00  0.00     0.000 C 
BRANCH  14  15
ATOM     15  C   UNL     1      81.235  55.226   9.957  1.00  0.00     0.000 C 
BRANCH  15  16
ATOM     16  C   UNL     1      81.249  54.048   8.963  1.00  0.00     0.006 C 
BRANCH  16  17
ATOM     17  C   UNL     1      80.383  54.302   7.722  1.00  0.00     0.053 C 
BRANCH  17  18
ATOM     18  C   UNL     1      79.051  53.636   7.869  1.00  0.00     0.041 C 
ATOM     19  O   UNL     1      78.983  52.412   8.161  1.00  0.00    -0.550 OA
ATOM     20  O   UNL     1      77.885  54.357   7.641  1.00  0.00    -0.550 OA
ENDBRANCH  17  18
ENDBRANCH  16  17
ENDBRANCH  15  16
ENDBRANCH  14  15
ENDBRANCH  13  14
ENDBRANCH  12  13
ENDBRANCH  11  12
ENDBRANCH   1  11
TORSDOF 15
ENDMDL
MODEL 9
REMARK VINA RESULT:    -5.024      8.239     11.407
REMARK INTER + INTRA:         -10.270
REMARK INTER:                  -7.807
REMARK INTRA:                  -2.463
REMARK UNBOUND:                -0.842
REMARK SMILES O=C([O-])CCCCCCCCCCCCCCC(=O)[O-]
REMARK SMILES IDX 10 1 9 2 8 3 7 4 6 5 5 6 4 7 2 8 1 9 3 10 11 11 12 12 13 13
REMARK SMILES IDX 14 14 15 15 16 16 17 17 18 18 19 19 20 20
REMARK H PARENT
REMARK Flexibility Score: inf
ROOT
ATOM      1  C   UNL     1      90.125  65.844   9.983  1.00  0.00     0.000 C 
ENDROOT
BRANCH   1   2
ATOM      2  C   UNL     1      90.651  64.400   9.982  1.00  0.00     0.000 C 
BRANCH   2   3
ATOM      3  C   UNL     1      91.967  64.295   9.201  1.00  0.00     0.000 C 
BRANCH   3   4
ATOM      4  C   UNL     1      92.003  63.018   8.353  1.00  0.00     0.000 C 
BRANCH   4   5
ATOM      5  C   UNL     1      90.586  62.508   8.064  1.00  0.00     0.000 C 
BRANCH   5   6
ATOM      6  C   UNL     1      90.592  61.496   6.907  1.00  0.00     0.006 C 
BRANCH   6   7
ATOM      7  C   UNL     1      91.954  61.426   6.203  1.00  0.00     0.053 C 
BRANCH   7   8
ATOM      8  C   UNL     1      91.871  61.898   4.783  1.00  0.00     0.041 C 
ATOM      9  O   UNL     1      92.765  61.578   3.955  1.00  0.00    -0.550 OA
ATOM     10  O   UNL     1      90.821  62.717   4.380  1.00  0.00    -0.550 OA
ENDBRANCH   7   8
ENDBRANCH   6   7
ENDBRANCH   5   6
ENDBRANCH   4   5
ENDBRANCH   3   4
ENDBRANCH   2   3
ENDBRANCH   1   2
BRANCH   1  11
ATOM     11  C   UNL     1      90.707  66.687   8.837  1.00  0.00     0.000 C 
BRANCH  11  12
ATOM     12  C   UNL     1      89.692  66.940   7.709  1.00  0.00     0.000 C 
BRANCH  12  13
ATOM     13  C   UNL     1      89.732  65.839   6.626  1.00  0.00     0.000 C 
BRANCH  13  14
ATOM     14  C   UNL     1      88.469  64.958   6.591  1.00  0.00     0.000 C 
BRANCH  14  15
ATOM     15  C   UNL     1      87.291  65.476   7.437  1.00  0.00     0.000 C 
BRANCH  15  16
ATOM     16  C   UNL     1      86.935  64.604   8.657  1.00  0.00     0.006 C 
BRANCH  16  17
ATOM     17  C   UNL     1      86.889  63.106   8.327  1.00  0.00     0.053 C 
BRANCH  17  18
ATOM     18  C   UNL     1      85.616  62.767   7.618  1.00  0.00     0.041 C 
ATOM     19  O   UNL     1      85.632  62.001   6.617  1.00  0.00    -0.550 OA
ATOM     20  O   UNL     1      84.416  63.331   8.036  1.00  0.00    -0.550 OA
ENDBRANCH  17  18
ENDBRANCH  16  17
ENDBRANCH  15  16
ENDBRANCH  14  15
ENDBRANCH  13  14
ENDBRANCH  12  13
ENDBRANCH  11  12
ENDBRANCH   1  11
TORSDOF 15
ENDMDL
