MODEL 1
REMARK VINA RESULT:    -4.390      0.000      0.000
REMARK INTER + INTRA:          -6.677
REMARK INTER:                  -5.930
REMARK INTRA:                  -0.747
REMARK UNBOUND:                -0.747
REMARK SMILES C[C@H](O)[C@H](O)[C@H](O)[C@H](O)C=O
REMARK SMILES IDX 4 1 2 2 1 3 3 4 6 6 8 7 10 8 11 9 9 10 7 12 5 14
REMARK H PARENT 3 5 9 11 7 13 5 15
REMARK Flexibility Score: inf
ROOT
ATOM      1  C   UNL     1     -20.657  24.445 -27.048  1.00  0.00     0.174 C 
ENDROOT
BRANCH   1   2
ATOM      2  C   UNL     1     -19.894  25.761 -27.345  1.00  0.00     0.142 C 
ATOM      3  C   UNL     1     -20.441  26.452 -28.596  1.00  0.00     0.041 C 
BRANCH   2   4
ATOM      4  O   UNL     1     -18.529  25.496 -27.553  1.00  0.00    -0.391 OA
ATOM      5  H   UNL     1     -18.242  26.020 -28.346  1.00  0.00     0.211 HD
ENDBRANCH   2   4
ENDBRANCH   1   2
BRANCH   1   6
ATOM      6  C   UNL     1     -20.555  24.047 -25.552  1.00  0.00     0.181 C 
BRANCH   6   7
ATOM      7  C   UNL     1     -21.235  22.687 -25.235  1.00  0.00     0.209 C 
BRANCH   7   8
ATOM      8  C   UNL     1     -22.566  22.845 -24.540  1.00  0.00     0.258 C 
ATOM      9  O   UNL     1     -23.342  23.726 -24.877  1.00  0.00    -0.300 OA
ENDBRANCH   7   8
BRANCH   7  10
ATOM     10  O   UNL     1     -21.389  21.932 -26.413  1.00  0.00    -0.383 OA
ATOM     11  H   UNL     1     -20.671  22.198 -27.045  1.00  0.00     0.211 HD
ENDBRANCH   7  10
ENDBRANCH   6   7
BRANCH   6  12
ATOM     12  O   UNL     1     -19.200  23.994 -25.172  1.00  0.00    -0.387 OA
ATOM     13  H   UNL     1     -18.682  24.494 -25.855  1.00  0.00     0.211 HD
ENDBRANCH   6  12
ENDBRANCH   1   6
BRANCH   1  14
ATOM     14  O   UNL     1     -22.012  24.614 -27.389  1.00  0.00    -0.388 OA
ATOM     15  H   UNL     1     -22.266  23.857 -27.980  1.00  0.00     0.211 HD
ENDBRANCH   1  14
TORSDOF 8
ENDMDL
MODEL 2
REMARK VINA RESULT:    -4.339      1.922      3.950
REMARK INTER + INTRA:          -6.608
REMARK INTER:                  -5.938
REMARK INTRA:                  -0.670
REMARK UNBOUND:                -0.747
REMARK SMILES C[C@H](O)[C@H](O)[C@H](O)[C@H](O)C=O
REMARK SMILES IDX 4 1 2 2 1 3 3 4 6 6 8 7 10 8 11 9 9 10 7 12 5 14
REMARK H PARENT 3 5 9 11 7 13 5 15
REMARK Flexibility Score: inf
ROOT
ATOM      1  C   UNL     1     -21.201  25.260 -26.760  1.00  0.00     0.174 C 
ENDROOT
BRANCH   1   2
ATOM      2  C   UNL     1     -20.940  26.003 -25.425  1.00  0.00     0.142 C 
ATOM      3  C   UNL     1     -22.251  26.420 -24.755  1.00  0.00     0.041 C 
BRANCH   2   4
ATOM      4  O   UNL     1     -20.178  27.161 -25.653  1.00  0.00    -0.391 OA
ATOM      5  H   UNL     1     -19.332  26.880 -26.090  1.00  0.00     0.211 HD
ENDBRANCH   2   4
ENDBRANCH   1   2
BRANCH   1   6
ATOM      6  C   UNL     1     -19.921  24.558 -27.286  1.00  0.00     0.181 C 
BRANCH   6   7
ATOM      7  C   UNL     1     -19.122  25.424 -28.298  1.00  0.00     0.209 C 
BRANCH   7   8
ATOM      8  C   UNL     1     -19.995  26.397 -29.054  1.00  0.00     0.258 C 
ATOM      9  O   UNL     1     -19.932  27.595 -28.825  1.00  0.00    -0.300 OA
ENDBRANCH   7   8
BRANCH   7  10
ATOM     10  O   UNL     1     -18.085  26.112 -27.641  1.00  0.00    -0.383 OA
ATOM     11  H   UNL     1     -17.808  26.871 -28.216  1.00  0.00     0.211 HD
ENDBRANCH   7  10
ENDBRANCH   6   7
BRANCH   6  12
ATOM     12  O   UNL     1     -19.091  24.221 -26.200  1.00  0.00    -0.387 OA
ATOM     13  H   UNL     1     -18.334  23.689 -26.561  1.00  0.00     0.211 HD
ENDBRANCH   6  12
ENDBRANCH   1   6
BRANCH   1  14
ATOM     14  O   UNL     1     -22.207  24.296 -26.560  1.00  0.00    -0.388 OA
ATOM     15  H   UNL     1     -21.839  23.605 -25.950  1.00  0.00     0.211 HD
ENDBRANCH   1  14
TORSDOF 8
ENDMDL
MODEL 3
REMARK VINA RESULT:    -4.229      1.189      2.166
REMARK INTER + INTRA:          -6.459
REMARK INTER:                  -5.669
REMARK INTRA:                  -0.790
REMARK UNBOUND:                -0.747
REMARK SMILES C[C@H](O)[C@H](O)[C@H](O)[C@H](O)C=O
REMARK SMILES IDX 4 1 2 2 1 3 3 4 6 6 8 7 10 8 11 9 9 10 7 12 5 14
REMARK H PARENT 3 5 9 11 7 13 5 15
REMARK Flexibility Score: inf
ROOT
ATOM      1  C   UNL     1     -20.701  26.435 -26.699  1.00  0.00     0.174 C 
ENDROOT
BRANCH   1   2
ATOM      2  C   UNL     1     -19.608  26.949 -27.670  1.00  0.00     0.142 C 
ATOM      3  C   UNL     1     -20.083  26.891 -29.124  1.00  0.00     0.041 C 
BRANCH   2   4
ATOM      4  O   UNL     1     -18.448  26.162 -27.557  1.00  0.00    -0.391 OA
ATOM      5  H   UNL     1     -17.709  26.761 -27.273  1.00  0.00     0.211 HD
ENDBRANCH   2   4
ENDBRANCH   1   2
BRANCH   1   6
ATOM      6  C   UNL     1     -20.909  24.903 -26.827  1.00  0.00     0.181 C 
BRANCH   6   7
ATOM      7  C   UNL     1     -20.558  24.130 -25.526  1.00  0.00     0.209 C 
BRANCH   7   8
ATOM      8  C   UNL     1     -21.249  22.790 -25.435  1.00  0.00     0.258 C 
ATOM      9  O   UNL     1     -22.373  22.702 -24.967  1.00  0.00    -0.300 OA
ENDBRANCH   7   8
BRANCH   7  10
ATOM     10  O   UNL     1     -19.164  23.965 -25.417  1.00  0.00    -0.383 OA
ATOM     11  H   UNL     1     -18.777  24.007 -26.329  1.00  0.00     0.211 HD
ENDBRANCH   7  10
ENDBRANCH   6   7
BRANCH   6  12
ATOM     12  O   UNL     1     -22.245  24.639 -27.182  1.00  0.00    -0.387 OA
ATOM     13  H   UNL     1     -22.403  23.669 -27.037  1.00  0.00     0.211 HD
ENDBRANCH   6  12
ENDBRANCH   1   6
BRANCH   1  14
ATOM     14  O   UNL     1     -20.323  26.741 -25.378  1.00  0.00    -0.388 OA
ATOM     15  H   UNL     1     -19.340  26.883 -25.376  1.00  0.00     0.211 HD
ENDBRANCH   1  14
TORSDOF 8
ENDMDL
MODEL 4
REMARK VINA RESULT:    -4.192      3.774      5.634
REMARK INTER + INTRA:          -6.409
REMARK INTER:                  -5.541
REMARK INTRA:                  -0.868
REMARK UNBOUND:                -0.747
REMARK SMILES C[C@H](O)[C@H](O)[C@H](O)[C@H](O)C=O
REMARK SMILES IDX 4 1 2 2 1 3 3 4 6 6 8 7 10 8 11 9 9 10 7 12 5 14
REMARK H PARENT 3 5 9 11 7 13 5 15
REMARK Flexibility Score: inf
ROOT
ATOM      1  C   UNL     1     -22.604  19.962 -24.886  1.00  0.00     0.174 C 
ENDROOT
BRANCH   1   2
ATOM      2  C   UNL     1     -21.683  21.173 -25.181  1.00  0.00     0.142 C 
ATOM      3  C   UNL     1     -22.352  22.490 -24.781  1.00  0.00     0.041 C 
BRANCH   2   4
ATOM      4  O   UNL     1     -21.383  21.233 -26.553  1.00  0.00    -0.391 OA
ATOM      5  H   UNL     1     -22.045  21.839 -26.976  1.00  0.00     0.211 HD
ENDBRANCH   2   4
ENDBRANCH   1   2
BRANCH   1   6
ATOM      6  C   UNL     1     -21.825  18.621 -24.943  1.00  0.00     0.181 C 
BRANCH   6   7
ATOM      7  C   UNL     1     -22.265  17.710 -26.122  1.00  0.00     0.209 C 
BRANCH   7   8
ATOM      8  C   UNL     1     -21.254  17.673 -27.243  1.00  0.00     0.258 C 
ATOM      9  O   UNL     1     -21.117  18.632 -27.988  1.00  0.00    -0.300 OA
ENDBRANCH   7   8
BRANCH   7  10
ATOM     10  O   UNL     1     -22.526  16.406 -25.661  1.00  0.00    -0.383 OA
ATOM     11  H   UNL     1     -22.777  15.848 -26.443  1.00  0.00     0.211 HD
ENDBRANCH   7  10
ENDBRANCH   6   7
BRANCH   6  12
ATOM     12  O   UNL     1     -20.445  18.884 -25.044  1.00  0.00    -0.387 OA
ATOM     13  H   UNL     1     -20.340  19.699 -25.600  1.00  0.00     0.211 HD
ENDBRANCH   6  12
ENDBRANCH   1   6
BRANCH   1  14
ATOM     14  O   UNL     1     -23.166  20.114 -23.604  1.00  0.00    -0.388 OA
ATOM     15  H   UNL     1     -23.634  20.989 -23.588  1.00  0.00     0.211 HD
ENDBRANCH   1  14
TORSDOF 8
ENDMDL
MODEL 5
REMARK VINA RESULT:    -4.060      1.495      2.286
REMARK INTER + INTRA:          -6.231
REMARK INTER:                  -5.577
REMARK INTRA:                  -0.654
REMARK UNBOUND:                -0.747
REMARK SMILES C[C@H](O)[C@H](O)[C@H](O)[C@H](O)C=O
REMARK SMILES IDX 4 1 2 2 1 3 3 4 6 6 8 7 10 8 11 9 9 10 7 12 5 14
REMARK H PARENT 3 5 9 11 7 13 5 15
REMARK Flexibility Score: inf
ROOT
ATOM      1  C   UNL     1     -19.443  24.560 -27.304  1.00  0.00     0.174 C 
ENDROOT
BRANCH   1   2
ATOM      2  C   UNL     1     -19.551  25.937 -28.006  1.00  0.00     0.142 C 
ATOM      3  C   UNL     1     -18.515  26.075 -29.125  1.00  0.00     0.041 C 
BRANCH   2   4
ATOM      4  O   UNL     1     -19.336  26.974 -27.081  1.00  0.00    -0.391 OA
ATOM      5  H   UNL     1     -20.072  26.937 -26.417  1.00  0.00     0.211 HD
ENDBRANCH   2   4
ENDBRANCH   1   2
BRANCH   1   6
ATOM      6  C   UNL     1     -20.841  23.946 -27.027  1.00  0.00     0.181 C 
BRANCH   6   7
ATOM      7  C   UNL     1     -21.074  23.613 -25.528  1.00  0.00     0.209 C 
BRANCH   7   8
ATOM      8  C   UNL     1     -20.775  24.778 -24.615  1.00  0.00     0.258 C 
ATOM      9  O   UNL     1     -21.259  25.878 -24.833  1.00  0.00    -0.300 OA
ENDBRANCH   7   8
BRANCH   7  10
ATOM     10  O   UNL     1     -22.393  23.165 -25.326  1.00  0.00    -0.383 OA
ATOM     11  H   UNL     1     -22.998  23.947 -25.405  1.00  0.00     0.211 HD
ENDBRANCH   7  10
ENDBRANCH   6   7
BRANCH   6  12
ATOM     12  O   UNL     1     -21.839  24.833 -27.471  1.00  0.00    -0.387 OA
ATOM     13  H   UNL     1     -22.563  24.285 -27.874  1.00  0.00     0.211 HD
ENDBRANCH   6  12
ENDBRANCH   1   6
BRANCH   1  14
ATOM     14  O   UNL     1     -18.708  23.683 -28.124  1.00  0.00    -0.388 OA
ATOM     15  H   UNL     1     -19.304  22.924 -28.357  1.00  0.00     0.211 HD
ENDBRANCH   1  14
TORSDOF 8
ENDMDL
MODEL 6
REMARK VINA RESULT:    -4.018      5.443      6.286
REMARK INTER + INTRA:          -6.174
REMARK INTER:                  -5.476
REMARK INTRA:                  -0.698
REMARK UNBOUND:                -0.747
REMARK SMILES C[C@H](O)[C@H](O)[C@H](O)[C@H](O)C=O
REMARK SMILES IDX 4 1 2 2 1 3 3 4 6 6 8 7 10 8 11 9 9 10 7 12 5 14
REMARK H PARENT 3 5 9 11 7 13 5 15
REMARK Flexibility Score: inf
ROOT
ATOM      1  C   UNL     1     -21.465  17.591 -26.318  1.00  0.00     0.174 C 
ENDROOT
BRANCH   1   2
ATOM      2  C   UNL     1     -21.446  17.828 -27.849  1.00  0.00     0.142 C 
ATOM      3  C   UNL     1     -20.385  16.962 -28.533  1.00  0.00     0.041 C 
BRANCH   2   4
ATOM      4  O   UNL     1     -21.158  19.175 -28.131  1.00  0.00    -0.391 OA
ATOM      5  H   UNL     1     -20.188  19.236 -28.332  1.00  0.00     0.211 HD
ENDBRANCH   2   4
ENDBRANCH   1   2
BRANCH   1   6
ATOM      6  C   UNL     1     -21.906  18.863 -25.546  1.00  0.00     0.181 C 
BRANCH   6   7
ATOM      7  C   UNL     1     -22.719  18.545 -24.262  1.00  0.00     0.209 C 
BRANCH   7   8
ATOM      8  C   UNL     1     -22.786  19.712 -23.306  1.00  0.00     0.258 C 
ATOM      9  O   UNL     1     -22.900  20.854 -23.726  1.00  0.00    -0.300 OA
ENDBRANCH   7   8
BRANCH   7  10
ATOM     10  O   UNL     1     -24.018  18.119 -24.599  1.00  0.00    -0.383 OA
ATOM     11  H   UNL     1     -23.937  17.354 -25.225  1.00  0.00     0.211 HD
ENDBRANCH   7  10
ENDBRANCH   6   7
BRANCH   6  12
ATOM     12  O   UNL     1     -20.770  19.622 -25.205  1.00  0.00    -0.387 OA
ATOM     13  H   UNL     1     -19.987  19.192 -25.637  1.00  0.00     0.211 HD
ENDBRANCH   6  12
ENDBRANCH   1   6
BRANCH   1  14
ATOM     14  O   UNL     1     -22.357  16.543 -26.026  1.00  0.00    -0.388 OA
ATOM     15  H   UNL     1     -22.588  16.608 -25.063  1.00  0.00     0.211 HD
ENDBRANCH   1  14
TORSDOF 8
ENDMDL
MODEL 7
REMARK VINA RESULT:    -3.949      1.225      4.122
REMARK INTER + INTRA:          -6.081
REMARK INTER:                  -5.239
REMARK INTRA:                  -0.842
REMARK UNBOUND:                -0.747
REMARK SMILES C[C@H](O)[C@H](O)[C@H](O)[C@H](O)C=O
REMARK SMILES IDX 4 1 2 2 1 3 3 4 6 6 8 7 10 8 11 9 9 10 7 12 5 14
REMARK H PARENT 3 5 9 11 7 13 5 15
REMARK Flexibility Score: inf
ROOT
ATOM      1  C   UNL     1     -21.480  23.719 -24.388  1.00  0.00     0.174 C 
ENDROOT
BRANCH   1   2
ATOM      2  C   UNL     1     -22.422  22.491 -24.472  1.00  0.00     0.142 C 
ATOM      3  C   UNL     1     -21.734  21.308 -25.159  1.00  0.00     0.041 C 
BRANCH   2   4
ATOM      4  O   UNL     1     -23.577  22.812 -25.207  1.00  0.00    -0.391 OA
ATOM      5  H   UNL     1     -24.252  22.108 -25.021  1.00  0.00     0.211 HD
ENDBRANCH   2   4
ENDBRANCH   1   2
BRANCH   1   6
ATOM      6  C   UNL     1     -20.494  23.769 -25.585  1.00  0.00     0.181 C 
BRANCH   6   7
ATOM      7  C   UNL     1     -20.850  24.869 -26.623  1.00  0.00     0.209 C 
BRANCH   7   8
ATOM      8  C   UNL     1     -19.758  25.088 -27.643  1.00  0.00     0.258 C 
ATOM      9  O   UNL     1     -19.029  24.167 -27.980  1.00  0.00    -0.300 OA
ENDBRANCH   7   8
BRANCH   7  10
ATOM     10  O   UNL     1     -22.061  24.557 -27.268  1.00  0.00    -0.383 OA
ATOM     11  H   UNL     1     -22.584  25.396 -27.361  1.00  0.00     0.211 HD
ENDBRANCH   7  10
ENDBRANCH   6   7
BRANCH   6  12
ATOM     12  O   UNL     1     -19.187  23.982 -25.107  1.00  0.00    -0.387 OA
ATOM     13  H   UNL     1     -19.080  23.434 -24.286  1.00  0.00     0.211 HD
ENDBRANCH   6  12
ENDBRANCH   1   6
BRANCH   1  14
ATOM     14  O   UNL     1     -22.257  24.893 -24.381  1.00  0.00    -0.388 OA
ATOM     15  H   UNL     1     -21.648  25.653 -24.576  1.00  0.00     0.211 HD
ENDBRANCH   1  14
TORSDOF 8
ENDMDL
MODEL 8
REMARK VINA RESULT:    -3.923      4.644      7.097
REMARK INTER + INTRA:          -6.046
REMARK INTER:                  -5.217
REMARK INTRA:                  -0.829
REMARK UNBOUND:                -0.747
REMARK SMILES C[C@H](O)[C@H](O)[C@H](O)[C@H](O)C=O
REMARK SMILES IDX 4 1 2 2 1 3 3 4 6 6 8 7 10 8 11 9 9 10 7 12 5 14
REMARK H PARENT 3 5 9 11 7 13 5 15
REMARK Flexibility Score: inf
ROOT
ATOM      1  C   UNL     1     -22.728  17.278 -24.367  1.00  0.00     0.174 C 
ENDROOT
BRANCH   1   2
ATOM      2  C   UNL     1     -21.576  16.378 -23.853  1.00  0.00     0.142 C 
ATOM      3  C   UNL     1     -21.036  16.878 -22.511  1.00  0.00     0.041 C 
BRANCH   2   4
ATOM      4  O   UNL     1     -20.516  16.369 -24.776  1.00  0.00    -0.391 OA
ATOM      5  H   UNL     1     -20.347  17.310 -25.044  1.00  0.00     0.211 HD
ENDBRANCH   2   4
ENDBRANCH   1   2
BRANCH   1   6
ATOM      6  C   UNL     1     -22.500  18.768 -24.001  1.00  0.00     0.181 C 
BRANCH   6   7
ATOM      7  C   UNL     1     -21.967  19.614 -25.190  1.00  0.00     0.209 C 
BRANCH   7   8
ATOM      8  C   UNL     1     -22.038  21.100 -24.931  1.00  0.00     0.258 C 
ATOM      9  O   UNL     1     -23.115  21.675 -24.903  1.00  0.00    -0.300 OA
ENDBRANCH   7   8
BRANCH   7  10
ATOM     10  O   UNL     1     -20.648  19.238 -25.505  1.00  0.00    -0.383 OA
ATOM     11  H   UNL     1     -20.125  19.215 -24.662  1.00  0.00     0.211 HD
ENDBRANCH   7  10
ENDBRANCH   6   7
BRANCH   6  12
ATOM     12  O   UNL     1     -23.704  19.326 -23.531  1.00  0.00    -0.387 OA
ATOM     13  H   UNL     1     -23.502  20.247 -23.221  1.00  0.00     0.211 HD
ENDBRANCH   6  12
ENDBRANCH   1   6
BRANCH   1  14
ATOM     14  O   UNL     1     -22.816  17.156 -25.767  1.00  0.00    -0.388 OA
ATOM     15  H   UNL     1     -21.900  16.979 -26.108  1.00  0.00     0.211 HD
ENDBRANCH   1  14
TORSDOF 8
ENDMDL
MODEL 9
REMARK VINA RESULT:    -3.892      1.318      4.551
REMARK INTER + INTRA:          -6.004
REMARK INTER:                  -5.294
REMARK INTRA:                  -0.710
REMARK UNBOUND:                -0.747
REMARK SMILES C[C@H](O)[C@H](O)[C@H](O)[C@H](O)C=O
REMARK SMILES IDX 4 1 2 2 1 3 3 4 6 6 8 7 10 8 11 9 9 10 7 12 5 14
REMARK H PARENT 3 5 9 11 7 13 5 15
REMARK Flexibility Score: inf
ROOT
ATOM      1  C   UNL     1     -21.813  22.566 -25.529  1.00  0.00     0.174 C 
ENDROOT
BRANCH   1   2
ATOM      2  C   UNL     1     -22.915  22.386 -24.455  1.00  0.00     0.142 C 
ATOM      3  C   UNL     1     -22.813  21.018 -23.775  1.00  0.00     0.041 C 
BRANCH   2   4
ATOM      4  O   UNL     1     -24.189  22.488 -25.041  1.00  0.00    -0.391 OA
ATOM      5  H   UNL     1     -24.753  21.770 -24.653  1.00  0.00     0.211 HD
ENDBRANCH   2   4
ENDBRANCH   1   2
BRANCH   1   6
ATOM      6  C   UNL     1     -21.561  24.063 -25.847  1.00  0.00     0.181 C 
BRANCH   6   7
ATOM      7  C   UNL     1     -20.364  24.288 -26.811  1.00  0.00     0.209 C 
BRANCH   7   8
ATOM      8  C   UNL     1     -20.438  25.608 -27.541  1.00  0.00     0.258 C 
ATOM      9  O   UNL     1     -20.816  26.616 -26.964  1.00  0.00    -0.300 OA
ENDBRANCH   7   8
BRANCH   7  10
ATOM     10  O   UNL     1     -19.147  24.190 -26.110  1.00  0.00    -0.383 OA
ATOM     11  H   UNL     1     -18.659  23.396 -26.452  1.00  0.00     0.211 HD
ENDBRANCH   7  10
ENDBRANCH   6   7
BRANCH   6  12
ATOM     12  O   UNL     1     -22.724  24.627 -26.405  1.00  0.00    -0.387 OA
ATOM     13  H   UNL     1     -23.316  24.888 -25.652  1.00  0.00     0.211 HD
ENDBRANCH   6  12
ENDBRANCH   1   6
BRANCH   1  14
ATOM     14  O   UNL     1     -20.618  21.986 -25.062  1.00  0.00    -0.388 OA
ATOM     15  H   UNL     1     -20.089  21.715 -25.857  1.00  0.00     0.211 HD
ENDBRANCH   1  14
TORSDOF 8
ENDMDL
