MODEL 1
REMARK VINA RESULT:    -5.218      0.000      0.000
REMARK INTER + INTRA:          -6.603
REMARK INTER:                  -6.286
REMARK INTRA:                  -0.317
REMARK UNBOUND:                -0.317
REMARK SMILES O=c1c(O)c(-c2ccc(O)c(O)c2)oc2cc(O)cc(O)c12
REMARK SMILES IDX 5 1 3 2 2 3 1 4 22 5 20 6 19 7 17 8 16 9 15 10 14 11 6 12
REMARK SMILES IDX 7 13 8 14 9 15 13 16 11 17 10 18 12 20 4 22 21 24 18 26
REMARK H PARENT 10 19 12 21 4 23 21 25 18 27
REMARK Flexibility Score: inf
ROOT
ATOM      1  C   UNL     1      23.514  -6.141   8.941  1.00  0.00     0.180 A 
ATOM      2  C   UNL     1      23.562  -6.206  10.345  1.00  0.00     0.208 A 
ATOM      3  C   UNL     1      22.660  -5.433  11.094  1.00  0.00     0.238 A 
ATOM      4  O   UNL     1      22.672  -5.537  12.348  1.00  0.00    -0.285 OA
ATOM      5  C   UNL     1      21.736  -4.590  10.432  1.00  0.00     0.111 A 
ATOM      6  C   UNL     1      20.805  -3.732  11.092  1.00  0.00     0.134 A 
ATOM      7  C   UNL     1      19.849  -3.041  10.338  1.00  0.00     0.093 A 
ATOM      8  C   UNL     1      19.830  -3.125   8.946  1.00  0.00     0.123 A 
ATOM      9  C   UNL     1      20.774  -3.914   8.286  1.00  0.00     0.094 A 
ATOM     10  C   UNL     1      21.717  -4.644   9.014  1.00  0.00     0.146 A 
ATOM     11  O   UNL     1      22.591  -5.391   8.349  1.00  0.00    -0.452 OA
ENDROOT
BRANCH   1  12
ATOM     12  C   UNL     1      24.446  -6.907   8.084  1.00  0.00     0.025 A 
ATOM     13  C   UNL     1      24.108  -8.176   7.588  1.00  0.00     0.016 A 
ATOM     14  C   UNL     1      25.014  -8.891   6.801  1.00  0.00     0.051 A 
ATOM     15  C   UNL     1      26.275  -8.361   6.504  1.00  0.00     0.157 A 
ATOM     16  C   UNL     1      25.719  -6.384   7.806  1.00  0.00     0.062 A 
ATOM     17  C   UNL     1      26.634  -7.093   7.017  1.00  0.00     0.158 A 
BRANCH  15  18
ATOM     18  O   UNL     1      27.132  -9.125   5.709  1.00  0.00    -0.504 OA
ATOM     19  H   UNL     1      27.111  -9.128   4.699  1.00  0.00     0.293 HD
ENDBRANCH  15  18
BRANCH  17  20
ATOM     20  O   UNL     1      27.876  -6.504   6.771  1.00  0.00    -0.504 OA
ATOM     21  H   UNL     1      28.003  -5.655   6.240  1.00  0.00     0.293 HD
ENDBRANCH  17  20
ENDBRANCH   1  12
BRANCH   2  22
ATOM     22  O   UNL     1      24.468  -7.061  10.977  1.00  0.00    -0.502 OA
ATOM     23  H   UNL     1      25.461  -7.047  10.775  1.00  0.00     0.293 HD
ENDBRANCH   2  22
BRANCH   6  24
ATOM     24  O   UNL     1      20.796  -3.505  12.470  1.00  0.00    -0.507 OA
ATOM     25  H   UNL     1      20.082  -2.990  12.963  1.00  0.00     0.293 HD
ENDBRANCH   6  24
BRANCH   8  26
ATOM     26  O   UNL     1      18.875  -2.411   8.226  1.00  0.00    -0.508 OA
ATOM     27  H   UNL     1      18.728  -1.420   8.377  1.00  0.00     0.293 HD
ENDBRANCH   8  26
TORSDOF 6
ENDMDL
MODEL 2
REMARK VINA RESULT:    -5.021     11.219     14.327
REMARK INTER + INTRA:          -6.365
REMARK INTER:                  -6.564
REMARK INTRA:                   0.198
REMARK UNBOUND:                -0.317
REMARK SMILES O=c1c(O)c(-c2ccc(O)c(O)c2)oc2cc(O)cc(O)c12
REMARK SMILES IDX 5 1 3 2 2 3 1 4 22 5 20 6 19 7 17 8 16 9 15 10 14 11 6 12
REMARK SMILES IDX 7 13 8 14 9 15 13 16 11 17 10 18 12 20 4 22 21 24 18 26
REMARK H PARENT 10 19 12 21 4 23 21 25 18 27
REMARK Flexibility Score: inf
ROOT
ATOM      1  C   UNL     1      23.291  -6.789  -4.381  1.00  0.00     0.180 A 
ATOM      2  C   UNL     1      24.421  -7.236  -5.087  1.00  0.00     0.208 A 
ATOM      3  C   UNL     1      25.434  -7.915  -4.391  1.00  0.00     0.238 A 
ATOM      4  O   UNL     1      26.418  -8.360  -5.038  1.00  0.00    -0.285 OA
ATOM      5  C   UNL     1      25.313  -8.122  -2.996  1.00  0.00     0.111 A 
ATOM      6  C   UNL     1      26.298  -8.761  -2.183  1.00  0.00     0.134 A 
ATOM      7  C   UNL     1      26.015  -9.029  -0.838  1.00  0.00     0.093 A 
ATOM      8  C   UNL     1      24.812  -8.624  -0.260  1.00  0.00     0.123 A 
ATOM      9  C   UNL     1      23.867  -7.945  -1.031  1.00  0.00     0.094 A 
ATOM     10  C   UNL     1      24.106  -7.696  -2.385  1.00  0.00     0.146 A 
ATOM     11  O   UNL     1      23.176  -7.056  -3.085  1.00  0.00    -0.452 OA
ENDROOT
BRANCH   1  12
ATOM     12  C   UNL     1      22.193  -6.045  -5.040  1.00  0.00     0.025 A 
ATOM     13  C   UNL     1      21.784  -6.352  -6.347  1.00  0.00     0.016 A 
ATOM     14  C   UNL     1      20.762  -5.621  -6.957  1.00  0.00     0.051 A 
ATOM     15  C   UNL     1      20.140  -4.564  -6.283  1.00  0.00     0.157 A 
ATOM     16  C   UNL     1      21.586  -4.971  -4.370  1.00  0.00     0.062 A 
ATOM     17  C   UNL     1      20.560  -4.232  -4.973  1.00  0.00     0.158 A 
BRANCH  15  18
ATOM     18  O   UNL     1      19.122  -3.876  -6.947  1.00  0.00    -0.504 OA
ATOM     19  H   UNL     1      18.195  -4.246  -7.095  1.00  0.00     0.293 HD
ENDBRANCH  15  18
BRANCH  17  20
ATOM     20  O   UNL     1      19.993  -3.186  -4.242  1.00  0.00    -0.504 OA
ATOM     21  H   UNL     1      19.992  -2.223  -4.544  1.00  0.00     0.293 HD
ENDBRANCH  17  20
ENDBRANCH   1  12
BRANCH   2  22
ATOM     22  O   UNL     1      24.510  -7.040  -6.468  1.00  0.00    -0.502 OA
ATOM     23  H   UNL     1      24.485  -7.807  -7.129  1.00  0.00     0.293 HD
ENDBRANCH   2  22
BRANCH   6  24
ATOM     24  O   UNL     1      27.568  -9.125  -2.638  1.00  0.00    -0.507 OA
ATOM     25  H   UNL     1      28.375  -9.252  -2.047  1.00  0.00     0.293 HD
ENDBRANCH   6  24
BRANCH   8  26
ATOM     26  O   UNL     1      24.571  -8.893   1.084  1.00  0.00    -0.508 OA
ATOM     27  H   UNL     1      23.657  -8.749   1.499  1.00  0.00     0.293 HD
ENDBRANCH   8  26
TORSDOF 6
ENDMDL
MODEL 3
REMARK VINA RESULT:    -4.973      2.565      6.998
REMARK INTER + INTRA:          -6.308
REMARK INTER:                  -5.988
REMARK INTRA:                  -0.319
REMARK UNBOUND:                -0.317
REMARK SMILES O=c1c(O)c(-c2ccc(O)c(O)c2)oc2cc(O)cc(O)c12
REMARK SMILES IDX 5 1 3 2 2 3 1 4 22 5 20 6 19 7 17 8 16 9 15 10 14 11 6 12
REMARK SMILES IDX 7 13 8 14 9 15 13 16 11 17 10 18 12 20 4 22 21 24 18 26
REMARK H PARENT 10 19 12 21 4 23 21 25 18 27
REMARK Flexibility Score: inf
ROOT
ATOM      1  C   UNL     1      23.171  -7.386   9.007  1.00  0.00     0.180 A 
ATOM      2  C   UNL     1      23.119  -8.265   7.911  1.00  0.00     0.208 A 
ATOM      3  C   UNL     1      24.196  -8.297   7.012  1.00  0.00     0.238 A 
ATOM      4  O   UNL     1      24.167  -9.125   6.064  1.00  0.00    -0.285 OA
ATOM      5  C   UNL     1      25.304  -7.437   7.207  1.00  0.00     0.111 A 
ATOM      6  C   UNL     1      26.431  -7.357   6.335  1.00  0.00     0.134 A 
ATOM      7  C   UNL     1      27.529  -6.567   6.698  1.00  0.00     0.093 A 
ATOM      8  C   UNL     1      27.514  -5.804   7.865  1.00  0.00     0.123 A 
ATOM      9  C   UNL     1      26.392  -5.830   8.695  1.00  0.00     0.094 A 
ATOM     10  C   UNL     1      25.296  -6.637   8.379  1.00  0.00     0.146 A 
ATOM     11  O   UNL     1      24.253  -6.640   9.200  1.00  0.00    -0.452 OA
ENDROOT
BRANCH   1  12
ATOM     12  C   UNL     1      22.064  -7.278   9.985  1.00  0.00     0.025 A 
ATOM     13  C   UNL     1      21.073  -6.293   9.860  1.00  0.00     0.016 A 
ATOM     14  C   UNL     1      20.052  -6.195  10.807  1.00  0.00     0.051 A 
ATOM     15  C   UNL     1      20.007  -7.067  11.901  1.00  0.00     0.157 A 
ATOM     16  C   UNL     1      22.034  -8.139  11.093  1.00  0.00     0.062 A 
ATOM     17  C   UNL     1      21.014  -8.049  12.048  1.00  0.00     0.158 A 
BRANCH  15  18
ATOM     18  O   UNL     1      18.957  -6.918  12.811  1.00  0.00    -0.504 OA
ATOM     19  H   UNL     1      18.727  -6.049  13.269  1.00  0.00     0.293 HD
ENDBRANCH  15  18
BRANCH  17  20
ATOM     20  O   UNL     1      21.041  -8.947  13.118  1.00  0.00    -0.504 OA
ATOM     21  H   UNL     1      20.228  -9.206  13.658  1.00  0.00     0.293 HD
ENDBRANCH  17  20
ENDBRANCH   1  12
BRANCH   2  22
ATOM     22  O   UNL     1      22.025  -9.121   7.749  1.00  0.00    -0.502 OA
ATOM     23  H   UNL     1      21.362  -9.302   8.492  1.00  0.00     0.293 HD
ENDBRANCH   2  22
BRANCH   6  24
ATOM     24  O   UNL     1      26.510  -8.006   5.101  1.00  0.00    -0.507 OA
ATOM     25  H   UNL     1      26.071  -8.888   4.886  1.00  0.00     0.293 HD
ENDBRANCH   6  24
BRANCH   8  26
ATOM     26  O   UNL     1      28.617  -5.017   8.187  1.00  0.00    -0.508 OA
ATOM     27  H   UNL     1      28.676  -4.046   7.904  1.00  0.00     0.293 HD
ENDBRANCH   8  26
TORSDOF 6
ENDMDL
MODEL 4
REMARK VINA RESULT:    -4.968      2.775      6.637
REMARK INTER + INTRA:          -6.301
REMARK INTER:                  -5.986
REMARK INTRA:                  -0.315
REMARK UNBOUND:                -0.317
REMARK SMILES O=c1c(O)c(-c2ccc(O)c(O)c2)oc2cc(O)cc(O)c12
REMARK SMILES IDX 5 1 3 2 2 3 1 4 22 5 20 6 19 7 17 8 16 9 15 10 14 11 6 12
REMARK SMILES IDX 7 13 8 14 9 15 13 16 11 17 10 18 12 20 4 22 21 24 18 26
REMARK H PARENT 10 19 12 21 4 23 21 25 18 27
REMARK Flexibility Score: inf
ROOT
ATOM      1  C   UNL     1      23.816  -7.294  10.024  1.00  0.00     0.180 A 
ATOM      2  C   UNL     1      24.683  -6.301  10.512  1.00  0.00     0.208 A 
ATOM      3  C   UNL     1      25.798  -5.931   9.742  1.00  0.00     0.238 A 
ATOM      4  O   UNL     1      26.539  -5.003  10.160  1.00  0.00    -0.285 OA
ATOM      5  C   UNL     1      26.043  -6.572   8.504  1.00  0.00     0.111 A 
ATOM      6  C   UNL     1      27.164  -6.305   7.662  1.00  0.00     0.134 A 
ATOM      7  C   UNL     1      27.235  -6.903   6.397  1.00  0.00     0.093 A 
ATOM      8  C   UNL     1      26.262  -7.806   5.972  1.00  0.00     0.123 A 
ATOM      9  C   UNL     1      25.192  -8.120   6.811  1.00  0.00     0.094 A 
ATOM     10  C   UNL     1      25.075  -7.511   8.064  1.00  0.00     0.146 A 
ATOM     11  O   UNL     1      24.036  -7.829   8.828  1.00  0.00    -0.452 OA
ENDROOT
BRANCH   1  12
ATOM     12  C   UNL     1      22.635  -7.754  10.788  1.00  0.00     0.025 A 
ATOM     13  C   UNL     1      22.756  -8.688  11.829  1.00  0.00     0.016 A 
ATOM     14  C   UNL     1      21.624  -9.125  12.520  1.00  0.00     0.051 A 
ATOM     15  C   UNL     1      20.351  -8.651  12.179  1.00  0.00     0.157 A 
ATOM     16  C   UNL     1      21.358  -7.295  10.429  1.00  0.00     0.062 A 
ATOM     17  C   UNL     1      20.216  -7.727  11.117  1.00  0.00     0.158 A 
BRANCH  15  18
ATOM     18  O   UNL     1      19.261  -9.125  12.912  1.00  0.00    -0.504 OA
ATOM     19  H   UNL     1      19.345  -9.676  13.754  1.00  0.00     0.293 HD
ENDBRANCH  15  18
BRANCH  17  20
ATOM     20  O   UNL     1      18.980  -7.217  10.713  1.00  0.00    -0.504 OA
ATOM     21  H   UNL     1      18.870  -6.409  10.118  1.00  0.00     0.293 HD
ENDBRANCH  17  20
ENDBRANCH   1  12
BRANCH   2  22
ATOM     22  O   UNL     1      24.411  -5.666  11.727  1.00  0.00    -0.502 OA
ATOM     23  H   UNL     1      24.035  -4.727  11.778  1.00  0.00     0.293 HD
ENDBRANCH   2  22
BRANCH   6  24
ATOM     24  O   UNL     1      28.238  -5.490   8.028  1.00  0.00    -0.507 OA
ATOM     25  H   UNL     1      29.207  -5.699   7.843  1.00  0.00     0.293 HD
ENDBRANCH   6  24
BRANCH   8  26
ATOM     26  O   UNL     1      26.373  -8.394   4.714  1.00  0.00    -0.508 OA
ATOM     27  H   UNL     1      27.253  -8.414   4.213  1.00  0.00     0.293 HD
ENDBRANCH   8  26
TORSDOF 6
ENDMDL
MODEL 5
REMARK VINA RESULT:    -4.957      1.481      2.088
REMARK INTER + INTRA:          -6.288
REMARK INTER:                  -6.041
REMARK INTRA:                  -0.247
REMARK UNBOUND:                -0.317
REMARK SMILES O=c1c(O)c(-c2ccc(O)c(O)c2)oc2cc(O)cc(O)c12
REMARK SMILES IDX 5 1 3 2 2 3 1 4 22 5 20 6 19 7 17 8 16 9 15 10 14 11 6 12
REMARK SMILES IDX 7 13 8 14 9 15 13 16 11 17 10 18 12 20 4 22 21 24 18 26
REMARK H PARENT 10 19 12 21 4 23 21 25 18 27
REMARK Flexibility Score: inf
ROOT
ATOM      1  C   UNL     1      23.876  -6.793   9.175  1.00  0.00     0.180 A 
ATOM      2  C   UNL     1      23.577  -7.704  10.203  1.00  0.00     0.208 A 
ATOM      3  C   UNL     1      22.455  -7.471  11.014  1.00  0.00     0.238 A 
ATOM      4  O   UNL     1      22.162  -8.319  11.898  1.00  0.00    -0.285 OA
ATOM      5  C   UNL     1      21.656  -6.322  10.800  1.00  0.00     0.111 A 
ATOM      6  C   UNL     1      20.521  -5.966  11.589  1.00  0.00     0.134 A 
ATOM      7  C   UNL     1      19.727  -4.878  11.204  1.00  0.00     0.093 A 
ATOM      8  C   UNL     1      20.065  -4.094  10.101  1.00  0.00     0.123 A 
ATOM      9  C   UNL     1      21.207  -4.398   9.358  1.00  0.00     0.094 A 
ATOM     10  C   UNL     1      21.997  -5.499   9.695  1.00  0.00     0.146 A 
ATOM     11  O   UNL     1      23.070  -5.760   8.957  1.00  0.00    -0.452 OA
ENDROOT
BRANCH   1  12
ATOM     12  C   UNL     1      25.055  -6.957   8.294  1.00  0.00     0.025 A 
ATOM     13  C   UNL     1      26.175  -6.119   8.409  1.00  0.00     0.016 A 
ATOM     14  C   UNL     1      27.265  -6.277   7.551  1.00  0.00     0.051 A 
ATOM     15  C   UNL     1      27.255  -7.263   6.558  1.00  0.00     0.157 A 
ATOM     16  C   UNL     1      25.033  -7.932   7.285  1.00  0.00     0.062 A 
ATOM     17  C   UNL     1      26.122  -8.099   6.420  1.00  0.00     0.158 A 
BRANCH  15  18
ATOM     18  O   UNL     1      28.379  -7.372   5.736  1.00  0.00    -0.504 OA
ATOM     19  H   UNL     1      28.860  -8.241   5.550  1.00  0.00     0.293 HD
ENDBRANCH  15  18
BRANCH  17  20
ATOM     20  O   UNL     1      26.036  -9.098   5.448  1.00  0.00    -0.504 OA
ATOM     21  H   UNL     1      25.459  -9.922   5.536  1.00  0.00     0.293 HD
ENDBRANCH  17  20
ENDBRANCH   1  12
BRANCH   2  22
ATOM     22  O   UNL     1      24.366  -8.843  10.383  1.00  0.00    -0.502 OA
ATOM     23  H   UNL     1      25.374  -8.828  10.283  1.00  0.00     0.293 HD
ENDBRANCH   2  22
BRANCH   6  24
ATOM     24  O   UNL     1      20.148  -6.626  12.762  1.00  0.00    -0.507 OA
ATOM     25  H   UNL     1      19.230  -6.587  13.177  1.00  0.00     0.293 HD
ENDBRANCH   6  24
BRANCH   8  26
ATOM     26  O   UNL     1      19.262  -3.010   9.757  1.00  0.00    -0.508 OA
ATOM     27  H   UNL     1      19.609  -2.059   9.798  1.00  0.00     0.293 HD
ENDBRANCH   8  26
TORSDOF 6
ENDMDL
MODEL 6
REMARK VINA RESULT:    -4.570      2.302      2.746
REMARK INTER + INTRA:          -5.822
REMARK INTER:                  -6.267
REMARK INTRA:                   0.444
REMARK UNBOUND:                -0.317
REMARK SMILES O=c1c(O)c(-c2ccc(O)c(O)c2)oc2cc(O)cc(O)c12
REMARK SMILES IDX 5 1 3 2 2 3 1 4 22 5 20 6 19 7 17 8 16 9 15 10 14 11 6 12
REMARK SMILES IDX 7 13 8 14 9 15 13 16 11 17 10 18 12 20 4 22 21 24 18 26
REMARK H PARENT 10 19 12 21 4 23 21 25 18 27
REMARK Flexibility Score: inf
ROOT
ATOM      1  C   UNL     1      24.026  -6.895   9.407  1.00  0.00     0.180 A 
ATOM      2  C   UNL     1      23.119  -7.941   9.650  1.00  0.00     0.208 A 
ATOM      3  C   UNL     1      22.114  -7.760  10.614  1.00  0.00     0.238 A 
ATOM      4  O   UNL     1      21.272  -8.680  10.789  1.00  0.00    -0.285 OA
ATOM      5  C   UNL     1      22.039  -6.545  11.336  1.00  0.00     0.111 A 
ATOM      6  C   UNL     1      21.088  -6.270  12.364  1.00  0.00     0.134 A 
ATOM      7  C   UNL     1      21.023  -4.985  12.918  1.00  0.00     0.093 A 
ATOM      8  C   UNL     1      21.916  -3.987  12.530  1.00  0.00     0.123 A 
ATOM      9  C   UNL     1      22.889  -4.263  11.568  1.00  0.00     0.094 A 
ATOM     10  C   UNL     1      22.955  -5.524  10.971  1.00  0.00     0.146 A 
ATOM     11  O   UNL     1      23.889  -5.742  10.053  1.00  0.00    -0.452 OA
ENDROOT
BRANCH   1  12
ATOM     12  C   UNL     1      25.126  -7.019   8.424  1.00  0.00     0.025 A 
ATOM     13  C   UNL     1      25.172  -8.081   7.508  1.00  0.00     0.016 A 
ATOM     14  C   UNL     1      26.233  -8.190   6.606  1.00  0.00     0.051 A 
ATOM     15  C   UNL     1      27.272  -7.252   6.609  1.00  0.00     0.157 A 
ATOM     16  C   UNL     1      26.178  -6.090   8.444  1.00  0.00     0.062 A 
ATOM     17  C   UNL     1      27.246  -6.190   7.543  1.00  0.00     0.158 A 
BRANCH  15  18
ATOM     18  O   UNL     1      28.301  -7.416   5.679  1.00  0.00    -0.504 OA
ATOM     19  H   UNL     1      29.199  -7.822   5.897  1.00  0.00     0.293 HD
ENDBRANCH  15  18
BRANCH  17  20
ATOM     20  O   UNL     1      28.251  -5.222   7.612  1.00  0.00    -0.504 OA
ATOM     21  H   UNL     1      28.079  -4.242   7.782  1.00  0.00     0.293 HD
ENDBRANCH  17  20
ENDBRANCH   1  12
BRANCH   2  22
ATOM     22  O   UNL     1      23.197  -9.125   8.912  1.00  0.00    -0.502 OA
ATOM     23  H   UNL     1      23.353 -10.027   9.345  1.00  0.00     0.293 HD
ENDBRANCH   2  22
BRANCH   6  24
ATOM     24  O   UNL     1      20.211  -7.221  12.889  1.00  0.00    -0.507 OA
ATOM     25  H   UNL     1      20.309  -8.218  12.776  1.00  0.00     0.293 HD
ENDBRANCH   6  24
BRANCH   8  26
ATOM     26  O   UNL     1      21.833  -2.725  13.114  1.00  0.00    -0.508 OA
ATOM     27  H   UNL     1      21.169  -2.525  13.853  1.00  0.00     0.293 HD
ENDBRANCH   8  26
TORSDOF 6
ENDMDL
MODEL 7
REMARK VINA RESULT:    -4.332      2.928      7.640
REMARK INTER + INTRA:          -5.536
REMARK INTER:                  -5.317
REMARK INTRA:                  -0.219
REMARK UNBOUND:                -0.317
REMARK SMILES O=c1c(O)c(-c2ccc(O)c(O)c2)oc2cc(O)cc(O)c12
REMARK SMILES IDX 5 1 3 2 2 3 1 4 22 5 20 6 19 7 17 8 16 9 15 10 14 11 6 12
REMARK SMILES IDX 7 13 8 14 9 15 13 16 11 17 10 18 12 20 4 22 21 24 18 26
REMARK H PARENT 10 19 12 21 4 23 21 25 18 27
REMARK Flexibility Score: inf
ROOT
ATOM      1  C   UNL     1      20.615  -3.137   9.061  1.00  0.00     0.180 A 
ATOM      2  C   UNL     1      19.967  -3.861   8.045  1.00  0.00     0.208 A 
ATOM      3  C   UNL     1      20.322  -5.203   7.833  1.00  0.00     0.238 A 
ATOM      4  O   UNL     1      19.701  -5.861   6.958  1.00  0.00    -0.285 OA
ATOM      5  C   UNL     1      21.332  -5.798   8.627  1.00  0.00     0.111 A 
ATOM      6  C   UNL     1      21.800  -7.138   8.471  1.00  0.00     0.134 A 
ATOM      7  C   UNL     1      22.709  -7.664   9.398  1.00  0.00     0.093 A 
ATOM      8  C   UNL     1      23.217  -6.880  10.433  1.00  0.00     0.123 A 
ATOM      9  C   UNL     1      22.812  -5.550  10.559  1.00  0.00     0.094 A 
ATOM     10  C   UNL     1      21.878  -5.009   9.672  1.00  0.00     0.146 A 
ATOM     11  O   UNL     1      21.511  -3.743   9.832  1.00  0.00    -0.452 OA
ENDROOT
BRANCH   1  12
ATOM     12  C   UNL     1      20.313  -1.712   9.329  1.00  0.00     0.025 A 
ATOM     13  C   UNL     1      20.643  -0.709   8.404  1.00  0.00     0.016 A 
ATOM     14  C   UNL     1      20.370   0.631   8.688  1.00  0.00     0.051 A 
ATOM     15  C   UNL     1      19.776   0.997   9.902  1.00  0.00     0.157 A 
ATOM     16  C   UNL     1      19.738  -1.345  10.555  1.00  0.00     0.062 A 
ATOM     17  C   UNL     1      19.460  -0.005  10.850  1.00  0.00     0.158 A 
BRANCH  15  18
ATOM     18  O   UNL     1      19.526   2.353  10.123  1.00  0.00    -0.504 OA
ATOM     19  H   UNL     1      19.916   2.880  10.890  1.00  0.00     0.293 HD
ENDBRANCH  15  18
BRANCH  17  20
ATOM     20  O   UNL     1      18.875   0.284  12.085  1.00  0.00    -0.504 OA
ATOM     21  H   UNL     1      18.053  -0.181  12.442  1.00  0.00     0.293 HD
ENDBRANCH  17  20
ENDBRANCH   1  12
BRANCH   2  22
ATOM     22  O   UNL     1      18.959  -3.259   7.288  1.00  0.00    -0.502 OA
ATOM     23  H   UNL     1      18.350  -2.543   7.664  1.00  0.00     0.293 HD
ENDBRANCH   2  22
BRANCH   6  24
ATOM     24  O   UNL     1      21.426  -7.978   7.419  1.00  0.00    -0.507 OA
ATOM     25  H   UNL     1      20.508  -8.379   7.302  1.00  0.00     0.293 HD
ENDBRANCH   6  24
BRANCH   8  26
ATOM     26  O   UNL     1      24.132  -7.430  11.327  1.00  0.00    -0.508 OA
ATOM     27  H   UNL     1      25.057  -7.036  11.449  1.00  0.00     0.293 HD
ENDBRANCH   8  26
TORSDOF 6
ENDMDL
MODEL 8
REMARK VINA RESULT:    -4.261      2.200      3.235
REMARK INTER + INTRA:          -5.451
REMARK INTER:                  -5.130
REMARK INTRA:                  -0.320
REMARK UNBOUND:                -0.317
REMARK SMILES O=c1c(O)c(-c2ccc(O)c(O)c2)oc2cc(O)cc(O)c12
REMARK SMILES IDX 5 1 3 2 2 3 1 4 22 5 20 6 19 7 17 8 16 9 15 10 14 11 6 12
REMARK SMILES IDX 7 13 8 14 9 15 13 16 11 17 10 18 12 20 4 22 21 24 18 26
REMARK H PARENT 10 19 12 21 4 23 21 25 18 27
REMARK Flexibility Score: inf
ROOT
ATOM      1  C   UNL     1      21.486  -4.294   9.594  1.00  0.00     0.180 A 
ATOM      2  C   UNL     1      21.188  -4.137  10.959  1.00  0.00     0.208 A 
ATOM      3  C   UNL     1      20.654  -2.917  11.404  1.00  0.00     0.238 A 
ATOM      4  O   UNL     1      20.339  -2.802  12.617  1.00  0.00    -0.285 OA
ATOM      5  C   UNL     1      20.443  -1.863  10.483  1.00  0.00     0.111 A 
ATOM      6  C   UNL     1      19.946  -0.570  10.831  1.00  0.00     0.134 A 
ATOM      7  C   UNL     1      19.651   0.351   9.819  1.00  0.00     0.093 A 
ATOM      8  C   UNL     1      19.897   0.054   8.479  1.00  0.00     0.123 A 
ATOM      9  C   UNL     1      20.439  -1.185   8.133  1.00  0.00     0.094 A 
ATOM     10  C   UNL     1      20.708  -2.139   9.117  1.00  0.00     0.146 A 
ATOM     11  O   UNL     1      21.214  -3.309   8.744  1.00  0.00    -0.452 OA
ENDROOT
BRANCH   1  12
ATOM     12  C   UNL     1      22.073  -5.541   9.053  1.00  0.00     0.025 A 
ATOM     13  C   UNL     1      21.263  -6.574   8.556  1.00  0.00     0.016 A 
ATOM     14  C   UNL     1      21.838  -7.751   8.073  1.00  0.00     0.051 A 
ATOM     15  C   UNL     1      23.227  -7.926   8.088  1.00  0.00     0.157 A 
ATOM     16  C   UNL     1      23.464  -5.723   9.090  1.00  0.00     0.062 A 
ATOM     17  C   UNL     1      24.051  -6.899   8.607  1.00  0.00     0.158 A 
BRANCH  15  18
ATOM     18  O   UNL     1      23.739  -9.124   7.587  1.00  0.00    -0.504 OA
ATOM     19  H   UNL     1      24.703  -9.257   7.316  1.00  0.00     0.293 HD
ENDBRANCH  15  18
BRANCH  17  20
ATOM     20  O   UNL     1      25.442  -7.005   8.664  1.00  0.00    -0.504 OA
ATOM     21  H   UNL     1      26.032  -6.392   9.207  1.00  0.00     0.293 HD
ENDBRANCH  17  20
ENDBRANCH   1  12
BRANCH   2  22
ATOM     22  O   UNL     1      21.385  -5.198  11.847  1.00  0.00    -0.502 OA
ATOM     23  H   UNL     1      22.113  -5.189  12.551  1.00  0.00     0.293 HD
ENDBRANCH   2  22
BRANCH   6  24
ATOM     24  O   UNL     1      19.751  -0.138  12.145  1.00  0.00    -0.507 OA
ATOM     25  H   UNL     1      19.219   0.677  12.409  1.00  0.00     0.293 HD
ENDBRANCH   6  24
BRANCH   8  26
ATOM     26  O   UNL     1      19.607   1.000   7.500  1.00  0.00    -0.508 OA
ATOM     27  H   UNL     1      19.131   0.748   6.642  1.00  0.00     0.293 HD
ENDBRANCH   8  26
TORSDOF 6
ENDMDL
MODEL 9
REMARK VINA RESULT:    -4.232      4.053      5.214
REMARK INTER + INTRA:          -5.415
REMARK INTER:                  -5.154
REMARK INTRA:                  -0.262
REMARK UNBOUND:                -0.317
REMARK SMILES O=c1c(O)c(-c2ccc(O)c(O)c2)oc2cc(O)cc(O)c12
REMARK SMILES IDX 5 1 3 2 2 3 1 4 22 5 20 6 19 7 17 8 16 9 15 10 14 11 6 12
REMARK SMILES IDX 7 13 8 14 9 15 13 16 11 17 10 18 12 20 4 22 21 24 18 26
REMARK H PARENT 10 19 12 21 4 23 21 25 18 27
REMARK Flexibility Score: inf
ROOT
ATOM      1  C   UNL     1      21.483  -3.590  10.445  1.00  0.00     0.180 A 
ATOM      2  C   UNL     1      21.051  -2.427  11.106  1.00  0.00     0.208 A 
ATOM      3  C   UNL     1      20.442  -1.406  10.359  1.00  0.00     0.238 A 
ATOM      4  O   UNL     1      20.010  -0.391  10.965  1.00  0.00    -0.285 OA
ATOM      5  C   UNL     1      20.288  -1.552   8.960  1.00  0.00     0.111 A 
ATOM      6  C   UNL     1      19.722  -0.564   8.099  1.00  0.00     0.134 A 
ATOM      7  C   UNL     1      19.499  -0.869   6.751  1.00  0.00     0.093 A 
ATOM      8  C   UNL     1      19.880  -2.100   6.218  1.00  0.00     0.123 A 
ATOM      9  C   UNL     1      20.489  -3.052   7.037  1.00  0.00     0.094 A 
ATOM     10  C   UNL     1      20.691  -2.790   8.394  1.00  0.00     0.146 A 
ATOM     11  O   UNL     1      21.264  -3.726   9.142  1.00  0.00    -0.452 OA
ENDROOT
BRANCH   1  12
ATOM     12  C   UNL     1      22.155  -4.699  11.159  1.00  0.00     0.025 A 
ATOM     13  C   UNL     1      23.473  -4.575  11.627  1.00  0.00     0.016 A 
ATOM     14  C   UNL     1      24.094  -5.643  12.277  1.00  0.00     0.051 A 
ATOM     15  C   UNL     1      23.421  -6.857  12.462  1.00  0.00     0.157 A 
ATOM     16  C   UNL     1      21.486  -5.923  11.324  1.00  0.00     0.062 A 
ATOM     17  C   UNL     1      22.101  -6.999  11.976  1.00  0.00     0.158 A 
BRANCH  15  18
ATOM     18  O   UNL     1      24.098  -7.883  13.124  1.00  0.00    -0.504 OA
ATOM     19  H   UNL     1      24.770  -7.732  13.862  1.00  0.00     0.293 HD
ENDBRANCH  15  18
BRANCH  17  20
ATOM     20  O   UNL     1      21.370  -8.181  12.114  1.00  0.00    -0.504 OA
ATOM     21  H   UNL     1      21.032  -8.535  12.997  1.00  0.00     0.293 HD
ENDBRANCH  17  20
ENDBRANCH   1  12
BRANCH   2  22
ATOM     22  O   UNL     1      21.194  -2.313  12.491  1.00  0.00    -0.502 OA
ATOM     23  H   UNL     1      21.653  -1.522  12.927  1.00  0.00     0.293 HD
ENDBRANCH   2  22
BRANCH   6  24
ATOM     24  O   UNL     1      19.391   0.730   8.509  1.00  0.00    -0.507 OA
ATOM     25  H   UNL     1      18.450   1.063   8.655  1.00  0.00     0.293 HD
ENDBRANCH   6  24
BRANCH   8  26
ATOM     26  O   UNL     1      19.657  -2.363   4.869  1.00  0.00    -0.508 OA
ATOM     27  H   UNL     1      18.787  -2.768   4.544  1.00  0.00     0.293 HD
ENDBRANCH   8  26
TORSDOF 6
ENDMDL
