MODEL 1
REMARK VINA RESULT:    -5.496      0.000      0.000
REMARK INTER + INTRA:          -6.424
REMARK INTER:                  -6.460
REMARK INTRA:                   0.036
REMARK UNBOUND:                 0.036
REMARK SMILES O=C([O-])C=Cc1ccc(O)c(O)c1
REMARK SMILES IDX 6 1 13 2 7 3 11 4 8 5 9 6 5 7 4 8 2 9 1 10 3 11 12 12 10 14
REMARK H PARENT 12 13 10 15
REMARK Flexibility Score: inf
ROOT
ATOM      1  C   UNL     1     -14.743 -48.552  -3.062  1.00  0.00    -0.022 A 
ATOM      2  C   UNL     1     -13.879 -48.918  -2.021  1.00  0.00     0.058 A 
ATOM      3  C   UNL     1     -15.500 -47.377  -2.944  1.00  0.00     0.012 A 
ATOM      4  C   UNL     1     -13.805 -48.158  -0.847  1.00  0.00     0.157 A 
ATOM      5  C   UNL     1     -15.435 -46.612  -1.777  1.00  0.00     0.051 A 
ATOM      6  C   UNL     1     -14.598 -46.992  -0.721  1.00  0.00     0.157 A 
ENDROOT
BRANCH   1   7
ATOM      7  C   UNL     1     -14.755 -49.349  -4.307  1.00  0.00     0.010 C 
ATOM      8  C   UNL     1     -13.934 -49.170  -5.354  1.00  0.00     0.025 C 
BRANCH   8   9
ATOM      9  C   UNL     1     -12.997 -48.044  -5.532  1.00  0.00     0.064 C 
ATOM     10  O   UNL     1     -12.940 -47.398  -6.611  1.00  0.00    -0.545 OA
ATOM     11  O   UNL     1     -12.110 -47.734  -4.510  1.00  0.00    -0.545 OA
ENDBRANCH   8   9
ENDBRANCH   1   7
BRANCH   4  12
ATOM     12  O   UNL     1     -12.936 -48.590   0.157  1.00  0.00    -0.504 OA
ATOM     13  H   UNL     1     -12.725 -48.059   0.989  1.00  0.00     0.293 HD
ENDBRANCH   4  12
BRANCH   6  14
ATOM     14  O   UNL     1     -14.583 -46.188   0.421  1.00  0.00    -0.504 OA
ATOM     15  H   UNL     1     -14.592 -45.179   0.400  1.00  0.00     0.293 HD
ENDBRANCH   6  14
TORSDOF 4
ENDMDL
MODEL 2
REMARK VINA RESULT:    -5.341      0.863      1.906
REMARK INTER + INTRA:          -6.242
REMARK INTER:                  -6.290
REMARK INTRA:                   0.048
REMARK UNBOUND:                 0.036
REMARK SMILES O=C([O-])C=Cc1ccc(O)c(O)c1
REMARK SMILES IDX 6 1 13 2 7 3 11 4 8 5 9 6 5 7 4 8 2 9 1 10 3 11 12 12 10 14
REMARK H PARENT 12 13 10 15
REMARK Flexibility Score: inf
ROOT
ATOM      1  C   UNL     1     -14.620 -48.761  -3.140  1.00  0.00    -0.022 A 
ATOM      2  C   UNL     1     -15.386 -47.617  -2.881  1.00  0.00     0.058 A 
ATOM      3  C   UNL     1     -13.965 -49.404  -2.079  1.00  0.00     0.012 A 
ATOM      4  C   UNL     1     -15.461 -47.080  -1.589  1.00  0.00     0.157 A 
ATOM      5  C   UNL     1     -14.033 -48.876  -0.788  1.00  0.00     0.051 A 
ATOM      6  C   UNL     1     -14.770 -47.714  -0.529  1.00  0.00     0.157 A 
ENDROOT
BRANCH   1   7
ATOM      7  C   UNL     1     -14.606 -49.329  -4.505  1.00  0.00     0.010 C 
ATOM      8  C   UNL     1     -13.762 -48.974  -5.487  1.00  0.00     0.025 C 
BRANCH   8   9
ATOM      9  C   UNL     1     -12.820 -47.839  -5.446  1.00  0.00     0.064 C 
ATOM     10  O   UNL     1     -12.651 -47.085  -6.440  1.00  0.00    -0.545 OA
ATOM     11  O   UNL     1     -12.050 -47.640  -4.307  1.00  0.00    -0.545 OA
ENDBRANCH   8   9
ENDBRANCH   1   7
BRANCH   4  12
ATOM     12  O   UNL     1     -16.228 -45.927  -1.405  1.00  0.00    -0.504 OA
ATOM     13  H   UNL     1     -17.198 -45.933  -1.124  1.00  0.00     0.293 HD
ENDBRANCH   4  12
BRANCH   6  14
ATOM     14  O   UNL     1     -14.793 -47.234   0.782  1.00  0.00    -0.504 OA
ATOM     15  H   UNL     1     -15.511 -46.626   1.147  1.00  0.00     0.293 HD
ENDBRANCH   6  14
TORSDOF 4
ENDMDL
MODEL 3
REMARK VINA RESULT:    -5.306      7.282      9.458
REMARK INTER + INTRA:          -6.200
REMARK INTER:                  -5.960
REMARK INTRA:                  -0.240
REMARK UNBOUND:                 0.036
REMARK SMILES O=C([O-])C=Cc1ccc(O)c(O)c1
REMARK SMILES IDX 6 1 13 2 7 3 11 4 8 5 9 6 5 7 4 8 2 9 1 10 3 11 12 12 10 14
REMARK H PARENT 12 13 10 15
REMARK Flexibility Score: inf
ROOT
ATOM      1  C   UNL     1     -13.531 -42.551 -10.005  1.00  0.00    -0.022 A 
ATOM      2  C   UNL     1     -13.196 -41.205  -9.810  1.00  0.00     0.058 A 
ATOM      3  C   UNL     1     -14.875 -42.903 -10.197  1.00  0.00     0.012 A 
ATOM      4  C   UNL     1     -14.189 -40.218  -9.750  1.00  0.00     0.157 A 
ATOM      5  C   UNL     1     -15.873 -41.927 -10.138  1.00  0.00     0.051 A 
ATOM      6  C   UNL     1     -15.546 -40.585  -9.910  1.00  0.00     0.157 A 
ENDROOT
BRANCH   1   7
ATOM      7  C   UNL     1     -12.453 -43.557 -10.114  1.00  0.00     0.010 C 
ATOM      8  C   UNL     1     -11.838 -44.154  -9.082  1.00  0.00     0.025 C 
BRANCH   8   9
ATOM      9  C   UNL     1     -11.994 -43.792  -7.659  1.00  0.00     0.064 C 
ATOM     10  O   UNL     1     -12.793 -44.407  -6.906  1.00  0.00    -0.545 OA
ATOM     11  O   UNL     1     -11.295 -42.702  -7.158  1.00  0.00    -0.545 OA
ENDBRANCH   8   9
ENDBRANCH   1   7
BRANCH   4  12
ATOM     12  O   UNL     1     -13.786 -38.898  -9.535  1.00  0.00    -0.504 OA
ATOM     13  H   UNL     1     -14.363 -38.093  -9.726  1.00  0.00     0.293 HD
ENDBRANCH   4  12
BRANCH   6  14
ATOM     14  O   UNL     1     -16.591 -39.660  -9.857  1.00  0.00    -0.504 OA
ATOM     15  H   UNL     1     -17.500 -39.858  -9.465  1.00  0.00     0.293 HD
ENDBRANCH   6  14
TORSDOF 4
ENDMDL
MODEL 4
REMARK VINA RESULT:    -5.305      1.565      4.879
REMARK INTER + INTRA:          -6.199
REMARK INTER:                  -6.187
REMARK INTRA:                  -0.012
REMARK UNBOUND:                 0.036
REMARK SMILES O=C([O-])C=Cc1ccc(O)c(O)c1
REMARK SMILES IDX 6 1 13 2 7 3 11 4 8 5 9 6 5 7 4 8 2 9 1 10 3 11 12 12 10 14
REMARK H PARENT 12 13 10 15
REMARK Flexibility Score: inf
ROOT
ATOM      1  C   UNL     1     -13.392 -48.504  -3.339  1.00  0.00    -0.022 A 
ATOM      2  C   UNL     1     -14.222 -48.639  -4.460  1.00  0.00     0.058 A 
ATOM      3  C   UNL     1     -12.420 -47.493  -3.323  1.00  0.00     0.012 A 
ATOM      4  C   UNL     1     -14.057 -47.815  -5.580  1.00  0.00     0.157 A 
ATOM      5  C   UNL     1     -12.247 -46.667  -4.436  1.00  0.00     0.051 A 
ATOM      6  C   UNL     1     -13.051 -46.819  -5.571  1.00  0.00     0.157 A 
ENDROOT
BRANCH   1   7
ATOM      7  C   UNL     1     -13.630 -49.356  -2.155  1.00  0.00     0.010 C 
ATOM      8  C   UNL     1     -14.417 -49.040  -1.114  1.00  0.00     0.025 C 
BRANCH   8   9
ATOM      9  C   UNL     1     -15.042 -47.725  -0.874  1.00  0.00     0.064 C 
ATOM     10  O   UNL     1     -14.951 -47.145   0.239  1.00  0.00    -0.545 OA
ATOM     11  O   UNL     1     -15.807 -47.146  -1.879  1.00  0.00    -0.545 OA
ENDBRANCH   8   9
ENDBRANCH   1   7
BRANCH   4  12
ATOM     12  O   UNL     1     -14.908 -48.016  -6.670  1.00  0.00    -0.504 OA
ATOM     13  H   UNL     1     -15.353 -48.896  -6.883  1.00  0.00     0.293 HD
ENDBRANCH   4  12
BRANCH   6  14
ATOM     14  O   UNL     1     -12.823 -45.966  -6.652  1.00  0.00    -0.504 OA
ATOM     15  H   UNL     1     -12.408 -45.049  -6.569  1.00  0.00     0.293 HD
ENDBRANCH   6  14
TORSDOF 4
ENDMDL
MODEL 5
REMARK VINA RESULT:    -5.270      1.326      4.765
REMARK INTER + INTRA:          -6.158
REMARK INTER:                  -6.103
REMARK INTRA:                  -0.055
REMARK UNBOUND:                 0.036
REMARK SMILES O=C([O-])C=Cc1ccc(O)c(O)c1
REMARK SMILES IDX 6 1 13 2 7 3 11 4 8 5 9 6 5 7 4 8 2 9 1 10 3 11 12 12 10 14
REMARK H PARENT 12 13 10 15
REMARK Flexibility Score: inf
ROOT
ATOM      1  C   UNL     1     -13.706 -48.650  -3.247  1.00  0.00    -0.022 A 
ATOM      2  C   UNL     1     -12.765 -47.619  -3.366  1.00  0.00     0.058 A 
ATOM      3  C   UNL     1     -14.288 -49.185  -4.406  1.00  0.00     0.012 A 
ATOM      4  C   UNL     1     -12.442 -47.081  -4.619  1.00  0.00     0.157 A 
ATOM      5  C   UNL     1     -13.974 -48.655  -5.660  1.00  0.00     0.051 A 
ATOM      6  C   UNL     1     -13.060 -47.602  -5.781  1.00  0.00     0.157 A 
ENDROOT
BRANCH   1   7
ATOM      7  C   UNL     1     -13.982 -49.228  -1.915  1.00  0.00     0.010 C 
ATOM      8  C   UNL     1     -14.706 -48.644  -0.948  1.00  0.00     0.025 C 
BRANCH   8   9
ATOM      9  C   UNL     1     -15.206 -47.254  -0.966  1.00  0.00     0.064 C 
ATOM     10  O   UNL     1     -14.894 -46.430  -0.067  1.00  0.00    -0.545 OA
ATOM     11  O   UNL     1     -16.096 -46.869  -1.959  1.00  0.00    -0.545 OA
ENDBRANCH   8   9
ENDBRANCH   1   7
BRANCH   4  12
ATOM     12  O   UNL     1     -11.510 -46.042  -4.663  1.00  0.00    -0.504 OA
ATOM     13  H   UNL     1     -10.729 -46.010  -5.301  1.00  0.00     0.293 HD
ENDBRANCH   4  12
BRANCH   6  14
ATOM     14  O   UNL     1     -12.794 -47.113  -7.062  1.00  0.00    -0.504 OA
ATOM     15  H   UNL     1     -12.197 -47.577  -7.730  1.00  0.00     0.293 HD
ENDBRANCH   6  14
TORSDOF 4
ENDMDL
MODEL 6
REMARK VINA RESULT:    -5.186      4.650      5.362
REMARK INTER + INTRA:          -6.059
REMARK INTER:                  -5.892
REMARK INTRA:                  -0.167
REMARK UNBOUND:                 0.036
REMARK SMILES O=C([O-])C=Cc1ccc(O)c(O)c1
REMARK SMILES IDX 6 1 13 2 7 3 11 4 8 5 9 6 5 7 4 8 2 9 1 10 3 11 12 12 10 14
REMARK H PARENT 12 13 10 15
REMARK Flexibility Score: inf
ROOT
ATOM      1  C   UNL     1      -9.926 -44.842  -3.362  1.00  0.00    -0.022 A 
ATOM      2  C   UNL     1      -9.840 -44.150  -2.147  1.00  0.00     0.058 A 
ATOM      3  C   UNL     1     -11.000 -45.718  -3.579  1.00  0.00     0.012 A 
ATOM      4  C   UNL     1     -10.780 -44.364  -1.130  1.00  0.00     0.157 A 
ATOM      5  C   UNL     1     -11.942 -45.939  -2.572  1.00  0.00     0.051 A 
ATOM      6  C   UNL     1     -11.842 -45.275  -1.344  1.00  0.00     0.157 A 
ENDROOT
BRANCH   1   7
ATOM      7  C   UNL     1      -8.946 -44.552  -4.431  1.00  0.00     0.010 C 
ATOM      8  C   UNL     1      -9.171 -43.775  -5.502  1.00  0.00     0.025 C 
BRANCH   8   9
ATOM      9  C   UNL     1     -10.477 -43.217  -5.904  1.00  0.00     0.064 C 
ATOM     10  O   UNL     1     -10.998 -42.249  -5.290  1.00  0.00    -0.545 OA
ATOM     11  O   UNL     1     -11.180 -43.819  -6.939  1.00  0.00    -0.545 OA
ENDBRANCH   8   9
ENDBRANCH   1   7
BRANCH   4  12
ATOM     12  O   UNL     1     -10.625 -43.655   0.063  1.00  0.00    -0.504 OA
ATOM     13  H   UNL     1      -9.832 -43.065   0.270  1.00  0.00     0.293 HD
ENDBRANCH   4  12
BRANCH   6  14
ATOM     14  O   UNL     1     -12.812 -45.545  -0.376  1.00  0.00    -0.504 OA
ATOM     15  H   UNL     1     -12.618 -45.991   0.508  1.00  0.00     0.293 HD
ENDBRANCH   6  14
TORSDOF 4
ENDMDL
MODEL 7
REMARK VINA RESULT:    -5.105      2.877      4.013
REMARK INTER + INTRA:          -5.964
REMARK INTER:                  -5.698
REMARK INTRA:                  -0.266
REMARK UNBOUND:                 0.036
REMARK SMILES O=C([O-])C=Cc1ccc(O)c(O)c1
REMARK SMILES IDX 6 1 13 2 7 3 11 4 8 5 9 6 5 7 4 8 2 9 1 10 3 11 12 12 10 14
REMARK H PARENT 12 13 10 15
REMARK Flexibility Score: inf
ROOT
ATOM      1  C   UNL     1     -13.579 -45.918  -2.456  1.00  0.00    -0.022 A 
ATOM      2  C   UNL     1     -13.084 -45.589  -1.187  1.00  0.00     0.058 A 
ATOM      3  C   UNL     1     -12.700 -45.946  -3.549  1.00  0.00     0.012 A 
ATOM      4  C   UNL     1     -11.740 -45.236  -1.008  1.00  0.00     0.157 A 
ATOM      5  C   UNL     1     -11.358 -45.594  -3.382  1.00  0.00     0.051 A 
ATOM      6  C   UNL     1     -10.867 -45.233  -2.122  1.00  0.00     0.157 A 
ENDROOT
BRANCH   1   7
ATOM      7  C   UNL     1     -14.989 -46.336  -2.598  1.00  0.00     0.010 C 
ATOM      8  C   UNL     1     -15.435 -47.601  -2.544  1.00  0.00     0.025 C 
BRANCH   8   9
ATOM      9  C   UNL     1     -14.592 -48.812  -2.514  1.00  0.00     0.064 C 
ATOM     10  O   UNL     1     -14.262 -49.360  -1.429  1.00  0.00    -0.545 OA
ATOM     11  O   UNL     1     -14.094 -49.319  -3.707  1.00  0.00    -0.545 OA
ENDBRANCH   8   9
ENDBRANCH   1   7
BRANCH   4  12
ATOM     12  O   UNL     1     -11.319 -44.903   0.281  1.00  0.00    -0.504 OA
ATOM     13  H   UNL     1     -11.426 -45.504   1.084  1.00  0.00     0.293 HD
ENDBRANCH   4  12
BRANCH   6  14
ATOM     14  O   UNL     1      -9.518 -44.886  -2.023  1.00  0.00    -0.504 OA
ATOM     15  H   UNL     1      -9.178 -43.936  -2.029  1.00  0.00     0.293 HD
ENDBRANCH   6  14
TORSDOF 4
ENDMDL
MODEL 8
REMARK VINA RESULT:    -5.062      2.835      4.314
REMARK INTER + INTRA:          -5.914
REMARK INTER:                  -5.644
REMARK INTRA:                  -0.270
REMARK UNBOUND:                 0.036
REMARK SMILES O=C([O-])C=Cc1ccc(O)c(O)c1
REMARK SMILES IDX 6 1 13 2 7 3 11 4 8 5 9 6 5 7 4 8 2 9 1 10 3 11 12 12 10 14
REMARK H PARENT 12 13 10 15
REMARK Flexibility Score: inf
ROOT
ATOM      1  C   UNL     1     -15.161 -46.410  -2.852  1.00  0.00    -0.022 A 
ATOM      2  C   UNL     1     -14.128 -45.774  -2.151  1.00  0.00     0.058 A 
ATOM      3  C   UNL     1     -15.480 -47.741  -2.546  1.00  0.00     0.012 A 
ATOM      4  C   UNL     1     -13.378 -46.465  -1.191  1.00  0.00     0.157 A 
ATOM      5  C   UNL     1     -14.738 -48.440  -1.592  1.00  0.00     0.051 A 
ATOM      6  C   UNL     1     -13.684 -47.819  -0.912  1.00  0.00     0.157 A 
ENDROOT
BRANCH   1   7
ATOM      7  C   UNL     1     -15.964 -45.633  -3.820  1.00  0.00     0.010 C 
ATOM      8  C   UNL     1     -16.982 -44.816  -3.508  1.00  0.00     0.025 C 
BRANCH   8   9
ATOM      9  C   UNL     1     -17.601 -44.680  -2.175  1.00  0.00     0.064 C 
ATOM     10  O   UNL     1     -18.637 -45.321  -1.860  1.00  0.00    -0.545 OA
ATOM     11  O   UNL     1     -17.067 -43.771  -1.271  1.00  0.00    -0.545 OA
ENDBRANCH   8   9
ENDBRANCH   1   7
BRANCH   4  12
ATOM     12  O   UNL     1     -12.352 -45.775  -0.543  1.00  0.00    -0.504 OA
ATOM     13  H   UNL     1     -12.485 -45.208   0.281  1.00  0.00     0.293 HD
ENDBRANCH   4  12
BRANCH   6  14
ATOM     14  O   UNL     1     -12.977 -48.575   0.026  1.00  0.00    -0.504 OA
ATOM     15  H   UNL     1     -11.992 -48.462   0.215  1.00  0.00     0.293 HD
ENDBRANCH   6  14
TORSDOF 4
ENDMDL
MODEL 9
REMARK VINA RESULT:    -5.036      2.964      4.100
REMARK INTER + INTRA:          -5.883
REMARK INTER:                  -5.645
REMARK INTRA:                  -0.239
REMARK UNBOUND:                 0.036
REMARK SMILES O=C([O-])C=Cc1ccc(O)c(O)c1
REMARK SMILES IDX 6 1 13 2 7 3 11 4 8 5 9 6 5 7 4 8 2 9 1 10 3 11 12 12 10 14
REMARK H PARENT 12 13 10 15
REMARK Flexibility Score: inf
ROOT
ATOM      1  C   UNL     1     -14.417 -45.913  -3.499  1.00  0.00    -0.022 A 
ATOM      2  C   UNL     1     -14.880 -45.205  -4.616  1.00  0.00     0.058 A 
ATOM      3  C   UNL     1     -15.324 -46.276  -2.492  1.00  0.00     0.012 A 
ATOM      4  C   UNL     1     -16.221 -44.812  -4.713  1.00  0.00     0.157 A 
ATOM      5  C   UNL     1     -16.663 -45.888  -2.578  1.00  0.00     0.051 A 
ATOM      6  C   UNL     1     -17.123 -45.152  -3.677  1.00  0.00     0.157 A 
ENDROOT
BRANCH   1   7
ATOM      7  C   UNL     1     -13.007 -46.356  -3.456  1.00  0.00     0.010 C 
ATOM      8  C   UNL     1     -12.536 -47.502  -3.973  1.00  0.00     0.025 C 
BRANCH   8   9
ATOM      9  C   UNL     1     -13.355 -48.604  -4.516  1.00  0.00     0.064 C 
ATOM     10  O   UNL     1     -13.402 -48.844  -5.751  1.00  0.00    -0.545 OA
ATOM     11  O   UNL     1     -14.145 -49.348  -3.651  1.00  0.00    -0.545 OA
ENDBRANCH   8   9
ENDBRANCH   1   7
BRANCH   4  12
ATOM     12  O   UNL     1     -16.610 -44.094  -5.845  1.00  0.00    -0.504 OA
ATOM     13  H   UNL     1     -16.197 -44.211  -6.758  1.00  0.00     0.293 HD
ENDBRANCH   4  12
BRANCH   6  14
ATOM     14  O   UNL     1     -18.472 -44.790  -3.700  1.00  0.00    -0.504 OA
ATOM     15  H   UNL     1     -19.209 -45.333  -3.275  1.00  0.00     0.293 HD
ENDBRANCH   6  14
TORSDOF 4
ENDMDL
