MODEL 1
REMARK VINA RESULT:    -5.415      0.000      0.000
REMARK INTER + INTRA:         -11.378
REMARK INTER:                 -10.481
REMARK INTRA:                  -0.897
REMARK UNBOUND:                -0.897
REMARK SMILES CCCCCCCCCCCCCCCCCC(=O)[O-]
REMARK SMILES IDX 10 1 11 2 12 3 13 4 14 5 15 6 16 7 17 8 18 9 19 10 20 11
REMARK SMILES IDX 9 12 8 13 7 14 6 15 5 16 4 17 3 18 2 19 1 20
REMARK H PARENT
REMARK Flexibility Score: inf
ROOT
ATOM      1  C   UNL     1      -7.755  26.776 -27.017  1.00  0.00     0.000 C 
ENDROOT
BRANCH   1   2
ATOM      2  C   UNL     1      -8.761  27.651 -26.254  1.00  0.00     0.000 C 
BRANCH   2   3
ATOM      3  C   UNL     1      -8.418  27.790 -24.762  1.00  0.00     0.000 C 
BRANCH   3   4
ATOM      4  C   UNL     1      -6.968  28.250 -24.528  1.00  0.00     0.000 C 
BRANCH   4   5
ATOM      5  C   UNL     1      -6.711  28.655 -23.066  1.00  0.00     0.000 C 
BRANCH   5   6
ATOM      6  C   UNL     1      -5.304  29.242 -22.859  1.00  0.00     0.000 C 
BRANCH   6   7
ATOM      7  C   UNL     1      -5.072  29.726 -21.419  1.00  0.00     0.006 C 
BRANCH   7   8
ATOM      8  C   UNL     1      -6.085  29.143 -20.426  1.00  0.00     0.053 C 
BRANCH   8   9
ATOM      9  C   UNL     1      -6.529  30.192 -19.456  1.00  0.00     0.041 C 
ATOM     10  O   UNL     1      -6.541  29.949 -18.220  1.00  0.00    -0.550 OA
ATOM     11  O   UNL     1      -6.886  31.454 -19.913  1.00  0.00    -0.550 OA
ENDBRANCH   8   9
ENDBRANCH   7   8
ENDBRANCH   6   7
ENDBRANCH   5   6
ENDBRANCH   4   5
ENDBRANCH   3   4
ENDBRANCH   2   3
ENDBRANCH   1   2
BRANCH   1  12
ATOM     12  C   UNL     1      -8.476  25.802 -27.958  1.00  0.00     0.000 C 
BRANCH  12  13
ATOM     13  C   UNL     1      -9.705  25.186 -27.274  1.00  0.00    -0.000 C 
BRANCH  13  14
ATOM     14  C   UNL     1      -9.374  23.886 -26.523  1.00  0.00    -0.000 C 
BRANCH  14  15
ATOM     15  C   UNL     1     -10.622  23.226 -25.913  1.00  0.00    -0.000 C 
BRANCH  15  16
ATOM     16  C   UNL     1     -10.287  22.282 -24.745  1.00  0.00    -0.000 C 
BRANCH  16  17
ATOM     17  C   UNL     1      -9.274  22.875 -23.742  1.00  0.00    -0.000 C 
BRANCH  17  18
ATOM     18  C   UNL     1      -9.942  23.270 -22.414  1.00  0.00    -0.000 C 
BRANCH  18  19
ATOM     19  C   UNL     1      -9.293  22.583 -21.202  1.00  0.00    -0.003 C 
ATOM     20  C   UNL     1     -10.208  22.566 -19.977  1.00  0.00     0.004 C 
ENDBRANCH  18  19
ENDBRANCH  17  18
ENDBRANCH  16  17
ENDBRANCH  15  16
ENDBRANCH  14  15
ENDBRANCH  13  14
ENDBRANCH  12  13
ENDBRANCH   1  12
TORSDOF 16
ENDMDL
MODEL 2
REMARK VINA RESULT:    -5.246      1.803      2.071
REMARK INTER + INTRA:         -11.050
REMARK INTER:                 -10.077
REMARK INTRA:                  -0.973
REMARK UNBOUND:                -0.897
REMARK SMILES CCCCCCCCCCCCCCCCCC(=O)[O-]
REMARK SMILES IDX 10 1 11 2 12 3 13 4 14 5 15 6 16 7 17 8 18 9 19 10 20 11
REMARK SMILES IDX 9 12 8 13 7 14 6 15 5 16 4 17 3 18 2 19 1 20
REMARK H PARENT
REMARK Flexibility Score: inf
ROOT
ATOM      1  C   UNL     1      -7.590  27.398 -26.792  1.00  0.00     0.000 C 
ENDROOT
BRANCH   1   2
ATOM      2  C   UNL     1      -8.721  27.736 -25.809  1.00  0.00     0.000 C 
BRANCH   2   3
ATOM      3  C   UNL     1      -8.259  27.719 -24.342  1.00  0.00     0.000 C 
BRANCH   3   4
ATOM      4  C   UNL     1      -6.909  28.429 -24.138  1.00  0.00     0.000 C 
BRANCH   4   5
ATOM      5  C   UNL     1      -6.764  29.015 -22.723  1.00  0.00     0.000 C 
BRANCH   5   6
ATOM      6  C   UNL     1      -5.518  28.485 -21.993  1.00  0.00     0.000 C 
BRANCH   6   7
ATOM      7  C   UNL     1      -5.864  27.756 -20.684  1.00  0.00     0.006 C 
BRANCH   7   8
ATOM      8  C   UNL     1      -5.031  28.248 -19.494  1.00  0.00     0.053 C 
BRANCH   8   9
ATOM      9  C   UNL     1      -3.620  27.763 -19.609  1.00  0.00     0.041 C 
ATOM     10  O   UNL     1      -2.661  28.527 -19.323  1.00  0.00    -0.550 OA
ATOM     11  O   UNL     1      -3.365  26.451 -19.990  1.00  0.00    -0.550 OA
ENDBRANCH   8   9
ENDBRANCH   7   8
ENDBRANCH   6   7
ENDBRANCH   5   6
ENDBRANCH   4   5
ENDBRANCH   3   4
ENDBRANCH   2   3
ENDBRANCH   1   2
BRANCH   1  12
ATOM     12  C   UNL     1      -7.998  26.249 -27.724  1.00  0.00     0.000 C 
BRANCH  12  13
ATOM     13  C   UNL     1      -9.270  25.554 -27.215  1.00  0.00    -0.000 C 
BRANCH  13  14
ATOM     14  C   UNL     1      -9.010  24.111 -26.753  1.00  0.00    -0.000 C 
BRANCH  14  15
ATOM     15  C   UNL     1     -10.075  23.610 -25.763  1.00  0.00    -0.000 C 
BRANCH  15  16
ATOM     16  C   UNL     1      -9.504  22.645 -24.710  1.00  0.00    -0.000 C 
BRANCH  16  17
ATOM     17  C   UNL     1     -10.016  22.918 -23.279  1.00  0.00    -0.000 C 
BRANCH  17  18
ATOM     18  C   UNL     1      -8.868  22.987 -22.258  1.00  0.00    -0.000 C 
BRANCH  18  19
ATOM     19  C   UNL     1      -9.298  22.527 -20.856  1.00  0.00    -0.003 C 
ATOM     20  C   UNL     1     -10.532  23.272 -20.347  1.00  0.00     0.004 C 
ENDBRANCH  18  19
ENDBRANCH  17  18
ENDBRANCH  16  17
ENDBRANCH  15  16
ENDBRANCH  14  15
ENDBRANCH  13  14
ENDBRANCH  12  13
ENDBRANCH   1  12
TORSDOF 16
ENDMDL
MODEL 3
REMARK VINA RESULT:    -5.146      1.749      3.528
REMARK INTER + INTRA:         -10.856
REMARK INTER:                  -9.625
REMARK INTRA:                  -1.231
REMARK UNBOUND:                -0.897
REMARK SMILES CCCCCCCCCCCCCCCCCC(=O)[O-]
REMARK SMILES IDX 10 1 11 2 12 3 13 4 14 5 15 6 16 7 17 8 18 9 19 10 20 11
REMARK SMILES IDX 9 12 8 13 7 14 6 15 5 16 4 17 3 18 2 19 1 20
REMARK H PARENT
REMARK Flexibility Score: inf
ROOT
ATOM      1  C   UNL     1      -6.979  28.281 -24.485  1.00  0.00     0.000 C 
ENDROOT
BRANCH   1   2
ATOM      2  C   UNL     1      -6.721  28.643 -23.014  1.00  0.00     0.000 C 
BRANCH   2   3
ATOM      3  C   UNL     1      -5.246  28.978 -22.734  1.00  0.00     0.000 C 
BRANCH   3   4
ATOM      4  C   UNL     1      -4.907  28.948 -21.233  1.00  0.00     0.000 C 
BRANCH   4   5
ATOM      5  C   UNL     1      -5.935  28.147 -20.416  1.00  0.00     0.000 C 
BRANCH   5   6
ATOM      6  C   UNL     1      -6.398  28.899 -19.156  1.00  0.00     0.000 C 
BRANCH   6   7
ATOM      7  C   UNL     1      -5.824  30.323 -19.072  1.00  0.00     0.006 C 
BRANCH   7   8
ATOM      8  C   UNL     1      -6.840  31.396 -19.483  1.00  0.00     0.053 C 
BRANCH   8   9
ATOM      9  C   UNL     1      -6.192  32.745 -19.509  1.00  0.00     0.041 C 
ATOM     10  O   UNL     1      -6.833  33.764 -19.139  1.00  0.00    -0.550 OA
ATOM     11  O   UNL     1      -4.864  32.870 -19.899  1.00  0.00    -0.550 OA
ENDBRANCH   8   9
ENDBRANCH   7   8
ENDBRANCH   6   7
ENDBRANCH   5   6
ENDBRANCH   4   5
ENDBRANCH   3   4
ENDBRANCH   2   3
ENDBRANCH   1   2
BRANCH   1  12
ATOM     12  C   UNL     1      -8.414  27.777 -24.682  1.00  0.00     0.000 C 
BRANCH  12  13
ATOM     13  C   UNL     1      -8.787  27.751 -26.172  1.00  0.00    -0.000 C 
BRANCH  13  14
ATOM     14  C   UNL     1      -7.636  27.256 -27.062  1.00  0.00    -0.000 C 
BRANCH  14  15
ATOM     15  C   UNL     1      -7.969  25.934 -27.773  1.00  0.00    -0.000 C 
BRANCH  15  16
ATOM     16  C   UNL     1      -9.365  25.398 -27.414  1.00  0.00    -0.000 C 
BRANCH  16  17
ATOM     17  C   UNL     1      -9.336  24.052 -26.657  1.00  0.00    -0.000 C 
BRANCH  17  18
ATOM     18  C   UNL     1      -9.539  24.237 -25.144  1.00  0.00    -0.000 C 
BRANCH  18  19
ATOM     19  C   UNL     1      -9.645  22.898 -24.397  1.00  0.00    -0.003 C 
ATOM     20  C   UNL     1     -10.631  21.934 -25.058  1.00  0.00     0.004 C 
ENDBRANCH  18  19
ENDBRANCH  17  18
ENDBRANCH  16  17
ENDBRANCH  15  16
ENDBRANCH  14  15
ENDBRANCH  13  14
ENDBRANCH  12  13
ENDBRANCH   1  12
TORSDOF 16
ENDMDL
MODEL 4
REMARK VINA RESULT:    -5.139      2.768      6.884
REMARK INTER + INTRA:         -10.843
REMARK INTER:                  -9.892
REMARK INTRA:                  -0.952
REMARK UNBOUND:                -0.897
REMARK SMILES CCCCCCCCCCCCCCCCCC(=O)[O-]
REMARK SMILES IDX 10 1 11 2 12 3 13 4 14 5 15 6 16 7 17 8 18 9 19 10 20 11
REMARK SMILES IDX 9 12 8 13 7 14 6 15 5 16 4 17 3 18 2 19 1 20
REMARK H PARENT
REMARK Flexibility Score: inf
ROOT
ATOM      1  C   UNL     1      -7.733  26.999 -27.235  1.00  0.00     0.000 C 
ENDROOT
BRANCH   1   2
ATOM      2  C   UNL     1      -9.125  26.418 -26.948  1.00  0.00     0.000 C 
BRANCH   2   3
ATOM      3  C   UNL     1      -9.295  24.987 -27.484  1.00  0.00     0.000 C 
BRANCH   3   4
ATOM      4  C   UNL     1      -9.172  23.922 -26.380  1.00  0.00     0.000 C 
BRANCH   4   5
ATOM      5  C   UNL     1     -10.541  23.489 -25.828  1.00  0.00     0.000 C 
BRANCH   5   6
ATOM      6  C   UNL     1     -10.426  22.354 -24.796  1.00  0.00     0.000 C 
BRANCH   6   7
ATOM      7  C   UNL     1      -9.396  22.656 -23.696  1.00  0.00     0.006 C 
BRANCH   7   8
ATOM      8  C   UNL     1     -10.008  23.391 -22.497  1.00  0.00     0.053 C 
BRANCH   8   9
ATOM      9  C   UNL     1      -9.501  22.810 -21.215  1.00  0.00     0.041 C 
ATOM     10  O   UNL     1      -8.358  23.117 -20.787  1.00  0.00    -0.550 OA
ATOM     11  O   UNL     1     -10.311  21.962 -20.468  1.00  0.00    -0.550 OA
ENDBRANCH   8   9
ENDBRANCH   7   8
ENDBRANCH   6   7
ENDBRANCH   5   6
ENDBRANCH   4   5
ENDBRANCH   3   4
ENDBRANCH   2   3
ENDBRANCH   1   2
BRANCH   1  12
ATOM     12  C   UNL     1      -7.210  27.793 -26.031  1.00  0.00     0.000 C 
BRANCH  12  13
ATOM     13  C   UNL     1      -8.147  27.641 -24.824  1.00  0.00    -0.000 C 
BRANCH  13  14
ATOM     14  C   UNL     1      -7.806  28.614 -23.684  1.00  0.00    -0.000 C 
BRANCH  14  15
ATOM     15  C   UNL     1      -6.305  28.628 -23.351  1.00  0.00    -0.000 C 
BRANCH  15  16
ATOM     16  C   UNL     1      -6.018  29.065 -21.905  1.00  0.00    -0.000 C 
BRANCH  16  17
ATOM     17  C   UNL     1      -5.862  27.886 -20.921  1.00  0.00    -0.000 C 
BRANCH  17  18
ATOM     18  C   UNL     1      -6.203  28.290 -19.477  1.00  0.00    -0.000 C 
BRANCH  18  19
ATOM     19  C   UNL     1      -5.592  29.644 -19.085  1.00  0.00    -0.003 C 
ATOM     20  C   UNL     1      -6.647  30.738 -18.918  1.00  0.00     0.004 C 
ENDBRANCH  18  19
ENDBRANCH  17  18
ENDBRANCH  16  17
ENDBRANCH  15  16
ENDBRANCH  14  15
ENDBRANCH  13  14
ENDBRANCH  12  13
ENDBRANCH   1  12
TORSDOF 16
ENDMDL
MODEL 5
REMARK VINA RESULT:    -5.030      1.888      3.588
REMARK INTER + INTRA:         -10.631
REMARK INTER:                 -10.001
REMARK INTRA:                  -0.631
REMARK UNBOUND:                -0.897
REMARK SMILES CCCCCCCCCCCCCCCCCC(=O)[O-]
REMARK SMILES IDX 10 1 11 2 12 3 13 4 14 5 15 6 16 7 17 8 18 9 19 10 20 11
REMARK SMILES IDX 9 12 8 13 7 14 6 15 5 16 4 17 3 18 2 19 1 20
REMARK H PARENT
REMARK Flexibility Score: inf
ROOT
ATOM      1  C   UNL     1      -6.963  28.127 -24.961  1.00  0.00     0.000 C 
ENDROOT
BRANCH   1   2
ATOM      2  C   UNL     1      -7.193  28.368 -23.462  1.00  0.00     0.000 C 
BRANCH   2   3
ATOM      3  C   UNL     1      -5.971  28.987 -22.764  1.00  0.00     0.000 C 
BRANCH   3   4
ATOM      4  C   UNL     1      -6.222  29.273 -21.273  1.00  0.00     0.000 C 
BRANCH   4   5
ATOM      5  C   UNL     1      -5.985  28.035 -20.391  1.00  0.00     0.000 C 
BRANCH   5   6
ATOM      6  C   UNL     1      -5.367  28.394 -19.029  1.00  0.00     0.000 C 
BRANCH   6   7
ATOM      7  C   UNL     1      -3.856  28.115 -18.973  1.00  0.00     0.006 C 
BRANCH   7   8
ATOM      8  C   UNL     1      -3.098  28.720 -20.161  1.00  0.00     0.053 C 
BRANCH   8   9
ATOM      9  C   UNL     1      -2.728  30.141 -19.875  1.00  0.00     0.041 C 
ATOM     10  O   UNL     1      -3.616  31.034 -19.845  1.00  0.00    -0.550 OA
ATOM     11  O   UNL     1      -1.408  30.473 -19.597  1.00  0.00    -0.550 OA
ENDBRANCH   8   9
ENDBRANCH   7   8
ENDBRANCH   6   7
ENDBRANCH   5   6
ENDBRANCH   4   5
ENDBRANCH   3   4
ENDBRANCH   2   3
ENDBRANCH   1   2
BRANCH   1  12
ATOM     12  C   UNL     1      -8.269  27.728 -25.661  1.00  0.00     0.000 C 
BRANCH  12  13
ATOM     13  C   UNL     1      -8.081  27.669 -27.184  1.00  0.00    -0.000 C 
BRANCH  13  14
ATOM     14  C   UNL     1      -7.345  26.399 -27.640  1.00  0.00    -0.000 C 
BRANCH  14  15
ATOM     15  C   UNL     1      -8.281  25.392 -28.329  1.00  0.00    -0.000 C 
BRANCH  15  16
ATOM     16  C   UNL     1      -9.565  25.126 -27.525  1.00  0.00    -0.000 C 
BRANCH  16  17
ATOM     17  C   UNL     1      -9.371  24.130 -26.361  1.00  0.00    -0.000 C 
BRANCH  17  18
ATOM     18  C   UNL     1     -10.659  23.349 -26.049  1.00  0.00    -0.000 C 
BRANCH  18  19
ATOM     19  C   UNL     1     -10.542  22.511 -24.766  1.00  0.00    -0.003 C 
ATOM     20  C   UNL     1      -9.225  22.747 -24.028  1.00  0.00     0.004 C 
ENDBRANCH  18  19
ENDBRANCH  17  18
ENDBRANCH  16  17
ENDBRANCH  15  16
ENDBRANCH  14  15
ENDBRANCH  13  14
ENDBRANCH  12  13
ENDBRANCH   1  12
TORSDOF 16
ENDMDL
MODEL 6
REMARK VINA RESULT:    -5.008      5.899      8.098
REMARK INTER + INTRA:         -10.589
REMARK INTER:                  -8.456
REMARK INTRA:                  -2.132
REMARK UNBOUND:                -0.897
REMARK SMILES CCCCCCCCCCCCCCCCCC(=O)[O-]
REMARK SMILES IDX 10 1 11 2 12 3 13 4 14 5 15 6 16 7 17 8 18 9 19 10 20 11
REMARK SMILES IDX 9 12 8 13 7 14 6 15 5 16 4 17 3 18 2 19 1 20
REMARK H PARENT
REMARK Flexibility Score: inf
ROOT
ATOM      1  C   UNL     1      -6.999  31.870 -19.696  1.00  0.00     0.000 C 
ENDROOT
BRANCH   1   2
ATOM      2  C   UNL     1      -6.379  33.261 -19.495  1.00  0.00     0.000 C 
BRANCH   2   3
ATOM      3  C   UNL     1      -5.415  33.652 -20.627  1.00  0.00     0.000 C 
BRANCH   3   4
ATOM      4  C   UNL     1      -3.961  33.796 -20.144  1.00  0.00     0.000 C 
BRANCH   4   5
ATOM      5  C   UNL     1      -3.206  32.456 -20.149  1.00  0.00     0.000 C 
BRANCH   5   6
ATOM      6  C   UNL     1      -2.439  32.219 -21.462  1.00  0.00     0.000 C 
BRANCH   6   7
ATOM      7  C   UNL     1      -1.508  33.388 -21.822  1.00  0.00     0.006 C 
BRANCH   7   8
ATOM      8  C   UNL     1      -0.441  33.647 -20.751  1.00  0.00     0.053 C 
BRANCH   8   9
ATOM      9  C   UNL     1       0.474  32.470 -20.631  1.00  0.00     0.041 C 
ATOM     10  O   UNL     1       1.261  32.178 -21.570  1.00  0.00    -0.550 OA
ATOM     11  O   UNL     1       0.490  31.720 -19.461  1.00  0.00    -0.550 OA
ENDBRANCH   8   9
ENDBRANCH   7   8
ENDBRANCH   6   7
ENDBRANCH   5   6
ENDBRANCH   4   5
ENDBRANCH   3   4
ENDBRANCH   2   3
ENDBRANCH   1   2
BRANCH   1  12
ATOM     12  C   UNL     1      -6.668  30.946 -18.517  1.00  0.00     0.000 C 
BRANCH  12  13
ATOM     13  C   UNL     1      -6.061  29.624 -19.008  1.00  0.00    -0.000 C 
BRANCH  13  14
ATOM     14  C   UNL     1      -5.983  29.542 -20.541  1.00  0.00    -0.000 C 
BRANCH  14  15
ATOM     15  C   UNL     1      -5.973  28.093 -21.053  1.00  0.00    -0.000 C 
BRANCH  15  16
ATOM     16  C   UNL     1      -5.895  27.059 -19.917  1.00  0.00    -0.000 C 
BRANCH  16  17
ATOM     17  C   UNL     1      -4.738  26.050 -20.078  1.00  0.00    -0.000 C 
BRANCH  17  18
ATOM     18  C   UNL     1      -3.375  26.751 -20.209  1.00  0.00    -0.000 C 
BRANCH  18  19
ATOM     19  C   UNL     1      -3.043  27.626 -18.990  1.00  0.00    -0.003 C 
ATOM     20  C   UNL     1      -2.443  28.976 -19.383  1.00  0.00     0.004 C 
ENDBRANCH  18  19
ENDBRANCH  17  18
ENDBRANCH  16  17
ENDBRANCH  15  16
ENDBRANCH  14  15
ENDBRANCH  13  14
ENDBRANCH  12  13
ENDBRANCH   1  12
TORSDOF 16
ENDMDL
MODEL 7
REMARK VINA RESULT:    -4.989      6.565      8.714
REMARK INTER + INTRA:         -10.553
REMARK INTER:                  -8.539
REMARK INTRA:                  -2.014
REMARK UNBOUND:                -0.897
REMARK SMILES CCCCCCCCCCCCCCCCCC(=O)[O-]
REMARK SMILES IDX 10 1 11 2 12 3 13 4 14 5 15 6 16 7 17 8 18 9 19 10 20 11
REMARK SMILES IDX 9 12 8 13 7 14 6 15 5 16 4 17 3 18 2 19 1 20
REMARK H PARENT
REMARK Flexibility Score: inf
ROOT
ATOM      1  C   UNL     1      -5.196  32.702 -20.425  1.00  0.00     0.000 C 
ENDROOT
BRANCH   1   2
ATOM      2  C   UNL     1      -4.287  31.769 -21.239  1.00  0.00     0.000 C 
BRANCH   2   3
ATOM      3  C   UNL     1      -2.812  32.204 -21.216  1.00  0.00     0.000 C 
BRANCH   3   4
ATOM      4  C   UNL     1      -2.516  33.233 -20.110  1.00  0.00     0.000 C 
BRANCH   4   5
ATOM      5  C   UNL     1      -1.214  32.920 -19.353  1.00  0.00     0.000 C 
BRANCH   5   6
ATOM      6  C   UNL     1      -0.351  31.872 -20.077  1.00  0.00     0.000 C 
BRANCH   6   7
ATOM      7  C   UNL     1       0.734  32.507 -20.962  1.00  0.00     0.006 C 
BRANCH   7   8
ATOM      8  C   UNL     1       2.143  32.001 -20.626  1.00  0.00     0.053 C 
BRANCH   8   9
ATOM      9  C   UNL     1       2.624  32.611 -19.347  1.00  0.00     0.041 C 
ATOM     10  O   UNL     1       2.966  33.822 -19.310  1.00  0.00    -0.550 OA
ATOM     11  O   UNL     1       2.652  31.851 -18.183  1.00  0.00    -0.550 OA
ENDBRANCH   8   9
ENDBRANCH   7   8
ENDBRANCH   6   7
ENDBRANCH   5   6
ENDBRANCH   4   5
ENDBRANCH   3   4
ENDBRANCH   2   3
ENDBRANCH   1   2
BRANCH   1  12
ATOM     12  C   UNL     1      -6.439  31.957 -19.923  1.00  0.00     0.000 C 
BRANCH  12  13
ATOM     13  C   UNL     1      -6.259  30.437 -20.053  1.00  0.00    -0.000 C 
BRANCH  13  14
ATOM     14  C   UNL     1      -6.430  29.704 -18.712  1.00  0.00    -0.000 C 
BRANCH  14  15
ATOM     15  C   UNL     1      -6.477  28.177 -18.879  1.00  0.00    -0.000 C 
BRANCH  15  16
ATOM     16  C   UNL     1      -5.870  27.702 -20.210  1.00  0.00    -0.000 C 
BRANCH  16  17
ATOM     17  C   UNL     1      -5.001  26.433 -20.076  1.00  0.00    -0.000 C 
BRANCH  17  18
ATOM     18  C   UNL     1      -3.499  26.749 -20.164  1.00  0.00    -0.000 C 
BRANCH  18  19
ATOM     19  C   UNL     1      -3.227  28.218 -20.526  1.00  0.00    -0.003 C 
ATOM     20  C   UNL     1      -2.546  28.985 -19.394  1.00  0.00     0.004 C 
ENDBRANCH  18  19
ENDBRANCH  17  18
ENDBRANCH  16  17
ENDBRANCH  15  16
ENDBRANCH  14  15
ENDBRANCH  13  14
ENDBRANCH  12  13
ENDBRANCH   1  12
TORSDOF 16
ENDMDL
MODEL 8
REMARK VINA RESULT:    -4.945      3.689      6.719
REMARK INTER + INTRA:         -10.468
REMARK INTER:                  -8.741
REMARK INTRA:                  -1.727
REMARK UNBOUND:                -0.897
REMARK SMILES CCCCCCCCCCCCCCCCCC(=O)[O-]
REMARK SMILES IDX 10 1 11 2 12 3 13 4 14 5 15 6 16 7 17 8 18 9 19 10 20 11
REMARK SMILES IDX 9 12 8 13 7 14 6 15 5 16 4 17 3 18 2 19 1 20
REMARK H PARENT
REMARK Flexibility Score: inf
ROOT
ATOM      1  C   UNL     1      -3.419  29.784 -19.858  1.00  0.00     0.000 C 
ENDROOT
BRANCH   1   2
ATOM      2  C   UNL     1      -3.210  31.115 -20.596  1.00  0.00     0.000 C 
BRANCH   2   3
ATOM      3  C   UNL     1      -4.532  31.779 -21.012  1.00  0.00     0.000 C 
BRANCH   3   4
ATOM      4  C   UNL     1      -5.033  32.802 -19.977  1.00  0.00     0.000 C 
BRANCH   4   5
ATOM      5  C   UNL     1      -6.485  32.535 -19.545  1.00  0.00     0.000 C 
BRANCH   5   6
ATOM      6  C   UNL     1      -6.852  31.043 -19.613  1.00  0.00     0.000 C 
BRANCH   6   7
ATOM      7  C   UNL     1      -6.647  30.320 -18.272  1.00  0.00     0.006 C 
BRANCH   7   8
ATOM      8  C   UNL     1      -6.654  28.793 -18.415  1.00  0.00     0.053 C 
BRANCH   8   9
ATOM      9  C   UNL     1      -7.026  28.150 -17.116  1.00  0.00     0.041 C 
ATOM     10  O   UNL     1      -6.695  28.684 -16.025  1.00  0.00    -0.550 OA
ATOM     11  O   UNL     1      -7.780  26.982 -17.110  1.00  0.00    -0.550 OA
ENDBRANCH   8   9
ENDBRANCH   7   8
ENDBRANCH   6   7
ENDBRANCH   5   6
ENDBRANCH   4   5
ENDBRANCH   3   4
ENDBRANCH   2   3
ENDBRANCH   1   2
BRANCH   1  12
ATOM     12  C   UNL     1      -3.289  28.596 -20.821  1.00  0.00     0.000 C 
BRANCH  12  13
ATOM     13  C   UNL     1      -4.664  28.173 -21.360  1.00  0.00    -0.000 C 
BRANCH  13  14
ATOM     14  C   UNL     1      -4.976  28.790 -22.733  1.00  0.00    -0.000 C 
BRANCH  14  15
ATOM     15  C   UNL     1      -6.433  29.269 -22.845  1.00  0.00    -0.000 C 
BRANCH  15  16
ATOM     16  C   UNL     1      -7.336  28.267 -23.585  1.00  0.00    -0.000 C 
BRANCH  16  17
ATOM     17  C   UNL     1      -6.994  28.117 -25.084  1.00  0.00    -0.000 C 
BRANCH  17  18
ATOM     18  C   UNL     1      -8.209  27.658 -25.908  1.00  0.00    -0.000 C 
BRANCH  18  19
ATOM     19  C   UNL     1      -7.802  26.965 -27.219  1.00  0.00    -0.003 C 
ATOM     20  C   UNL     1      -6.859  27.818 -28.066  1.00  0.00     0.004 C 
ENDBRANCH  18  19
ENDBRANCH  17  18
ENDBRANCH  16  17
ENDBRANCH  15  16
ENDBRANCH  14  15
ENDBRANCH  13  14
ENDBRANCH  12  13
ENDBRANCH   1  12
TORSDOF 16
ENDMDL
MODEL 9
REMARK VINA RESULT:    -4.936      5.635      9.096
REMARK INTER + INTRA:         -10.449
REMARK INTER:                  -8.362
REMARK INTRA:                  -2.087
REMARK UNBOUND:                -0.897
REMARK SMILES CCCCCCCCCCCCCCCCCC(=O)[O-]
REMARK SMILES IDX 10 1 11 2 12 3 13 4 14 5 15 6 16 7 17 8 18 9 19 10 20 11
REMARK SMILES IDX 9 12 8 13 7 14 6 15 5 16 4 17 3 18 2 19 1 20
REMARK H PARENT
REMARK Flexibility Score: inf
ROOT
ATOM      1  C   UNL     1      -3.347  27.381 -20.402  1.00  0.00     0.000 C 
ENDROOT
BRANCH   1   2
ATOM      2  C   UNL     1      -4.619  26.539 -20.217  1.00  0.00     0.000 C 
BRANCH   2   3
ATOM      3  C   UNL     1      -5.864  27.396 -19.937  1.00  0.00     0.000 C 
BRANCH   3   4
ATOM      4  C   UNL     1      -6.137  28.426 -21.047  1.00  0.00     0.000 C 
BRANCH   4   5
ATOM      5  C   UNL     1      -6.369  29.841 -20.490  1.00  0.00     0.000 C 
BRANCH   5   6
ATOM      6  C   UNL     1      -6.425  29.864 -18.952  1.00  0.00     0.000 C 
BRANCH   6   7
ATOM      7  C   UNL     1      -6.792  31.249 -18.395  1.00  0.00     0.006 C 
BRANCH   7   8
ATOM      8  C   UNL     1      -6.389  32.392 -19.334  1.00  0.00     0.053 C 
BRANCH   8   9
ATOM      9  C   UNL     1      -6.729  33.715 -18.723  1.00  0.00     0.041 C 
ATOM     10  O   UNL     1      -7.045  34.690 -19.454  1.00  0.00    -0.550 OA
ATOM     11  O   UNL     1      -6.743  33.858 -17.341  1.00  0.00    -0.550 OA
ENDBRANCH   8   9
ENDBRANCH   7   8
ENDBRANCH   6   7
ENDBRANCH   5   6
ENDBRANCH   4   5
ENDBRANCH   3   4
ENDBRANCH   2   3
ENDBRANCH   1   2
BRANCH   1  12
ATOM     12  C   UNL     1      -2.959  28.084 -19.095  1.00  0.00     0.000 C 
BRANCH  12  13
ATOM     13  C   UNL     1      -2.238  29.410 -19.378  1.00  0.00    -0.000 C 
BRANCH  13  14
ATOM     14  C   UNL     1      -3.036  30.329 -20.317  1.00  0.00    -0.000 C 
BRANCH  14  15
ATOM     15  C   UNL     1      -2.562  31.790 -20.254  1.00  0.00    -0.000 C 
BRANCH  15  16
ATOM     16  C   UNL     1      -2.523  32.466 -21.636  1.00  0.00    -0.000 C 
BRANCH  16  17
ATOM     17  C   UNL     1      -3.921  32.694 -22.251  1.00  0.00    -0.000 C 
BRANCH  17  18
ATOM     18  C   UNL     1      -4.471  34.094 -21.931  1.00  0.00    -0.000 C 
BRANCH  18  19
ATOM     19  C   UNL     1      -3.846  35.188 -22.811  1.00  0.00    -0.003 C 
ATOM     20  C   UNL     1      -4.555  35.335 -24.157  1.00  0.00     0.004 C 
ENDBRANCH  18  19
ENDBRANCH  17  18
ENDBRANCH  16  17
ENDBRANCH  15  16
ENDBRANCH  14  15
ENDBRANCH  13  14
ENDBRANCH  12  13
ENDBRANCH   1  12
TORSDOF 16
ENDMDL
