MODEL 1
REMARK VINA RESULT:    27.503      0.000      0.000
REMARK INTER + INTRA:          31.224
REMARK INTER:                  31.523
REMARK INTRA:                  -0.299
REMARK UNBOUND:                -0.299
REMARK SMILES O=C1C[C@H](c2ccc(O)cc2)Oc2cc(O)cc(O)c21
REMARK SMILES IDX 3 1 4 2 12 3 13 4 14 5 15 6 17 7 18 8 20 9 2 10 1 11 5 12
REMARK SMILES IDX 6 13 11 14 7 15 10 16 8 17 9 18 19 20 16 22
REMARK H PARENT 9 19 19 21 16 23
REMARK Flexibility Score: inf
ROOT
ATOM      1  C   UNL     1       9.514   3.492   8.218  1.00  0.00     0.131 C 
ATOM      2  C   UNL     1       9.143   2.007   8.091  1.00  0.00     0.211 C 
ATOM      3  O   UNL     1      10.321   1.203   7.978  1.00  0.00    -0.484 OA
ATOM      4  C   UNL     1      11.439   1.599   7.228  1.00  0.00     0.138 A 
ATOM      5  C   UNL     1      12.426   0.655   6.936  1.00  0.00     0.093 A 
ATOM      6  C   UNL     1      13.544   1.018   6.178  1.00  0.00     0.123 A 
ATOM      7  C   UNL     1      13.686   2.334   5.738  1.00  0.00     0.093 A 
ATOM      8  C   UNL     1      12.728   3.306   6.054  1.00  0.00     0.133 A 
ATOM      9  C   UNL     1      11.568   2.932   6.781  1.00  0.00     0.102 A 
ATOM     10  C   UNL     1      10.457   3.860   7.111  1.00  0.00     0.174 C 
ATOM     11  O   UNL     1      10.255   4.914   6.452  1.00  0.00    -0.294 OA
ENDROOT
BRANCH   2  12
ATOM     12  C   UNL     1       8.323   1.558   9.275  1.00  0.00    -0.007 A 
ATOM     13  C   UNL     1       8.939   1.277  10.507  1.00  0.00     0.011 A 
ATOM     14  C   UNL     1       6.925   1.471   9.174  1.00  0.00     0.011 A 
ATOM     15  C   UNL     1       8.172   0.892  11.611  1.00  0.00     0.046 A 
ATOM     16  C   UNL     1       6.159   1.085  10.280  1.00  0.00     0.046 A 
ATOM     17  C   UNL     1       6.781   0.793  11.500  1.00  0.00     0.115 A 
BRANCH  17  18
ATOM     18  O   UNL     1       6.029   0.407  12.607  1.00  0.00    -0.508 OA
ATOM     19  H   UNL     1       5.070   0.094  12.512  1.00  0.00     0.293 HD
ENDBRANCH  17  18
ENDBRANCH   2  12
BRANCH   8  20
ATOM     20  O   UNL     1      12.991   4.619   5.657  1.00  0.00    -0.507 OA
ATOM     21  H   UNL     1      13.168   4.896   4.703  1.00  0.00     0.293 HD
ENDBRANCH   8  20
BRANCH   6  22
ATOM     22  O   UNL     1      14.523   0.078   5.864  1.00  0.00    -0.508 OA
ATOM     23  H   UNL     1      14.990  -0.461   6.584  1.00  0.00     0.293 HD
ENDBRANCH   6  22
TORSDOF 4
ENDMDL
MODEL 2
REMARK VINA RESULT:    27.662      4.062      7.227
REMARK INTER + INTRA:          31.406
REMARK INTER:                  31.706
REMARK INTRA:                  -0.300
REMARK UNBOUND:                -0.299
REMARK SMILES O=C1C[C@H](c2ccc(O)cc2)Oc2cc(O)cc(O)c21
REMARK SMILES IDX 3 1 4 2 12 3 13 4 14 5 15 6 17 7 18 8 20 9 2 10 1 11 5 12
REMARK SMILES IDX 6 13 11 14 7 15 10 16 8 17 9 18 19 20 16 22
REMARK H PARENT 9 19 19 21 16 23
REMARK Flexibility Score: inf
ROOT
ATOM      1  C   UNL     1      14.959   1.705   8.043  1.00  0.00     0.131 C 
ATOM      2  C   UNL     1      15.270   3.208   7.988  1.00  0.00     0.211 C 
ATOM      3  O   UNL     1      14.061   3.972   7.981  1.00  0.00    -0.484 OA
ATOM      4  C   UNL     1      12.921   3.579   7.265  1.00  0.00     0.138 A 
ATOM      5  C   UNL     1      11.888   4.500   7.078  1.00  0.00     0.093 A 
ATOM      6  C   UNL     1      10.747   4.140   6.355  1.00  0.00     0.123 A 
ATOM      7  C   UNL     1      10.628   2.847   5.843  1.00  0.00     0.093 A 
ATOM      8  C   UNL     1      11.635   1.895   6.053  1.00  0.00     0.133 A 
ATOM      9  C   UNL     1      12.817   2.270   6.744  1.00  0.00     0.102 A 
ATOM     10  C   UNL     1      13.975   1.368   6.963  1.00  0.00     0.174 C 
ATOM     11  O   UNL     1      14.179   0.363   6.233  1.00  0.00    -0.294 OA
ENDROOT
BRANCH   2  12
ATOM     12  C   UNL     1      16.134   3.617   9.157  1.00  0.00    -0.007 A 
ATOM     13  C   UNL     1      15.562   3.857  10.419  1.00  0.00     0.011 A 
ATOM     14  C   UNL     1      17.527   3.709   9.008  1.00  0.00     0.011 A 
ATOM     15  C   UNL     1      16.369   4.206  11.506  1.00  0.00     0.046 A 
ATOM     16  C   UNL     1      18.333   4.058  10.098  1.00  0.00     0.046 A 
ATOM     17  C   UNL     1      17.755   4.309  11.348  1.00  0.00     0.115 A 
BRANCH  17  18
ATOM     18  O   UNL     1      18.547   4.658  12.440  1.00  0.00    -0.508 OA
ATOM     19  H   UNL     1      18.226   4.523  13.391  1.00  0.00     0.293 HD
ENDBRANCH  17  18
ENDBRANCH   2  12
BRANCH   8  20
ATOM     20  O   UNL     1      11.399   0.599   5.590  1.00  0.00    -0.507 OA
ATOM     21  H   UNL     1      10.888   0.385   4.746  1.00  0.00     0.293 HD
ENDBRANCH   8  20
BRANCH   6  22
ATOM     22  O   UNL     1       9.721   5.059   6.146  1.00  0.00    -0.508 OA
ATOM     23  H   UNL     1       8.913   5.099   6.756  1.00  0.00     0.293 HD
ENDBRANCH   6  22
TORSDOF 4
ENDMDL
MODEL 3
REMARK VINA RESULT:    29.809      4.485      8.329
REMARK INTER + INTRA:          33.867
REMARK INTER:                  34.173
REMARK INTRA:                  -0.306
REMARK UNBOUND:                -0.299
REMARK SMILES O=C1C[C@H](c2ccc(O)cc2)Oc2cc(O)cc(O)c21
REMARK SMILES IDX 3 1 4 2 12 3 13 4 14 5 15 6 17 7 18 8 20 9 2 10 1 11 5 12
REMARK SMILES IDX 6 13 11 14 7 15 10 16 8 17 9 18 19 20 16 22
REMARK H PARENT 9 19 19 21 16 23
REMARK Flexibility Score: inf
ROOT
ATOM      1  C   UNL     1      15.997   4.531   8.259  1.00  0.00     0.131 C 
ATOM      2  C   UNL     1      16.447   3.124   8.680  1.00  0.00     0.211 C 
ATOM      3  O   UNL     1      15.826   2.132   7.859  1.00  0.00    -0.484 OA
ATOM      4  C   UNL     1      14.490   2.224   7.440  1.00  0.00     0.138 A 
ATOM      5  C   UNL     1      13.876   1.099   6.885  1.00  0.00     0.093 A 
ATOM      6  C   UNL     1      12.541   1.158   6.472  1.00  0.00     0.123 A 
ATOM      7  C   UNL     1      11.831   2.353   6.590  1.00  0.00     0.093 A 
ATOM      8  C   UNL     1      12.439   3.505   7.107  1.00  0.00     0.133 A 
ATOM      9  C   UNL     1      13.779   3.437   7.572  1.00  0.00     0.102 A 
ATOM     10  C   UNL     1      14.500   4.571   8.201  1.00  0.00     0.174 C 
ATOM     11  O   UNL     1      13.886   5.534   8.733  1.00  0.00    -0.294 OA
ENDROOT
BRANCH   2  12
ATOM     12  C   UNL     1      17.949   2.997   8.598  1.00  0.00    -0.007 A 
ATOM     13  C   UNL     1      18.567   1.738   8.698  1.00  0.00     0.011 A 
ATOM     14  C   UNL     1      18.743   4.131   8.362  1.00  0.00     0.011 A 
ATOM     15  C   UNL     1      19.956   1.620   8.590  1.00  0.00     0.046 A 
ATOM     16  C   UNL     1      20.133   4.012   8.254  1.00  0.00     0.046 A 
ATOM     17  C   UNL     1      20.742   2.756   8.370  1.00  0.00     0.115 A 
BRANCH  17  18
ATOM     18  O   UNL     1      22.125   2.625   8.265  1.00  0.00    -0.508 OA
ATOM     19  H   UNL     1      22.749   3.381   8.520  1.00  0.00     0.293 HD
ENDBRANCH  17  18
ENDBRANCH   2  12
BRANCH   8  20
ATOM     20  O   UNL     1      11.690   4.683   7.103  1.00  0.00    -0.507 OA
ATOM     21  H   UNL     1      12.034   5.572   7.438  1.00  0.00     0.293 HD
ENDBRANCH   8  20
BRANCH   6  22
ATOM     22  O   UNL     1      11.914   0.035   5.937  1.00  0.00    -0.508 OA
ATOM     23  H   UNL     1      11.685  -0.768   6.511  1.00  0.00     0.293 HD
ENDBRANCH   6  22
TORSDOF 4
ENDMDL
MODEL 4
REMARK VINA RESULT:    29.861      2.214      3.710
REMARK INTER + INTRA:          33.927
REMARK INTER:                  34.235
REMARK INTRA:                  -0.309
REMARK UNBOUND:                -0.299
REMARK SMILES O=C1C[C@H](c2ccc(O)cc2)Oc2cc(O)cc(O)c21
REMARK SMILES IDX 3 1 4 2 12 3 13 4 14 5 15 6 17 7 18 8 20 9 2 10 1 11 5 12
REMARK SMILES IDX 6 13 11 14 7 15 10 16 8 17 9 18 19 20 16 22
REMARK H PARENT 9 19 19 21 16 23
REMARK Flexibility Score: inf
ROOT
ATOM      1  C   UNL     1       8.389   0.582   8.244  1.00  0.00     0.131 C 
ATOM      2  C   UNL     1       7.911   1.949   8.756  1.00  0.00     0.211 C 
ATOM      3  O   UNL     1       8.505   3.006   7.996  1.00  0.00    -0.484 OA
ATOM      4  C   UNL     1       9.839   2.971   7.566  1.00  0.00     0.138 A 
ATOM      5  C   UNL     1      10.425   4.142   7.080  1.00  0.00     0.093 A 
ATOM      6  C   UNL     1      11.757   4.140   6.657  1.00  0.00     0.123 A 
ATOM      7  C   UNL     1      12.495   2.956   6.695  1.00  0.00     0.093 A 
ATOM      8  C   UNL     1      11.916   1.761   7.141  1.00  0.00     0.133 A 
ATOM      9  C   UNL     1      10.579   1.769   7.616  1.00  0.00     0.102 A 
ATOM     10  C   UNL     1       9.887   0.580   8.176  1.00  0.00     0.174 C 
ATOM     11  O   UNL     1      10.526  -0.400   8.642  1.00  0.00    -0.294 OA
ENDROOT
BRANCH   2  12
ATOM     12  C   UNL     1       6.406   2.047   8.689  1.00  0.00    -0.007 A 
ATOM     13  C   UNL     1       5.765   3.294   8.796  1.00  0.00     0.011 A 
ATOM     14  C   UNL     1       5.632   0.898   8.461  1.00  0.00     0.011 A 
ATOM     15  C   UNL     1       4.373   3.384   8.702  1.00  0.00     0.046 A 
ATOM     16  C   UNL     1       4.239   0.990   8.368  1.00  0.00     0.046 A 
ATOM     17  C   UNL     1       3.607   2.234   8.490  1.00  0.00     0.115 A 
BRANCH  17  18
ATOM     18  O   UNL     1       2.220   2.338   8.400  1.00  0.00    -0.508 OA
ATOM     19  H   UNL     1       1.616   2.007   9.142  1.00  0.00     0.293 HD
ENDBRANCH  17  18
ENDBRANCH   2  12
BRANCH   8  20
ATOM     20  O   UNL     1      12.691   0.602   7.059  1.00  0.00    -0.507 OA
ATOM     21  H   UNL     1      13.680   0.598   6.854  1.00  0.00     0.293 HD
ENDBRANCH   8  20
BRANCH   6  22
ATOM     22  O   UNL     1      12.355   5.309   6.191  1.00  0.00    -0.508 OA
ATOM     23  H   UNL     1      12.331   5.561   5.210  1.00  0.00     0.293 HD
ENDBRANCH   6  22
TORSDOF 4
ENDMDL
