MODEL 1
REMARK VINA RESULT:    -5.349      0.000      0.000
REMARK INTER + INTRA:          -9.880
REMARK INTER:                  -8.163
REMARK INTRA:                  -1.717
REMARK UNBOUND:                -1.717
REMARK SMILES C=CCCCCCCCCCC
REMARK SMILES IDX 7 1 8 2 9 3 10 4 11 5 12 6 6 7 5 8 4 9 3 10 2 11 1 12
REMARK H PARENT
REMARK Flexibility Score: inf
ROOT
ATOM      1  C   UNL     1      -1.811 -14.692   9.895  1.00  0.00     0.000 C 
ENDROOT
BRANCH   1   2
ATOM      2  C   UNL     1      -1.426 -15.395   8.587  1.00  0.00    -0.000 C 
BRANCH   2   3
ATOM      3  C   UNL     1      -2.385 -15.013   7.454  1.00  0.00    -0.000 C 
BRANCH   3   4
ATOM      4  C   UNL     1      -3.609 -14.265   7.995  1.00  0.00    -0.000 C 
BRANCH   4   5
ATOM      5  C   UNL     1      -4.858 -14.577   7.163  1.00  0.00    -0.003 C 
ATOM      6  C   UNL     1      -4.566 -15.640   6.108  1.00  0.00     0.004 C 
ENDBRANCH   4   5
ENDBRANCH   3   4
ENDBRANCH   2   3
ENDBRANCH   1   2
BRANCH   1   7
ATOM      7  C   UNL     1      -2.047 -15.712  11.018  1.00  0.00     0.000 C 
BRANCH   7   8
ATOM      8  C   UNL     1      -3.496 -15.709  11.538  1.00  0.00     0.000 C 
BRANCH   8   9
ATOM      9  C   UNL     1      -4.483 -16.571  10.723  1.00  0.00     0.004 C 
BRANCH   9  10
ATOM     10  C   UNL     1      -3.906 -17.909  10.239  1.00  0.00     0.027 C 
BRANCH  10  11
ATOM     11  C   UNL     1      -3.996 -18.045   8.742  1.00  0.00    -0.035 C 
ATOM     12  C   UNL     1      -3.103 -18.751   8.042  1.00  0.00     0.004 C 
ENDBRANCH  10  11
ENDBRANCH   9  10
ENDBRANCH   8   9
ENDBRANCH   7   8
ENDBRANCH   1   7
TORSDOF 9
ENDMDL
MODEL 2
REMARK VINA RESULT:    -5.261      0.651      3.644
REMARK INTER + INTRA:          -9.746
REMARK INTER:                  -8.116
REMARK INTRA:                  -1.630
REMARK UNBOUND:                -1.717
REMARK SMILES C=CCCCCCCCCCC
REMARK SMILES IDX 7 1 8 2 9 3 10 4 11 5 12 6 6 7 5 8 4 9 3 10 2 11 1 12
REMARK H PARENT
REMARK Flexibility Score: inf
ROOT
ATOM      1  C   UNL     1      -2.294 -14.614  11.291  1.00  0.00     0.000 C 
ENDROOT
BRANCH   1   2
ATOM      2  C   UNL     1      -2.773 -16.062  11.129  1.00  0.00    -0.000 C 
BRANCH   2   3
ATOM      3  C   UNL     1      -4.302 -16.131  11.048  1.00  0.00    -0.000 C 
BRANCH   3   4
ATOM      4  C   UNL     1      -4.753 -17.008   9.875  1.00  0.00    -0.000 C 
BRANCH   4   5
ATOM      5  C   UNL     1      -3.815 -18.208   9.692  1.00  0.00    -0.003 C 
ATOM      6  C   UNL     1      -3.450 -18.404   8.224  1.00  0.00     0.004 C 
ENDBRANCH   4   5
ENDBRANCH   3   4
ENDBRANCH   2   3
ENDBRANCH   1   2
BRANCH   1   7
ATOM      7  C   UNL     1      -1.963 -13.989   9.928  1.00  0.00     0.000 C 
BRANCH   7   8
ATOM      8  C   UNL     1      -1.669 -15.037   8.840  1.00  0.00     0.000 C 
BRANCH   8   9
ATOM      9  C   UNL     1      -2.550 -14.932   7.577  1.00  0.00     0.004 C 
BRANCH   9  10
ATOM     10  C   UNL     1      -3.850 -14.139   7.775  1.00  0.00     0.027 C 
BRANCH  10  11
ATOM     11  C   UNL     1      -4.940 -14.618   6.852  1.00  0.00    -0.035 C 
ATOM     12  C   UNL     1      -4.779 -15.684   6.062  1.00  0.00     0.004 C 
ENDBRANCH  10  11
ENDBRANCH   9  10
ENDBRANCH   8   9
ENDBRANCH   7   8
ENDBRANCH   1   7
TORSDOF 9
ENDMDL
MODEL 3
REMARK VINA RESULT:    -5.252      0.891      3.829
REMARK INTER + INTRA:          -9.733
REMARK INTER:                  -8.263
REMARK INTRA:                  -1.470
REMARK UNBOUND:                -1.717
REMARK SMILES C=CCCCCCCCCCC
REMARK SMILES IDX 7 1 8 2 9 3 10 4 11 5 12 6 6 7 5 8 4 9 3 10 2 11 1 12
REMARK H PARENT
REMARK Flexibility Score: inf
ROOT
ATOM      1  C   UNL     1      -4.690 -16.641  10.521  1.00  0.00     0.000 C 
ENDROOT
BRANCH   1   2
ATOM      2  C   UNL     1      -3.813 -15.815  11.469  1.00  0.00    -0.000 C 
BRANCH   2   3
ATOM      3  C   UNL     1      -2.356 -15.792  10.993  1.00  0.00    -0.000 C 
BRANCH   3   4
ATOM      4  C   UNL     1      -1.987 -14.422  10.413  1.00  0.00    -0.000 C 
BRANCH   4   5
ATOM      5  C   UNL     1      -2.015 -14.447   8.880  1.00  0.00    -0.003 C 
ATOM      6  C   UNL     1      -1.047 -15.488   8.327  1.00  0.00     0.004 C 
ENDBRANCH   4   5
ENDBRANCH   3   4
ENDBRANCH   2   3
ENDBRANCH   1   2
BRANCH   1   7
ATOM      7  C   UNL     1      -3.873 -17.750   9.842  1.00  0.00     0.000 C 
BRANCH   7   8
ATOM      8  C   UNL     1      -4.026 -17.757   8.310  1.00  0.00     0.000 C 
BRANCH   8   9
ATOM      9  C   UNL     1      -4.935 -16.648   7.740  1.00  0.00     0.004 C 
BRANCH   9  10
ATOM     10  C   UNL     1      -4.472 -16.079   6.391  1.00  0.00     0.027 C 
BRANCH  10  11
ATOM     11  C   UNL     1      -4.958 -14.669   6.185  1.00  0.00    -0.035 C 
ATOM     12  C   UNL     1      -5.004 -13.784   7.185  1.00  0.00     0.004 C 
ENDBRANCH  10  11
ENDBRANCH   9  10
ENDBRANCH   8   9
ENDBRANCH   7   8
ENDBRANCH   1   7
TORSDOF 9
ENDMDL
MODEL 4
REMARK VINA RESULT:    -5.218      1.050      3.086
REMARK INTER + INTRA:          -9.680
REMARK INTER:                  -8.229
REMARK INTRA:                  -1.451
REMARK UNBOUND:                -1.717
REMARK SMILES C=CCCCCCCCCCC
REMARK SMILES IDX 7 1 8 2 9 3 10 4 11 5 12 6 6 7 5 8 4 9 3 10 2 11 1 12
REMARK H PARENT
REMARK Flexibility Score: inf
ROOT
ATOM      1  C   UNL     1      -3.935 -17.531  10.201  1.00  0.00     0.000 C 
ENDROOT
BRANCH   1   2
ATOM      2  C   UNL     1      -4.221 -17.518   8.695  1.00  0.00    -0.000 C 
BRANCH   2   3
ATOM      3  C   UNL     1      -5.315 -16.501   8.350  1.00  0.00    -0.000 C 
BRANCH   3   4
ATOM      4  C   UNL     1      -5.262 -16.115   6.868  1.00  0.00    -0.000 C 
BRANCH   4   5
ATOM      5  C   UNL     1      -4.323 -14.924   6.642  1.00  0.00    -0.003 C 
ATOM      6  C   UNL     1      -4.940 -13.629   7.159  1.00  0.00     0.004 C 
ENDBRANCH   4   5
ENDBRANCH   3   4
ENDBRANCH   2   3
ENDBRANCH   1   2
BRANCH   1   7
ATOM      7  C   UNL     1      -4.229 -16.161  10.829  1.00  0.00     0.000 C 
BRANCH   7   8
ATOM      8  C   UNL     1      -3.153 -15.719  11.837  1.00  0.00     0.000 C 
BRANCH   8   9
ATOM      9  C   UNL     1      -2.347 -14.469  11.426  1.00  0.00     0.004 C 
BRANCH   9  10
ATOM     10  C   UNL     1      -2.298 -14.216   9.912  1.00  0.00     0.027 C 
BRANCH  10  11
ATOM     11  C   UNL     1      -1.083 -14.843   9.280  1.00  0.00    -0.035 C 
ATOM     12  C   UNL     1      -1.155 -15.517   8.129  1.00  0.00     0.004 C 
ENDBRANCH  10  11
ENDBRANCH   9  10
ENDBRANCH   8   9
ENDBRANCH   7   8
ENDBRANCH   1   7
TORSDOF 9
ENDMDL
MODEL 5
REMARK VINA RESULT:    -5.157      0.931      4.511
REMARK INTER + INTRA:          -9.587
REMARK INTER:                  -7.892
REMARK INTRA:                  -1.696
REMARK UNBOUND:                -1.717
REMARK SMILES C=CCCCCCCCCCC
REMARK SMILES IDX 7 1 8 2 9 3 10 4 11 5 12 6 6 7 5 8 4 9 3 10 2 11 1 12
REMARK H PARENT
REMARK Flexibility Score: inf
ROOT
ATOM      1  C   UNL     1      -5.391 -16.639   8.171  1.00  0.00     0.000 C 
ENDROOT
BRANCH   1   2
ATOM      2  C   UNL     1      -4.234 -17.627   8.362  1.00  0.00    -0.000 C 
BRANCH   2   3
ATOM      3  C   UNL     1      -3.805 -17.695   9.832  1.00  0.00    -0.000 C 
BRANCH   3   4
ATOM      4  C   UNL     1      -4.584 -16.683  10.681  1.00  0.00    -0.000 C 
BRANCH   4   5
ATOM      5  C   UNL     1      -3.631 -15.739  11.424  1.00  0.00    -0.003 C 
ATOM      6  C   UNL     1      -2.335 -16.448  11.804  1.00  0.00     0.004 C 
ENDBRANCH   4   5
ENDBRANCH   3   4
ENDBRANCH   2   3
ENDBRANCH   1   2
BRANCH   1   7
ATOM      7  C   UNL     1      -5.379 -16.047   6.754  1.00  0.00     0.000 C 
BRANCH   7   8
ATOM      8  C   UNL     1      -4.299 -14.968   6.561  1.00  0.00     0.000 C 
BRANCH   8   9
ATOM      9  C   UNL     1      -4.222 -13.914   7.685  1.00  0.00     0.004 C 
BRANCH   9  10
ATOM     10  C   UNL     1      -2.887 -13.893   8.445  1.00  0.00     0.027 C 
BRANCH  10  11
ATOM     11  C   UNL     1      -1.952 -14.968   7.958  1.00  0.00    -0.035 C 
ATOM     12  C   UNL     1      -0.843 -15.297   8.628  1.00  0.00     0.004 C 
ENDBRANCH  10  11
ENDBRANCH   9  10
ENDBRANCH   8   9
ENDBRANCH   7   8
ENDBRANCH   1   7
TORSDOF 9
ENDMDL
MODEL 6
REMARK VINA RESULT:    -5.143      1.183      3.739
REMARK INTER + INTRA:          -9.567
REMARK INTER:                  -8.218
REMARK INTRA:                  -1.349
REMARK UNBOUND:                -1.717
REMARK SMILES C=CCCCCCCCCCC
REMARK SMILES IDX 7 1 8 2 9 3 10 4 11 5 12 6 6 7 5 8 4 9 3 10 2 11 1 12
REMARK H PARENT
REMARK Flexibility Score: inf
ROOT
ATOM      1  C   UNL     1      -3.497 -17.800   8.172  1.00  0.00     0.000 C 
ENDROOT
BRANCH   1   2
ATOM      2  C   UNL     1      -4.617 -17.242   9.057  1.00  0.00    -0.000 C 
BRANCH   2   3
ATOM      3  C   UNL     1      -5.349 -16.089   8.360  1.00  0.00    -0.000 C 
BRANCH   3   4
ATOM      4  C   UNL     1      -5.263 -16.224   6.835  1.00  0.00    -0.000 C 
BRANCH   4   5
ATOM      5  C   UNL     1      -4.915 -14.881   6.182  1.00  0.00    -0.003 C 
ATOM      6  C   UNL     1      -4.788 -13.776   7.227  1.00  0.00     0.004 C 
ENDBRANCH   4   5
ENDBRANCH   3   4
ENDBRANCH   2   3
ENDBRANCH   1   2
BRANCH   1   7
ATOM      7  C   UNL     1      -2.120 -17.336   8.669  1.00  0.00     0.000 C 
BRANCH   7   8
ATOM      8  C   UNL     1      -1.721 -15.950   8.130  1.00  0.00     0.000 C 
BRANCH   8   9
ATOM      9  C   UNL     1      -0.953 -15.058   9.128  1.00  0.00     0.004 C 
BRANCH   9  10
ATOM     10  C   UNL     1      -1.686 -13.766   9.518  1.00  0.00     0.027 C 
BRANCH  10  11
ATOM     11  C   UNL     1      -2.321 -13.875  10.879  1.00  0.00    -0.035 C 
ATOM     12  C   UNL     1      -2.420 -15.044  11.521  1.00  0.00     0.004 C 
ENDBRANCH  10  11
ENDBRANCH   9  10
ENDBRANCH   8   9
ENDBRANCH   7   8
ENDBRANCH   1   7
TORSDOF 9
ENDMDL
MODEL 7
REMARK VINA RESULT:    -5.117      0.998      3.555
REMARK INTER + INTRA:          -9.526
REMARK INTER:                  -7.856
REMARK INTRA:                  -1.671
REMARK UNBOUND:                -1.717
REMARK SMILES C=CCCCCCCCCCC
REMARK SMILES IDX 7 1 8 2 9 3 10 4 11 5 12 6 6 7 5 8 4 9 3 10 2 11 1 12
REMARK H PARENT
REMARK Flexibility Score: inf
ROOT
ATOM      1  C   UNL     1      -4.979 -15.966   6.681  1.00  0.00     0.000 C 
ENDROOT
BRANCH   1   2
ATOM      2  C   UNL     1      -3.786 -15.007   6.771  1.00  0.00    -0.000 C 
BRANCH   2   3
ATOM      3  C   UNL     1      -3.914 -14.082   7.987  1.00  0.00    -0.000 C 
BRANCH   3   4
ATOM      4  C   UNL     1      -2.551 -13.853   8.651  1.00  0.00    -0.000 C 
BRANCH   4   5
ATOM      5  C   UNL     1      -1.606 -15.032   8.390  1.00  0.00    -0.003 C 
ATOM      6  C   UNL     1      -0.325 -14.903   9.208  1.00  0.00     0.004 C 
ENDBRANCH   4   5
ENDBRANCH   3   4
ENDBRANCH   2   3
ENDBRANCH   1   2
BRANCH   1   7
ATOM      7  C   UNL     1      -5.294 -16.584   8.051  1.00  0.00     0.000 C 
BRANCH   7   8
ATOM      8  C   UNL     1      -4.290 -17.676   8.463  1.00  0.00     0.000 C 
BRANCH   8   9
ATOM      9  C   UNL     1      -3.759 -17.563   9.907  1.00  0.00     0.004 C 
BRANCH   9  10
ATOM     10  C   UNL     1      -4.499 -16.536  10.777  1.00  0.00     0.027 C 
BRANCH  10  11
ATOM     11  C   UNL     1      -3.547 -15.734  11.625  1.00  0.00    -0.035 C 
ATOM     12  C   UNL     1      -2.330 -16.188  11.942  1.00  0.00     0.004 C 
ENDBRANCH  10  11
ENDBRANCH   9  10
ENDBRANCH   8   9
ENDBRANCH   7   8
ENDBRANCH   1   7
TORSDOF 9
ENDMDL
MODEL 8
REMARK VINA RESULT:    -5.061      1.009      3.911
REMARK INTER + INTRA:          -9.441
REMARK INTER:                  -7.977
REMARK INTRA:                  -1.464
REMARK UNBOUND:                -1.717
REMARK SMILES C=CCCCCCCCCCC
REMARK SMILES IDX 7 1 8 2 9 3 10 4 11 5 12 6 6 7 5 8 4 9 3 10 2 11 1 12
REMARK H PARENT
REMARK Flexibility Score: inf
ROOT
ATOM      1  C   UNL     1      -3.749 -14.366   7.803  1.00  0.00     0.000 C 
ENDROOT
BRANCH   1   2
ATOM      2  C   UNL     1      -4.999 -15.001   7.182  1.00  0.00    -0.000 C 
BRANCH   2   3
ATOM      3  C   UNL     1      -5.160 -16.457   7.632  1.00  0.00    -0.000 C 
BRANCH   3   4
ATOM      4  C   UNL     1      -5.146 -16.566   9.161  1.00  0.00    -0.000 C 
BRANCH   4   5
ATOM      5  C   UNL     1      -4.299 -17.758   9.621  1.00  0.00    -0.003 C 
ATOM      6  C   UNL     1      -3.565 -18.399   8.447  1.00  0.00     0.004 C 
ENDBRANCH   4   5
ENDBRANCH   3   4
ENDBRANCH   2   3
ENDBRANCH   1   2
BRANCH   1   7
ATOM      7  C   UNL     1      -2.472 -15.033   7.271  1.00  0.00     0.000 C 
BRANCH   7   8
ATOM      8  C   UNL     1      -1.457 -15.358   8.382  1.00  0.00     0.000 C 
BRANCH   8   9
ATOM      9  C   UNL     1      -1.697 -14.629   9.720  1.00  0.00     0.004 C 
BRANCH   9  10
ATOM     10  C   UNL     1      -1.872 -15.561  10.928  1.00  0.00     0.027 C 
BRANCH  10  11
ATOM     11  C   UNL     1      -2.826 -14.987  11.942  1.00  0.00    -0.035 C 
ATOM     12  C   UNL     1      -2.804 -15.363  13.224  1.00  0.00     0.004 C 
ENDBRANCH  10  11
ENDBRANCH   9  10
ENDBRANCH   8   9
ENDBRANCH   7   8
ENDBRANCH   1   7
TORSDOF 9
ENDMDL
MODEL 9
REMARK VINA RESULT:    -5.054      1.102      3.753
REMARK INTER + INTRA:          -9.431
REMARK INTER:                  -8.153
REMARK INTRA:                  -1.278
REMARK UNBOUND:                -1.717
REMARK SMILES C=CCCCCCCCCCC
REMARK SMILES IDX 7 1 8 2 9 3 10 4 11 5 12 6 6 7 5 8 4 9 3 10 2 11 1 12
REMARK H PARENT
REMARK Flexibility Score: inf
ROOT
ATOM      1  C   UNL     1      -2.090 -14.996   7.748  1.00  0.00     0.000 C 
ENDROOT
BRANCH   1   2
ATOM      2  C   UNL     1      -1.225 -14.966   9.014  1.00  0.00    -0.000 C 
BRANCH   2   3
ATOM      3  C   UNL     1      -2.071 -14.640  10.251  1.00  0.00    -0.000 C 
BRANCH   3   4
ATOM      4  C   UNL     1      -2.172 -15.853  11.184  1.00  0.00    -0.000 C 
BRANCH   4   5
ATOM      5  C   UNL     1      -2.816 -15.466  12.521  1.00  0.00    -0.003 C 
ATOM      6  C   UNL     1      -2.448 -14.040  12.918  1.00  0.00     0.004 C 
ENDBRANCH   4   5
ENDBRANCH   3   4
ENDBRANCH   2   3
ENDBRANCH   1   2
BRANCH   1   7
ATOM      7  C   UNL     1      -3.453 -14.334   7.996  1.00  0.00     0.000 C 
BRANCH   7   8
ATOM      8  C   UNL     1      -4.541 -14.812   7.018  1.00  0.00     0.000 C 
BRANCH   8   9
ATOM      9  C   UNL     1      -5.076 -16.235   7.282  1.00  0.00     0.004 C 
BRANCH   9  10
ATOM     10  C   UNL     1      -5.203 -16.599   8.769  1.00  0.00     0.027 C 
BRANCH  10  11
ATOM     11  C   UNL     1      -4.287 -17.734   9.144  1.00  0.00    -0.035 C 
ATOM     12  C   UNL     1      -3.517 -18.349   8.241  1.00  0.00     0.004 C 
ENDBRANCH  10  11
ENDBRANCH   9  10
ENDBRANCH   8   9
ENDBRANCH   7   8
ENDBRANCH   1   7
TORSDOF 9
ENDMDL
