MODEL 1
REMARK VINA RESULT:    -4.070      0.000      0.000
REMARK INTER + INTRA:          -8.809
REMARK INTER:                  -7.402
REMARK INTRA:                  -1.407
REMARK UNBOUND:                -1.407
REMARK SMILES CCCCCCCCCCCCCCCC(=O)[O-]
REMARK SMILES IDX 9 1 10 2 11 3 12 4 13 5 14 6 15 7 16 8 17 9 18 10 8 11 7 12
REMARK SMILES IDX 6 13 5 14 4 15 3 16 2 17 1 18
REMARK H PARENT
REMARK Flexibility Score: inf
ROOT
ATOM      1  C   UNL     1      25.559  12.070  20.893  1.00  0.00     0.000 C 
ENDROOT
BRANCH   1   2
ATOM      2  C   UNL     1      24.095  11.988  20.425  1.00  0.00     0.000 C 
BRANCH   2   3
ATOM      3  C   UNL     1      23.361  10.690  20.812  1.00  0.00     0.000 C 
BRANCH   3   4
ATOM      4  C   UNL     1      22.174  10.936  21.760  1.00  0.00     0.000 C 
BRANCH   4   5
ATOM      5  C   UNL     1      22.518  10.640  23.228  1.00  0.00     0.000 C 
BRANCH   5   6
ATOM      6  C   UNL     1      22.539  11.910  24.097  1.00  0.00     0.006 C 
BRANCH   6   7
ATOM      7  C   UNL     1      23.961  12.453  24.294  1.00  0.00     0.053 C 
BRANCH   7   8
ATOM      8  C   UNL     1      24.514  12.092  25.639  1.00  0.00     0.041 C 
ATOM      9  O   UNL     1      25.172  11.028  25.788  1.00  0.00    -0.550 OA
ATOM     10  O   UNL     1      24.327  12.942  26.721  1.00  0.00    -0.550 OA
ENDBRANCH   7   8
ENDBRANCH   6   7
ENDBRANCH   5   6
ENDBRANCH   4   5
ENDBRANCH   3   4
ENDBRANCH   2   3
ENDBRANCH   1   2
BRANCH   1  11
ATOM     11  C   UNL     1      25.978  10.872  21.763  1.00  0.00     0.000 C 
BRANCH  11  12
ATOM     12  C   UNL     1      27.144  11.210  22.706  1.00  0.00    -0.000 C 
BRANCH  12  13
ATOM     13  C   UNL     1      27.828   9.953  23.270  1.00  0.00    -0.000 C 
BRANCH  13  14
ATOM     14  C   UNL     1      28.395   9.035  22.172  1.00  0.00    -0.000 C 
BRANCH  14  15
ATOM     15  C   UNL     1      29.496   9.668  21.301  1.00  0.00    -0.000 C 
BRANCH  15  16
ATOM     16  C   UNL     1      29.749   8.890  19.998  1.00  0.00    -0.000 C 
BRANCH  16  17
ATOM     17  C   UNL     1      30.902   9.483  19.174  1.00  0.00    -0.003 C 
ATOM     18  C   UNL     1      30.996   8.879  17.772  1.00  0.00     0.004 C 
ENDBRANCH  16  17
ENDBRANCH  15  16
ENDBRANCH  14  15
ENDBRANCH  13  14
ENDBRANCH  12  13
ENDBRANCH  11  12
ENDBRANCH   1  11
TORSDOF 14
ENDMDL
MODEL 2
REMARK VINA RESULT:    -4.020      2.481      5.807
REMARK INTER + INTRA:          -8.718
REMARK INTER:                  -6.489
REMARK INTRA:                  -2.229
REMARK UNBOUND:                -1.407
REMARK SMILES CCCCCCCCCCCCCCCC(=O)[O-]
REMARK SMILES IDX 9 1 10 2 11 3 12 4 13 5 14 6 15 7 16 8 17 9 18 10 8 11 7 12
REMARK SMILES IDX 6 13 5 14 4 15 3 16 2 17 1 18
REMARK H PARENT
REMARK Flexibility Score: inf
ROOT
ATOM      1  C   UNL     1      23.777  12.086  24.761  1.00  0.00     0.000 C 
ENDROOT
BRANCH   1   2
ATOM      2  C   UNL     1      23.871  13.307  23.828  1.00  0.00     0.000 C 
BRANCH   2   3
ATOM      3  C   UNL     1      25.270  13.945  23.732  1.00  0.00     0.000 C 
BRANCH   3   4
ATOM      4  C   UNL     1      26.399  12.901  23.667  1.00  0.00     0.000 C 
BRANCH   4   5
ATOM      5  C   UNL     1      26.600  12.336  22.252  1.00  0.00     0.000 C 
BRANCH   5   6
ATOM      6  C   UNL     1      26.544  10.798  22.219  1.00  0.00     0.006 C 
BRANCH   6   7
ATOM      7  C   UNL     1      27.940  10.169  22.120  1.00  0.00     0.053 C 
BRANCH   7   8
ATOM      8  C   UNL     1      28.429   9.685  23.451  1.00  0.00     0.041 C 
ATOM      9  O   UNL     1      29.664   9.557  23.663  1.00  0.00    -0.550 OA
ATOM     10  O   UNL     1      27.524   9.403  24.466  1.00  0.00    -0.550 OA
ENDBRANCH   7   8
ENDBRANCH   6   7
ENDBRANCH   5   6
ENDBRANCH   4   5
ENDBRANCH   3   4
ENDBRANCH   2   3
ENDBRANCH   1   2
BRANCH   1  11
ATOM     11  C   UNL     1      23.310  10.811  24.034  1.00  0.00     0.000 C 
BRANCH  11  12
ATOM     12  C   UNL     1      22.343  11.116  22.879  1.00  0.00    -0.000 C 
BRANCH  12  13
ATOM     13  C   UNL     1      22.542  10.170  21.681  1.00  0.00    -0.000 C 
BRANCH  13  14
ATOM     14  C   UNL     1      23.394  10.794  20.561  1.00  0.00    -0.000 C 
BRANCH  14  15
ATOM     15  C   UNL     1      22.943  12.194  20.105  1.00  0.00    -0.000 C 
BRANCH  15  16
ATOM     16  C   UNL     1      24.103  13.050  19.567  1.00  0.00    -0.000 C 
BRANCH  16  17
ATOM     17  C   UNL     1      23.707  14.521  19.371  1.00  0.00    -0.003 C 
ATOM     18  C   UNL     1      23.468  15.249  20.694  1.00  0.00     0.004 C 
ENDBRANCH  16  17
ENDBRANCH  15  16
ENDBRANCH  14  15
ENDBRANCH  13  14
ENDBRANCH  12  13
ENDBRANCH  11  12
ENDBRANCH   1  11
TORSDOF 14
ENDMDL
MODEL 3
REMARK VINA RESULT:    -3.998      1.550      2.746
REMARK INTER + INTRA:          -8.677
REMARK INTER:                  -6.636
REMARK INTRA:                  -2.041
REMARK UNBOUND:                -1.407
REMARK SMILES CCCCCCCCCCCCCCCC(=O)[O-]
REMARK SMILES IDX 9 1 10 2 11 3 12 4 13 5 14 6 15 7 16 8 17 9 18 10 8 11 7 12
REMARK SMILES IDX 6 13 5 14 4 15 3 16 2 17 1 18
REMARK H PARENT
REMARK Flexibility Score: inf
ROOT
ATOM      1  C   UNL     1      22.782  11.986  20.365  1.00  0.00     0.000 C 
ENDROOT
BRANCH   1   2
ATOM      2  C   UNL     1      23.160  10.544  20.749  1.00  0.00     0.000 C 
BRANCH   2   3
ATOM      3  C   UNL     1      22.481  10.012  22.024  1.00  0.00     0.000 C 
BRANCH   3   4
ATOM      4  C   UNL     1      22.012  11.136  22.965  1.00  0.00     0.000 C 
BRANCH   4   5
ATOM      5  C   UNL     1      23.124  11.619  23.910  1.00  0.00     0.000 C 
BRANCH   5   6
ATOM      6  C   UNL     1      23.678  10.487  24.794  1.00  0.00     0.006 C 
BRANCH   6   7
ATOM      7  C   UNL     1      24.574  11.019  25.921  1.00  0.00     0.053 C 
BRANCH   7   8
ATOM      8  C   UNL     1      25.553   9.986  26.390  1.00  0.00     0.041 C 
ATOM      9  O   UNL     1      26.067   9.182  25.568  1.00  0.00    -0.550 OA
ATOM     10  O   UNL     1      25.919   9.929  27.728  1.00  0.00    -0.550 OA
ENDBRANCH   7   8
ENDBRANCH   6   7
ENDBRANCH   5   6
ENDBRANCH   4   5
ENDBRANCH   3   4
ENDBRANCH   2   3
ENDBRANCH   1   2
BRANCH   1  11
ATOM     11  C   UNL     1      23.989  12.942  20.364  1.00  0.00     0.000 C 
BRANCH  11  12
ATOM     12  C   UNL     1      25.306  12.223  20.699  1.00  0.00    -0.000 C 
BRANCH  12  13
ATOM     13  C   UNL     1      26.045  12.874  21.882  1.00  0.00    -0.000 C 
BRANCH  13  14
ATOM     14  C   UNL     1      26.601  11.842  22.880  1.00  0.00    -0.000 C 
BRANCH  14  15
ATOM     15  C   UNL     1      26.841  10.437  22.298  1.00  0.00    -0.000 C 
BRANCH  15  16
ATOM     16  C   UNL     1      28.119   9.775  22.841  1.00  0.00    -0.000 C 
BRANCH  16  17
ATOM     17  C   UNL     1      29.378  10.210  22.076  1.00  0.00    -0.003 C 
ATOM     18  C   UNL     1      29.646   9.346  20.842  1.00  0.00     0.004 C 
ENDBRANCH  16  17
ENDBRANCH  15  16
ENDBRANCH  14  15
ENDBRANCH  13  14
ENDBRANCH  12  13
ENDBRANCH  11  12
ENDBRANCH   1  11
TORSDOF 14
ENDMDL
MODEL 4
REMARK VINA RESULT:    -3.965      2.720      3.740
REMARK INTER + INTRA:          -8.617
REMARK INTER:                  -7.038
REMARK INTRA:                  -1.579
REMARK UNBOUND:                -1.407
REMARK SMILES CCCCCCCCCCCCCCCC(=O)[O-]
REMARK SMILES IDX 9 1 10 2 11 3 12 4 13 5 14 6 15 7 16 8 17 9 18 10 8 11 7 12
REMARK SMILES IDX 6 13 5 14 4 15 3 16 2 17 1 18
REMARK H PARENT
REMARK Flexibility Score: inf
ROOT
ATOM      1  C   UNL     1      23.535  11.399  23.974  1.00  0.00     0.000 C 
ENDROOT
BRANCH   1   2
ATOM      2  C   UNL     1      22.475  10.353  23.584  1.00  0.00     0.000 C 
BRANCH   2   3
ATOM      3  C   UNL     1      22.414  10.020  22.081  1.00  0.00     0.000 C 
BRANCH   3   4
ATOM      4  C   UNL     1      22.679  11.244  21.187  1.00  0.00     0.000 C 
BRANCH   4   5
ATOM      5  C   UNL     1      23.971  11.108  20.366  1.00  0.00     0.000 C 
BRANCH   5   6
ATOM      6  C   UNL     1      24.822  12.390  20.389  1.00  0.00     0.006 C 
BRANCH   6   7
ATOM      7  C   UNL     1      24.122  13.537  21.131  1.00  0.00     0.053 C 
BRANCH   7   8
ATOM      8  C   UNL     1      23.625  14.590  20.187  1.00  0.00     0.041 C 
ATOM      9  O   UNL     1      23.071  15.629  20.634  1.00  0.00    -0.550 OA
ATOM     10  O   UNL     1      23.797  14.436  18.818  1.00  0.00    -0.550 OA
ENDBRANCH   7   8
ENDBRANCH   6   7
ENDBRANCH   5   6
ENDBRANCH   4   5
ENDBRANCH   3   4
ENDBRANCH   2   3
ENDBRANCH   1   2
BRANCH   1  11
ATOM     11  C   UNL     1      24.822  10.767  24.535  1.00  0.00     0.000 C 
BRANCH  11  12
ATOM     12  C   UNL     1      26.092  11.396  23.939  1.00  0.00    -0.000 C 
BRANCH  12  13
ATOM     13  C   UNL     1      27.133  10.340  23.527  1.00  0.00    -0.000 C 
BRANCH  13  14
ATOM     14  C   UNL     1      27.368  10.293  22.006  1.00  0.00    -0.000 C 
BRANCH  14  15
ATOM     15  C   UNL     1      28.270   9.142  21.524  1.00  0.00    -0.000 C 
BRANCH  15  16
ATOM     16  C   UNL     1      29.678   9.614  21.121  1.00  0.00    -0.000 C 
BRANCH  16  17
ATOM     17  C   UNL     1      30.174   8.948  19.829  1.00  0.00    -0.003 C 
ATOM     18  C   UNL     1      29.199   9.121  18.664  1.00  0.00     0.004 C 
ENDBRANCH  16  17
ENDBRANCH  15  16
ENDBRANCH  14  15
ENDBRANCH  13  14
ENDBRANCH  12  13
ENDBRANCH  11  12
ENDBRANCH   1  11
TORSDOF 14
ENDMDL
MODEL 5
REMARK VINA RESULT:    -3.938      3.206      4.878
REMARK INTER + INTRA:          -8.568
REMARK INTER:                  -6.187
REMARK INTRA:                  -2.381
REMARK UNBOUND:                -1.407
REMARK SMILES CCCCCCCCCCCCCCCC(=O)[O-]
REMARK SMILES IDX 9 1 10 2 11 3 12 4 13 5 14 6 15 7 16 8 17 9 18 10 8 11 7 12
REMARK SMILES IDX 6 13 5 14 4 15 3 16 2 17 1 18
REMARK H PARENT
REMARK Flexibility Score: inf
ROOT
ATOM      1  C   UNL     1      23.097  10.401  20.727  1.00  0.00     0.000 C 
ENDROOT
BRANCH   1   2
ATOM      2  C   UNL     1      22.298   9.893  21.941  1.00  0.00     0.000 C 
BRANCH   2   3
ATOM      3  C   UNL     1      22.382  10.787  23.193  1.00  0.00     0.000 C 
BRANCH   3   4
ATOM      4  C   UNL     1      22.697   9.993  24.473  1.00  0.00     0.000 C 
BRANCH   4   5
ATOM      5  C   UNL     1      23.680  10.728  25.398  1.00  0.00     0.000 C 
BRANCH   5   6
ATOM      6  C   UNL     1      25.003   9.963  25.580  1.00  0.00     0.006 C 
BRANCH   6   7
ATOM      7  C   UNL     1      26.011  10.743  26.435  1.00  0.00     0.053 C 
BRANCH   7   8
ATOM      8  C   UNL     1      27.426  10.423  26.060  1.00  0.00     0.041 C 
ATOM      9  O   UNL     1      28.358  10.613  26.885  1.00  0.00    -0.550 OA
ATOM     10  O   UNL     1      27.712   9.888  24.810  1.00  0.00    -0.550 OA
ENDBRANCH   7   8
ENDBRANCH   6   7
ENDBRANCH   5   6
ENDBRANCH   4   5
ENDBRANCH   3   4
ENDBRANCH   2   3
ENDBRANCH   1   2
BRANCH   1  11
ATOM     11  C   UNL     1      23.138  11.937  20.636  1.00  0.00     0.000 C 
BRANCH  11  12
ATOM     12  C   UNL     1      24.555  12.472  20.375  1.00  0.00    -0.000 C 
BRANCH  12  13
ATOM     13  C   UNL     1      25.647  11.509  20.874  1.00  0.00    -0.000 C 
BRANCH  13  14
ATOM     14  C   UNL     1      25.884  11.608  22.392  1.00  0.00    -0.000 C 
BRANCH  14  15
ATOM     15  C   UNL     1      26.644  12.866  22.851  1.00  0.00    -0.000 C 
BRANCH  15  16
ATOM     16  C   UNL     1      25.978  13.563  24.050  1.00  0.00    -0.000 C 
BRANCH  16  17
ATOM     17  C   UNL     1      24.489  13.851  23.809  1.00  0.00    -0.003 C 
ATOM     18  C   UNL     1      24.258  15.137  23.014  1.00  0.00     0.004 C 
ENDBRANCH  16  17
ENDBRANCH  15  16
ENDBRANCH  14  15
ENDBRANCH  13  14
ENDBRANCH  12  13
ENDBRANCH  11  12
ENDBRANCH   1  11
TORSDOF 14
ENDMDL
MODEL 6
REMARK VINA RESULT:    -3.912      2.768      5.793
REMARK INTER + INTRA:          -8.520
REMARK INTER:                  -6.290
REMARK INTRA:                  -2.230
REMARK UNBOUND:                -1.407
REMARK SMILES CCCCCCCCCCCCCCCC(=O)[O-]
REMARK SMILES IDX 9 1 10 2 11 3 12 4 13 5 14 6 15 7 16 8 17 9 18 10 8 11 7 12
REMARK SMILES IDX 6 13 5 14 4 15 3 16 2 17 1 18
REMARK H PARENT
REMARK Flexibility Score: inf
ROOT
ATOM      1  C   UNL     1      23.006  11.853  20.373  1.00  0.00     0.000 C 
ENDROOT
BRANCH   1   2
ATOM      2  C   UNL     1      24.410  12.481  20.314  1.00  0.00     0.000 C 
BRANCH   2   3
ATOM      3  C   UNL     1      25.573  11.492  20.512  1.00  0.00     0.000 C 
BRANCH   3   4
ATOM      4  C   UNL     1      26.395  11.782  21.780  1.00  0.00     0.000 C 
BRANCH   4   5
ATOM      5  C   UNL     1      27.030  10.516  22.377  1.00  0.00     0.000 C 
BRANCH   5   6
ATOM      6  C   UNL     1      27.049  10.535  23.916  1.00  0.00     0.006 C 
BRANCH   6   7
ATOM      7  C   UNL     1      27.675   9.263  24.503  1.00  0.00     0.053 C 
BRANCH   7   8
ATOM      8  C   UNL     1      28.722   9.579  25.527  1.00  0.00     0.041 C 
ATOM      9  O   UNL     1      28.405  10.158  26.599  1.00  0.00    -0.550 OA
ATOM     10  O   UNL     1      30.044   9.210  25.310  1.00  0.00    -0.550 OA
ENDBRANCH   7   8
ENDBRANCH   6   7
ENDBRANCH   5   6
ENDBRANCH   4   5
ENDBRANCH   3   4
ENDBRANCH   2   3
ENDBRANCH   1   2
BRANCH   1  11
ATOM     11  C   UNL     1      22.998  10.463  21.034  1.00  0.00     0.000 C 
BRANCH  11  12
ATOM     12  C   UNL     1      22.351  10.481  22.428  1.00  0.00    -0.000 C 
BRANCH  12  13
ATOM     13  C   UNL     1      23.369  10.768  23.545  1.00  0.00    -0.000 C 
BRANCH  13  14
ATOM     14  C   UNL     1      23.062  12.065  24.316  1.00  0.00    -0.000 C 
BRANCH  14  15
ATOM     15  C   UNL     1      23.707  13.336  23.733  1.00  0.00    -0.000 C 
BRANCH  15  16
ATOM     16  C   UNL     1      24.889  13.846  24.574  1.00  0.00    -0.000 C 
BRANCH  16  17
ATOM     17  C   UNL     1      25.145  12.979  25.816  1.00  0.00    -0.003 C 
ATOM     18  C   UNL     1      26.535  13.203  26.415  1.00  0.00     0.004 C 
ENDBRANCH  16  17
ENDBRANCH  15  16
ENDBRANCH  14  15
ENDBRANCH  13  14
ENDBRANCH  12  13
ENDBRANCH  11  12
ENDBRANCH   1  11
TORSDOF 14
ENDMDL
MODEL 7
REMARK VINA RESULT:    -3.899     14.305     16.731
REMARK INTER + INTRA:          -8.498
REMARK INTER:                  -6.464
REMARK INTRA:                  -2.034
REMARK UNBOUND:                -1.407
REMARK SMILES CCCCCCCCCCCCCCCC(=O)[O-]
REMARK SMILES IDX 9 1 10 2 11 3 12 4 13 5 14 6 15 7 16 8 17 9 18 10 8 11 7 12
REMARK SMILES IDX 6 13 5 14 4 15 3 16 2 17 1 18
REMARK H PARENT
REMARK Flexibility Score: inf
ROOT
ATOM      1  C   UNL     1      23.550  25.691  20.884  1.00  0.00     0.000 C 
ENDROOT
BRANCH   1   2
ATOM      2  C   UNL     1      23.819  24.610  21.947  1.00  0.00     0.000 C 
BRANCH   2   3
ATOM      3  C   UNL     1      25.194  23.925  21.843  1.00  0.00     0.000 C 
BRANCH   3   4
ATOM      4  C   UNL     1      26.360  24.929  21.818  1.00  0.00     0.000 C 
BRANCH   4   5
ATOM      5  C   UNL     1      26.482  25.728  23.125  1.00  0.00     0.000 C 
BRANCH   5   6
ATOM      6  C   UNL     1      26.777  27.218  22.880  1.00  0.00     0.006 C 
BRANCH   6   7
ATOM      7  C   UNL     1      27.862  27.426  21.814  1.00  0.00     0.053 C 
BRANCH   7   8
ATOM      8  C   UNL     1      29.078  28.095  22.379  1.00  0.00     0.041 C 
ATOM      9  O   UNL     1      29.337  28.005  23.608  1.00  0.00    -0.550 OA
ATOM     10  O   UNL     1      29.939  28.795  21.544  1.00  0.00    -0.550 OA
ENDBRANCH   7   8
ENDBRANCH   6   7
ENDBRANCH   5   6
ENDBRANCH   4   5
ENDBRANCH   3   4
ENDBRANCH   2   3
ENDBRANCH   1   2
BRANCH   1  11
ATOM     11  C   UNL     1      23.272  27.076  21.496  1.00  0.00     0.000 C 
BRANCH  11  12
ATOM     12  C   UNL     1      22.199  27.027  22.596  1.00  0.00    -0.000 C 
BRANCH  12  13
ATOM     13  C   UNL     1      22.514  27.975  23.766  1.00  0.00    -0.000 C 
BRANCH  13  14
ATOM     14  C   UNL     1      23.347  27.304  24.873  1.00  0.00    -0.000 C 
BRANCH  14  15
ATOM     15  C   UNL     1      22.898  25.880  25.252  1.00  0.00    -0.000 C 
BRANCH  15  16
ATOM     16  C   UNL     1      24.038  25.029  25.835  1.00  0.00    -0.000 C 
BRANCH  16  17
ATOM     17  C   UNL     1      23.524  23.894  26.734  1.00  0.00    -0.003 C 
ATOM     18  C   UNL     1      22.424  24.352  27.693  1.00  0.00     0.004 C 
ENDBRANCH  16  17
ENDBRANCH  15  16
ENDBRANCH  14  15
ENDBRANCH  13  14
ENDBRANCH  12  13
ENDBRANCH  11  12
ENDBRANCH   1  11
TORSDOF 14
ENDMDL
MODEL 8
REMARK VINA RESULT:    -3.891     13.805     16.185
REMARK INTER + INTRA:          -8.484
REMARK INTER:                  -5.927
REMARK INTRA:                  -2.557
REMARK UNBOUND:                -1.407
REMARK SMILES CCCCCCCCCCCCCCCC(=O)[O-]
REMARK SMILES IDX 9 1 10 2 11 3 12 4 13 5 14 6 15 7 16 8 17 9 18 10 8 11 7 12
REMARK SMILES IDX 6 13 5 14 4 15 3 16 2 17 1 18
REMARK H PARENT
REMARK Flexibility Score: inf
ROOT
ATOM      1  C   UNL     1      22.287  23.893  24.147  1.00  0.00     0.000 C 
ENDROOT
BRANCH   1   2
ATOM      2  C   UNL     1      22.782  23.196  22.866  1.00  0.00     0.000 C 
BRANCH   2   3
ATOM      3  C   UNL     1      24.311  23.060  22.750  1.00  0.00     0.000 C 
BRANCH   3   4
ATOM      4  C   UNL     1      24.904  23.925  21.624  1.00  0.00     0.000 C 
BRANCH   4   5
ATOM      5  C   UNL     1      26.225  24.599  22.028  1.00  0.00     0.000 C 
BRANCH   5   6
ATOM      6  C   UNL     1      26.784  25.511  20.921  1.00  0.00     0.006 C 
BRANCH   6   7
ATOM      7  C   UNL     1      26.522  26.995  21.207  1.00  0.00     0.053 C 
BRANCH   7   8
ATOM      8  C   UNL     1      27.657  27.630  21.951  1.00  0.00     0.041 C 
ATOM      9  O   UNL     1      27.645  27.670  23.210  1.00  0.00    -0.550 OA
ATOM     10  O   UNL     1      28.741  28.151  21.257  1.00  0.00    -0.550 OA
ENDBRANCH   7   8
ENDBRANCH   6   7
ENDBRANCH   5   6
ENDBRANCH   4   5
ENDBRANCH   3   4
ENDBRANCH   2   3
ENDBRANCH   1   2
BRANCH   1  11
ATOM     11  C   UNL     1      23.274  23.757  25.321  1.00  0.00     0.000 C 
BRANCH  11  12
ATOM     12  C   UNL     1      23.620  25.114  25.956  1.00  0.00    -0.000 C 
BRANCH  12  13
ATOM     13  C   UNL     1      24.799  25.808  25.252  1.00  0.00    -0.000 C 
BRANCH  13  14
ATOM     14  C   UNL     1      24.347  26.865  24.227  1.00  0.00    -0.000 C 
BRANCH  14  15
ATOM     15  C   UNL     1      23.008  27.554  24.552  1.00  0.00    -0.000 C 
BRANCH  15  16
ATOM     16  C   UNL     1      22.190  27.893  23.294  1.00  0.00    -0.000 C 
BRANCH  16  17
ATOM     17  C   UNL     1      22.881  27.435  22.001  1.00  0.00    -0.003 C 
ATOM     18  C   UNL     1      22.051  26.417  21.218  1.00  0.00     0.004 C 
ENDBRANCH  16  17
ENDBRANCH  15  16
ENDBRANCH  14  15
ENDBRANCH  13  14
ENDBRANCH  12  13
ENDBRANCH  11  12
ENDBRANCH   1  11
TORSDOF 14
ENDMDL
MODEL 9
REMARK VINA RESULT:    -3.840      2.208      5.481
REMARK INTER + INTRA:          -8.391
REMARK INTER:                  -6.445
REMARK INTRA:                  -1.946
REMARK UNBOUND:                -1.407
REMARK SMILES CCCCCCCCCCCCCCCC(=O)[O-]
REMARK SMILES IDX 9 1 10 2 11 3 12 4 13 5 14 6 15 7 16 8 17 9 18 10 8 11 7 12
REMARK SMILES IDX 6 13 5 14 4 15 3 16 2 17 1 18
REMARK H PARENT
REMARK Flexibility Score: inf
ROOT
ATOM      1  C   UNL     1      25.468  12.169  23.854  1.00  0.00     0.000 C 
ENDROOT
BRANCH   1   2
ATOM      2  C   UNL     1      26.667  12.094  22.891  1.00  0.00     0.000 C 
BRANCH   2   3
ATOM      3  C   UNL     1      26.803  10.765  22.124  1.00  0.00     0.000 C 
BRANCH   3   4
ATOM      4  C   UNL     1      28.215  10.161  22.223  1.00  0.00     0.000 C 
BRANCH   4   5
ATOM      5  C   UNL     1      28.251   8.875  23.063  1.00  0.00     0.000 C 
BRANCH   5   6
ATOM      6  C   UNL     1      28.536   9.151  24.551  1.00  0.00     0.006 C 
BRANCH   6   7
ATOM      7  C   UNL     1      27.279   8.998  25.419  1.00  0.00     0.053 C 
BRANCH   7   8
ATOM      8  C   UNL     1      27.235  10.014  26.519  1.00  0.00     0.041 C 
ATOM      9  O   UNL     1      28.245  10.724  26.766  1.00  0.00    -0.550 OA
ATOM     10  O   UNL     1      26.069  10.197  27.252  1.00  0.00    -0.550 OA
ENDBRANCH   7   8
ENDBRANCH   6   7
ENDBRANCH   5   6
ENDBRANCH   4   5
ENDBRANCH   3   4
ENDBRANCH   2   3
ENDBRANCH   1   2
BRANCH   1  11
ATOM     11  C   UNL     1      24.606  10.894  23.837  1.00  0.00     0.000 C 
BRANCH  11  12
ATOM     12  C   UNL     1      23.112  11.193  24.040  1.00  0.00    -0.000 C 
BRANCH  12  13
ATOM     13  C   UNL     1      22.304  11.064  22.737  1.00  0.00    -0.000 C 
BRANCH  13  14
ATOM     14  C   UNL     1      23.102  10.397  21.601  1.00  0.00    -0.000 C 
BRANCH  14  15
ATOM     15  C   UNL     1      23.092  11.161  20.264  1.00  0.00    -0.000 C 
BRANCH  15  16
ATOM     16  C   UNL     1      24.242  12.176  20.147  1.00  0.00    -0.000 C 
BRANCH  16  17
ATOM     17  C   UNL     1      23.801  13.492  19.489  1.00  0.00    -0.003 C 
ATOM     18  C   UNL     1      22.544  13.331  18.632  1.00  0.00     0.004 C 
ENDBRANCH  16  17
ENDBRANCH  15  16
ENDBRANCH  14  15
ENDBRANCH  13  14
ENDBRANCH  12  13
ENDBRANCH  11  12
ENDBRANCH   1  11
TORSDOF 14
ENDMDL
