MODEL 1
REMARK VINA RESULT:    -4.315      0.000      0.000
REMARK INTER + INTRA:         -10.251
REMARK INTER:                  -8.098
REMARK INTRA:                  -2.153
REMARK UNBOUND:                -2.153
REMARK SMILES O=C([O-])CCCCCCCCCCCCCCC(=O)[O-]
REMARK SMILES IDX 10 1 9 2 8 3 7 4 6 5 5 6 4 7 2 8 1 9 3 10 11 11 12 12 13 13
REMARK SMILES IDX 14 14 15 15 16 16 17 17 18 18 19 19 20 20
REMARK H PARENT
REMARK Flexibility Score: inf
ROOT
ATOM      1  C   UNL     1       8.081 -16.806  20.887  1.00  0.00     0.000 C 
ENDROOT
BRANCH   1   2
ATOM      2  C   UNL     1       7.591 -18.227  21.215  1.00  0.00     0.000 C 
BRANCH   2   3
ATOM      3  C   UNL     1       8.666 -19.083  21.909  1.00  0.00     0.000 C 
BRANCH   3   4
ATOM      4  C   UNL     1       8.208 -19.787  23.201  1.00  0.00     0.000 C 
BRANCH   4   5
ATOM      5  C   UNL     1       7.456 -21.117  22.991  1.00  0.00     0.000 C 
BRANCH   5   6
ATOM      6  C   UNL     1       7.662 -21.769  21.612  1.00  0.00     0.006 C 
BRANCH   6   7
ATOM      7  C   UNL     1       8.574 -23.002  21.668  1.00  0.00     0.053 C 
BRANCH   7   8
ATOM      8  C   UNL     1      10.005 -22.601  21.497  1.00  0.00     0.041 C 
ATOM      9  O   UNL     1      10.869 -22.959  22.340  1.00  0.00    -0.550 OA
ATOM     10  O   UNL     1      10.393 -21.872  20.380  1.00  0.00    -0.550 OA
ENDBRANCH   7   8
ENDBRANCH   6   7
ENDBRANCH   5   6
ENDBRANCH   4   5
ENDBRANCH   3   4
ENDBRANCH   2   3
ENDBRANCH   1   2
BRANCH   1  11
ATOM     11  C   UNL     1       7.082 -15.722  21.327  1.00  0.00     0.000 C 
BRANCH  11  12
ATOM     12  C   UNL     1       6.917 -15.657  22.855  1.00  0.00     0.000 C 
BRANCH  12  13
ATOM     13  C   UNL     1       8.172 -15.120  23.562  1.00  0.00     0.000 C 
BRANCH  13  14
ATOM     14  C   UNL     1       8.571 -15.958  24.786  1.00  0.00     0.000 C 
BRANCH  14  15
ATOM     15  C   UNL     1       9.921 -16.649  24.563  1.00  0.00     0.000 C 
BRANCH  15  16
ATOM     16  C   UNL     1      10.849 -15.782  23.701  1.00  0.00     0.006 C 
BRANCH  16  17
ATOM     17  C   UNL     1      11.376 -16.536  22.473  1.00  0.00     0.053 C 
BRANCH  17  18
ATOM     18  C   UNL     1      12.384 -17.577  22.852  1.00  0.00     0.041 C 
ATOM     19  O   UNL     1      13.335 -17.289  23.625  1.00  0.00    -0.550 OA
ATOM     20  O   UNL     1      12.253 -18.876  22.377  1.00  0.00    -0.550 OA
ENDBRANCH  17  18
ENDBRANCH  16  17
ENDBRANCH  15  16
ENDBRANCH  14  15
ENDBRANCH  13  14
ENDBRANCH  12  13
ENDBRANCH  11  12
ENDBRANCH   1  11
TORSDOF 15
ENDMDL
MODEL 2
REMARK VINA RESULT:    -4.313      2.581      4.259
REMARK INTER + INTRA:         -10.248
REMARK INTER:                  -8.194
REMARK INTRA:                  -2.054
REMARK UNBOUND:                -2.153
REMARK SMILES O=C([O-])CCCCCCCCCCCCCCC(=O)[O-]
REMARK SMILES IDX 10 1 9 2 8 3 7 4 6 5 5 6 4 7 2 8 1 9 3 10 11 11 12 12 13 13
REMARK SMILES IDX 14 14 15 15 16 16 17 17 18 18 19 19 20 20
REMARK H PARENT
REMARK Flexibility Score: inf
ROOT
ATOM      1  C   UNL     1       9.029 -21.128  18.831  1.00  0.00     0.000 C 
ENDROOT
BRANCH   1   2
ATOM      2  C   UNL     1       9.863 -21.531  20.059  1.00  0.00     0.000 C 
BRANCH   2   3
ATOM      3  C   UNL     1       9.116 -22.498  20.996  1.00  0.00     0.000 C 
BRANCH   3   4
ATOM      4  C   UNL     1       7.600 -22.616  20.741  1.00  0.00     0.000 C 
BRANCH   4   5
ATOM      5  C   UNL     1       6.723 -21.631  21.540  1.00  0.00     0.000 C 
BRANCH   5   6
ATOM      6  C   UNL     1       7.354 -21.110  22.844  1.00  0.00     0.006 C 
BRANCH   6   7
ATOM      7  C   UNL     1       6.490 -20.050  23.540  1.00  0.00     0.053 C 
BRANCH   7   8
ATOM      8  C   UNL     1       7.333 -19.191  24.428  1.00  0.00     0.041 C 
ATOM      9  O   UNL     1       8.565 -19.060  24.201  1.00  0.00    -0.550 OA
ATOM     10  O   UNL     1       6.749 -18.497  25.481  1.00  0.00    -0.550 OA
ENDBRANCH   7   8
ENDBRANCH   6   7
ENDBRANCH   5   6
ENDBRANCH   4   5
ENDBRANCH   3   4
ENDBRANCH   2   3
ENDBRANCH   1   2
BRANCH   1  11
ATOM     11  C   UNL     1       8.645 -19.639  18.842  1.00  0.00     0.000 C 
BRANCH  11  12
ATOM     12  C   UNL     1       8.876 -18.979  20.213  1.00  0.00     0.000 C 
BRANCH  12  13
ATOM     13  C   UNL     1       7.791 -17.947  20.561  1.00  0.00     0.000 C 
BRANCH  13  14
ATOM     14  C   UNL     1       8.327 -16.784  21.409  1.00  0.00     0.000 C 
BRANCH  14  15
ATOM     15  C   UNL     1       7.178 -15.946  21.982  1.00  0.00     0.000 C 
BRANCH  15  16
ATOM     16  C   UNL     1       7.473 -15.521  23.427  1.00  0.00     0.006 C 
BRANCH  16  17
ATOM     17  C   UNL     1       8.973 -15.315  23.678  1.00  0.00     0.053 C 
BRANCH  17  18
ATOM     18  C   UNL     1       9.406 -15.922  24.978  1.00  0.00     0.041 C 
ATOM     19  O   UNL     1       8.640 -15.897  25.977  1.00  0.00    -0.550 OA
ATOM     20  O   UNL     1      10.644 -16.546  25.074  1.00  0.00    -0.550 OA
ENDBRANCH  17  18
ENDBRANCH  16  17
ENDBRANCH  15  16
ENDBRANCH  14  15
ENDBRANCH  13  14
ENDBRANCH  12  13
ENDBRANCH  11  12
ENDBRANCH   1  11
TORSDOF 15
ENDMDL
MODEL 3
REMARK VINA RESULT:    -4.308      2.059      5.516
REMARK INTER + INTRA:         -10.238
REMARK INTER:                  -7.958
REMARK INTRA:                  -2.280
REMARK UNBOUND:                -2.153
REMARK SMILES O=C([O-])CCCCCCCCCCCCCCC(=O)[O-]
REMARK SMILES IDX 10 1 9 2 8 3 7 4 6 5 5 6 4 7 2 8 1 9 3 10 11 11 12 12 13 13
REMARK SMILES IDX 14 14 15 15 16 16 17 17 18 18 19 19 20 20
REMARK H PARENT
REMARK Flexibility Score: inf
ROOT
ATOM      1  C   UNL     1       7.009 -20.737  21.781  1.00  0.00     0.000 C 
ENDROOT
BRANCH   1   2
ATOM      2  C   UNL     1       7.304 -20.904  23.281  1.00  0.00     0.000 C 
BRANCH   2   3
ATOM      3  C   UNL     1       7.768 -19.596  23.946  1.00  0.00     0.000 C 
BRANCH   3   4
ATOM      4  C   UNL     1       7.162 -18.308  23.351  1.00  0.00     0.000 C 
BRANCH   4   5
ATOM      5  C   UNL     1       8.187 -17.288  22.817  1.00  0.00     0.000 C 
BRANCH   5   6
ATOM      6  C   UNL     1       8.126 -15.899  23.478  1.00  0.00     0.006 C 
BRANCH   6   7
ATOM      7  C   UNL     1       9.352 -15.603  24.354  1.00  0.00     0.053 C 
BRANCH   7   8
ATOM      8  C   UNL     1       9.282 -16.382  25.629  1.00  0.00     0.041 C 
ATOM      9  O   UNL     1       8.209 -16.430  26.285  1.00  0.00    -0.550 OA
ATOM     10  O   UNL     1      10.391 -17.094  26.069  1.00  0.00    -0.550 OA
ENDBRANCH   7   8
ENDBRANCH   6   7
ENDBRANCH   5   6
ENDBRANCH   4   5
ENDBRANCH   3   4
ENDBRANCH   2   3
ENDBRANCH   1   2
BRANCH   1  11
ATOM     11  C   UNL     1       7.609 -21.871  20.932  1.00  0.00     0.000 C 
BRANCH  11  12
ATOM     12  C   UNL     1       8.295 -22.950  21.787  1.00  0.00     0.000 C 
BRANCH  12  13
ATOM     13  C   UNL     1       9.800 -23.064  21.497  1.00  0.00     0.000 C 
BRANCH  13  14
ATOM     14  C   UNL     1      10.632 -22.011  22.243  1.00  0.00     0.000 C 
BRANCH  14  15
ATOM     15  C   UNL     1      11.179 -20.954  21.276  1.00  0.00     0.000 C 
BRANCH  15  16
ATOM     16  C   UNL     1      10.849 -19.536  21.764  1.00  0.00     0.006 C 
BRANCH  16  17
ATOM     17  C   UNL     1      11.337 -19.287  23.197  1.00  0.00     0.053 C 
BRANCH  17  18
ATOM     18  C   UNL     1      12.627 -18.525  23.220  1.00  0.00     0.041 C 
ATOM     19  O   UNL     1      13.675 -19.037  22.745  1.00  0.00    -0.550 OA
ATOM     20  O   UNL     1      12.662 -17.236  23.736  1.00  0.00    -0.550 OA
ENDBRANCH  17  18
ENDBRANCH  16  17
ENDBRANCH  15  16
ENDBRANCH  14  15
ENDBRANCH  13  14
ENDBRANCH  12  13
ENDBRANCH  11  12
ENDBRANCH   1  11
TORSDOF 15
ENDMDL
MODEL 4
REMARK VINA RESULT:    -4.304      2.991      6.052
REMARK INTER + INTRA:         -10.232
REMARK INTER:                  -8.240
REMARK INTRA:                  -1.991
REMARK UNBOUND:                -2.153
REMARK SMILES O=C([O-])CCCCCCCCCCCCCCC(=O)[O-]
REMARK SMILES IDX 10 1 9 2 8 3 7 4 6 5 5 6 4 7 2 8 1 9 3 10 11 11 12 12 13 13
REMARK SMILES IDX 14 14 15 15 16 16 17 17 18 18 19 19 20 20
REMARK H PARENT
REMARK Flexibility Score: inf
ROOT
ATOM      1  C   UNL     1       9.532 -16.575  24.907  1.00  0.00     0.000 C 
ENDROOT
BRANCH   1   2
ATOM      2  C   UNL     1       9.316 -15.656  23.693  1.00  0.00     0.000 C 
BRANCH   2   3
ATOM      3  C   UNL     1       7.877 -15.118  23.601  1.00  0.00     0.000 C 
BRANCH   3   4
ATOM      4  C   UNL     1       7.073 -15.606  22.380  1.00  0.00     0.000 C 
BRANCH   4   5
ATOM      5  C   UNL     1       7.756 -16.706  21.542  1.00  0.00     0.000 C 
BRANCH   5   6
ATOM      6  C   UNL     1       7.567 -16.575  20.020  1.00  0.00     0.006 C 
BRANCH   6   7
ATOM      7  C   UNL     1       6.659 -15.400  19.633  1.00  0.00     0.053 C 
BRANCH   7   8
ATOM      8  C   UNL     1       7.083 -14.824  18.319  1.00  0.00     0.041 C 
ATOM      9  O   UNL     1       6.321 -14.040  17.694  1.00  0.00    -0.550 OA
ATOM     10  O   UNL     1       8.341 -15.117  17.807  1.00  0.00    -0.550 OA
ENDBRANCH   7   8
ENDBRANCH   6   7
ENDBRANCH   5   6
ENDBRANCH   4   5
ENDBRANCH   3   4
ENDBRANCH   2   3
ENDBRANCH   1   2
BRANCH   1  11
ATOM     11  C   UNL     1       8.253 -16.762  25.741  1.00  0.00     0.000 C 
BRANCH  11  12
ATOM     12  C   UNL     1       7.759 -18.218  25.745  1.00  0.00     0.000 C 
BRANCH  12  13
ATOM     13  C   UNL     1       6.597 -18.450  24.765  1.00  0.00     0.000 C 
BRANCH  13  14
ATOM     14  C   UNL     1       6.916 -19.516  23.707  1.00  0.00     0.000 C 
BRANCH  14  15
ATOM     15  C   UNL     1       8.427 -19.757  23.606  1.00  0.00     0.000 C 
BRANCH  15  16
ATOM     16  C   UNL     1       8.815 -20.249  22.204  1.00  0.00     0.006 C 
BRANCH  16  17
ATOM     17  C   UNL     1       7.778 -21.216  21.620  1.00  0.00     0.053 C 
BRANCH  17  18
ATOM     18  C   UNL     1       8.408 -22.499  21.169  1.00  0.00     0.041 C 
ATOM     19  O   UNL     1       7.792 -23.590  21.303  1.00  0.00    -0.550 OA
ATOM     20  O   UNL     1       9.660 -22.484  20.570  1.00  0.00    -0.550 OA
ENDBRANCH  17  18
ENDBRANCH  16  17
ENDBRANCH  15  16
ENDBRANCH  14  15
ENDBRANCH  13  14
ENDBRANCH  12  13
ENDBRANCH  11  12
ENDBRANCH   1  11
TORSDOF 15
ENDMDL
MODEL 5
REMARK VINA RESULT:    -4.283      1.663      2.177
REMARK INTER + INTRA:         -10.192
REMARK INTER:                  -7.818
REMARK INTRA:                  -2.374
REMARK UNBOUND:                -2.153
REMARK SMILES O=C([O-])CCCCCCCCCCCCCCC(=O)[O-]
REMARK SMILES IDX 10 1 9 2 8 3 7 4 6 5 5 6 4 7 2 8 1 9 3 10 11 11 12 12 13 13
REMARK SMILES IDX 14 14 15 15 16 16 17 17 18 18 19 19 20 20
REMARK H PARENT
REMARK Flexibility Score: inf
ROOT
ATOM      1  C   UNL     1       7.273 -19.139  23.106  1.00  0.00     0.000 C 
ENDROOT
BRANCH   1   2
ATOM      2  C   UNL     1       8.105 -18.654  21.907  1.00  0.00     0.000 C 
BRANCH   2   3
ATOM      3  C   UNL     1       9.584 -19.073  21.999  1.00  0.00     0.000 C 
BRANCH   3   4
ATOM      4  C   UNL     1       9.905 -20.103  23.101  1.00  0.00     0.000 C 
BRANCH   4   5
ATOM      5  C   UNL     1      10.846 -21.247  22.675  1.00  0.00     0.000 C 
BRANCH   5   6
ATOM      6  C   UNL     1      10.480 -21.927  21.343  1.00  0.00     0.006 C 
BRANCH   6   7
ATOM      7  C   UNL     1       9.209 -22.782  21.441  1.00  0.00     0.053 C 
BRANCH   7   8
ATOM      8  C   UNL     1       8.142 -22.234  20.547  1.00  0.00     0.041 C 
ATOM      9  O   UNL     1       6.966 -22.097  20.974  1.00  0.00    -0.550 OA
ATOM     10  O   UNL     1       8.458 -21.832  19.256  1.00  0.00    -0.550 OA
ENDBRANCH   7   8
ENDBRANCH   6   7
ENDBRANCH   5   6
ENDBRANCH   4   5
ENDBRANCH   3   4
ENDBRANCH   2   3
ENDBRANCH   1   2
BRANCH   1  11
ATOM     11  C   UNL     1       6.943 -18.006  24.092  1.00  0.00     0.000 C 
BRANCH  11  12
ATOM     12  C   UNL     1       7.378 -16.625  23.572  1.00  0.00     0.000 C 
BRANCH  12  13
ATOM     13  C   UNL     1       8.454 -15.973  24.457  1.00  0.00     0.000 C 
BRANCH  13  14
ATOM     14  C   UNL     1       8.692 -16.741  25.766  1.00  0.00     0.000 C 
BRANCH  14  15
ATOM     15  C   UNL     1      10.158 -17.170  25.893  1.00  0.00     0.000 C 
BRANCH  15  16
ATOM     16  C   UNL     1      10.957 -16.781  24.641  1.00  0.00     0.006 C 
BRANCH  16  17
ATOM     17  C   UNL     1      12.276 -17.556  24.529  1.00  0.00     0.053 C 
BRANCH  17  18
ATOM     18  C   UNL     1      13.029 -17.194  23.285  1.00  0.00     0.041 C 
ATOM     19  O   UNL     1      13.716 -16.139  23.243  1.00  0.00    -0.550 OA
ATOM     20  O   UNL     1      12.996 -18.039  22.183  1.00  0.00    -0.550 OA
ENDBRANCH  17  18
ENDBRANCH  16  17
ENDBRANCH  15  16
ENDBRANCH  14  15
ENDBRANCH  13  14
ENDBRANCH  12  13
ENDBRANCH  11  12
ENDBRANCH   1  11
TORSDOF 15
ENDMDL
MODEL 6
REMARK VINA RESULT:    -4.268      1.430      5.022
REMARK INTER + INTRA:         -10.163
REMARK INTER:                  -7.671
REMARK INTRA:                  -2.492
REMARK UNBOUND:                -2.153
REMARK SMILES O=C([O-])CCCCCCCCCCCCCCC(=O)[O-]
REMARK SMILES IDX 10 1 9 2 8 3 7 4 6 5 5 6 4 7 2 8 1 9 3 10 11 11 12 12 13 13
REMARK SMILES IDX 14 14 15 15 16 16 17 17 18 18 19 19 20 20
REMARK H PARENT
REMARK Flexibility Score: inf
ROOT
ATOM      1  C   UNL     1       6.736 -15.720  22.230  1.00  0.00     0.000 C 
ENDROOT
BRANCH   1   2
ATOM      2  C   UNL     1       7.203 -15.544  20.775  1.00  0.00     0.000 C 
BRANCH   2   3
ATOM      3  C   UNL     1       7.042 -16.827  19.938  1.00  0.00     0.000 C 
BRANCH   3   4
ATOM      4  C   UNL     1       7.790 -18.060  20.481  1.00  0.00     0.000 C 
BRANCH   4   5
ATOM      5  C   UNL     1       9.311 -18.069  20.227  1.00  0.00     0.000 C 
BRANCH   5   6
ATOM      6  C   UNL     1      10.181 -17.959  21.492  1.00  0.00     0.006 C 
BRANCH   6   7
ATOM      7  C   UNL     1      11.195 -16.810  21.418  1.00  0.00     0.053 C 
BRANCH   7   8
ATOM      8  C   UNL     1      11.826 -16.583  22.756  1.00  0.00     0.041 C 
ATOM      9  O   UNL     1      11.521 -15.570  23.437  1.00  0.00    -0.550 OA
ATOM     10  O   UNL     1      12.716 -17.518  23.270  1.00  0.00    -0.550 OA
ENDBRANCH   7   8
ENDBRANCH   6   7
ENDBRANCH   5   6
ENDBRANCH   4   5
ENDBRANCH   3   4
ENDBRANCH   2   3
ENDBRANCH   1   2
BRANCH   1  11
ATOM     11  C   UNL     1       7.850 -15.418  23.247  1.00  0.00     0.000 C 
BRANCH  11  12
ATOM     12  C   UNL     1       8.122 -16.600  24.193  1.00  0.00     0.000 C 
BRANCH  12  13
ATOM     13  C   UNL     1       7.029 -17.678  24.119  1.00  0.00     0.000 C 
BRANCH  13  14
ATOM     14  C   UNL     1       7.600 -19.091  23.920  1.00  0.00     0.000 C 
BRANCH  14  15
ATOM     15  C   UNL     1       6.488 -20.090  23.578  1.00  0.00     0.000 C 
BRANCH  15  16
ATOM     16  C   UNL     1       6.965 -21.109  22.534  1.00  0.00     0.006 C 
BRANCH  16  17
ATOM     17  C   UNL     1       8.495 -21.221  22.487  1.00  0.00     0.053 C 
BRANCH  17  18
ATOM     18  C   UNL     1       8.939 -22.508  21.862  1.00  0.00     0.041 C 
ATOM     19  O   UNL     1       8.091 -23.307  21.384  1.00  0.00    -0.550 OA
ATOM     20  O   UNL     1      10.292 -22.808  21.778  1.00  0.00    -0.550 OA
ENDBRANCH  17  18
ENDBRANCH  16  17
ENDBRANCH  15  16
ENDBRANCH  14  15
ENDBRANCH  13  14
ENDBRANCH  12  13
ENDBRANCH  11  12
ENDBRANCH   1  11
TORSDOF 15
ENDMDL
MODEL 7
REMARK VINA RESULT:    -4.259      3.124      6.404
REMARK INTER + INTRA:         -10.147
REMARK INTER:                  -7.897
REMARK INTRA:                  -2.250
REMARK UNBOUND:                -2.153
REMARK SMILES O=C([O-])CCCCCCCCCCCCCCC(=O)[O-]
REMARK SMILES IDX 10 1 9 2 8 3 7 4 6 5 5 6 4 7 2 8 1 9 3 10 11 11 12 12 13 13
REMARK SMILES IDX 14 14 15 15 16 16 17 17 18 18 19 19 20 20
REMARK H PARENT
REMARK Flexibility Score: inf
ROOT
ATOM      1  C   UNL     1      10.688 -21.960  22.406  1.00  0.00     0.000 C 
ENDROOT
BRANCH   1   2
ATOM      2  C   UNL     1      11.513 -20.894  21.666  1.00  0.00     0.000 C 
BRANCH   2   3
ATOM      3  C   UNL     1      12.284 -19.966  22.622  1.00  0.00     0.000 C 
BRANCH   3   4
ATOM      4  C   UNL     1      11.685 -18.556  22.790  1.00  0.00     0.000 C 
BRANCH   4   5
ATOM      5  C   UNL     1      12.195 -17.768  24.014  1.00  0.00     0.000 C 
BRANCH   5   6
ATOM      6  C   UNL     1      11.118 -16.963  24.763  1.00  0.00     0.006 C 
BRANCH   6   7
ATOM      7  C   UNL     1      10.368 -15.982  23.853  1.00  0.00     0.053 C 
BRANCH   7   8
ATOM      8  C   UNL     1       9.035 -15.641  24.439  1.00  0.00     0.041 C 
ATOM      9  O   UNL     1       8.816 -15.822  25.666  1.00  0.00    -0.550 OA
ATOM     10  O   UNL     1       8.048 -15.078  23.639  1.00  0.00    -0.550 OA
ENDBRANCH   7   8
ENDBRANCH   6   7
ENDBRANCH   5   6
ENDBRANCH   4   5
ENDBRANCH   3   4
ENDBRANCH   2   3
ENDBRANCH   1   2
BRANCH   1  11
ATOM     11  C   UNL     1      10.051 -22.983  21.451  1.00  0.00     0.000 C 
BRANCH  11  12
ATOM     12  C   UNL     1       8.544 -22.747  21.251  1.00  0.00     0.000 C 
BRANCH  12  13
ATOM     13  C   UNL     1       8.241 -21.874  20.023  1.00  0.00     0.000 C 
BRANCH  13  14
ATOM     14  C   UNL     1       7.833 -20.441  20.397  1.00  0.00     0.000 C 
BRANCH  14  15
ATOM     15  C   UNL     1       7.388 -20.362  21.863  1.00  0.00     0.000 C 
BRANCH  15  16
ATOM     16  C   UNL     1       8.007 -19.142  22.561  1.00  0.00     0.006 C 
BRANCH  16  17
ATOM     17  C   UNL     1       8.260 -19.394  24.053  1.00  0.00     0.053 C 
BRANCH  17  18
ATOM     18  C   UNL     1       7.139 -18.874  24.901  1.00  0.00     0.041 C 
ATOM     19  O   UNL     1       6.301 -18.067  24.420  1.00  0.00    -0.550 OA
ATOM     20  O   UNL     1       7.003 -19.308  26.213  1.00  0.00    -0.550 OA
ENDBRANCH  17  18
ENDBRANCH  16  17
ENDBRANCH  15  16
ENDBRANCH  14  15
ENDBRANCH  13  14
ENDBRANCH  12  13
ENDBRANCH  11  12
ENDBRANCH   1  11
TORSDOF 15
ENDMDL
MODEL 8
REMARK VINA RESULT:    -4.258      1.600      4.659
REMARK INTER + INTRA:         -10.144
REMARK INTER:                  -7.820
REMARK INTRA:                  -2.324
REMARK UNBOUND:                -2.153
REMARK SMILES O=C([O-])CCCCCCCCCCCCCCC(=O)[O-]
REMARK SMILES IDX 10 1 9 2 8 3 7 4 6 5 5 6 4 7 2 8 1 9 3 10 11 11 12 12 13 13
REMARK SMILES IDX 14 14 15 15 16 16 17 17 18 18 19 19 20 20
REMARK H PARENT
REMARK Flexibility Score: inf
ROOT
ATOM      1  C   UNL     1       8.039 -15.105  23.426  1.00  0.00     0.000 C 
ENDROOT
BRANCH   1   2
ATOM      2  C   UNL     1       9.065 -15.547  24.482  1.00  0.00     0.000 C 
BRANCH   2   3
ATOM      3  C   UNL     1      10.479 -15.731  23.900  1.00  0.00     0.000 C 
BRANCH   3   4
ATOM      4  C   UNL     1      10.982 -17.187  23.850  1.00  0.00     0.000 C 
BRANCH   4   5
ATOM      5  C   UNL     1      11.637 -17.609  22.520  1.00  0.00     0.000 C 
BRANCH   5   6
ATOM      6  C   UNL     1      11.348 -19.057  22.084  1.00  0.00     0.006 C 
BRANCH   6   7
ATOM      7  C   UNL     1      11.130 -20.003  23.273  1.00  0.00     0.053 C 
BRANCH   7   8
ATOM      8  C   UNL     1      12.413 -20.675  23.646  1.00  0.00     0.041 C 
ATOM      9  O   UNL     1      13.048 -20.307  24.669  1.00  0.00    -0.550 OA
ATOM     10  O   UNL     1      12.884 -21.741  22.889  1.00  0.00    -0.550 OA
ENDBRANCH   7   8
ENDBRANCH   6   7
ENDBRANCH   5   6
ENDBRANCH   4   5
ENDBRANCH   3   4
ENDBRANCH   2   3
ENDBRANCH   1   2
BRANCH   1  11
ATOM     11  C   UNL     1       7.126 -16.256  22.971  1.00  0.00     0.000 C 
BRANCH  11  12
ATOM     12  C   UNL     1       7.600 -16.904  21.659  1.00  0.00     0.000 C 
BRANCH  12  13
ATOM     13  C   UNL     1       7.881 -18.408  21.812  1.00  0.00     0.000 C 
BRANCH  13  14
ATOM     14  C   UNL     1       7.664 -18.910  23.247  1.00  0.00     0.000 C 
BRANCH  14  15
ATOM     15  C   UNL     1       6.854 -20.212  23.257  1.00  0.00     0.000 C 
BRANCH  15  16
ATOM     16  C   UNL     1       7.061 -21.001  21.956  1.00  0.00     0.006 C 
BRANCH  16  17
ATOM     17  C   UNL     1       8.083 -22.133  22.119  1.00  0.00     0.053 C 
BRANCH  17  18
ATOM     18  C   UNL     1       8.955 -22.273  20.908  1.00  0.00     0.041 C 
ATOM     19  O   UNL     1      10.135 -22.698  21.021  1.00  0.00    -0.550 OA
ATOM     20  O   UNL     1       8.451 -21.964  19.651  1.00  0.00    -0.550 OA
ENDBRANCH  17  18
ENDBRANCH  16  17
ENDBRANCH  15  16
ENDBRANCH  14  15
ENDBRANCH  13  14
ENDBRANCH  12  13
ENDBRANCH  11  12
ENDBRANCH   1  11
TORSDOF 15
ENDMDL
MODEL 9
REMARK VINA RESULT:    -4.225      1.615      4.833
REMARK INTER + INTRA:         -10.083
REMARK INTER:                  -7.404
REMARK INTRA:                  -2.679
REMARK UNBOUND:                -2.153
REMARK SMILES O=C([O-])CCCCCCCCCCCCCCC(=O)[O-]
REMARK SMILES IDX 10 1 9 2 8 3 7 4 6 5 5 6 4 7 2 8 1 9 3 10 11 11 12 12 13 13
REMARK SMILES IDX 14 14 15 15 16 16 17 17 18 18 19 19 20 20
REMARK H PARENT
REMARK Flexibility Score: inf
ROOT
ATOM      1  C   UNL     1       6.754 -17.281  23.633  1.00  0.00     0.000 C 
ENDROOT
BRANCH   1   2
ATOM      2  C   UNL     1       7.700 -16.575  22.648  1.00  0.00     0.000 C 
BRANCH   2   3
ATOM      3  C   UNL     1       8.036 -17.440  21.419  1.00  0.00     0.000 C 
BRANCH   3   4
ATOM      4  C   UNL     1       9.541 -17.590  21.116  1.00  0.00     0.000 C 
BRANCH   4   5
ATOM      5  C   UNL     1      10.208 -18.844  21.716  1.00  0.00     0.000 C 
BRANCH   5   6
ATOM      6  C   UNL     1      10.621 -18.716  23.194  1.00  0.00     0.006 C 
BRANCH   6   7
ATOM      7  C   UNL     1      11.504 -19.878  23.667  1.00  0.00     0.053 C 
BRANCH   7   8
ATOM      8  C   UNL     1      12.904 -19.707  23.167  1.00  0.00     0.041 C 
ATOM      9  O   UNL     1      13.626 -18.776  23.610  1.00  0.00    -0.550 OA
ATOM     10  O   UNL     1      13.426 -20.605  22.244  1.00  0.00    -0.550 OA
ENDBRANCH   7   8
ENDBRANCH   6   7
ENDBRANCH   5   6
ENDBRANCH   4   5
ENDBRANCH   3   4
ENDBRANCH   2   3
ENDBRANCH   1   2
BRANCH   1  11
ATOM     11  C   UNL     1       7.500 -17.894  24.831  1.00  0.00     0.000 C 
BRANCH  11  12
ATOM     12  C   UNL     1       7.357 -19.425  24.894  1.00  0.00     0.000 C 
BRANCH  12  13
ATOM     13  C   UNL     1       6.615 -19.999  23.676  1.00  0.00     0.000 C 
BRANCH  13  14
ATOM     14  C   UNL     1       7.393 -21.129  22.984  1.00  0.00     0.000 C 
BRANCH  14  15
ATOM     15  C   UNL     1       7.207 -21.073  21.463  1.00  0.00     0.000 C 
BRANCH  15  16
ATOM     16  C   UNL     1       8.144 -22.063  20.757  1.00  0.00     0.006 C 
BRANCH  16  17
ATOM     17  C   UNL     1       8.940 -22.919  21.750  1.00  0.00     0.053 C 
BRANCH  17  18
ATOM     18  C   UNL     1      10.417 -22.726  21.590  1.00  0.00     0.041 C 
ATOM     19  O   UNL     1      11.213 -23.164  22.462  1.00  0.00    -0.550 OA
ATOM     20  O   UNL     1      10.916 -22.090  20.460  1.00  0.00    -0.550 OA
ENDBRANCH  17  18
ENDBRANCH  16  17
ENDBRANCH  15  16
ENDBRANCH  14  15
ENDBRANCH  13  14
ENDBRANCH  12  13
ENDBRANCH  11  12
ENDBRANCH   1  11
TORSDOF 15
ENDMDL
