MODEL 1
REMARK VINA RESULT:    -4.485      0.000      0.000
REMARK INTER + INTRA:          -4.986
REMARK INTER:                  -4.879
REMARK INTRA:                  -0.107
REMARK UNBOUND:                -0.107
REMARK SMILES Cc1ccc(C(C)C)cc1O
REMARK SMILES IDX 1 1 2 2 10 3 9 4 5 5 4 6 3 7 11 8 6 10 7 11 8 12
REMARK H PARENT 11 9
REMARK Flexibility Score: inf
ROOT
ATOM      1  C   UNL     1     -23.205  26.436   7.760  1.00  0.00     0.048 C 
ATOM      2  C   UNL     1     -22.869  25.815   9.085  1.00  0.00    -0.009 A 
ATOM      3  C   UNL     1     -22.125  24.623   9.142  1.00  0.00     0.118 A 
ATOM      4  C   UNL     1     -21.816  24.049  10.383  1.00  0.00     0.050 A 
ATOM      5  C   UNL     1     -22.242  24.653  11.580  1.00  0.00    -0.042 A 
ATOM      6  C   UNL     1     -22.985  25.844  11.513  1.00  0.00     0.004 A 
ATOM      7  C   UNL     1     -23.295  26.419  10.278  1.00  0.00     0.007 A 
ENDROOT
BRANCH   3   8
ATOM      8  O   UNL     1     -21.695  24.013   7.963  1.00  0.00    -0.508 OA
ATOM      9  H   UNL     1     -21.301  24.551   7.199  1.00  0.00     0.293 HD
ENDBRANCH   3   8
BRANCH   5  10
ATOM     10  C   UNL     1     -21.914  24.040  12.929  1.00  0.00     0.013 C 
ATOM     11  C   UNL     1     -20.660  23.160  12.843  1.00  0.00     0.012 C 
ATOM     12  C   UNL     1     -23.105  23.250  13.482  1.00  0.00     0.012 C 
ENDBRANCH   5  10
TORSDOF 2
ENDMDL
MODEL 2
REMARK VINA RESULT:    -4.432      1.707      2.413
REMARK INTER + INTRA:          -4.927
REMARK INTER:                  -4.825
REMARK INTRA:                  -0.102
REMARK UNBOUND:                -0.107
REMARK SMILES Cc1ccc(C(C)C)cc1O
REMARK SMILES IDX 1 1 2 2 10 3 9 4 5 5 4 6 3 7 11 8 6 10 7 11 8 12
REMARK H PARENT 11 9
REMARK Flexibility Score: inf
ROOT
ATOM      1  C   UNL     1     -23.298  26.380   7.422  1.00  0.00     0.048 C 
ATOM      2  C   UNL     1     -23.337  25.605   8.709  1.00  0.00    -0.009 A 
ATOM      3  C   UNL     1     -23.135  26.260   9.936  1.00  0.00     0.118 A 
ATOM      4  C   UNL     1     -23.171  25.531  11.133  1.00  0.00     0.050 A 
ATOM      5  C   UNL     1     -23.410  24.143  11.122  1.00  0.00    -0.042 A 
ATOM      6  C   UNL     1     -23.610  23.499   9.890  1.00  0.00     0.004 A 
ATOM      7  C   UNL     1     -23.574  24.222   8.695  1.00  0.00     0.007 A 
ENDROOT
BRANCH   3   8
ATOM      8  O   UNL     1     -22.898  27.634   9.963  1.00  0.00    -0.508 OA
ATOM      9  H   UNL     1     -22.078  28.041   9.528  1.00  0.00     0.293 HD
ENDBRANCH   3   8
BRANCH   5  10
ATOM     10  C   UNL     1     -23.451  23.344  12.412  1.00  0.00     0.013 C 
ATOM     11  C   UNL     1     -24.125  24.143  13.534  1.00  0.00     0.012 C 
ATOM     12  C   UNL     1     -22.047  22.888  12.825  1.00  0.00     0.012 C 
ENDBRANCH   5  10
TORSDOF 2
ENDMDL
MODEL 3
REMARK VINA RESULT:    -3.896     11.267     12.808
REMARK INTER + INTRA:          -4.344
REMARK INTER:                  -4.217
REMARK INTRA:                  -0.127
REMARK UNBOUND:                -0.107
REMARK SMILES Cc1ccc(C(C)C)cc1O
REMARK SMILES IDX 1 1 2 2 10 3 9 4 5 5 4 6 3 7 11 8 6 10 7 11 8 12
REMARK H PARENT 11 9
REMARK Flexibility Score: inf
ROOT
ATOM      1  C   UNL     1     -18.707  31.615  24.125  1.00  0.00     0.048 C 
ATOM      2  C   UNL     1     -19.155  30.791  22.952  1.00  0.00    -0.009 A 
ATOM      3  C   UNL     1     -18.424  29.654  22.565  1.00  0.00     0.118 A 
ATOM      4  C   UNL     1     -18.847  28.890  21.468  1.00  0.00     0.050 A 
ATOM      5  C   UNL     1     -20.001  29.247  20.745  1.00  0.00    -0.042 A 
ATOM      6  C   UNL     1     -20.723  30.385  21.140  1.00  0.00     0.004 A 
ATOM      7  C   UNL     1     -20.305  31.149  22.232  1.00  0.00     0.007 A 
ENDROOT
BRANCH   3   8
ATOM      8  O   UNL     1     -17.279  29.287  23.271  1.00  0.00    -0.508 OA
ATOM      9  H   UNL     1     -17.335  28.843  24.181  1.00  0.00     0.293 HD
ENDBRANCH   3   8
BRANCH   5  10
ATOM     10  C   UNL     1     -20.467  28.427  19.556  1.00  0.00     0.013 C 
ATOM     11  C   UNL     1     -21.929  28.738  19.211  1.00  0.00     0.012 C 
ATOM     12  C   UNL     1     -20.266  26.928  19.806  1.00  0.00     0.012 C 
ENDBRANCH   5  10
TORSDOF 2
ENDMDL
MODEL 4
REMARK VINA RESULT:    -3.858      1.648      2.702
REMARK INTER + INTRA:          -4.303
REMARK INTER:                  -4.177
REMARK INTRA:                  -0.127
REMARK UNBOUND:                -0.107
REMARK SMILES Cc1ccc(C(C)C)cc1O
REMARK SMILES IDX 1 1 2 2 10 3 9 4 5 5 4 6 3 7 11 8 6 10 7 11 8 12
REMARK H PARENT 11 9
REMARK Flexibility Score: inf
ROOT
ATOM      1  C   UNL     1     -24.125  25.091  10.059  1.00  0.00     0.048 C 
ATOM      2  C   UNL     1     -23.313  24.595  11.221  1.00  0.00    -0.009 A 
ATOM      3  C   UNL     1     -21.909  24.635  11.174  1.00  0.00     0.118 A 
ATOM      4  C   UNL     1     -21.157  24.169  12.262  1.00  0.00     0.050 A 
ATOM      5  C   UNL     1     -21.794  23.661  13.410  1.00  0.00    -0.042 A 
ATOM      6  C   UNL     1     -23.198  23.625  13.447  1.00  0.00     0.004 A 
ATOM      7  C   UNL     1     -23.950  24.088  12.365  1.00  0.00     0.007 A 
ENDROOT
BRANCH   3   8
ATOM      8  O   UNL     1     -21.263  25.137  10.043  1.00  0.00    -0.508 OA
ATOM      9  H   UNL     1     -20.326  24.842   9.792  1.00  0.00     0.293 HD
ENDBRANCH   3   8
BRANCH   5  10
ATOM     10  C   UNL     1     -20.990  23.154  14.593  1.00  0.00     0.013 C 
ATOM     11  C   UNL     1     -21.827  23.177  15.878  1.00  0.00     0.012 C 
ATOM     12  C   UNL     1     -19.694  23.954  14.764  1.00  0.00     0.012 C 
ENDBRANCH   5  10
TORSDOF 2
ENDMDL
MODEL 5
REMARK VINA RESULT:    -3.799     11.286     12.882
REMARK INTER + INTRA:          -4.240
REMARK INTER:                  -4.116
REMARK INTRA:                  -0.124
REMARK UNBOUND:                -0.107
REMARK SMILES Cc1ccc(C(C)C)cc1O
REMARK SMILES IDX 1 1 2 2 10 3 9 4 5 5 4 6 3 7 11 8 6 10 7 11 8 12
REMARK H PARENT 11 9
REMARK Flexibility Score: inf
ROOT
ATOM      1  C   UNL     1     -18.769  31.677  24.125  1.00  0.00     0.048 C 
ATOM      2  C   UNL     1     -19.201  30.843  22.952  1.00  0.00    -0.009 A 
ATOM      3  C   UNL     1     -20.346  31.196  22.216  1.00  0.00     0.118 A 
ATOM      4  C   UNL     1     -20.744  30.413  21.123  1.00  0.00     0.050 A 
ATOM      5  C   UNL     1     -20.008  29.272  20.751  1.00  0.00    -0.042 A 
ATOM      6  C   UNL     1     -18.867  28.929  21.493  1.00  0.00     0.004 A 
ATOM      7  C   UNL     1     -18.467  29.706  22.583  1.00  0.00     0.007 A 
ENDROOT
BRANCH   3   8
ATOM      8  O   UNL     1     -21.085  32.324  22.573  1.00  0.00    -0.508 OA
ATOM      9  H   UNL     1     -21.618  32.849  21.888  1.00  0.00     0.293 HD
ENDBRANCH   3   8
BRANCH   5  10
ATOM     10  C   UNL     1     -20.431  28.418  19.570  1.00  0.00     0.013 C 
ATOM     11  C   UNL     1     -21.881  28.712  19.167  1.00  0.00     0.012 C 
ATOM     12  C   UNL     1     -20.232  26.927  19.867  1.00  0.00     0.012 C 
ENDBRANCH   5  10
TORSDOF 2
ENDMDL
MODEL 6
REMARK VINA RESULT:    -3.797      3.352      5.754
REMARK INTER + INTRA:          -4.237
REMARK INTER:                  -4.110
REMARK INTRA:                  -0.126
REMARK UNBOUND:                -0.107
REMARK SMILES Cc1ccc(C(C)C)cc1O
REMARK SMILES IDX 1 1 2 2 10 3 9 4 5 5 4 6 3 7 11 8 6 10 7 11 8 12
REMARK H PARENT 11 9
REMARK Flexibility Score: inf
ROOT
ATOM      1  C   UNL     1     -19.308  23.625  16.770  1.00  0.00     0.048 C 
ATOM      2  C   UNL     1     -20.164  23.623  15.535  1.00  0.00    -0.009 A 
ATOM      3  C   UNL     1     -21.517  23.248  15.611  1.00  0.00     0.118 A 
ATOM      4  C   UNL     1     -22.309  23.247  14.454  1.00  0.00     0.050 A 
ATOM      5  C   UNL     1     -21.765  23.621  13.211  1.00  0.00    -0.042 A 
ATOM      6  C   UNL     1     -20.413  23.995  13.147  1.00  0.00     0.004 A 
ATOM      7  C   UNL     1     -19.620  23.996  14.297  1.00  0.00     0.007 A 
ENDROOT
BRANCH   3   8
ATOM      8  O   UNL     1     -22.070  22.875  16.836  1.00  0.00    -0.508 OA
ATOM      9  H   UNL     1     -22.479  21.958  16.977  1.00  0.00     0.293 HD
ENDBRANCH   3   8
BRANCH   5  10
ATOM     10  C   UNL     1     -22.614  23.624  11.953  1.00  0.00     0.013 C 
ATOM     11  C   UNL     1     -22.076  24.630  10.927  1.00  0.00     0.012 C 
ATOM     12  C   UNL     1     -24.085  23.902  12.279  1.00  0.00     0.012 C 
ENDBRANCH   5  10
TORSDOF 2
ENDMDL
MODEL 7
REMARK VINA RESULT:    -3.702     10.313     11.577
REMARK INTER + INTRA:          -4.134
REMARK INTER:                  -4.007
REMARK INTRA:                  -0.127
REMARK UNBOUND:                -0.107
REMARK SMILES Cc1ccc(C(C)C)cc1O
REMARK SMILES IDX 1 1 2 2 10 3 9 4 5 5 4 6 3 7 11 8 6 10 7 11 8 12
REMARK H PARENT 11 9
REMARK Flexibility Score: inf
ROOT
ATOM      1  C   UNL     1     -23.612  30.344  19.998  1.00  0.00     0.048 C 
ATOM      2  C   UNL     1     -22.236  29.933  20.438  1.00  0.00    -0.009 A 
ATOM      3  C   UNL     1     -21.595  28.839  19.830  1.00  0.00     0.118 A 
ATOM      4  C   UNL     1     -20.311  28.460  20.247  1.00  0.00     0.050 A 
ATOM      5  C   UNL     1     -19.650  29.165  21.271  1.00  0.00    -0.042 A 
ATOM      6  C   UNL     1     -20.300  30.256  21.871  1.00  0.00     0.004 A 
ATOM      7  C   UNL     1     -21.579  30.637  21.459  1.00  0.00     0.007 A 
ENDROOT
BRANCH   3   8
ATOM      8  O   UNL     1     -22.236  28.131  18.814  1.00  0.00    -0.508 OA
ATOM      9  H   UNL     1     -23.245  28.025  18.795  1.00  0.00     0.293 HD
ENDBRANCH   3   8
BRANCH   5  10
ATOM     10  C   UNL     1     -18.261  28.763  21.729  1.00  0.00     0.013 C 
ATOM     11  C   UNL     1     -18.160  27.244  21.918  1.00  0.00     0.012 C 
ATOM     12  C   UNL     1     -17.865  29.505  23.011  1.00  0.00     0.012 C 
ENDBRANCH   5  10
TORSDOF 2
ENDMDL
MODEL 8
REMARK VINA RESULT:    -3.698      1.993      4.549
REMARK INTER + INTRA:          -4.129
REMARK INTER:                  -4.030
REMARK INTRA:                  -0.099
REMARK UNBOUND:                -0.107
REMARK SMILES Cc1ccc(C(C)C)cc1O
REMARK SMILES IDX 1 1 2 2 10 3 9 4 5 5 4 6 3 7 11 8 6 10 7 11 8 12
REMARK H PARENT 11 9
REMARK Flexibility Score: inf
ROOT
ATOM      1  C   UNL     1     -21.697  22.928  15.098  1.00  0.00     0.048 C 
ATOM      2  C   UNL     1     -22.236  23.470  13.805  1.00  0.00    -0.009 A 
ATOM      3  C   UNL     1     -21.357  23.873  12.785  1.00  0.00     0.118 A 
ATOM      4  C   UNL     1     -21.867  24.379  11.581  1.00  0.00     0.050 A 
ATOM      5  C   UNL     1     -23.256  24.488  11.378  1.00  0.00    -0.042 A 
ATOM      6  C   UNL     1     -24.125  24.083  12.404  1.00  0.00     0.004 A 
ATOM      7  C   UNL     1     -23.621  23.579  13.605  1.00  0.00     0.007 A 
ENDROOT
BRANCH   3   8
ATOM      8  O   UNL     1     -19.978  23.770  12.971  1.00  0.00    -0.508 OA
ATOM      9  H   UNL     1     -19.584  23.258  13.752  1.00  0.00     0.293 HD
ENDBRANCH   3   8
BRANCH   5  10
ATOM     10  C   UNL     1     -23.818  25.035  10.079  1.00  0.00     0.013 C 
ATOM     11  C   UNL     1     -23.602  24.047   8.925  1.00  0.00     0.012 C 
ATOM     12  C   UNL     1     -23.218  26.406   9.750  1.00  0.00     0.012 C 
ENDBRANCH   5  10
TORSDOF 2
ENDMDL
MODEL 9
REMARK VINA RESULT:    -3.684     12.508     13.749
REMARK INTER + INTRA:          -4.114
REMARK INTER:                  -3.986
REMARK INTRA:                  -0.127
REMARK UNBOUND:                -0.107
REMARK SMILES Cc1ccc(C(C)C)cc1O
REMARK SMILES IDX 1 1 2 2 10 3 9 4 5 5 4 6 3 7 11 8 6 10 7 11 8 12
REMARK H PARENT 11 9
REMARK Flexibility Score: inf
ROOT
ATOM      1  C   UNL     1     -21.416  34.621  23.351  1.00  0.00     0.048 C 
ATOM      2  C   UNL     1     -21.032  33.257  22.852  1.00  0.00    -0.009 A 
ATOM      3  C   UNL     1     -21.807  32.619  21.867  1.00  0.00     0.118 A 
ATOM      4  C   UNL     1     -21.444  31.346  21.405  1.00  0.00     0.050 A 
ATOM      5  C   UNL     1     -20.306  30.694  21.918  1.00  0.00    -0.042 A 
ATOM      6  C   UNL     1     -19.539  31.340  22.901  1.00  0.00     0.004 A 
ATOM      7  C   UNL     1     -19.898  32.609  23.364  1.00  0.00     0.007 A 
ENDROOT
BRANCH   3   8
ATOM      8  O   UNL     1     -22.937  33.253  21.349  1.00  0.00    -0.508 OA
ATOM      9  H   UNL     1     -23.640  32.742  20.827  1.00  0.00     0.293 HD
ENDBRANCH   3   8
BRANCH   5  10
ATOM     10  C   UNL     1     -19.904  29.316  21.426  1.00  0.00     0.013 C 
ATOM     11  C   UNL     1     -18.499  28.943  21.917  1.00  0.00     0.012 C 
ATOM     12  C   UNL     1     -19.996  29.226  19.898  1.00  0.00     0.012 C 
ENDBRANCH   5  10
TORSDOF 2
ENDMDL
