MODEL 1
REMARK VINA RESULT:     0.605      0.000      0.000
REMARK INTER + INTRA:           0.662
REMARK INTER:                   1.135
REMARK INTRA:                  -0.473
REMARK UNBOUND:                -0.473
REMARK SMILES O=C([O-])CCCCCCCCCCCCCCC(=O)[O-]
REMARK SMILES IDX 10 1 9 2 8 3 7 4 6 5 5 6 4 7 2 8 1 9 3 10 11 11 12 12 13 13
REMARK SMILES IDX 14 14 15 15 16 16 17 17 18 18 19 19 20 20
REMARK H PARENT
REMARK Flexibility Score: inf
ROOT
ATOM      1  C   UNL     1      22.726  54.655  31.290  1.00  0.00     0.000 C 
ENDROOT
BRANCH   1   2
ATOM      2  C   UNL     1      23.684  54.085  32.347  1.00  0.00     0.000 C 
BRANCH   2   3
ATOM      3  C   UNL     1      23.879  55.079  33.503  1.00  0.00     0.000 C 
BRANCH   3   4
ATOM      4  C   UNL     1      24.143  54.381  34.847  1.00  0.00     0.000 C 
BRANCH   4   5
ATOM      5  C   UNL     1      22.848  54.064  35.616  1.00  0.00     0.000 C 
BRANCH   5   6
ATOM      6  C   UNL     1      21.732  55.092  35.338  1.00  0.00     0.006 C 
BRANCH   6   7
ATOM      7  C   UNL     1      20.315  54.514  35.487  1.00  0.00     0.053 C 
BRANCH   7   8
ATOM      8  C   UNL     1      20.264  53.049  35.190  1.00  0.00     0.041 C 
ATOM      9  O   UNL     1      20.349  52.209  36.125  1.00  0.00    -0.550 OA
ATOM     10  O   UNL     1      20.097  52.609  33.883  1.00  0.00    -0.550 OA
ENDBRANCH   7   8
ENDBRANCH   6   7
ENDBRANCH   5   6
ENDBRANCH   4   5
ENDBRANCH   3   4
ENDBRANCH   2   3
ENDBRANCH   1   2
BRANCH   1  11
ATOM     11  C   UNL     1      21.380  55.097  31.886  1.00  0.00     0.000 C 
BRANCH  11  12
ATOM     12  C   UNL     1      20.197  54.828  30.943  1.00  0.00     0.000 C 
BRANCH  12  13
ATOM     13  C   UNL     1      20.583  55.112  29.486  1.00  0.00     0.000 C 
BRANCH  13  14
ATOM     14  C   UNL     1      20.031  54.026  28.549  1.00  0.00     0.000 C 
BRANCH  14  15
ATOM     15  C   UNL     1      21.121  53.370  27.682  1.00  0.00     0.000 C 
BRANCH  15  16
ATOM     16  C   UNL     1      22.138  52.511  28.455  1.00  0.00     0.006 C 
BRANCH  16  17
ATOM     17  C   UNL     1      22.963  51.595  27.542  1.00  0.00     0.053 C 
BRANCH  17  18
ATOM     18  C   UNL     1      23.402  52.334  26.318  1.00  0.00     0.041 C 
ATOM     19  O   UNL     1      23.923  51.713  25.355  1.00  0.00    -0.550 OA
ATOM     20  O   UNL     1      23.280  53.717  26.261  1.00  0.00    -0.550 OA
ENDBRANCH  17  18
ENDBRANCH  16  17
ENDBRANCH  15  16
ENDBRANCH  14  15
ENDBRANCH  13  14
ENDBRANCH  12  13
ENDBRANCH  11  12
ENDBRANCH   1  11
TORSDOF 15
ENDMDL
MODEL 2
REMARK VINA RESULT:     1.289      1.157      7.176
REMARK INTER + INTRA:           1.948
REMARK INTER:                   2.016
REMARK INTRA:                  -0.069
REMARK UNBOUND:                -0.473
REMARK SMILES O=C([O-])CCCCCCCCCCCCCCC(=O)[O-]
REMARK SMILES IDX 10 1 9 2 8 3 7 4 6 5 5 6 4 7 2 8 1 9 3 10 11 11 12 12 13 13
REMARK SMILES IDX 14 14 15 15 16 16 17 17 18 18 19 19 20 20
REMARK H PARENT
REMARK Flexibility Score: inf
ROOT
ATOM      1  C   UNL     1      23.161  53.826  31.360  1.00  0.00     0.000 C 
ENDROOT
BRANCH   1   2
ATOM      2  C   UNL     1      21.647  53.594  31.474  1.00  0.00     0.000 C 
BRANCH   2   3
ATOM      3  C   UNL     1      20.868  54.863  31.099  1.00  0.00     0.000 C 
BRANCH   3   4
ATOM      4  C   UNL     1      20.838  55.115  29.583  1.00  0.00     0.000 C 
BRANCH   4   5
ATOM      5  C   UNL     1      20.035  54.046  28.819  1.00  0.00     0.000 C 
BRANCH   5   6
ATOM      6  C   UNL     1      20.894  53.298  27.779  1.00  0.00     0.006 C 
BRANCH   6   7
ATOM      7  C   UNL     1      22.144  52.635  28.378  1.00  0.00     0.053 C 
BRANCH   7   8
ATOM      8  C   UNL     1      22.991  51.974  27.337  1.00  0.00     0.041 C 
ATOM      9  O   UNL     1      23.384  50.788  27.498  1.00  0.00    -0.550 OA
ATOM     10  O   UNL     1      23.325  52.658  26.175  1.00  0.00    -0.550 OA
ENDBRANCH   7   8
ENDBRANCH   6   7
ENDBRANCH   5   6
ENDBRANCH   4   5
ENDBRANCH   3   4
ENDBRANCH   2   3
ENDBRANCH   1   2
BRANCH   1  11
ATOM     11  C   UNL     1      23.616  55.125  32.044  1.00  0.00     0.000 C 
BRANCH  11  12
ATOM     12  C   UNL     1      25.044  55.031  32.603  1.00  0.00     0.000 C 
BRANCH  12  13
ATOM     13  C   UNL     1      25.026  54.840  34.124  1.00  0.00     0.000 C 
BRANCH  13  14
ATOM     14  C   UNL     1      23.606  55.014  34.684  1.00  0.00     0.000 C 
BRANCH  14  15
ATOM     15  C   UNL     1      22.808  53.698  34.718  1.00  0.00     0.000 C 
BRANCH  15  16
ATOM     16  C   UNL     1      22.170  53.360  36.077  1.00  0.00     0.006 C 
BRANCH  16  17
ATOM     17  C   UNL     1      20.666  53.664  36.125  1.00  0.00     0.053 C 
BRANCH  17  18
ATOM     18  C   UNL     1      20.113  53.781  34.740  1.00  0.00     0.041 C 
ATOM     19  O   UNL     1      19.903  52.747  34.053  1.00  0.00    -0.550 OA
ATOM     20  O   UNL     1      19.876  55.034  34.189  1.00  0.00    -0.550 OA
ENDBRANCH  17  18
ENDBRANCH  16  17
ENDBRANCH  15  16
ENDBRANCH  14  15
ENDBRANCH  13  14
ENDBRANCH  12  13
ENDBRANCH  11  12
ENDBRANCH   1  11
TORSDOF 15
ENDMDL
MODEL 3
REMARK VINA RESULT:     2.498      1.931      7.682
REMARK INTER + INTRA:           4.217
REMARK INTER:                   4.891
REMARK INTRA:                  -0.674
REMARK UNBOUND:                -0.473
REMARK SMILES O=C([O-])CCCCCCCCCCCCCCC(=O)[O-]
REMARK SMILES IDX 10 1 9 2 8 3 7 4 6 5 5 6 4 7 2 8 1 9 3 10 11 11 12 12 13 13
REMARK SMILES IDX 14 14 15 15 16 16 17 17 18 18 19 19 20 20
REMARK H PARENT
REMARK Flexibility Score: inf
ROOT
ATOM      1  C   UNL     1      23.563  54.747  32.356  1.00  0.00     0.000 C 
ENDROOT
BRANCH   1   2
ATOM      2  C   UNL     1      24.470  54.189  31.249  1.00  0.00     0.000 C 
BRANCH   2   3
ATOM      3  C   UNL     1      23.708  54.079  29.920  1.00  0.00     0.000 C 
BRANCH   3   4
ATOM      4  C   UNL     1      23.654  52.639  29.384  1.00  0.00     0.000 C 
BRANCH   4   5
ATOM      5  C   UNL     1      22.355  52.339  28.615  1.00  0.00     0.000 C 
BRANCH   5   6
ATOM      6  C   UNL     1      22.540  52.435  27.087  1.00  0.00     0.006 C 
BRANCH   6   7
ATOM      7  C   UNL     1      23.356  51.274  26.494  1.00  0.00     0.053 C 
BRANCH   7   8
ATOM      8  C   UNL     1      24.328  51.736  25.454  1.00  0.00     0.041 C 
ATOM      9  O   UNL     1      24.197  52.870  24.923  1.00  0.00    -0.550 OA
ATOM     10  O   UNL     1      25.395  50.924  25.090  1.00  0.00    -0.550 OA
ENDBRANCH   7   8
ENDBRANCH   6   7
ENDBRANCH   5   6
ENDBRANCH   4   5
ENDBRANCH   3   4
ENDBRANCH   2   3
ENDBRANCH   1   2
BRANCH   1  11
ATOM     11  C   UNL     1      22.120  54.978  31.881  1.00  0.00     0.000 C 
BRANCH  11  12
ATOM     12  C   UNL     1      21.263  53.703  31.945  1.00  0.00     0.000 C 
BRANCH  12  13
ATOM     13  C   UNL     1      20.474  53.639  33.258  1.00  0.00     0.000 C 
BRANCH  13  14
ATOM     14  C   UNL     1      20.364  55.029  33.903  1.00  0.00     0.000 C 
BRANCH  14  15
ATOM     15  C   UNL     1      20.293  54.975  35.440  1.00  0.00     0.000 C 
BRANCH  15  16
ATOM     16  C   UNL     1      21.481  54.272  36.121  1.00  0.00     0.006 C 
BRANCH  16  17
ATOM     17  C   UNL     1      22.758  55.123  36.125  1.00  0.00     0.053 C 
BRANCH  17  18
ATOM     18  C   UNL     1      23.897  54.356  35.533  1.00  0.00     0.041 C 
ATOM     19  O   UNL     1      23.697  53.231  35.006  1.00  0.00    -0.550 OA
ATOM     20  O   UNL     1      25.189  54.862  35.607  1.00  0.00    -0.550 OA
ENDBRANCH  17  18
ENDBRANCH  16  17
ENDBRANCH  15  16
ENDBRANCH  14  15
ENDBRANCH  13  14
ENDBRANCH  12  13
ENDBRANCH  11  12
ENDBRANCH   1  11
TORSDOF 15
ENDMDL
MODEL 4
REMARK VINA RESULT:     3.109      1.206      1.648
REMARK INTER + INTRA:           5.362
REMARK INTER:                   6.279
REMARK INTRA:                  -0.917
REMARK UNBOUND:                -0.473
REMARK SMILES O=C([O-])CCCCCCCCCCCCCCC(=O)[O-]
REMARK SMILES IDX 10 1 9 2 8 3 7 4 6 5 5 6 4 7 2 8 1 9 3 10 11 11 12 12 13 13
REMARK SMILES IDX 14 14 15 15 16 16 17 17 18 18 19 19 20 20
REMARK H PARENT
REMARK Flexibility Score: inf
ROOT
ATOM      1  C   UNL     1      22.211  54.799  32.007  1.00  0.00     0.000 C 
ENDROOT
BRANCH   1   2
ATOM      2  C   UNL     1      23.745  54.764  31.929  1.00  0.00     0.000 C 
BRANCH   2   3
ATOM      3  C   UNL     1      24.348  54.220  33.233  1.00  0.00     0.000 C 
BRANCH   3   4
ATOM      4  C   UNL     1      24.055  55.121  34.444  1.00  0.00     0.000 C 
BRANCH   4   5
ATOM      5  C   UNL     1      23.467  54.343  35.635  1.00  0.00     0.000 C 
BRANCH   5   6
ATOM      6  C   UNL     1      22.121  54.926  36.111  1.00  0.00     0.006 C 
BRANCH   6   7
ATOM      7  C   UNL     1      20.986  54.766  35.087  1.00  0.00     0.053 C 
BRANCH   7   8
ATOM      8  C   UNL     1      20.441  53.373  35.056  1.00  0.00     0.041 C 
ATOM      9  O   UNL     1      20.090  52.806  36.124  1.00  0.00    -0.550 OA
ATOM     10  O   UNL     1      20.295  52.709  33.844  1.00  0.00    -0.550 OA
ENDBRANCH   7   8
ENDBRANCH   6   7
ENDBRANCH   5   6
ENDBRANCH   4   5
ENDBRANCH   3   4
ENDBRANCH   2   3
ENDBRANCH   1   2
BRANCH   1  11
ATOM     11  C   UNL     1      21.540  54.092  30.818  1.00  0.00     0.000 C 
BRANCH  11  12
ATOM     12  C   UNL     1      22.518  53.210  30.025  1.00  0.00     0.000 C 
BRANCH  12  13
ATOM     13  C   UNL     1      21.788  52.446  28.915  1.00  0.00     0.000 C 
BRANCH  13  14
ATOM     14  C   UNL     1      20.880  53.384  28.106  1.00  0.00     0.000 C 
BRANCH  14  15
ATOM     15  C   UNL     1      21.626  54.119  26.977  1.00  0.00     0.000 C 
BRANCH  15  16
ATOM     16  C   UNL     1      23.107  53.731  26.817  1.00  0.00     0.006 C 
BRANCH  16  17
ATOM     17  C   UNL     1      23.402  53.036  25.481  1.00  0.00     0.053 C 
BRANCH  17  18
ATOM     18  C   UNL     1      23.970  51.673  25.715  1.00  0.00     0.041 C 
ATOM     19  O   UNL     1      23.472  50.923  26.596  1.00  0.00    -0.550 OA
ATOM     20  O   UNL     1      25.080  51.248  24.996  1.00  0.00    -0.550 OA
ENDBRANCH  17  18
ENDBRANCH  16  17
ENDBRANCH  15  16
ENDBRANCH  14  15
ENDBRANCH  13  14
ENDBRANCH  12  13
ENDBRANCH  11  12
ENDBRANCH   1  11
TORSDOF 15
ENDMDL
MODEL 5
REMARK VINA RESULT:     3.303      1.687      8.069
REMARK INTER + INTRA:           5.727
REMARK INTER:                   5.500
REMARK INTRA:                   0.227
REMARK UNBOUND:                -0.473
REMARK SMILES O=C([O-])CCCCCCCCCCCCCCC(=O)[O-]
REMARK SMILES IDX 10 1 9 2 8 3 7 4 6 5 5 6 4 7 2 8 1 9 3 10 11 11 12 12 13 13
REMARK SMILES IDX 14 14 15 15 16 16 17 17 18 18 19 19 20 20
REMARK H PARENT
REMARK Flexibility Score: inf
ROOT
ATOM      1  C   UNL     1      23.983  53.317  30.160  1.00  0.00     0.000 C 
ENDROOT
BRANCH   1   2
ATOM      2  C   UNL     1      22.885  52.319  29.765  1.00  0.00     0.000 C 
BRANCH   2   3
ATOM      3  C   UNL     1      21.712  53.037  29.081  1.00  0.00     0.000 C 
BRANCH   3   4
ATOM      4  C   UNL     1      21.951  53.267  27.579  1.00  0.00     0.000 C 
BRANCH   4   5
ATOM      5  C   UNL     1      23.117  52.427  27.028  1.00  0.00     0.000 C 
BRANCH   5   6
ATOM      6  C   UNL     1      23.629  52.951  25.671  1.00  0.00     0.006 C 
BRANCH   6   7
ATOM      7  C   UNL     1      24.229  51.854  24.777  1.00  0.00     0.053 C 
BRANCH   7   8
ATOM      8  C   UNL     1      24.992  50.834  25.564  1.00  0.00     0.041 C 
ATOM      9  O   UNL     1      26.154  50.501  25.211  1.00  0.00    -0.550 OA
ATOM     10  O   UNL     1      24.430  50.271  26.703  1.00  0.00    -0.550 OA
ENDBRANCH   7   8
ENDBRANCH   6   7
ENDBRANCH   5   6
ENDBRANCH   4   5
ENDBRANCH   3   4
ENDBRANCH   2   3
ENDBRANCH   1   2
BRANCH   1  11
ATOM     11  C   UNL     1      23.550  54.260  31.294  1.00  0.00     0.000 C 
BRANCH  11  12
ATOM     12  C   UNL     1      24.706  55.125  31.820  1.00  0.00     0.000 C 
BRANCH  12  13
ATOM     13  C   UNL     1      24.788  55.058  33.350  1.00  0.00     0.000 C 
BRANCH  13  14
ATOM     14  C   UNL     1      23.711  54.122  33.919  1.00  0.00     0.000 C 
BRANCH  14  15
ATOM     15  C   UNL     1      23.522  54.276  35.439  1.00  0.00     0.000 C 
BRANCH  15  16
ATOM     16  C   UNL     1      22.146  54.812  35.872  1.00  0.00     0.006 C 
BRANCH  16  17
ATOM     17  C   UNL     1      21.225  55.125  34.685  1.00  0.00     0.053 C 
BRANCH  17  18
ATOM     18  C   UNL     1      20.508  53.890  34.242  1.00  0.00     0.041 C 
ATOM     19  O   UNL     1      20.075  53.069  35.093  1.00  0.00    -0.550 OA
ATOM     20  O   UNL     1      20.360  53.620  32.887  1.00  0.00    -0.550 OA
ENDBRANCH  17  18
ENDBRANCH  16  17
ENDBRANCH  15  16
ENDBRANCH  14  15
ENDBRANCH  13  14
ENDBRANCH  12  13
ENDBRANCH  11  12
ENDBRANCH   1  11
TORSDOF 15
ENDMDL
