MODEL 1
REMARK VINA RESULT:    -4.538      0.000      0.000
REMARK INTER + INTRA:          -7.677
REMARK INTER:                  -7.058
REMARK INTRA:                  -0.619
REMARK UNBOUND:                -0.619
REMARK SMILES COc1cc(CNC(=O)CCCCC=CC(C)C)ccc1O
REMARK SMILES IDX 11 1 12 2 13 3 14 4 15 5 16 6 17 7 18 8 10 9 8 10 9 11 7 12
REMARK SMILES IDX 6 14 5 15 4 16 19 17 3 18 20 19 21 20 2 21 1 22 22 23
REMARK H PARENT 7 13 22 24
REMARK Flexibility Score: inf
ROOT
ATOM      1  C   UNL     1      74.874  35.004  53.352  1.00  0.00     0.010 C 
ENDROOT
BRANCH   1   2
ATOM      2  C   UNL     1      73.479  35.095  53.987  1.00  0.00     0.005 C 
BRANCH   2   3
ATOM      3  C   UNL     1      72.584  33.942  53.516  1.00  0.00     0.027 C 
BRANCH   3   4
ATOM      4  C   UNL     1      71.998  33.199  54.685  1.00  0.00    -0.031 C 
ATOM      5  C   UNL     1      72.260  33.556  55.953  1.00  0.00    -0.028 C 
BRANCH   5   6
ATOM      6  C   UNL     1      71.659  32.802  57.116  1.00  0.00     0.005 C 
ATOM      7  C   UNL     1      70.376  33.492  57.597  1.00  0.00     0.012 C 
ATOM      8  C   UNL     1      72.667  32.686  58.263  1.00  0.00     0.012 C 
ENDBRANCH   5   6
ENDBRANCH   3   4
ENDBRANCH   2   3
ENDBRANCH   1   2
BRANCH   1   9
ATOM      9  C   UNL     1      75.031  35.944  52.149  1.00  0.00     0.100 C 
BRANCH   9  10
ATOM     10  C   UNL     1      76.428  35.909  51.605  1.00  0.00     0.220 C 
ATOM     11  O   UNL     1      76.604  35.994  50.358  1.00  0.00    -0.275 OA
ATOM     12  N   UNL     1      77.551  35.839  52.494  1.00  0.00    -0.352 N 
ATOM     13  H   UNL     1      77.373  35.779  53.522  1.00  0.00     0.163 HD
BRANCH  12  14
ATOM     14  C   UNL     1      78.915  36.125  52.057  1.00  0.00     0.151 C 
BRANCH  14  15
ATOM     15  C   UNL     1      79.492  34.923  51.359  1.00  0.00    -0.025 A 
ATOM     16  C   UNL     1      79.457  33.659  51.972  1.00  0.00     0.056 A 
ATOM     17  C   UNL     1      80.101  35.063  50.106  1.00  0.00     0.009 A 
ATOM     18  C   UNL     1      79.998  32.533  51.322  1.00  0.00     0.160 A 
ATOM     19  C   UNL     1      80.652  33.954  49.464  1.00  0.00     0.050 A 
ATOM     20  C   UNL     1      80.599  32.690  50.059  1.00  0.00     0.157 A 
BRANCH  18  21
ATOM     21  O   UNL     1      79.956  31.251  51.896  1.00  0.00    -0.493 OA
ATOM     22  C   UNL     1      80.011  30.990  53.296  1.00  0.00     0.278 C 
ENDBRANCH  18  21
BRANCH  20  23
ATOM     23  O   UNL     1      81.148  31.603  49.379  1.00  0.00    -0.504 OA
ATOM     24  H   UNL     1      80.574  30.869  48.976  1.00  0.00     0.293 HD
ENDBRANCH  20  23
ENDBRANCH  14  15
ENDBRANCH  12  14
ENDBRANCH   9  10
ENDBRANCH   1   9
TORSDOF 10
ENDMDL
MODEL 2
REMARK VINA RESULT:    -4.321      1.568      2.002
REMARK INTER + INTRA:          -7.340
REMARK INTER:                  -7.830
REMARK INTRA:                   0.491
REMARK UNBOUND:                -0.619
REMARK SMILES COc1cc(CNC(=O)CCCCC=CC(C)C)ccc1O
REMARK SMILES IDX 11 1 12 2 13 3 14 4 15 5 16 6 17 7 18 8 10 9 8 10 9 11 7 12
REMARK SMILES IDX 6 14 5 15 4 16 19 17 3 18 20 19 21 20 2 21 1 22 22 23
REMARK H PARENT 7 13 22 24
REMARK Flexibility Score: inf
ROOT
ATOM      1  C   UNL     1      74.477  35.630  52.636  1.00  0.00     0.010 C 
ENDROOT
BRANCH   1   2
ATOM      2  C   UNL     1      73.193  34.802  52.490  1.00  0.00     0.005 C 
BRANCH   2   3
ATOM      3  C   UNL     1      73.265  33.522  53.332  1.00  0.00     0.027 C 
BRANCH   3   4
ATOM      4  C   UNL     1      73.018  33.816  54.787  1.00  0.00    -0.031 C 
ATOM      5  C   UNL     1      71.851  33.515  55.381  1.00  0.00    -0.028 C 
BRANCH   5   6
ATOM      6  C   UNL     1      71.622  33.813  56.844  1.00  0.00     0.005 C 
ATOM      7  C   UNL     1      72.280  32.738  57.719  1.00  0.00     0.012 C 
ATOM      8  C   UNL     1      70.124  33.907  57.147  1.00  0.00     0.012 C 
ENDBRANCH   5   6
ENDBRANCH   3   4
ENDBRANCH   2   3
ENDBRANCH   1   2
BRANCH   1   9
ATOM      9  C   UNL     1      75.232  35.775  51.306  1.00  0.00     0.100 C 
BRANCH   9  10
ATOM     10  C   UNL     1      76.692  36.036  51.532  1.00  0.00     0.220 C 
ATOM     11  O   UNL     1      77.124  36.125  52.714  1.00  0.00    -0.275 OA
ATOM     12  N   UNL     1      77.593  36.125  50.419  1.00  0.00    -0.352 N 
ATOM     13  H   UNL     1      77.206  36.039  49.453  1.00  0.00     0.163 HD
BRANCH  12  14
ATOM     14  C   UNL     1      79.043  36.053  50.579  1.00  0.00     0.151 C 
BRANCH  14  15
ATOM     15  C   UNL     1      79.423  34.755  51.239  1.00  0.00    -0.025 A 
ATOM     16  C   UNL     1      78.450  33.775  51.494  1.00  0.00     0.056 A 
ATOM     17  C   UNL     1      80.747  34.530  51.636  1.00  0.00     0.009 A 
ATOM     18  C   UNL     1      78.802  32.560  52.114  1.00  0.00     0.160 A 
ATOM     19  C   UNL     1      81.100  33.335  52.264  1.00  0.00     0.050 A 
ATOM     20  C   UNL     1      80.139  32.347  52.499  1.00  0.00     0.157 A 
BRANCH  18  21
ATOM     21  O   UNL     1      77.859  31.548  52.360  1.00  0.00    -0.493 OA
ATOM     22  C   UNL     1      76.455  31.763  52.472  1.00  0.00     0.278 C 
ENDBRANCH  18  21
BRANCH  20  23
ATOM     23  O   UNL     1      80.534  31.160  53.116  1.00  0.00    -0.504 OA
ATOM     24  H   UNL     1      81.044  31.148  53.993  1.00  0.00     0.293 HD
ENDBRANCH  20  23
ENDBRANCH  14  15
ENDBRANCH  12  14
ENDBRANCH   9  10
ENDBRANCH   1   9
TORSDOF 10
ENDMDL
MODEL 3
REMARK VINA RESULT:    -4.029      3.242      8.530
REMARK INTER + INTRA:          -6.886
REMARK INTER:                  -6.210
REMARK INTRA:                  -0.676
REMARK UNBOUND:                -0.619
REMARK SMILES COc1cc(CNC(=O)CCCCC=CC(C)C)ccc1O
REMARK SMILES IDX 11 1 12 2 13 3 14 4 15 5 16 6 17 7 18 8 10 9 8 10 9 11 7 12
REMARK SMILES IDX 6 14 5 15 4 16 19 17 3 18 20 19 21 20 2 21 1 22 22 23
REMARK H PARENT 7 13 22 24
REMARK Flexibility Score: inf
ROOT
ATOM      1  C   UNL     1      77.425  36.039  51.270  1.00  0.00     0.010 C 
ENDROOT
BRANCH   1   2
ATOM      2  C   UNL     1      77.798  36.096  49.781  1.00  0.00     0.005 C 
BRANCH   2   3
ATOM      3  C   UNL     1      79.320  36.125  49.597  1.00  0.00     0.027 C 
BRANCH   3   4
ATOM      4  C   UNL     1      80.010  35.305  50.652  1.00  0.00    -0.031 C 
ATOM      5  C   UNL     1      80.067  33.965  50.582  1.00  0.00    -0.028 C 
BRANCH   5   6
ATOM      6  C   UNL     1      80.768  33.157  51.649  1.00  0.00     0.005 C 
ATOM      7  C   UNL     1      79.860  32.026  52.148  1.00  0.00     0.012 C 
ATOM      8  C   UNL     1      81.194  34.055  52.813  1.00  0.00     0.012 C 
ENDBRANCH   5   6
ENDBRANCH   3   4
ENDBRANCH   2   3
ENDBRANCH   1   2
BRANCH   1   9
ATOM      9  C   UNL     1      76.805  34.691  51.664  1.00  0.00     0.100 C 
BRANCH   9  10
ATOM     10  C   UNL     1      75.505  34.878  52.388  1.00  0.00     0.220 C 
ATOM     11  O   UNL     1      75.261  35.989  52.935  1.00  0.00    -0.275 OA
ATOM     12  N   UNL     1      74.528  33.828  52.409  1.00  0.00    -0.352 N 
ATOM     13  H   UNL     1      74.756  32.922  51.940  1.00  0.00     0.163 HD
BRANCH  12  14
ATOM     14  C   UNL     1      73.141  34.056  52.808  1.00  0.00     0.151 C 
BRANCH  14  15
ATOM     15  C   UNL     1      72.933  33.599  54.226  1.00  0.00    -0.025 A 
ATOM     16  C   UNL     1      71.891  34.134  55.001  1.00  0.00     0.056 A 
ATOM     17  C   UNL     1      73.802  32.659  54.796  1.00  0.00     0.009 A 
ATOM     18  C   UNL     1      71.696  33.709  56.330  1.00  0.00     0.160 A 
ATOM     19  C   UNL     1      73.623  32.246  56.116  1.00  0.00     0.050 A 
ATOM     20  C   UNL     1      72.574  32.758  56.884  1.00  0.00     0.157 A 
BRANCH  18  21
ATOM     21  O   UNL     1      70.647  34.204  57.124  1.00  0.00    -0.493 OA
ATOM     22  C   UNL     1      69.276  34.213  56.737  1.00  0.00     0.278 C 
ENDBRANCH  18  21
BRANCH  20  23
ATOM     23  O   UNL     1      72.419  32.308  58.195  1.00  0.00    -0.504 OA
ATOM     24  H   UNL     1      72.876  32.760  58.981  1.00  0.00     0.293 HD
ENDBRANCH  20  23
ENDBRANCH  14  15
ENDBRANCH  12  14
ENDBRANCH   9  10
ENDBRANCH   1   9
TORSDOF 10
ENDMDL
MODEL 4
REMARK VINA RESULT:    -3.456      2.654      7.847
REMARK INTER + INTRA:          -5.995
REMARK INTER:                  -5.222
REMARK INTRA:                  -0.772
REMARK UNBOUND:                -0.619
REMARK SMILES COc1cc(CNC(=O)CCCCC=CC(C)C)ccc1O
REMARK SMILES IDX 11 1 12 2 13 3 14 4 15 5 16 6 17 7 18 8 10 9 8 10 9 11 7 12
REMARK SMILES IDX 6 14 5 15 4 16 19 17 3 18 20 19 21 20 2 21 1 22 22 23
REMARK H PARENT 7 13 22 24
REMARK Flexibility Score: inf
ROOT
ATOM      1  C   UNL     1      79.205  36.097  50.097  1.00  0.00     0.010 C 
ENDROOT
BRANCH   1   2
ATOM      2  C   UNL     1      79.683  35.691  48.695  1.00  0.00     0.005 C 
BRANCH   2   3
ATOM      3  C   UNL     1      80.542  34.421  48.753  1.00  0.00     0.027 C 
BRANCH   3   4
ATOM      4  C   UNL     1      80.716  33.949  50.170  1.00  0.00    -0.031 C 
ATOM      5  C   UNL     1      80.309  32.731  50.564  1.00  0.00    -0.028 C 
BRANCH   5   6
ATOM      6  C   UNL     1      80.496  32.270  51.991  1.00  0.00     0.005 C 
ATOM      7  C   UNL     1      79.163  31.790  52.578  1.00  0.00     0.012 C 
ATOM      8  C   UNL     1      81.086  33.393  52.848  1.00  0.00     0.012 C 
ENDBRANCH   5   6
ENDBRANCH   3   4
ENDBRANCH   2   3
ENDBRANCH   1   2
BRANCH   1   9
ATOM      9  C   UNL     1      77.675  36.075  50.221  1.00  0.00     0.100 C 
BRANCH   9  10
ATOM     10  C   UNL     1      77.245  35.879  51.644  1.00  0.00     0.220 C 
ATOM     11  O   UNL     1      78.122  35.677  52.529  1.00  0.00    -0.275 OA
ATOM     12  N   UNL     1      75.860  35.979  52.004  1.00  0.00    -0.352 N 
ATOM     13  H   UNL     1      75.158  36.155  51.250  1.00  0.00     0.163 HD
BRANCH  12  14
ATOM     14  C   UNL     1      75.419  36.120  53.389  1.00  0.00     0.151 C 
BRANCH  14  15
ATOM     15  C   UNL     1      74.485  34.996  53.748  1.00  0.00    -0.025 A 
ATOM     16  C   UNL     1      73.550  35.150  54.785  1.00  0.00     0.056 A 
ATOM     17  C   UNL     1      74.566  33.773  53.070  1.00  0.00     0.009 A 
ATOM     18  C   UNL     1      72.676  34.099  55.123  1.00  0.00     0.160 A 
ATOM     19  C   UNL     1      73.714  32.722  53.411  1.00  0.00     0.050 A 
ATOM     20  C   UNL     1      72.766  32.878  54.427  1.00  0.00     0.157 A 
BRANCH  18  21
ATOM     21  O   UNL     1      71.712  34.229  56.137  1.00  0.00    -0.493 OA
ATOM     22  C   UNL     1      71.719  33.492  57.356  1.00  0.00     0.278 C 
ENDBRANCH  18  21
BRANCH  20  23
ATOM     23  O   UNL     1      71.922  31.810  54.728  1.00  0.00    -0.504 OA
ATOM     24  H   UNL     1      71.455  31.724  55.625  1.00  0.00     0.293 HD
ENDBRANCH  20  23
ENDBRANCH  14  15
ENDBRANCH  12  14
ENDBRANCH   9  10
ENDBRANCH   1   9
TORSDOF 10
ENDMDL
MODEL 5
REMARK VINA RESULT:    -2.687      2.724      8.136
REMARK INTER + INTRA:          -4.798
REMARK INTER:                  -4.453
REMARK INTRA:                  -0.345
REMARK UNBOUND:                -0.619
REMARK SMILES COc1cc(CNC(=O)CCCCC=CC(C)C)ccc1O
REMARK SMILES IDX 11 1 12 2 13 3 14 4 15 5 16 6 17 7 18 8 10 9 8 10 9 11 7 12
REMARK SMILES IDX 6 14 5 15 4 16 19 17 3 18 20 19 21 20 2 21 1 22 22 23
REMARK H PARENT 7 13 22 24
REMARK Flexibility Score: inf
ROOT
ATOM      1  C   UNL     1      79.907  31.906  51.810  1.00  0.00     0.010 C 
ENDROOT
BRANCH   1   2
ATOM      2  C   UNL     1      81.011  32.923  52.131  1.00  0.00     0.005 C 
BRANCH   2   3
ATOM      3  C   UNL     1      80.454  34.104  52.936  1.00  0.00     0.027 C 
BRANCH   3   4
ATOM      4  C   UNL     1      79.905  35.169  52.028  1.00  0.00    -0.031 C 
ATOM      5  C   UNL     1      79.945  35.047  50.690  1.00  0.00    -0.028 C 
BRANCH   5   6
ATOM      6  C   UNL     1      79.385  36.125  49.792  1.00  0.00     0.005 C 
ATOM      7  C   UNL     1      77.851  36.108  49.827  1.00  0.00     0.012 C 
ATOM      8  C   UNL     1      79.890  35.948  48.358  1.00  0.00     0.012 C 
ENDBRANCH   5   6
ENDBRANCH   3   4
ENDBRANCH   2   3
ENDBRANCH   1   2
BRANCH   1   9
ATOM      9  C   UNL     1      78.763  31.944  52.833  1.00  0.00     0.100 C 
BRANCH   9  10
ATOM     10  C   UNL     1      77.429  32.066  52.157  1.00  0.00     0.220 C 
ATOM     11  O   UNL     1      76.892  31.034  51.668  1.00  0.00    -0.275 OA
ATOM     12  N   UNL     1      76.747  33.327  52.120  1.00  0.00    -0.352 N 
ATOM     13  H   UNL     1      77.214  34.161  52.541  1.00  0.00     0.163 HD
BRANCH  12  14
ATOM     14  C   UNL     1      75.333  33.442  51.774  1.00  0.00     0.151 C 
BRANCH  14  15
ATOM     15  C   UNL     1      74.562  33.992  52.944  1.00  0.00    -0.025 A 
ATOM     16  C   UNL     1      73.721  33.157  53.698  1.00  0.00     0.056 A 
ATOM     17  C   UNL     1      74.652  35.352  53.268  1.00  0.00     0.009 A 
ATOM     18  C   UNL     1      72.997  33.670  54.793  1.00  0.00     0.160 A 
ATOM     19  C   UNL     1      73.927  35.869  54.341  1.00  0.00     0.050 A 
ATOM     20  C   UNL     1      73.106  35.038  55.109  1.00  0.00     0.157 A 
BRANCH  18  21
ATOM     21  O   UNL     1      72.167  32.858  55.584  1.00  0.00    -0.493 OA
ATOM     22  C   UNL     1      72.126  32.890  57.007  1.00  0.00     0.278 C 
ENDBRANCH  18  21
BRANCH  20  23
ATOM     23  O   UNL     1      72.408  35.590  56.183  1.00  0.00    -0.504 OA
ATOM     24  H   UNL     1      72.861  36.162  56.888  1.00  0.00     0.293 HD
ENDBRANCH  20  23
ENDBRANCH  14  15
ENDBRANCH  12  14
ENDBRANCH   9  10
ENDBRANCH   1   9
TORSDOF 10
ENDMDL
MODEL 6
REMARK VINA RESULT:    -2.601      1.476      2.135
REMARK INTER + INTRA:          -4.665
REMARK INTER:                  -5.209
REMARK INTRA:                   0.544
REMARK UNBOUND:                -0.619
REMARK SMILES COc1cc(CNC(=O)CCCCC=CC(C)C)ccc1O
REMARK SMILES IDX 11 1 12 2 13 3 14 4 15 5 16 6 17 7 18 8 10 9 8 10 9 11 7 12
REMARK SMILES IDX 6 14 5 15 4 16 19 17 3 18 20 19 21 20 2 21 1 22 22 23
REMARK H PARENT 7 13 22 24
REMARK Flexibility Score: inf
ROOT
ATOM      1  C   UNL     1      74.578  33.668  53.243  1.00  0.00     0.010 C 
ENDROOT
BRANCH   1   2
ATOM      2  C   UNL     1      73.129  33.450  53.704  1.00  0.00     0.005 C 
BRANCH   2   3
ATOM      3  C   UNL     1      72.616  34.659  54.495  1.00  0.00     0.027 C 
BRANCH   3   4
ATOM      4  C   UNL     1      72.037  34.236  55.817  1.00  0.00    -0.031 C 
ATOM      5  C   UNL     1      72.033  32.951  56.208  1.00  0.00    -0.028 C 
BRANCH   5   6
ATOM      6  C   UNL     1      71.451  32.543  57.542  1.00  0.00     0.005 C 
ATOM      7  C   UNL     1      70.198  33.369  57.855  1.00  0.00     0.012 C 
ATOM      8  C   UNL     1      72.490  32.703  58.654  1.00  0.00     0.012 C 
ENDBRANCH   5   6
ENDBRANCH   3   4
ENDBRANCH   2   3
ENDBRANCH   1   2
BRANCH   1   9
ATOM      9  C   UNL     1      74.695  34.784  52.195  1.00  0.00     0.100 C 
BRANCH   9  10
ATOM     10  C   UNL     1      76.092  34.889  51.661  1.00  0.00     0.220 C 
ATOM     11  O   UNL     1      76.867  33.899  51.770  1.00  0.00    -0.275 OA
ATOM     12  N   UNL     1      76.523  36.078  50.985  1.00  0.00    -0.352 N 
ATOM     13  H   UNL     1      75.856  36.878  50.904  1.00  0.00     0.163 HD
BRANCH  12  14
ATOM     14  C   UNL     1      77.737  36.120  50.173  1.00  0.00     0.151 C 
BRANCH  14  15
ATOM     15  C   UNL     1      78.867  35.447  50.903  1.00  0.00    -0.025 A 
ATOM     16  C   UNL     1      79.497  34.318  50.354  1.00  0.00     0.056 A 
ATOM     17  C   UNL     1      79.276  35.922  52.155  1.00  0.00     0.009 A 
ATOM     18  C   UNL     1      80.554  33.684  51.037  1.00  0.00     0.160 A 
ATOM     19  C   UNL     1      80.312  35.291  52.844  1.00  0.00     0.050 A 
ATOM     20  C   UNL     1      80.957  34.180  52.291  1.00  0.00     0.157 A 
BRANCH  18  21
ATOM     21  O   UNL     1      81.222  32.569  50.504  1.00  0.00    -0.493 OA
ATOM     22  C   UNL     1      80.917  31.969  49.249  1.00  0.00     0.278 C 
ENDBRANCH  18  21
BRANCH  20  23
ATOM     23  O   UNL     1      81.998  33.585  53.003  1.00  0.00    -0.504 OA
ATOM     24  H   UNL     1      82.339  33.962  53.882  1.00  0.00     0.293 HD
ENDBRANCH  20  23
ENDBRANCH  14  15
ENDBRANCH  12  14
ENDBRANCH   9  10
ENDBRANCH   1   9
TORSDOF 10
ENDMDL
MODEL 7
REMARK VINA RESULT:    -1.605      3.355      6.732
REMARK INTER + INTRA:          -3.115
REMARK INTER:                  -1.825
REMARK INTRA:                  -1.289
REMARK UNBOUND:                -0.619
REMARK SMILES COc1cc(CNC(=O)CCCCC=CC(C)C)ccc1O
REMARK SMILES IDX 11 1 12 2 13 3 14 4 15 5 16 6 17 7 18 8 10 9 8 10 9 11 7 12
REMARK SMILES IDX 6 14 5 15 4 16 19 17 3 18 20 19 21 20 2 21 1 22 22 23
REMARK H PARENT 7 13 22 24
REMARK Flexibility Score: inf
ROOT
ATOM      1  C   UNL     1      80.580  32.821  50.065  1.00  0.00     0.010 C 
ENDROOT
BRANCH   1   2
ATOM      2  C   UNL     1      81.614  32.909  51.197  1.00  0.00     0.005 C 
BRANCH   2   3
ATOM      3  C   UNL     1      80.933  33.191  52.543  1.00  0.00     0.027 C 
BRANCH   3   4
ATOM      4  C   UNL     1      79.730  32.310  52.736  1.00  0.00    -0.031 C 
ATOM      5  C   UNL     1      78.504  32.691  52.339  1.00  0.00    -0.028 C 
BRANCH   5   6
ATOM      6  C   UNL     1      77.306  31.792  52.536  1.00  0.00     0.005 C 
ATOM      7  C   UNL     1      77.189  30.793  51.378  1.00  0.00     0.012 C 
ATOM      8  C   UNL     1      76.025  32.620  52.660  1.00  0.00     0.012 C 
ENDBRANCH   5   6
ENDBRANCH   3   4
ENDBRANCH   2   3
ENDBRANCH   1   2
BRANCH   1   9
ATOM      9  C   UNL     1      80.867  33.819  48.935  1.00  0.00     0.100 C 
BRANCH   9  10
ATOM     10  C   UNL     1      80.009  35.043  49.055  1.00  0.00     0.220 C 
ATOM     11  O   UNL     1      80.263  36.045  48.331  1.00  0.00    -0.275 OA
ATOM     12  N   UNL     1      78.880  35.054  49.940  1.00  0.00    -0.352 N 
ATOM     13  H   UNL     1      78.691  34.206  50.521  1.00  0.00     0.163 HD
BRANCH  12  14
ATOM     14  C   UNL     1      77.836  36.073  49.865  1.00  0.00     0.151 C 
BRANCH  14  15
ATOM     15  C   UNL     1      77.031  36.078  51.137  1.00  0.00    -0.025 A 
ATOM     16  C   UNL     1      75.628  36.101  51.091  1.00  0.00     0.056 A 
ATOM     17  C   UNL     1      77.680  36.094  52.378  1.00  0.00     0.009 A 
ATOM     18  C   UNL     1      74.873  36.107  52.281  1.00  0.00     0.160 A 
ATOM     19  C   UNL     1      76.938  36.116  53.559  1.00  0.00     0.050 A 
ATOM     20  C   UNL     1      75.541  36.116  53.519  1.00  0.00     0.157 A 
BRANCH  18  21
ATOM     21  O   UNL     1      73.468  36.104  52.270  1.00  0.00    -0.493 OA
ATOM     22  C   UNL     1      72.665  34.965  51.977  1.00  0.00     0.278 C 
ENDBRANCH  18  21
BRANCH  20  23
ATOM     23  O   UNL     1      74.835  36.123  54.722  1.00  0.00    -0.504 OA
ATOM     24  H   UNL     1      75.292  36.252  55.619  1.00  0.00     0.293 HD
ENDBRANCH  20  23
ENDBRANCH  14  15
ENDBRANCH  12  14
ENDBRANCH   9  10
ENDBRANCH   1   9
TORSDOF 10
ENDMDL
