MODEL 1
REMARK VINA RESULT:    -3.042      0.000      0.000
REMARK INTER + INTRA:         -10.284
REMARK INTER:                  -6.598
REMARK INTRA:                  -3.686
REMARK UNBOUND:                -3.686
REMARK SMILES CCCCCCCCCCCCCCCCCCCCCC(=O)[O-]
REMARK SMILES IDX 12 1 11 2 10 3 9 4 8 5 7 6 6 7 5 8 4 9 3 10 2 11 1 12 13 13
REMARK SMILES IDX 14 14 15 15 16 16 17 17 18 18 19 19 20 20 21 21 22 22 23 23
REMARK SMILES IDX 24 24
REMARK H PARENT
REMARK Flexibility Score: inf
ROOT
ATOM      1  C   UNL     1      26.720  34.247  53.757  1.00  0.00     0.000 C 
ENDROOT
BRANCH   1   2
ATOM      2  C   UNL     1      27.993  33.445  54.102  1.00  0.00     0.000 C 
BRANCH   2   3
ATOM      3  C   UNL     1      29.275  34.135  53.602  1.00  0.00     0.000 C 
BRANCH   3   4
ATOM      4  C   UNL     1      29.724  33.617  52.225  1.00  0.00    -0.000 C 
BRANCH   4   5
ATOM      5  C   UNL     1      29.016  32.311  51.832  1.00  0.00    -0.000 C 
BRANCH   5   6
ATOM      6  C   UNL     1      29.999  31.133  51.813  1.00  0.00    -0.000 C 
BRANCH   6   7
ATOM      7  C   UNL     1      30.286  30.568  53.215  1.00  0.00    -0.000 C 
BRANCH   7   8
ATOM      8  C   UNL     1      31.703  30.887  53.736  1.00  0.00    -0.000 C 
BRANCH   8   9
ATOM      9  C   UNL     1      31.673  31.634  55.080  1.00  0.00    -0.000 C 
BRANCH   9  10
ATOM     10  C   UNL     1      30.821  30.885  56.112  1.00  0.00    -0.000 C 
BRANCH  10  11
ATOM     11  C   UNL     1      29.787  31.820  56.750  1.00  0.00    -0.003 C 
ATOM     12  C   UNL     1      28.941  31.083  57.786  1.00  0.00     0.004 C 
ENDBRANCH  10  11
ENDBRANCH   9  10
ENDBRANCH   8   9
ENDBRANCH   7   8
ENDBRANCH   6   7
ENDBRANCH   5   6
ENDBRANCH   4   5
ENDBRANCH   3   4
ENDBRANCH   2   3
ENDBRANCH   1   2
BRANCH   1  13
ATOM     13  C   UNL     1      25.631  33.415  53.050  1.00  0.00     0.000 C 
BRANCH  13  14
ATOM     14  C   UNL     1      25.260  32.100  53.755  1.00  0.00     0.000 C 
BRANCH  14  15
ATOM     15  C   UNL     1      25.479  30.867  52.866  1.00  0.00     0.000 C 
BRANCH  15  16
ATOM     16  C   UNL     1      26.587  29.970  53.434  1.00  0.00     0.000 C 
BRANCH  16  17
ATOM     17  C   UNL     1      26.827  30.270  54.921  1.00  0.00     0.000 C 
BRANCH  17  18
ATOM     18  C   UNL     1      26.635  29.032  55.811  1.00  0.00     0.000 C 
BRANCH  18  19
ATOM     19  C   UNL     1      25.153  28.750  56.116  1.00  0.00     0.000 C 
BRANCH  19  20
ATOM     20  C   UNL     1      24.462  29.917  56.844  1.00  0.00     0.006 C 
BRANCH  20  21
ATOM     21  C   UNL     1      23.179  30.416  56.160  1.00  0.00     0.053 C 
BRANCH  21  22
ATOM     22  C   UNL     1      21.950  30.047  56.932  1.00  0.00     0.041 C 
ATOM     23  O   UNL     1      20.811  30.354  56.494  1.00  0.00    -0.550 OA
ATOM     24  O   UNL     1      22.065  29.393  58.153  1.00  0.00    -0.550 OA
ENDBRANCH  21  22
ENDBRANCH  20  21
ENDBRANCH  19  20
ENDBRANCH  18  19
ENDBRANCH  17  18
ENDBRANCH  16  17
ENDBRANCH  15  16
ENDBRANCH  14  15
ENDBRANCH  13  14
ENDBRANCH   1  13
TORSDOF 20
ENDMDL
MODEL 2
REMARK VINA RESULT:    -3.031      2.925      5.190
REMARK INTER + INTRA:         -10.261
REMARK INTER:                  -6.433
REMARK INTRA:                  -3.827
REMARK UNBOUND:                -3.686
REMARK SMILES CCCCCCCCCCCCCCCCCCCCCC(=O)[O-]
REMARK SMILES IDX 12 1 11 2 10 3 9 4 8 5 7 6 6 7 5 8 4 9 3 10 2 11 1 12 13 13
REMARK SMILES IDX 14 14 15 15 16 16 17 17 18 18 19 19 20 20 21 21 22 22 23 23
REMARK SMILES IDX 24 24
REMARK H PARENT
REMARK Flexibility Score: inf
ROOT
ATOM      1  C   UNL     1      28.171  33.436  53.940  1.00  0.00     0.000 C 
ENDROOT
BRANCH   1   2
ATOM      2  C   UNL     1      29.528  34.026  53.500  1.00  0.00     0.000 C 
BRANCH   2   3
ATOM      3  C   UNL     1      30.215  33.174  52.416  1.00  0.00     0.000 C 
BRANCH   3   4
ATOM      4  C   UNL     1      29.785  31.698  52.469  1.00  0.00    -0.000 C 
BRANCH   4   5
ATOM      5  C   UNL     1      30.477  30.847  51.393  1.00  0.00    -0.000 C 
BRANCH   5   6
ATOM      6  C   UNL     1      29.460  30.299  50.383  1.00  0.00    -0.000 C 
BRANCH   6   7
ATOM      7  C   UNL     1      28.011  30.692  50.718  1.00  0.00    -0.000 C 
BRANCH   7   8
ATOM      8  C   UNL     1      27.331  31.548  49.629  1.00  0.00    -0.000 C 
BRANCH   8   9
ATOM      9  C   UNL     1      28.084  32.864  49.371  1.00  0.00    -0.000 C 
BRANCH   9  10
ATOM     10  C   UNL     1      28.483  32.995  47.896  1.00  0.00    -0.000 C 
BRANCH  10  11
ATOM     11  C   UNL     1      29.994  32.802  47.718  1.00  0.00    -0.003 C 
ATOM     12  C   UNL     1      30.777  33.583  48.771  1.00  0.00     0.004 C 
ENDBRANCH  10  11
ENDBRANCH   9  10
ENDBRANCH   8   9
ENDBRANCH   7   8
ENDBRANCH   6   7
ENDBRANCH   5   6
ENDBRANCH   4   5
ENDBRANCH   3   4
ENDBRANCH   2   3
ENDBRANCH   1   2
BRANCH   1  13
ATOM     13  C   UNL     1      27.001  34.438  53.864  1.00  0.00     0.000 C 
BRANCH  13  14
ATOM     14  C   UNL     1      25.611  33.800  53.706  1.00  0.00     0.000 C 
BRANCH  14  15
ATOM     15  C   UNL     1      25.524  32.857  52.497  1.00  0.00     0.000 C 
BRANCH  15  16
ATOM     16  C   UNL     1      25.130  31.440  52.932  1.00  0.00     0.000 C 
BRANCH  16  17
ATOM     17  C   UNL     1      24.800  31.398  54.431  1.00  0.00     0.000 C 
BRANCH  17  18
ATOM     18  C   UNL     1      25.629  30.351  55.190  1.00  0.00     0.000 C 
BRANCH  18  19
ATOM     19  C   UNL     1      27.054  30.207  54.627  1.00  0.00     0.000 C 
BRANCH  19  20
ATOM     20  C   UNL     1      28.032  29.581  55.637  1.00  0.00     0.006 C 
BRANCH  20  21
ATOM     21  C   UNL     1      29.373  30.324  55.759  1.00  0.00     0.053 C 
BRANCH  21  22
ATOM     22  C   UNL     1      29.340  31.371  56.830  1.00  0.00     0.041 C 
ATOM     23  O   UNL     1      28.492  31.301  57.756  1.00  0.00    -0.550 OA
ATOM     24  O   UNL     1      30.225  32.442  56.783  1.00  0.00    -0.550 OA
ENDBRANCH  21  22
ENDBRANCH  20  21
ENDBRANCH  19  20
ENDBRANCH  18  19
ENDBRANCH  17  18
ENDBRANCH  16  17
ENDBRANCH  15  16
ENDBRANCH  14  15
ENDBRANCH  13  14
ENDBRANCH   1  13
TORSDOF 20
ENDMDL
MODEL 3
REMARK VINA RESULT:    -3.011      1.740      4.407
REMARK INTER + INTRA:         -10.218
REMARK INTER:                  -6.152
REMARK INTRA:                  -4.066
REMARK UNBOUND:                -3.686
REMARK SMILES CCCCCCCCCCCCCCCCCCCCCC(=O)[O-]
REMARK SMILES IDX 12 1 11 2 10 3 9 4 8 5 7 6 6 7 5 8 4 9 3 10 2 11 1 12 13 13
REMARK SMILES IDX 14 14 15 15 16 16 17 17 18 18 19 19 20 20 21 21 22 22 23 23
REMARK SMILES IDX 24 24
REMARK H PARENT
REMARK Flexibility Score: inf
ROOT
ATOM      1  C   UNL     1      27.998  33.479  54.044  1.00  0.00     0.000 C 
ENDROOT
BRANCH   1   2
ATOM      2  C   UNL     1      26.792  34.429  53.878  1.00  0.00     0.000 C 
BRANCH   2   3
ATOM      3  C   UNL     1      25.633  33.774  53.104  1.00  0.00     0.000 C 
BRANCH   3   4
ATOM      4  C   UNL     1      25.868  32.275  52.849  1.00  0.00    -0.000 C 
BRANCH   4   5
ATOM      5  C   UNL     1      25.769  31.912  51.359  1.00  0.00    -0.000 C 
BRANCH   5   6
ATOM      6  C   UNL     1      26.328  33.036  50.477  1.00  0.00    -0.000 C 
BRANCH   6   7
ATOM      7  C   UNL     1      27.828  32.872  50.176  1.00  0.00    -0.000 C 
BRANCH   7   8
ATOM      8  C   UNL     1      28.307  31.405  50.179  1.00  0.00    -0.000 C 
BRANCH   8   9
ATOM      9  C   UNL     1      29.443  31.168  51.187  1.00  0.00    -0.000 C 
BRANCH   9  10
ATOM     10  C   UNL     1      28.986  30.257  52.333  1.00  0.00    -0.000 C 
BRANCH  10  11
ATOM     11  C   UNL     1      30.163  29.890  53.243  1.00  0.00    -0.003 C 
ATOM     12  C   UNL     1      31.493  30.312  52.623  1.00  0.00     0.004 C 
ENDBRANCH  10  11
ENDBRANCH   9  10
ENDBRANCH   8   9
ENDBRANCH   7   8
ENDBRANCH   6   7
ENDBRANCH   5   6
ENDBRANCH   4   5
ENDBRANCH   3   4
ENDBRANCH   2   3
ENDBRANCH   1   2
BRANCH   1  13
ATOM     13  C   UNL     1      29.305  34.017  53.428  1.00  0.00     0.000 C 
BRANCH  13  14
ATOM     14  C   UNL     1      30.589  33.595  54.162  1.00  0.00     0.000 C 
BRANCH  14  15
ATOM     15  C   UNL     1      30.785  34.338  55.492  1.00  0.00     0.000 C 
BRANCH  15  16
ATOM     16  C   UNL     1      30.914  33.352  56.659  1.00  0.00     0.000 C 
BRANCH  16  17
ATOM     17  C   UNL     1      31.064  31.912  56.147  1.00  0.00     0.000 C 
BRANCH  17  18
ATOM     18  C   UNL     1      30.199  30.913  56.930  1.00  0.00     0.000 C 
BRANCH  18  19
ATOM     19  C   UNL     1      28.702  31.268  56.884  1.00  0.00     0.000 C 
BRANCH  19  20
ATOM     20  C   UNL     1      27.872  30.243  56.091  1.00  0.00     0.006 C 
BRANCH  20  21
ATOM     21  C   UNL     1      27.000  29.326  56.964  1.00  0.00     0.053 C 
BRANCH  21  22
ATOM     22  C   UNL     1      25.538  29.574  56.756  1.00  0.00     0.041 C 
ATOM     23  O   UNL     1      24.686  28.916  57.407  1.00  0.00    -0.550 OA
ATOM     24  O   UNL     1      25.117  30.507  55.816  1.00  0.00    -0.550 OA
ENDBRANCH  21  22
ENDBRANCH  20  21
ENDBRANCH  19  20
ENDBRANCH  18  19
ENDBRANCH  17  18
ENDBRANCH  16  17
ENDBRANCH  15  16
ENDBRANCH  14  15
ENDBRANCH  13  14
ENDBRANCH   1  13
TORSDOF 20
ENDMDL
MODEL 4
REMARK VINA RESULT:    -2.983      1.549      4.008
REMARK INTER + INTRA:         -10.157
REMARK INTER:                  -6.163
REMARK INTRA:                  -3.994
REMARK UNBOUND:                -3.686
REMARK SMILES CCCCCCCCCCCCCCCCCCCCCC(=O)[O-]
REMARK SMILES IDX 12 1 11 2 10 3 9 4 8 5 7 6 6 7 5 8 4 9 3 10 2 11 1 12 13 13
REMARK SMILES IDX 14 14 15 15 16 16 17 17 18 18 19 19 20 20 21 21 22 22 23 23
REMARK SMILES IDX 24 24
REMARK H PARENT
REMARK Flexibility Score: inf
ROOT
ATOM      1  C   UNL     1      25.480  29.691  52.687  1.00  0.00     0.000 C 
ENDROOT
BRANCH   1   2
ATOM      2  C   UNL     1      24.916  31.126  52.609  1.00  0.00     0.000 C 
BRANCH   2   3
ATOM      3  C   UNL     1      25.436  32.024  53.747  1.00  0.00     0.000 C 
BRANCH   3   4
ATOM      4  C   UNL     1      25.430  33.515  53.369  1.00  0.00    -0.000 C 
BRANCH   4   5
ATOM      5  C   UNL     1      26.716  34.235  53.804  1.00  0.00    -0.000 C 
BRANCH   5   6
ATOM      6  C   UNL     1      27.801  33.230  54.213  1.00  0.00    -0.000 C 
BRANCH   6   7
ATOM      7  C   UNL     1      29.226  33.788  54.053  1.00  0.00    -0.000 C 
BRANCH   7   8
ATOM      8  C   UNL     1      29.772  33.697  52.613  1.00  0.00    -0.000 C 
BRANCH   8   9
ATOM      9  C   UNL     1      29.266  32.445  51.878  1.00  0.00    -0.000 C 
BRANCH   9  10
ATOM     10  C   UNL     1      28.874  32.771  50.432  1.00  0.00    -0.000 C 
BRANCH  10  11
ATOM     11  C   UNL     1      27.362  32.996  50.312  1.00  0.00    -0.003 C 
ATOM     12  C   UNL     1      26.694  31.862  49.538  1.00  0.00     0.004 C 
ENDBRANCH  10  11
ENDBRANCH   9  10
ENDBRANCH   8   9
ENDBRANCH   7   8
ENDBRANCH   6   7
ENDBRANCH   5   6
ENDBRANCH   4   5
ENDBRANCH   3   4
ENDBRANCH   2   3
ENDBRANCH   1   2
BRANCH   1  13
ATOM     13  C   UNL     1      27.019  29.622  52.639  1.00  0.00     0.000 C 
BRANCH  13  14
ATOM     14  C   UNL     1      27.675  28.920  53.840  1.00  0.00     0.000 C 
BRANCH  14  15
ATOM     15  C   UNL     1      28.969  29.609  54.297  1.00  0.00     0.000 C 
BRANCH  15  16
ATOM     16  C   UNL     1      28.845  30.111  55.741  1.00  0.00     0.000 C 
BRANCH  16  17
ATOM     17  C   UNL     1      27.757  29.336  56.500  1.00  0.00     0.000 C 
BRANCH  17  18
ATOM     18  C   UNL     1      26.539  30.208  56.838  1.00  0.00     0.000 C 
BRANCH  18  19
ATOM     19  C   UNL     1      25.288  29.372  57.165  1.00  0.00     0.000 C 
BRANCH  19  20
ATOM     20  C   UNL     1      24.178  29.525  56.110  1.00  0.00     0.006 C 
BRANCH  20  21
ATOM     21  C   UNL     1      23.070  30.517  56.502  1.00  0.00     0.053 C 
BRANCH  21  22
ATOM     22  C   UNL     1      22.165  29.961  57.558  1.00  0.00     0.041 C 
ATOM     23  O   UNL     1      21.766  30.695  58.498  1.00  0.00    -0.550 OA
ATOM     24  O   UNL     1      21.792  28.623  57.521  1.00  0.00    -0.550 OA
ENDBRANCH  21  22
ENDBRANCH  20  21
ENDBRANCH  19  20
ENDBRANCH  18  19
ENDBRANCH  17  18
ENDBRANCH  16  17
ENDBRANCH  15  16
ENDBRANCH  14  15
ENDBRANCH  13  14
ENDBRANCH   1  13
TORSDOF 20
ENDMDL
MODEL 5
REMARK VINA RESULT:    -2.955      2.130      5.509
REMARK INTER + INTRA:         -10.097
REMARK INTER:                  -6.454
REMARK INTRA:                  -3.643
REMARK UNBOUND:                -3.686
REMARK SMILES CCCCCCCCCCCCCCCCCCCCCC(=O)[O-]
REMARK SMILES IDX 12 1 11 2 10 3 9 4 8 5 7 6 6 7 5 8 4 9 3 10 2 11 1 12 13 13
REMARK SMILES IDX 14 14 15 15 16 16 17 17 18 18 19 19 20 20 21 21 22 22 23 23
REMARK SMILES IDX 24 24
REMARK H PARENT
REMARK Flexibility Score: inf
ROOT
ATOM      1  C   UNL     1      30.244  31.423  52.658  1.00  0.00     0.000 C 
ENDROOT
BRANCH   1   2
ATOM      2  C   UNL     1      30.511  32.942  52.592  1.00  0.00     0.000 C 
BRANCH   2   3
ATOM      3  C   UNL     1      29.383  33.765  53.241  1.00  0.00     0.000 C 
BRANCH   3   4
ATOM      4  C   UNL     1      27.991  33.368  52.721  1.00  0.00    -0.000 C 
BRANCH   4   5
ATOM      5  C   UNL     1      26.879  33.656  53.742  1.00  0.00    -0.000 C 
BRANCH   5   6
ATOM      6  C   UNL     1      25.492  33.419  53.131  1.00  0.00    -0.000 C 
BRANCH   6   7
ATOM      7  C   UNL     1      25.274  31.963  52.682  1.00  0.00    -0.000 C 
BRANCH   7   8
ATOM      8  C   UNL     1      25.634  30.919  53.760  1.00  0.00    -0.000 C 
BRANCH   8   9
ATOM      9  C   UNL     1      24.454  30.627  54.701  1.00  0.00    -0.000 C 
BRANCH   9  10
ATOM     10  C   UNL     1      24.945  30.226  56.098  1.00  0.00    -0.000 C 
BRANCH  10  11
ATOM     11  C   UNL     1      23.886  29.394  56.832  1.00  0.00    -0.003 C 
ATOM     12  C   UNL     1      22.743  30.273  57.332  1.00  0.00     0.004 C 
ENDBRANCH  10  11
ENDBRANCH   9  10
ENDBRANCH   8   9
ENDBRANCH   7   8
ENDBRANCH   6   7
ENDBRANCH   5   6
ENDBRANCH   4   5
ENDBRANCH   3   4
ENDBRANCH   2   3
ENDBRANCH   1   2
BRANCH   1  13
ATOM     13  C   UNL     1      31.374  30.619  53.332  1.00  0.00     0.000 C 
BRANCH  13  14
ATOM     14  C   UNL     1      32.307  31.444  54.234  1.00  0.00     0.000 C 
BRANCH  14  15
ATOM     15  C   UNL     1      32.488  30.824  55.627  1.00  0.00     0.000 C 
BRANCH  15  16
ATOM     16  C   UNL     1      32.145  31.835  56.728  1.00  0.00     0.000 C 
BRANCH  16  17
ATOM     17  C   UNL     1      30.809  32.535  56.433  1.00  0.00     0.000 C 
BRANCH  17  18
ATOM     18  C   UNL     1      29.611  31.811  57.065  1.00  0.00     0.000 C 
BRANCH  18  19
ATOM     19  C   UNL     1      28.570  31.373  56.019  1.00  0.00     0.000 C 
BRANCH  19  20
ATOM     20  C   UNL     1      28.671  29.877  55.671  1.00  0.00     0.006 C 
BRANCH  20  21
ATOM     21  C   UNL     1      29.040  28.976  56.861  1.00  0.00     0.053 C 
BRANCH  21  22
ATOM     22  C   UNL     1      27.834  28.558  57.645  1.00  0.00     0.041 C 
ATOM     23  O   UNL     1      27.185  27.534  57.308  1.00  0.00    -0.550 OA
ATOM     24  O   UNL     1      27.410  29.320  58.727  1.00  0.00    -0.550 OA
ENDBRANCH  21  22
ENDBRANCH  20  21
ENDBRANCH  19  20
ENDBRANCH  18  19
ENDBRANCH  17  18
ENDBRANCH  16  17
ENDBRANCH  15  16
ENDBRANCH  14  15
ENDBRANCH  13  14
ENDBRANCH   1  13
TORSDOF 20
ENDMDL
MODEL 6
REMARK VINA RESULT:    -2.953      4.730      7.112
REMARK INTER + INTRA:         -10.091
REMARK INTER:                  -6.330
REMARK INTRA:                  -3.761
REMARK UNBOUND:                -3.686
REMARK SMILES CCCCCCCCCCCCCCCCCCCCCC(=O)[O-]
REMARK SMILES IDX 12 1 11 2 10 3 9 4 8 5 7 6 6 7 5 8 4 9 3 10 2 11 1 12 13 13
REMARK SMILES IDX 14 14 15 15 16 16 17 17 18 18 19 19 20 20 21 21 22 22 23 23
REMARK SMILES IDX 24 24
REMARK H PARENT
REMARK Flexibility Score: inf
ROOT
ATOM      1  C   UNL     1      27.969  33.583  54.013  1.00  0.00     0.000 C 
ENDROOT
BRANCH   1   2
ATOM      2  C   UNL     1      28.986  33.630  52.852  1.00  0.00     0.000 C 
BRANCH   2   3
ATOM      3  C   UNL     1      30.023  32.494  52.935  1.00  0.00     0.000 C 
BRANCH   3   4
ATOM      4  C   UNL     1      31.225  32.858  53.824  1.00  0.00    -0.000 C 
BRANCH   4   5
ATOM      5  C   UNL     1      31.419  31.866  54.981  1.00  0.00    -0.000 C 
BRANCH   5   6
ATOM      6  C   UNL     1      30.969  32.477  56.314  1.00  0.00    -0.000 C 
BRANCH   6   7
ATOM      7  C   UNL     1      29.735  31.776  56.910  1.00  0.00    -0.000 C 
BRANCH   7   8
ATOM      8  C   UNL     1      29.256  30.559  56.091  1.00  0.00    -0.000 C 
BRANCH   8   9
ATOM      9  C   UNL     1      27.726  30.524  55.945  1.00  0.00    -0.000 C 
BRANCH   9  10
ATOM     10  C   UNL     1      27.297  29.564  54.828  1.00  0.00    -0.000 C 
BRANCH  10  11
ATOM     11  C   UNL     1      28.406  29.415  53.779  1.00  0.00    -0.003 C 
ATOM     12  C   UNL     1      27.847  29.545  52.364  1.00  0.00     0.004 C 
ENDBRANCH  10  11
ENDBRANCH   9  10
ENDBRANCH   8   9
ENDBRANCH   7   8
ENDBRANCH   6   7
ENDBRANCH   5   6
ENDBRANCH   4   5
ENDBRANCH   3   4
ENDBRANCH   2   3
ENDBRANCH   1   2
BRANCH   1  13
ATOM     13  C   UNL     1      26.507  33.793  53.570  1.00  0.00     0.000 C 
BRANCH  13  14
ATOM     14  C   UNL     1      25.694  32.501  53.384  1.00  0.00     0.000 C 
BRANCH  14  15
ATOM     15  C   UNL     1      25.372  32.208  51.911  1.00  0.00     0.000 C 
BRANCH  15  16
ATOM     16  C   UNL     1      25.510  33.473  51.056  1.00  0.00     0.000 C 
BRANCH  16  17
ATOM     17  C   UNL     1      26.128  33.145  49.688  1.00  0.00     0.000 C 
BRANCH  17  18
ATOM     18  C   UNL     1      27.469  32.405  49.807  1.00  0.00     0.000 C 
BRANCH  18  19
ATOM     19  C   UNL     1      28.493  32.867  48.755  1.00  0.00     0.000 C 
BRANCH  19  20
ATOM     20  C   UNL     1      29.922  32.964  49.319  1.00  0.00     0.006 C 
BRANCH  20  21
ATOM     21  C   UNL     1      30.916  33.686  48.394  1.00  0.00     0.053 C 
BRANCH  21  22
ATOM     22  C   UNL     1      31.843  32.729  47.709  1.00  0.00     0.041 C 
ATOM     23  O   UNL     1      32.894  33.151  47.159  1.00  0.00    -0.550 OA
ATOM     24  O   UNL     1      31.528  31.377  47.649  1.00  0.00    -0.550 OA
ENDBRANCH  21  22
ENDBRANCH  20  21
ENDBRANCH  19  20
ENDBRANCH  18  19
ENDBRANCH  17  18
ENDBRANCH  16  17
ENDBRANCH  15  16
ENDBRANCH  14  15
ENDBRANCH  13  14
ENDBRANCH   1  13
TORSDOF 20
ENDMDL
MODEL 7
REMARK VINA RESULT:    -2.947     13.172     16.650
REMARK INTER + INTRA:         -10.080
REMARK INTER:                  -6.278
REMARK INTRA:                  -3.802
REMARK UNBOUND:                -3.686
REMARK SMILES CCCCCCCCCCCCCCCCCCCCCC(=O)[O-]
REMARK SMILES IDX 12 1 11 2 10 3 9 4 8 5 7 6 6 7 5 8 4 9 3 10 2 11 1 12 13 13
REMARK SMILES IDX 14 14 15 15 16 16 17 17 18 18 19 19 20 20 21 21 22 22 23 23
REMARK SMILES IDX 24 24
REMARK H PARENT
REMARK Flexibility Score: inf
ROOT
ATOM      1  C   UNL     1      17.970  17.628  51.856  1.00  0.00     0.000 C 
ENDROOT
BRANCH   1   2
ATOM      2  C   UNL     1      17.849  18.106  50.394  1.00  0.00     0.000 C 
BRANCH   2   3
ATOM      3  C   UNL     1      17.989  19.634  50.262  1.00  0.00     0.000 C 
BRANCH   3   4
ATOM      4  C   UNL     1      16.699  20.302  49.756  1.00  0.00    -0.000 C 
BRANCH   4   5
ATOM      5  C   UNL     1      15.583  19.283  49.477  1.00  0.00    -0.000 C 
BRANCH   5   6
ATOM      6  C   UNL     1      14.697  19.739  48.310  1.00  0.00    -0.000 C 
BRANCH   6   7
ATOM      7  C   UNL     1      14.556  18.670  47.212  1.00  0.00    -0.000 C 
BRANCH   7   8
ATOM      8  C   UNL     1      15.863  17.904  46.917  1.00  0.00    -0.000 C 
BRANCH   8   9
ATOM      9  C   UNL     1      16.732  18.620  45.871  1.00  0.00    -0.000 C 
BRANCH   9  10
ATOM     10  C   UNL     1      18.148  18.869  46.404  1.00  0.00    -0.000 C 
BRANCH  10  11
ATOM     11  C   UNL     1      18.415  20.370  46.568  1.00  0.00    -0.003 C 
ATOM     12  C   UNL     1      17.267  21.200  46.000  1.00  0.00     0.004 C 
ENDBRANCH  10  11
ENDBRANCH   9  10
ENDBRANCH   8   9
ENDBRANCH   7   8
ENDBRANCH   6   7
ENDBRANCH   5   6
ENDBRANCH   4   5
ENDBRANCH   3   4
ENDBRANCH   2   3
ENDBRANCH   1   2
BRANCH   1  13
ATOM     13  C   UNL     1      16.614  17.393  52.550  1.00  0.00     0.000 C 
BRANCH  13  14
ATOM     14  C   UNL     1      16.360  18.266  53.790  1.00  0.00     0.000 C 
BRANCH  14  15
ATOM     15  C   UNL     1      16.178  19.751  53.443  1.00  0.00     0.000 C 
BRANCH  15  16
ATOM     16  C   UNL     1      17.388  20.575  53.900  1.00  0.00     0.000 C 
BRANCH  16  17
ATOM     17  C   UNL     1      18.092  19.903  55.089  1.00  0.00     0.000 C 
BRANCH  17  18
ATOM     18  C   UNL     1      19.598  19.716  54.854  1.00  0.00     0.000 C 
BRANCH  18  19
ATOM     19  C   UNL     1      20.047  20.225  53.473  1.00  0.00     0.000 C 
BRANCH  19  20
ATOM     20  C   UNL     1      20.958  19.225  52.738  1.00  0.00     0.006 C 
BRANCH  20  21
ATOM     21  C   UNL     1      22.310  19.810  52.298  1.00  0.00     0.053 C 
BRANCH  21  22
ATOM     22  C   UNL     1      23.083  20.370  53.452  1.00  0.00     0.041 C 
ATOM     23  O   UNL     1      23.482  19.611  54.373  1.00  0.00    -0.550 OA
ATOM     24  O   UNL     1      23.332  21.735  53.527  1.00  0.00    -0.550 OA
ENDBRANCH  21  22
ENDBRANCH  20  21
ENDBRANCH  19  20
ENDBRANCH  18  19
ENDBRANCH  17  18
ENDBRANCH  16  17
ENDBRANCH  15  16
ENDBRANCH  14  15
ENDBRANCH  13  14
ENDBRANCH   1  13
TORSDOF 20
ENDMDL
MODEL 8
REMARK VINA RESULT:    -2.929      2.437      4.485
REMARK INTER + INTRA:         -10.039
REMARK INTER:                  -7.122
REMARK INTRA:                  -2.918
REMARK UNBOUND:                -3.686
REMARK SMILES CCCCCCCCCCCCCCCCCCCCCC(=O)[O-]
REMARK SMILES IDX 12 1 11 2 10 3 9 4 8 5 7 6 6 7 5 8 4 9 3 10 2 11 1 12 13 13
REMARK SMILES IDX 14 14 15 15 16 16 17 17 18 18 19 19 20 20 21 21 22 22 23 23
REMARK SMILES IDX 24 24
REMARK H PARENT
REMARK Flexibility Score: inf
ROOT
ATOM      1  C   UNL     1      24.865  31.367  54.476  1.00  0.00     0.000 C 
ENDROOT
BRANCH   1   2
ATOM      2  C   UNL     1      25.198  32.133  53.178  1.00  0.00     0.000 C 
BRANCH   2   3
ATOM      3  C   UNL     1      25.824  33.512  53.456  1.00  0.00     0.000 C 
BRANCH   3   4
ATOM      4  C   UNL     1      27.266  33.621  52.930  1.00  0.00    -0.000 C 
BRANCH   4   5
ATOM      5  C   UNL     1      28.263  34.017  54.030  1.00  0.00    -0.000 C 
BRANCH   5   6
ATOM      6  C   UNL     1      29.266  32.888  54.300  1.00  0.00    -0.000 C 
BRANCH   6   7
ATOM      7  C   UNL     1      28.587  31.558  54.669  1.00  0.00    -0.000 C 
BRANCH   7   8
ATOM      8  C   UNL     1      28.512  31.298  56.188  1.00  0.00    -0.000 C 
BRANCH   8   9
ATOM      9  C   UNL     1      27.998  29.885  56.511  1.00  0.00    -0.000 C 
BRANCH   9  10
ATOM     10  C   UNL     1      26.793  29.936  57.458  1.00  0.00    -0.000 C 
BRANCH  10  11
ATOM     11  C   UNL     1      25.949  28.662  57.339  1.00  0.00    -0.003 C 
ATOM     12  C   UNL     1      26.519  27.720  56.280  1.00  0.00     0.004 C 
ENDBRANCH  10  11
ENDBRANCH   9  10
ENDBRANCH   8   9
ENDBRANCH   7   8
ENDBRANCH   6   7
ENDBRANCH   5   6
ENDBRANCH   4   5
ENDBRANCH   3   4
ENDBRANCH   2   3
ENDBRANCH   1   2
BRANCH   1  13
ATOM     13  C   UNL     1      24.208  29.992  54.238  1.00  0.00     0.000 C 
BRANCH  13  14
ATOM     14  C   UNL     1      23.099  29.622  55.237  1.00  0.00     0.000 C 
BRANCH  14  15
ATOM     15  C   UNL     1      22.998  30.612  56.407  1.00  0.00     0.000 C 
BRANCH  15  16
ATOM     16  C   UNL     1      22.173  30.022  57.558  1.00  0.00     0.000 C 
BRANCH  16  17
ATOM     17  C   UNL     1      22.272  28.489  57.574  1.00  0.00     0.000 C 
BRANCH  17  18
ATOM     18  C   UNL     1      20.900  27.808  57.471  1.00  0.00     0.000 C 
BRANCH  18  19
ATOM     19  C   UNL     1      19.806  28.760  56.955  1.00  0.00     0.000 C 
BRANCH  19  20
ATOM     20  C   UNL     1      19.557  28.615  55.443  1.00  0.00     0.006 C 
BRANCH  20  21
ATOM     21  C   UNL     1      19.142  29.921  54.744  1.00  0.00     0.053 C 
BRANCH  21  22
ATOM     22  C   UNL     1      17.883  29.758  53.950  1.00  0.00     0.041 C 
ATOM     23  O   UNL     1      17.936  29.378  52.752  1.00  0.00    -0.550 OA
ATOM     24  O   UNL     1      16.654  30.058  54.525  1.00  0.00    -0.550 OA
ENDBRANCH  21  22
ENDBRANCH  20  21
ENDBRANCH  19  20
ENDBRANCH  18  19
ENDBRANCH  17  18
ENDBRANCH  16  17
ENDBRANCH  15  16
ENDBRANCH  14  15
ENDBRANCH  13  14
ENDBRANCH   1  13
TORSDOF 20
ENDMDL
MODEL 9
REMARK VINA RESULT:    -2.925      3.256      4.995
REMARK INTER + INTRA:         -10.031
REMARK INTER:                  -5.762
REMARK INTRA:                  -4.269
REMARK UNBOUND:                -3.686
REMARK SMILES CCCCCCCCCCCCCCCCCCCCCC(=O)[O-]
REMARK SMILES IDX 12 1 11 2 10 3 9 4 8 5 7 6 6 7 5 8 4 9 3 10 2 11 1 12 13 13
REMARK SMILES IDX 14 14 15 15 16 16 17 17 18 18 19 19 20 20 21 21 22 22 23 23
REMARK SMILES IDX 24 24
REMARK H PARENT
REMARK Flexibility Score: inf
ROOT
ATOM      1  C   UNL     1      28.947  33.606  52.892  1.00  0.00     0.000 C 
ENDROOT
BRANCH   1   2
ATOM      2  C   UNL     1      30.258  32.853  53.204  1.00  0.00     0.000 C 
BRANCH   2   3
ATOM      3  C   UNL     1      30.475  31.643  52.275  1.00  0.00     0.000 C 
BRANCH   3   4
ATOM      4  C   UNL     1      30.782  30.352  53.053  1.00  0.00    -0.000 C 
BRANCH   4   5
ATOM      5  C   UNL     1      29.968  29.153  52.543  1.00  0.00    -0.000 C 
BRANCH   5   6
ATOM      6  C   UNL     1      29.290  28.412  53.703  1.00  0.00    -0.000 C 
BRANCH   6   7
ATOM      7  C   UNL     1      29.454  29.132  55.053  1.00  0.00    -0.000 C 
BRANCH   7   8
ATOM      8  C   UNL     1      28.171  29.835  55.543  1.00  0.00    -0.000 C 
BRANCH   8   9
ATOM      9  C   UNL     1      28.429  31.295  55.951  1.00  0.00    -0.000 C 
BRANCH   9  10
ATOM     10  C   UNL     1      29.382  31.375  57.150  1.00  0.00    -0.000 C 
BRANCH  10  11
ATOM     11  C   UNL     1      30.779  31.826  56.709  1.00  0.00    -0.003 C 
ATOM     12  C   UNL     1      30.953  33.333  56.881  1.00  0.00     0.004 C 
ENDBRANCH  10  11
ENDBRANCH   9  10
ENDBRANCH   8   9
ENDBRANCH   7   8
ENDBRANCH   6   7
ENDBRANCH   5   6
ENDBRANCH   4   5
ENDBRANCH   3   4
ENDBRANCH   2   3
ENDBRANCH   1   2
BRANCH   1  13
ATOM     13  C   UNL     1      28.335  34.323  54.112  1.00  0.00     0.000 C 
BRANCH  13  14
ATOM     14  C   UNL     1      26.826  34.601  54.010  1.00  0.00     0.000 C 
BRANCH  14  15
ATOM     15  C   UNL     1      26.116  33.671  53.015  1.00  0.00     0.000 C 
BRANCH  15  16
ATOM     16  C   UNL     1      25.454  32.492  53.739  1.00  0.00     0.000 C 
BRANCH  16  17
ATOM     17  C   UNL     1      25.340  31.273  52.811  1.00  0.00     0.000 C 
BRANCH  17  18
ATOM     18  C   UNL     1      26.709  30.763  52.335  1.00  0.00     0.000 C 
BRANCH  18  19
ATOM     19  C   UNL     1      26.721  30.422  50.834  1.00  0.00     0.000 C 
BRANCH  19  20
ATOM     20  C   UNL     1      27.790  31.208  50.054  1.00  0.00     0.006 C 
BRANCH  20  21
ATOM     21  C   UNL     1      27.394  32.658  49.729  1.00  0.00     0.053 C 
BRANCH  21  22
ATOM     22  C   UNL     1      26.028  32.745  49.120  1.00  0.00     0.041 C 
ATOM     23  O   UNL     1      25.841  32.376  47.931  1.00  0.00    -0.550 OA
ATOM     24  O   UNL     1      24.970  33.265  49.855  1.00  0.00    -0.550 OA
ENDBRANCH  21  22
ENDBRANCH  20  21
ENDBRANCH  19  20
ENDBRANCH  18  19
ENDBRANCH  17  18
ENDBRANCH  16  17
ENDBRANCH  15  16
ENDBRANCH  14  15
ENDBRANCH  13  14
ENDBRANCH   1  13
TORSDOF 20
ENDMDL
