MODEL 1
REMARK VINA RESULT:    -1.365      0.000      0.000
REMARK INTER + INTRA:          -3.232
REMARK INTER:                  -1.963
REMARK INTRA:                  -1.269
REMARK UNBOUND:                -1.269
REMARK SMILES O=C(CO)[C@@H](O)[C@H](O)[C@@H](O)CO
REMARK SMILES IDX 7 1 9 2 11 3 12 4 10 6 5 8 2 9 1 10 3 11 4 12 6 14 8 16
REMARK H PARENT 12 5 10 7 4 13 6 15 8 17
REMARK Flexibility Score: inf
ROOT
ATOM      1  C   UNL     1      64.028 129.188  -7.984  1.00  0.00     0.181 C 
ENDROOT
BRANCH   1   2
ATOM      2  C   UNL     1      63.349 127.997  -7.240  1.00  0.00     0.171 C 
BRANCH   2   3
ATOM      3  C   UNL     1      61.808 127.972  -7.324  1.00  0.00     0.190 C 
BRANCH   3   4
ATOM      4  O   UNL     1      61.254 128.781  -6.322  1.00  0.00    -0.394 OA
ATOM      5  H   UNL     1      61.430 128.326  -5.456  1.00  0.00     0.210 HD
ENDBRANCH   3   4
ENDBRANCH   2   3
BRANCH   2   6
ATOM      6  O   UNL     1      63.775 127.943  -5.900  1.00  0.00    -0.388 OA
ATOM      7  H   UNL     1      63.697 128.854  -5.518  1.00  0.00     0.211 HD
ENDBRANCH   2   6
ENDBRANCH   1   2
BRANCH   1   8
ATOM      8  C   UNL     1      65.575 129.094  -8.112  1.00  0.00     0.214 C 
BRANCH   8   9
ATOM      9  C   UNL     1      66.255 130.265  -7.429  1.00  0.00     0.189 C 
ATOM     10  O   UNL     1      66.112 131.397  -7.870  1.00  0.00    -0.294 OA
BRANCH   9  11
ATOM     11  C   UNL     1      67.125 130.047  -6.226  1.00  0.00     0.234 C 
BRANCH  11  12
ATOM     12  O   UNL     1      66.377 129.422  -5.220  1.00  0.00    -0.388 OA
ATOM     13  H   UNL     1      65.671 130.070  -4.960  1.00  0.00     0.211 HD
ENDBRANCH  11  12
ENDBRANCH   9  11
ENDBRANCH   8   9
BRANCH   8  14
ATOM     14  O   UNL     1      66.076 127.875  -7.618  1.00  0.00    -0.382 OA
ATOM     15  H   UNL     1      66.941 128.052  -7.166  1.00  0.00     0.211 HD
ENDBRANCH   8  14
ENDBRANCH   1   8
BRANCH   1  16
ATOM     16  O   UNL     1      63.630 130.426  -7.443  1.00  0.00    -0.387 OA
ATOM     17  H   UNL     1      63.124 130.250  -6.610  1.00  0.00     0.211 HD
ENDBRANCH   1  16
TORSDOF 10
ENDMDL
