MODEL 1
REMARK VINA RESULT:    75.117      0.000      0.000
REMARK INTER + INTRA:         108.635
REMARK INTER:                 110.247
REMARK INTRA:                  -1.613
REMARK UNBOUND:                -1.613
REMARK SMILES O=c1c(O[C@@H]2O[C@H](CO)[C@@H](O)[C@H](O)[C@H]2O)c(-c2ccc(O)c(O)c2)oc2cc(O)cc(O)c12
REMARK SMILES IDX 4 1 3 2 16 3 25 4 2 5 26 6 1 7 33 8 27 9 31 10 28 11 30 12
REMARK SMILES IDX 17 13 18 14 19 15 20 16 24 17 22 18 21 19 23 21 32 23 29 25
REMARK SMILES IDX 5 27 14 28 6 29 12 30 7 31 10 32 15 33 13 35 8 37 9 38 11 40
REMARK H PARENT 21 20 23 22 32 24 29 26 15 34 13 36 9 39 11 41
REMARK Flexibility Score: inf
ROOT
ATOM      1  O   UNL     1       4.291  -3.882  11.439  1.00  0.00    -0.454 OA
ENDROOT
BRANCH   1   2
ATOM      2  C   UNL     1       4.030  -5.231  10.979  1.00  0.00     0.214 A 
ATOM      3  C   UNL     1       4.549  -5.818   9.694  1.00  0.00     0.180 A 
ATOM      4  O   UNL     1       5.516  -6.695   9.754  1.00  0.00    -0.452 OA
ATOM      5  C   UNL     1       3.707  -6.233  11.878  1.00  0.00     0.239 A 
ATOM      6  C   UNL     1       5.477  -7.539  10.813  1.00  0.00     0.146 A 
ATOM      7  O   UNL     1       2.725  -6.059  12.670  1.00  0.00    -0.285 OA
ATOM      8  C   UNL     1       4.613  -7.331  11.927  1.00  0.00     0.111 A 
ATOM      9  C   UNL     1       6.092  -8.760  10.738  1.00  0.00     0.094 A 
ATOM     10  C   UNL     1       4.758  -8.043  13.092  1.00  0.00     0.134 A 
ATOM     11  C   UNL     1       6.522  -9.282  11.969  1.00  0.00     0.123 A 
ATOM     12  C   UNL     1       5.945  -8.847  13.166  1.00  0.00     0.093 A 
BRANCH   3  13
ATOM     13  C   UNL     1       3.793  -6.353   8.483  1.00  0.00     0.025 A 
ATOM     14  C   UNL     1       2.905  -7.543   8.626  1.00  0.00     0.016 A 
ATOM     15  C   UNL     1       2.915  -8.541   7.618  1.00  0.00     0.051 A 
ATOM     16  C   UNL     1       3.666  -8.275   6.461  1.00  0.00     0.157 A 
ATOM     17  C   UNL     1       4.404  -6.077   7.264  1.00  0.00     0.062 A 
ATOM     18  C   UNL     1       4.231  -6.970   6.262  1.00  0.00     0.158 A 
BRANCH  16  19
ATOM     19  O   UNL     1       3.914  -9.293   5.576  1.00  0.00    -0.504 OA
ATOM     20  H   UNL     1       4.617  -9.225   4.813  1.00  0.00     0.293 HD
ENDBRANCH  16  19
BRANCH  18  21
ATOM     21  O   UNL     1       4.821  -6.611   4.982  1.00  0.00    -0.504 OA
ATOM     22  H   UNL     1       5.887  -6.648   4.791  1.00  0.00     0.293 HD
ENDBRANCH  18  21
ENDBRANCH   3  13
BRANCH  10  23
ATOM     23  O   UNL     1       3.953  -7.881  14.203  1.00  0.00    -0.507 OA
ATOM     24  H   UNL     1       3.366  -7.092  14.326  1.00  0.00     0.293 HD
ENDBRANCH  10  23
BRANCH  11  25
ATOM     25  O   UNL     1       7.650 -10.124  11.989  1.00  0.00    -0.508 OA
ATOM     26  H   UNL     1       8.394 -10.070  11.309  1.00  0.00     0.293 HD
ENDBRANCH  11  25
ENDBRANCH   1   2
BRANCH   1  27
ATOM     27  C   UNL     1       3.738  -2.650  10.820  1.00  0.00     0.339 C 
ATOM     28  C   UNL     1       2.171  -2.715  10.662  1.00  0.00     0.214 C 
ATOM     29  O   UNL     1       4.142  -1.439  11.488  1.00  0.00    -0.332 OA
ATOM     30  C   UNL     1       1.386  -2.501  11.984  1.00  0.00     0.180 C 
ATOM     31  C   UNL     1       3.435  -1.008  12.704  1.00  0.00     0.179 C 
ATOM     32  C   UNL     1       1.816  -1.060  12.609  1.00  0.00     0.177 C 
BRANCH  28  33
ATOM     33  O   UNL     1       1.840  -1.612   9.759  1.00  0.00    -0.384 OA
ATOM     34  H   UNL     1       1.696  -0.868  10.398  1.00  0.00     0.211 HD
ENDBRANCH  28  33
BRANCH  30  35
ATOM     35  O   UNL     1       1.540  -3.560  12.933  1.00  0.00    -0.387 OA
ATOM     36  H   UNL     1       2.358  -3.348  13.459  1.00  0.00     0.211 HD
ENDBRANCH  30  35
BRANCH  31  37
ATOM     37  C   UNL     1       3.982  -1.763  13.962  1.00  0.00     0.191 C 
BRANCH  37  38
ATOM     38  O   UNL     1       5.096  -2.665  13.649  1.00  0.00    -0.394 OA
ATOM     39  H   UNL     1       5.213  -2.601  12.603  1.00  0.00     0.210 HD
ENDBRANCH  37  38
ENDBRANCH  31  37
BRANCH  32  40
ATOM     40  O   UNL     1       1.431   0.033  11.747  1.00  0.00    -0.387 OA
ATOM     41  H   UNL     1       2.287   0.413  11.344  1.00  0.00     0.211 HD
ENDBRANCH  32  40
ENDBRANCH   1  27
TORSDOF 12
ENDMDL
MODEL 2
REMARK VINA RESULT:    76.148      1.438      4.997
REMARK INTER + INTRA:         110.149
REMARK INTER:                 111.176
REMARK INTRA:                  -1.027
REMARK UNBOUND:                -1.613
REMARK SMILES O=c1c(O[C@@H]2O[C@H](CO)[C@@H](O)[C@H](O)[C@H]2O)c(-c2ccc(O)c(O)c2)oc2cc(O)cc(O)c12
REMARK SMILES IDX 4 1 3 2 16 3 25 4 2 5 26 6 1 7 33 8 27 9 31 10 28 11 30 12
REMARK SMILES IDX 17 13 18 14 19 15 20 16 24 17 22 18 21 19 23 21 32 23 29 25
REMARK SMILES IDX 5 27 14 28 6 29 12 30 7 31 10 32 15 33 13 35 8 37 9 38 11 40
REMARK H PARENT 21 20 23 22 32 24 29 26 15 34 13 36 9 39 11 41
REMARK Flexibility Score: inf
ROOT
ATOM      1  O   UNL     1       3.201  -4.792  10.855  1.00  0.00    -0.454 OA
ENDROOT
BRANCH   1   2
ATOM      2  C   UNL     1       3.991  -5.896  10.350  1.00  0.00     0.214 A 
ATOM      3  C   UNL     1       3.786  -7.341  10.720  1.00  0.00     0.180 A 
ATOM      4  O   UNL     1       3.246  -8.140   9.838  1.00  0.00    -0.452 OA
ATOM      5  C   UNL     1       4.660  -5.792   9.143  1.00  0.00     0.239 A 
ATOM      6  C   UNL     1       3.588  -7.906   8.548  1.00  0.00     0.146 A 
ATOM      7  O   UNL     1       5.469  -4.824   8.966  1.00  0.00    -0.285 OA
ATOM      8  C   UNL     1       4.265  -6.721   8.138  1.00  0.00     0.111 A 
ATOM      9  C   UNL     1       3.512  -8.915   7.626  1.00  0.00     0.094 A 
ATOM     10  C   UNL     1       4.383  -6.382   6.813  1.00  0.00     0.134 A 
ATOM     11  C   UNL     1       3.290  -8.494   6.305  1.00  0.00     0.123 A 
ATOM     12  C   UNL     1       3.612  -7.191   5.911  1.00  0.00     0.093 A 
BRANCH   3  13
ATOM     13  C   UNL     1       4.726  -8.321  11.412  1.00  0.00     0.025 A 
ATOM     14  C   UNL     1       5.050  -8.149  12.858  1.00  0.00     0.016 A 
ATOM     15  C   UNL     1       6.385  -8.341  13.297  1.00  0.00     0.051 A 
ATOM     16  C   UNL     1       7.305  -8.827  12.354  1.00  0.00     0.157 A 
ATOM     17  C   UNL     1       5.638  -8.933  10.558  1.00  0.00     0.062 A 
ATOM     18  C   UNL     1       6.843  -9.274  11.070  1.00  0.00     0.158 A 
BRANCH  16  19
ATOM     19  O   UNL     1       8.644  -8.793  12.648  1.00  0.00    -0.504 OA
ATOM     20  H   UNL     1       9.036  -8.267  13.455  1.00  0.00     0.293 HD
ENDBRANCH  16  19
BRANCH  18  21
ATOM     21  O   UNL     1       7.741  -9.978  10.169  1.00  0.00    -0.504 OA
ATOM     22  H   UNL     1       8.821  -9.896  10.226  1.00  0.00     0.293 HD
ENDBRANCH  18  21
ENDBRANCH   3  13
BRANCH  10  23
ATOM     23  O   UNL     1       5.025  -5.247   6.358  1.00  0.00    -0.507 OA
ATOM     24  H   UNL     1       5.875  -5.282   5.850  1.00  0.00     0.293 HD
ENDBRANCH  10  23
BRANCH  11  25
ATOM     25  O   UNL     1       2.591  -9.347   5.431  1.00  0.00    -0.508 OA
ATOM     26  H   UNL     1       1.584  -9.417   5.412  1.00  0.00     0.293 HD
ENDBRANCH  11  25
ENDBRANCH   1   2
BRANCH   1  27
ATOM     27  C   UNL     1       3.270  -4.260  12.240  1.00  0.00     0.339 C 
ATOM     28  C   UNL     1       4.679  -3.637  12.571  1.00  0.00     0.214 C 
ATOM     29  O   UNL     1       2.209  -3.337  12.556  1.00  0.00    -0.332 OA
ATOM     30  C   UNL     1       4.926  -2.242  11.937  1.00  0.00     0.180 C 
ATOM     31  C   UNL     1       2.317  -1.932  12.134  1.00  0.00     0.179 C 
ATOM     32  C   UNL     1       3.750  -1.234  12.438  1.00  0.00     0.177 C 
BRANCH  28  33
ATOM     33  O   UNL     1       4.687  -3.478  14.026  1.00  0.00    -0.384 OA
ATOM     34  H   UNL     1       3.819  -3.024  14.180  1.00  0.00     0.211 HD
ENDBRANCH  28  33
BRANCH  30  35
ATOM     35  O   UNL     1       5.040  -2.260  10.510  1.00  0.00    -0.387 OA
ATOM     36  H   UNL     1       4.659  -3.129  10.210  1.00  0.00     0.211 HD
ENDBRANCH  30  35
BRANCH  31  37
ATOM     37  C   UNL     1       1.879  -1.765  10.640  1.00  0.00     0.191 C 
BRANCH  37  38
ATOM     38  O   UNL     1       1.347  -0.430  10.345  1.00  0.00    -0.394 OA
ATOM     39  H   UNL     1       0.299  -0.536  10.393  1.00  0.00     0.210 HD
ENDBRANCH  37  38
ENDBRANCH  31  37
BRANCH  32  40
ATOM     40  O   UNL     1       3.797  -1.026  13.867  1.00  0.00    -0.387 OA
ATOM     41  H   UNL     1       3.549  -1.912  14.307  1.00  0.00     0.211 HD
ENDBRANCH  32  40
ENDBRANCH   1  27
TORSDOF 12
ENDMDL
MODEL 3
REMARK VINA RESULT:    76.239      1.407      4.618
REMARK INTER + INTRA:         110.282
REMARK INTER:                 110.466
REMARK INTRA:                  -0.183
REMARK UNBOUND:                -1.613
REMARK SMILES O=c1c(O[C@@H]2O[C@H](CO)[C@@H](O)[C@H](O)[C@H]2O)c(-c2ccc(O)c(O)c2)oc2cc(O)cc(O)c12
REMARK SMILES IDX 4 1 3 2 16 3 25 4 2 5 26 6 1 7 33 8 27 9 31 10 28 11 30 12
REMARK SMILES IDX 17 13 18 14 19 15 20 16 24 17 22 18 21 19 23 21 32 23 29 25
REMARK SMILES IDX 5 27 14 28 6 29 12 30 7 31 10 32 15 33 13 35 8 37 9 38 11 40
REMARK H PARENT 21 20 23 22 32 24 29 26 15 34 13 36 9 39 11 41
REMARK Flexibility Score: inf
ROOT
ATOM      1  O   UNL     1       3.023  -5.073  10.775  1.00  0.00    -0.454 OA
ENDROOT
BRANCH   1   2
ATOM      2  C   UNL     1       3.872  -6.143  10.292  1.00  0.00     0.214 A 
ATOM      3  C   UNL     1       3.755  -7.586  10.704  1.00  0.00     0.180 A 
ATOM      4  O   UNL     1       3.256  -8.440   9.849  1.00  0.00    -0.452 OA
ATOM      5  C   UNL     1       4.522  -6.033   9.075  1.00  0.00     0.239 A 
ATOM      6  C   UNL     1       3.570  -8.223   8.549  1.00  0.00     0.146 A 
ATOM      7  O   UNL     1       5.270  -5.025   8.863  1.00  0.00    -0.285 OA
ATOM      8  C   UNL     1       4.173  -7.012   8.100  1.00  0.00     0.111 A 
ATOM      9  C   UNL     1       3.545  -9.260   7.657  1.00  0.00     0.094 A 
ATOM     10  C   UNL     1       4.258  -6.703   6.765  1.00  0.00     0.134 A 
ATOM     11  C   UNL     1       3.287  -8.889   6.327  1.00  0.00     0.123 A 
ATOM     12  C   UNL     1       3.527  -7.581   5.894  1.00  0.00     0.093 A 
BRANCH   3  13
ATOM     13  C   UNL     1       4.758  -8.489  11.411  1.00  0.00     0.025 A 
ATOM     14  C   UNL     1       5.068  -8.273  12.854  1.00  0.00     0.016 A 
ATOM     15  C   UNL     1       6.412  -8.368  13.297  1.00  0.00     0.051 A 
ATOM     16  C   UNL     1       7.364  -8.806  12.362  1.00  0.00     0.157 A 
ATOM     17  C   UNL     1       5.710  -9.052  10.567  1.00  0.00     0.062 A 
ATOM     18  C   UNL     1       6.935  -9.304  11.086  1.00  0.00     0.158 A 
BRANCH  16  19
ATOM     19  O   UNL     1       8.697  -8.677  12.657  1.00  0.00    -0.504 OA
ATOM     20  H   UNL     1       9.096  -7.847  13.138  1.00  0.00     0.293 HD
ENDBRANCH  16  19
BRANCH  18  21
ATOM     21  O   UNL     1       7.880  -9.960  10.197  1.00  0.00    -0.504 OA
ATOM     22  H   UNL     1       8.751 -10.499  10.552  1.00  0.00     0.293 HD
ENDBRANCH  18  21
ENDBRANCH   3  13
BRANCH  10  23
ATOM     23  O   UNL     1       4.827  -5.545   6.273  1.00  0.00    -0.507 OA
ATOM     24  H   UNL     1       5.072  -4.782   6.856  1.00  0.00     0.293 HD
ENDBRANCH  10  23
BRANCH  11  25
ATOM     25  O   UNL     1       2.631  -9.806   5.484  1.00  0.00    -0.508 OA
ATOM     26  H   UNL     1       2.431  -9.621   4.512  1.00  0.00     0.293 HD
ENDBRANCH  11  25
ENDBRANCH   1   2
BRANCH   1  27
ATOM     27  C   UNL     1       3.170  -3.641  10.411  1.00  0.00     0.339 C 
ATOM     28  C   UNL     1       1.953  -2.771  10.908  1.00  0.00     0.214 C 
ATOM     29  O   UNL     1       4.423  -3.065  10.831  1.00  0.00    -0.332 OA
ATOM     30  C   UNL     1       1.963  -2.469  12.431  1.00  0.00     0.180 C 
ATOM     31  C   UNL     1       4.586  -2.611  12.220  1.00  0.00     0.179 C 
ATOM     32  C   UNL     1       3.360  -1.718  12.796  1.00  0.00     0.177 C 
BRANCH  28  33
ATOM     33  O   UNL     1       2.085  -1.499  10.197  1.00  0.00    -0.384 OA
ATOM     34  H   UNL     1       2.513  -0.930  10.886  1.00  0.00     0.211 HD
ENDBRANCH  28  33
BRANCH  30  35
ATOM     35  O   UNL     1       1.745  -3.618  13.256  1.00  0.00    -0.387 OA
ATOM     36  H   UNL     1       1.673  -3.281  14.190  1.00  0.00     0.211 HD
ENDBRANCH  30  35
BRANCH  31  37
ATOM     37  C   UNL     1       4.940  -3.812  13.160  1.00  0.00     0.191 C 
BRANCH  37  38
ATOM     38  O   UNL     1       5.515  -3.386  14.440  1.00  0.00    -0.394 OA
ATOM     39  H   UNL     1       5.029  -2.480  14.671  1.00  0.00     0.210 HD
ENDBRANCH  37  38
ENDBRANCH  31  37
BRANCH  32  40
ATOM     40  O   UNL     1       3.462  -0.432  12.144  1.00  0.00    -0.387 OA
ATOM     41  H   UNL     1       2.818   0.198  12.623  1.00  0.00     0.211 HD
ENDBRANCH  32  40
ENDBRANCH   1  27
TORSDOF 12
ENDMDL
MODEL 4
REMARK VINA RESULT:    77.314      1.295      2.338
REMARK INTER + INTRA:         111.860
REMARK INTER:                 112.694
REMARK INTRA:                  -0.834
REMARK UNBOUND:                -1.613
REMARK SMILES O=c1c(O[C@@H]2O[C@H](CO)[C@@H](O)[C@H](O)[C@H]2O)c(-c2ccc(O)c(O)c2)oc2cc(O)cc(O)c12
REMARK SMILES IDX 4 1 3 2 16 3 25 4 2 5 26 6 1 7 33 8 27 9 31 10 28 11 30 12
REMARK SMILES IDX 17 13 18 14 19 15 20 16 24 17 22 18 21 19 23 21 32 23 29 25
REMARK SMILES IDX 5 27 14 28 6 29 12 30 7 31 10 32 15 33 13 35 8 37 9 38 11 40
REMARK H PARENT 21 20 23 22 32 24 29 26 15 34 13 36 9 39 11 41
REMARK Flexibility Score: inf
ROOT
ATOM      1  O   UNL     1       3.539  -4.691  11.404  1.00  0.00    -0.454 OA
ENDROOT
BRANCH   1   2
ATOM      2  C   UNL     1       3.575  -6.124  11.192  1.00  0.00     0.214 A 
ATOM      3  C   UNL     1       4.007  -6.794   9.915  1.00  0.00     0.180 A 
ATOM      4  O   UNL     1       5.170  -7.390   9.887  1.00  0.00    -0.452 OA
ATOM      5  C   UNL     1       3.689  -6.993  12.263  1.00  0.00     0.239 A 
ATOM      6  C   UNL     1       5.539  -8.013  11.032  1.00  0.00     0.146 A 
ATOM      7  O   UNL     1       2.846  -6.916  13.213  1.00  0.00    -0.285 OA
ATOM      8  C   UNL     1       4.851  -7.817  12.266  1.00  0.00     0.111 A 
ATOM      9  C   UNL     1       6.437  -9.045  10.992  1.00  0.00     0.094 A 
ATOM     10  C   UNL     1       5.377  -8.250  13.458  1.00  0.00     0.134 A 
ATOM     11  C   UNL     1       7.192  -9.218  12.163  1.00  0.00     0.123 A 
ATOM     12  C   UNL     1       6.731  -8.722  13.386  1.00  0.00     0.093 A 
BRANCH   3  13
ATOM     13  C   UNL     1       3.230  -7.704   8.972  1.00  0.00     0.025 A 
ATOM     14  C   UNL     1       3.281  -9.184   9.154  1.00  0.00     0.016 A 
ATOM     15  C   UNL     1       3.395 -10.020   8.014  1.00  0.00     0.051 A 
ATOM     16  C   UNL     1       3.309  -9.401   6.756  1.00  0.00     0.157 A 
ATOM     17  C   UNL     1       3.010  -7.161   7.711  1.00  0.00     0.062 A 
ATOM     18  C   UNL     1       2.937  -8.018   6.665  1.00  0.00     0.158 A 
BRANCH  16  19
ATOM     19  O   UNL     1       3.661 -10.112   5.637  1.00  0.00    -0.504 OA
ATOM     20  H   UNL     1       3.658 -11.151   5.598  1.00  0.00     0.293 HD
ENDBRANCH  16  19
BRANCH  18  21
ATOM     21  O   UNL     1       2.632  -7.421   5.374  1.00  0.00    -0.504 OA
ATOM     22  H   UNL     1       1.808  -7.749   4.750  1.00  0.00     0.293 HD
ENDBRANCH  18  21
ENDBRANCH   3  13
BRANCH  10  23
ATOM     23  O   UNL     1       4.758  -8.085  14.682  1.00  0.00    -0.507 OA
ATOM     24  H   UNL     1       5.172  -7.576  15.425  1.00  0.00     0.293 HD
ENDBRANCH  10  23
BRANCH  11  25
ATOM     25  O   UNL     1       8.491  -9.750  12.057  1.00  0.00    -0.508 OA
ATOM     26  H   UNL     1       9.032  -9.727  11.205  1.00  0.00     0.293 HD
ENDBRANCH  11  25
ENDBRANCH   1   2
BRANCH   1  27
ATOM     27  C   UNL     1       3.648  -4.024  12.727  1.00  0.00     0.339 C 
ATOM     28  C   UNL     1       5.014  -3.257  12.898  1.00  0.00     0.214 C 
ATOM     29  O   UNL     1       2.531  -3.167  13.033  1.00  0.00    -0.332 OA
ATOM     30  C   UNL     1       5.093  -1.914  12.123  1.00  0.00     0.180 C 
ATOM     31  C   UNL     1       2.484  -1.805  12.479  1.00  0.00     0.179 C 
ATOM     32  C   UNL     1       3.865  -0.964  12.614  1.00  0.00     0.177 C 
BRANCH  28  33
ATOM     33  O   UNL     1       5.100  -2.957  14.327  1.00  0.00    -0.384 OA
ATOM     34  H   UNL     1       5.896  -3.485  14.593  1.00  0.00     0.211 HD
ENDBRANCH  28  33
BRANCH  30  35
ATOM     35  O   UNL     1       5.116  -2.060  10.700  1.00  0.00    -0.387 OA
ATOM     36  H   UNL     1       4.293  -1.615  10.360  1.00  0.00     0.211 HD
ENDBRANCH  30  35
BRANCH  31  37
ATOM     37  C   UNL     1       1.938  -1.821  11.011  1.00  0.00     0.191 C 
BRANCH  37  38
ATOM     38  O   UNL     1       1.479  -3.147  10.586  1.00  0.00    -0.394 OA
ATOM     39  H   UNL     1       1.489  -3.115   9.532  1.00  0.00     0.210 HD
ENDBRANCH  37  38
ENDBRANCH  31  37
BRANCH  32  40
ATOM     40  O   UNL     1       3.985  -0.615  14.011  1.00  0.00    -0.387 OA
ATOM     41  H   UNL     1       4.126   0.394  14.057  1.00  0.00     0.211 HD
ENDBRANCH  32  40
ENDBRANCH   1  27
TORSDOF 12
ENDMDL
MODEL 5
REMARK VINA RESULT:    77.640      1.149      1.866
REMARK INTER + INTRA:         112.338
REMARK INTER:                 112.644
REMARK INTRA:                  -0.307
REMARK UNBOUND:                -1.613
REMARK SMILES O=c1c(O[C@@H]2O[C@H](CO)[C@@H](O)[C@H](O)[C@H]2O)c(-c2ccc(O)c(O)c2)oc2cc(O)cc(O)c12
REMARK SMILES IDX 4 1 3 2 16 3 25 4 2 5 26 6 1 7 33 8 27 9 31 10 28 11 30 12
REMARK SMILES IDX 17 13 18 14 19 15 20 16 24 17 22 18 21 19 23 21 32 23 29 25
REMARK SMILES IDX 5 27 14 28 6 29 12 30 7 31 10 32 15 33 13 35 8 37 9 38 11 40
REMARK H PARENT 21 20 23 22 32 24 29 26 15 34 13 36 9 39 11 41
REMARK Flexibility Score: inf
ROOT
ATOM      1  O   UNL     1       3.805  -3.485  10.816  1.00  0.00    -0.454 OA
ENDROOT
BRANCH   1   2
ATOM      2  C   UNL     1       3.640  -4.868  10.421  1.00  0.00     0.214 A 
ATOM      3  C   UNL     1       4.324  -5.516   9.247  1.00  0.00     0.180 A 
ATOM      4  O   UNL     1       5.304  -6.350   9.477  1.00  0.00    -0.452 OA
ATOM      5  C   UNL     1       3.245  -5.823  11.343  1.00  0.00     0.239 A 
ATOM      6  C   UNL     1       5.167  -7.126  10.580  1.00  0.00     0.146 A 
ATOM      7  O   UNL     1       2.172  -5.636  12.003  1.00  0.00    -0.285 OA
ATOM      8  C   UNL     1       4.172  -6.880  11.570  1.00  0.00     0.111 A 
ATOM      9  C   UNL     1       5.823  -8.325  10.659  1.00  0.00     0.094 A 
ATOM     10  C   UNL     1       4.201  -7.511  12.790  1.00  0.00     0.134 A 
ATOM     11  C   UNL     1       6.121  -8.751  11.963  1.00  0.00     0.123 A 
ATOM     12  C   UNL     1       5.395  -8.262  13.053  1.00  0.00     0.093 A 
BRANCH   3  13
ATOM     13  C   UNL     1       3.733  -6.156   7.997  1.00  0.00     0.025 A 
ATOM     14  C   UNL     1       2.647  -7.172   8.122  1.00  0.00     0.016 A 
ATOM     15  C   UNL     1       2.681  -8.328   7.300  1.00  0.00     0.051 A 
ATOM     16  C   UNL     1       3.671  -8.376   6.304  1.00  0.00     0.157 A 
ATOM     17  C   UNL     1       4.600  -6.188   6.910  1.00  0.00     0.062 A 
ATOM     18  C   UNL     1       4.473  -7.216   6.038  1.00  0.00     0.158 A 
BRANCH  16  19
ATOM     19  O   UNL     1       3.908  -9.561   5.656  1.00  0.00    -0.504 OA
ATOM     20  H   UNL     1       4.031  -9.631   4.626  1.00  0.00     0.293 HD
ENDBRANCH  16  19
BRANCH  18  21
ATOM     21  O   UNL     1       5.346  -7.175   4.876  1.00  0.00    -0.504 OA
ATOM     22  H   UNL     1       6.252  -7.765   4.795  1.00  0.00     0.293 HD
ENDBRANCH  18  21
ENDBRANCH   3  13
BRANCH  10  23
ATOM     23  O   UNL     1       3.266  -7.309  13.787  1.00  0.00    -0.507 OA
ATOM     24  H   UNL     1       2.601  -7.999  14.041  1.00  0.00     0.293 HD
ENDBRANCH  10  23
BRANCH  11  25
ATOM     25  O   UNL     1       7.264  -9.546  12.170  1.00  0.00    -0.508 OA
ATOM     26  H   UNL     1       7.761  -9.585  13.048  1.00  0.00     0.293 HD
ENDBRANCH  11  25
ENDBRANCH   1   2
BRANCH   1  27
ATOM     27  C   UNL     1       2.894  -2.745  11.726  1.00  0.00     0.339 C 
ATOM     28  C   UNL     1       3.051  -3.200  13.226  1.00  0.00     0.214 C 
ATOM     29  O   UNL     1       2.997  -1.313  11.605  1.00  0.00    -0.332 OA
ATOM     30  C   UNL     1       4.325  -2.656  13.928  1.00  0.00     0.180 C 
ATOM     31  C   UNL     1       4.080  -0.600  12.299  1.00  0.00     0.179 C 
ATOM     32  C   UNL     1       4.301  -1.030  13.847  1.00  0.00     0.177 C 
BRANCH  28  33
ATOM     33  O   UNL     1       1.886  -2.640  13.913  1.00  0.00    -0.384 OA
ATOM     34  H   UNL     1       2.284  -1.857  14.373  1.00  0.00     0.211 HD
ENDBRANCH  28  33
BRANCH  30  35
ATOM     35  O   UNL     1       5.549  -3.197  13.421  1.00  0.00    -0.387 OA
ATOM     36  H   UNL     1       6.182  -2.432  13.347  1.00  0.00     0.211 HD
ENDBRANCH  30  35
BRANCH  31  37
ATOM     37  C   UNL     1       5.407  -0.662  11.469  1.00  0.00     0.191 C 
BRANCH  37  38
ATOM     38  O   UNL     1       5.956   0.664  11.167  1.00  0.00    -0.394 OA
ATOM     39  H   UNL     1       5.126   1.315  11.190  1.00  0.00     0.210 HD
ENDBRANCH  37  38
ENDBRANCH  31  37
BRANCH  32  40
ATOM     40  O   UNL     1       3.186  -0.474  14.579  1.00  0.00    -0.387 OA
ATOM     41  H   UNL     1       2.860  -1.196  15.222  1.00  0.00     0.211 HD
ENDBRANCH  32  40
ENDBRANCH   1  27
TORSDOF 12
ENDMDL
