MODEL 1
REMARK VINA RESULT:    -3.691      0.000      0.000
REMARK INTER + INTRA:          -4.777
REMARK INTER:                  -4.555
REMARK INTRA:                  -0.222
REMARK UNBOUND:                -0.222
REMARK SMILES C=CCc1ccc(OC)c(OC)c1
REMARK SMILES IDX 7 1 10 2 13 3 4 4 5 5 6 6 8 7 9 8 11 9 12 10 3 11 2 12 1 13
REMARK H PARENT
REMARK Flexibility Score: inf
ROOT
ATOM      1  C   UNL     1       0.514   2.868  -4.357  1.00  0.00     0.160 A 
ATOM      2  C   UNL     1       0.349   4.260  -4.301  1.00  0.00     0.160 A 
ATOM      3  C   UNL     1      -0.912   4.824  -4.579  1.00  0.00     0.054 A 
ATOM      4  C   UNL     1      -2.001   4.007  -4.917  1.00  0.00    -0.040 A 
ATOM      5  C   UNL     1      -1.830   2.617  -4.960  1.00  0.00     0.008 A 
ATOM      6  C   UNL     1      -0.584   2.050  -4.687  1.00  0.00     0.051 A 
ENDROOT
BRANCH   1   7
ATOM      7  O   UNL     1       1.781   2.334  -4.077  1.00  0.00    -0.493 OA
ATOM      8  C   UNL     1       2.007   1.065  -3.471  1.00  0.00     0.278 C 
ENDBRANCH   1   7
BRANCH   2   9
ATOM      9  O   UNL     1       1.460   5.049  -3.963  1.00  0.00    -0.493 OA
ATOM     10  C   UNL     1       1.497   6.470  -4.052  1.00  0.00     0.278 C 
ENDBRANCH   2   9
BRANCH   4  11
ATOM     11  C   UNL     1      -3.355   4.609  -5.182  1.00  0.00     0.062 C 
BRANCH  11  12
ATOM     12  C   UNL     1      -3.843   5.372  -3.983  1.00  0.00    -0.030 C 
ATOM     13  C   UNL     1      -5.034   5.978  -3.972  1.00  0.00     0.004 C 
ENDBRANCH  11  12
ENDBRANCH   4  11
TORSDOF 4
ENDMDL
MODEL 2
REMARK VINA RESULT:    -3.652      2.972      5.559
REMARK INTER + INTRA:          -4.728
REMARK INTER:                  -4.479
REMARK INTRA:                  -0.248
REMARK UNBOUND:                -0.222
REMARK SMILES C=CCc1ccc(OC)c(OC)c1
REMARK SMILES IDX 7 1 10 2 13 3 4 4 5 5 6 6 8 7 9 8 11 9 12 10 3 11 2 12 1 13
REMARK H PARENT
REMARK Flexibility Score: inf
ROOT
ATOM      1  C   UNL     1      -2.393   3.100  -6.256  1.00  0.00     0.160 A 
ATOM      2  C   UNL     1      -1.317   2.759  -7.091  1.00  0.00     0.160 A 
ATOM      3  C   UNL     1      -0.031   2.598  -6.538  1.00  0.00     0.054 A 
ATOM      4  C   UNL     1       0.183   2.783  -5.164  1.00  0.00    -0.040 A 
ATOM      5  C   UNL     1      -0.899   3.112  -4.337  1.00  0.00     0.008 A 
ATOM      6  C   UNL     1      -2.176   3.275  -4.877  1.00  0.00     0.051 A 
ENDROOT
BRANCH   1   7
ATOM      7  O   UNL     1      -3.663   3.255  -6.835  1.00  0.00    -0.493 OA
ATOM      8  C   UNL     1      -4.261   4.510  -7.144  1.00  0.00     0.278 C 
ENDBRANCH   1   7
BRANCH   2   9
ATOM      9  O   UNL     1      -1.567   2.585  -8.461  1.00  0.00    -0.493 OA
ATOM     10  C   UNL     1      -0.811   1.733  -9.317  1.00  0.00     0.278 C 
ENDBRANCH   2   9
BRANCH   4  11
ATOM     11  C   UNL     1       1.552   2.579  -4.571  1.00  0.00     0.062 C 
BRANCH  11  12
ATOM     12  C   UNL     1       1.576   1.362  -3.690  1.00  0.00    -0.030 C 
ATOM     13  C   UNL     1       2.722   0.779  -3.328  1.00  0.00     0.004 C 
ENDBRANCH  11  12
ENDBRANCH   4  11
TORSDOF 4
ENDMDL
MODEL 3
REMARK VINA RESULT:    -3.630      2.054      3.459
REMARK INTER + INTRA:          -4.701
REMARK INTER:                  -4.387
REMARK INTRA:                  -0.315
REMARK UNBOUND:                -0.222
REMARK SMILES C=CCc1ccc(OC)c(OC)c1
REMARK SMILES IDX 7 1 10 2 13 3 4 4 5 5 6 6 8 7 9 8 11 9 12 10 3 11 2 12 1 13
REMARK H PARENT
REMARK Flexibility Score: inf
ROOT
ATOM      1  C   UNL     1       2.635   2.909  -5.271  1.00  0.00     0.160 A 
ATOM      2  C   UNL     1       2.098   2.254  -4.152  1.00  0.00     0.160 A 
ATOM      3  C   UNL     1       0.712   2.015  -4.083  1.00  0.00     0.054 A 
ATOM      4  C   UNL     1      -0.137   2.432  -5.120  1.00  0.00    -0.040 A 
ATOM      5  C   UNL     1       0.408   3.076  -6.239  1.00  0.00     0.008 A 
ATOM      6  C   UNL     1       1.781   3.317  -6.314  1.00  0.00     0.051 A 
ENDROOT
BRANCH   1   7
ATOM      7  O   UNL     1       4.020   3.135  -5.312  1.00  0.00    -0.493 OA
ATOM      8  C   UNL     1       4.714   3.696  -6.422  1.00  0.00     0.278 C 
ENDBRANCH   1   7
BRANCH   2   9
ATOM      9  O   UNL     1       2.975   1.853  -3.132  1.00  0.00    -0.493 OA
ATOM     10  C   UNL     1       3.553   0.554  -3.029  1.00  0.00     0.278 C 
ENDBRANCH   2   9
BRANCH   4  11
ATOM     11  C   UNL     1      -1.614   2.148  -5.059  1.00  0.00     0.062 C 
BRANCH  11  12
ATOM     12  C   UNL     1      -2.408   3.408  -5.256  1.00  0.00    -0.030 C 
ATOM     13  C   UNL     1      -2.463   4.358  -4.319  1.00  0.00     0.004 C 
ENDBRANCH  11  12
ENDBRANCH   4  11
TORSDOF 4
ENDMDL
MODEL 4
REMARK VINA RESULT:    -3.582      2.201      2.723
REMARK INTER + INTRA:          -4.642
REMARK INTER:                  -4.342
REMARK INTRA:                  -0.300
REMARK UNBOUND:                -0.222
REMARK SMILES C=CCc1ccc(OC)c(OC)c1
REMARK SMILES IDX 7 1 10 2 13 3 4 4 5 5 6 6 8 7 9 8 11 9 12 10 3 11 2 12 1 13
REMARK H PARENT
REMARK Flexibility Score: inf
ROOT
ATOM      1  C   UNL     1       2.004   2.242  -4.136  1.00  0.00     0.160 A 
ATOM      2  C   UNL     1       2.212   2.885  -5.367  1.00  0.00     0.160 A 
ATOM      3  C   UNL     1       1.123   3.097  -6.235  1.00  0.00     0.054 A 
ATOM      4  C   UNL     1      -0.165   2.665  -5.883  1.00  0.00    -0.040 A 
ATOM      5  C   UNL     1      -0.366   2.035  -4.648  1.00  0.00     0.008 A 
ATOM      6  C   UNL     1       0.708   1.820  -3.783  1.00  0.00     0.051 A 
ENDROOT
BRANCH   1   7
ATOM      7  O   UNL     1       3.108   2.043  -3.292  1.00  0.00    -0.493 OA
ATOM      8  C   UNL     1       3.678   0.773  -2.995  1.00  0.00     0.278 C 
ENDBRANCH   1   7
BRANCH   2   9
ATOM      9  O   UNL     1       3.514   3.300  -5.688  1.00  0.00    -0.493 OA
ATOM     10  C   UNL     1       3.861   4.027  -6.864  1.00  0.00     0.278 C 
ENDBRANCH   2   9
BRANCH   4  11
ATOM     11  C   UNL     1      -1.332   2.921  -6.799  1.00  0.00     0.062 C 
BRANCH  11  12
ATOM     12  C   UNL     1      -2.619   2.964  -6.023  1.00  0.00    -0.030 C 
ATOM     13  C   UNL     1      -3.237   4.117  -5.751  1.00  0.00     0.004 C 
ENDBRANCH  11  12
ENDBRANCH   4  11
TORSDOF 4
ENDMDL
MODEL 5
REMARK VINA RESULT:    -3.557      2.443      5.613
REMARK INTER + INTRA:          -4.611
REMARK INTER:                  -4.314
REMARK INTRA:                  -0.296
REMARK UNBOUND:                -0.222
REMARK SMILES C=CCc1ccc(OC)c(OC)c1
REMARK SMILES IDX 7 1 10 2 13 3 4 4 5 5 6 6 8 7 9 8 11 9 12 10 3 11 2 12 1 13
REMARK H PARENT
REMARK Flexibility Score: inf
ROOT
ATOM      1  C   UNL     1       0.135   4.144  -5.407  1.00  0.00     0.160 A 
ATOM      2  C   UNL     1      -0.667   3.140  -4.842  1.00  0.00     0.160 A 
ATOM      3  C   UNL     1      -0.060   2.046  -4.194  1.00  0.00     0.054 A 
ATOM      4  C   UNL     1       1.338   1.949  -4.115  1.00  0.00    -0.040 A 
ATOM      5  C   UNL     1       2.131   2.961  -4.672  1.00  0.00     0.008 A 
ATOM      6  C   UNL     1       1.537   4.048  -5.317  1.00  0.00     0.051 A 
ENDROOT
BRANCH   1   7
ATOM      7  O   UNL     1      -0.497   5.222  -6.047  1.00  0.00    -0.493 OA
ATOM      8  C   UNL     1      -0.584   5.383  -7.459  1.00  0.00     0.278 C 
ENDBRANCH   1   7
BRANCH   2   9
ATOM      9  O   UNL     1      -2.061   3.267  -4.942  1.00  0.00    -0.493 OA
ATOM     10  C   UNL     1      -2.848   2.706  -5.989  1.00  0.00     0.278 C 
ENDBRANCH   2   9
BRANCH   4  11
ATOM     11  C   UNL     1       1.984   0.795  -3.395  1.00  0.00     0.062 C 
BRANCH  11  12
ATOM     12  C   UNL     1       3.462   1.022  -3.243  1.00  0.00    -0.030 C 
ATOM     13  C   UNL     1       4.301   0.021  -2.962  1.00  0.00     0.004 C 
ENDBRANCH  11  12
ENDBRANCH   4  11
TORSDOF 4
ENDMDL
MODEL 6
REMARK VINA RESULT:    -3.543      2.655      5.332
REMARK INTER + INTRA:          -4.593
REMARK INTER:                  -4.332
REMARK INTRA:                  -0.262
REMARK UNBOUND:                -0.222
REMARK SMILES C=CCc1ccc(OC)c(OC)c1
REMARK SMILES IDX 7 1 10 2 13 3 4 4 5 5 6 6 8 7 9 8 11 9 12 10 3 11 2 12 1 13
REMARK H PARENT
REMARK Flexibility Score: inf
ROOT
ATOM      1  C   UNL     1      -1.083   2.865  -6.034  1.00  0.00     0.160 A 
ATOM      2  C   UNL     1       0.127   3.258  -6.629  1.00  0.00     0.160 A 
ATOM      3  C   UNL     1       1.343   3.013  -5.963  1.00  0.00     0.054 A 
ATOM      4  C   UNL     1       1.355   2.385  -4.707  1.00  0.00    -0.040 A 
ATOM      5  C   UNL     1       0.145   1.986  -4.125  1.00  0.00     0.008 A 
ATOM      6  C   UNL     1      -1.065   2.227  -4.779  1.00  0.00     0.051 A 
ENDROOT
BRANCH   1   7
ATOM      7  O   UNL     1      -2.279   3.124  -6.720  1.00  0.00    -0.493 OA
ATOM      8  C   UNL     1      -3.356   3.899  -6.202  1.00  0.00     0.278 C 
ENDBRANCH   1   7
BRANCH   2   9
ATOM      9  O   UNL     1       0.077   3.886  -7.883  1.00  0.00    -0.493 OA
ATOM     10  C   UNL     1       1.044   4.820  -8.356  1.00  0.00     0.278 C 
ENDBRANCH   2   9
BRANCH   4  11
ATOM     11  C   UNL     1       2.659   2.095  -4.012  1.00  0.00     0.062 C 
BRANCH  11  12
ATOM     12  C   UNL     1       2.619   0.749  -3.344  1.00  0.00    -0.030 C 
ATOM     13  C   UNL     1       3.736   0.090  -3.024  1.00  0.00     0.004 C 
ENDBRANCH  11  12
ENDBRANCH   4  11
TORSDOF 4
ENDMDL
MODEL 7
REMARK VINA RESULT:    -3.526      3.297      5.500
REMARK INTER + INTRA:          -4.573
REMARK INTER:                  -4.275
REMARK INTRA:                  -0.298
REMARK UNBOUND:                -0.222
REMARK SMILES C=CCc1ccc(OC)c(OC)c1
REMARK SMILES IDX 7 1 10 2 13 3 4 4 5 5 6 6 8 7 9 8 11 9 12 10 3 11 2 12 1 13
REMARK H PARENT
REMARK Flexibility Score: inf
ROOT
ATOM      1  C   UNL     1      -1.469   3.135  -7.925  1.00  0.00     0.160 A 
ATOM      2  C   UNL     1      -2.338   3.044  -6.827  1.00  0.00     0.160 A 
ATOM      3  C   UNL     1      -1.822   2.731  -5.554  1.00  0.00     0.054 A 
ATOM      4  C   UNL     1      -0.449   2.503  -5.377  1.00  0.00    -0.040 A 
ATOM      5  C   UNL     1       0.413   2.607  -6.476  1.00  0.00     0.008 A 
ATOM      6  C   UNL     1      -0.090   2.916  -7.741  1.00  0.00     0.051 A 
ENDROOT
BRANCH   1   7
ATOM      7  O   UNL     1      -2.011   3.448  -9.182  1.00  0.00    -0.493 OA
ATOM      8  C   UNL     1      -1.685   4.611  -9.935  1.00  0.00     0.278 C 
ENDBRANCH   1   7
BRANCH   2   9
ATOM      9  O   UNL     1      -3.706   3.275  -7.041  1.00  0.00    -0.493 OA
ATOM     10  C   UNL     1      -4.347   4.537  -6.876  1.00  0.00     0.278 C 
ENDBRANCH   2   9
BRANCH   4  11
ATOM     11  C   UNL     1       0.104   2.199  -4.010  1.00  0.00     0.062 C 
BRANCH  11  12
ATOM     12  C   UNL     1       1.572   1.886  -4.087  1.00  0.00    -0.030 C 
ATOM     13  C   UNL     1       2.117   0.896  -3.375  1.00  0.00     0.004 C 
ENDBRANCH  11  12
ENDBRANCH   4  11
TORSDOF 4
ENDMDL
MODEL 8
REMARK VINA RESULT:    -3.504      2.646      4.086
REMARK INTER + INTRA:          -4.545
REMARK INTER:                  -4.253
REMARK INTRA:                  -0.292
REMARK UNBOUND:                -0.222
REMARK SMILES C=CCc1ccc(OC)c(OC)c1
REMARK SMILES IDX 7 1 10 2 13 3 4 4 5 5 6 6 8 7 9 8 11 9 12 10 3 11 2 12 1 13
REMARK H PARENT
REMARK Flexibility Score: inf
ROOT
ATOM      1  C   UNL     1       4.173   1.781  -3.762  1.00  0.00     0.160 A 
ATOM      2  C   UNL     1       3.618   2.819  -4.528  1.00  0.00     0.160 A 
ATOM      3  C   UNL     1       2.222   2.885  -4.704  1.00  0.00     0.054 A 
ATOM      4  C   UNL     1       1.383   1.920  -4.125  1.00  0.00    -0.040 A 
ATOM      5  C   UNL     1       1.944   0.895  -3.353  1.00  0.00     0.008 A 
ATOM      6  C   UNL     1       3.327   0.821  -3.175  1.00  0.00     0.051 A 
ENDROOT
BRANCH   1   7
ATOM      7  O   UNL     1       5.567   1.740  -3.605  1.00  0.00    -0.493 OA
ATOM      8  C   UNL     1       6.425   0.806  -4.254  1.00  0.00     0.278 C 
ENDBRANCH   1   7
BRANCH   2   9
ATOM      9  O   UNL     1       4.487   3.764  -5.095  1.00  0.00    -0.493 OA
ATOM     10  C   UNL     1       4.918   3.751  -6.453  1.00  0.00     0.278 C 
ENDBRANCH   2   9
BRANCH   4  11
ATOM     11  C   UNL     1      -0.111   2.011  -4.288  1.00  0.00     0.062 C 
BRANCH  11  12
ATOM     12  C   UNL     1      -0.535   3.432  -4.531  1.00  0.00    -0.030 C 
ATOM     13  C   UNL     1      -1.778   3.848  -4.275  1.00  0.00     0.004 C 
ENDBRANCH  11  12
ENDBRANCH   4  11
TORSDOF 4
ENDMDL
MODEL 9
REMARK VINA RESULT:    -3.441      2.595      4.685
REMARK INTER + INTRA:          -4.467
REMARK INTER:                  -4.222
REMARK INTRA:                  -0.245
REMARK UNBOUND:                -0.222
REMARK SMILES C=CCc1ccc(OC)c(OC)c1
REMARK SMILES IDX 7 1 10 2 13 3 4 4 5 5 6 6 8 7 9 8 11 9 12 10 3 11 2 12 1 13
REMARK H PARENT
REMARK Flexibility Score: inf
ROOT
ATOM      1  C   UNL     1       4.062   2.368  -4.085  1.00  0.00     0.160 A 
ATOM      2  C   UNL     1       3.478   1.307  -3.375  1.00  0.00     0.160 A 
ATOM      3  C   UNL     1       2.085   1.108  -3.442  1.00  0.00     0.054 A 
ATOM      4  C   UNL     1       1.278   1.965  -4.207  1.00  0.00    -0.040 A 
ATOM      5  C   UNL     1       1.870   3.014  -4.920  1.00  0.00     0.008 A 
ATOM      6  C   UNL     1       3.250   3.219  -4.858  1.00  0.00     0.051 A 
ENDROOT
BRANCH   1   7
ATOM      7  O   UNL     1       5.453   2.543  -3.998  1.00  0.00    -0.493 OA
ATOM      8  C   UNL     1       6.312   2.743  -5.116  1.00  0.00     0.278 C 
ENDBRANCH   1   7
BRANCH   2   9
ATOM      9  O   UNL     1       4.314   0.472  -2.618  1.00  0.00    -0.493 OA
ATOM     10  C   UNL     1       4.982  -0.678  -3.130  1.00  0.00     0.278 C 
ENDBRANCH   2   9
BRANCH   4  11
ATOM     11  C   UNL     1      -0.207   1.731  -4.302  1.00  0.00     0.062 C 
BRANCH  11  12
ATOM     12  C   UNL     1      -0.945   3.035  -4.424  1.00  0.00    -0.030 C 
ATOM     13  C   UNL     1      -2.096   3.130  -5.094  1.00  0.00     0.004 C 
ENDBRANCH  11  12
ENDBRANCH   4  11
TORSDOF 4
ENDMDL
