MODEL 1
REMARK VINA RESULT:    -6.328      0.000      0.000
REMARK INTER + INTRA:          -6.698
REMARK INTER:                  -6.698
REMARK INTRA:                   0.000
REMARK UNBOUND:                 0.000
REMARK SMILES O=c1ccc2cc(O)c(O)cc2o1
REMARK SMILES IDX 4 1 3 2 2 3 1 4 13 5 12 6 11 7 9 8 7 9 6 10 5 11 8 12 10 14
REMARK H PARENT 8 13 10 15
REMARK Flexibility Score: inf
ROOT
ATOM      1  C   UNL     1      79.700  63.254   9.450  1.00  0.00     0.019 A 
ATOM      2  C   UNL     1      79.363  62.823   8.168  1.00  0.00     0.094 A 
ATOM      3  C   UNL     1      80.383  62.446   7.289  1.00  0.00     0.336 A 
ATOM      4  O   UNL     1      80.099  62.054   6.127  1.00  0.00    -0.246 OA
ATOM      5  O   UNL     1      81.657  62.499   7.673  1.00  0.00    -0.423 OA
ATOM      6  C   UNL     1      82.022  62.904   8.887  1.00  0.00     0.142 A 
ATOM      7  C   UNL     1      83.376  62.938   9.234  1.00  0.00     0.098 A 
ATOM      8  C   UNL     1      83.766  63.365  10.512  1.00  0.00     0.161 A 
ATOM      9  C   UNL     1      82.797  63.757  11.447  1.00  0.00     0.158 A 
ATOM     10  C   UNL     1      81.437  63.725  11.104  1.00  0.00     0.062 A 
ATOM     11  C   UNL     1      81.046  63.299   9.827  1.00  0.00     0.022 A 
ENDROOT
BRANCH   9  12
ATOM     12  O   UNL     1      83.194  64.179  12.714  1.00  0.00    -0.504 OA
ATOM     13  H   UNL     1      82.846  63.732  13.555  1.00  0.00     0.293 HD
ENDBRANCH   9  12
BRANCH   8  14
ATOM     14  O   UNL     1      85.115  63.399  10.861  1.00  0.00    -0.504 OA
ATOM     15  H   UNL     1      85.465  64.047  11.558  1.00  0.00     0.293 HD
ENDBRANCH   8  14
TORSDOF 2
ENDMDL
MODEL 2
REMARK VINA RESULT:    -6.243      1.207      4.752
REMARK INTER + INTRA:          -6.608
REMARK INTER:                  -6.608
REMARK INTRA:                   0.000
REMARK UNBOUND:                 0.000
REMARK SMILES O=c1ccc2cc(O)c(O)cc2o1
REMARK SMILES IDX 4 1 3 2 2 3 1 4 13 5 12 6 11 7 9 8 7 9 6 10 5 11 8 12 10 14
REMARK H PARENT 8 13 10 15
REMARK Flexibility Score: inf
ROOT
ATOM      1  C   UNL     1      80.252  63.624  10.205  1.00  0.00     0.019 A 
ATOM      2  C   UNL     1      81.419  63.701  10.964  1.00  0.00     0.094 A 
ATOM      3  C   UNL     1      82.627  63.282  10.397  1.00  0.00     0.336 A 
ATOM      4  O   UNL     1      83.690  63.344  11.067  1.00  0.00    -0.246 OA
ATOM      5  O   UNL     1      82.659  62.815   9.151  1.00  0.00    -0.423 OA
ATOM      6  C   UNL     1      81.569  62.724   8.392  1.00  0.00     0.142 A 
ATOM      7  C   UNL     1      81.664  62.226   7.089  1.00  0.00     0.098 A 
ATOM      8  C   UNL     1      80.519  62.128   6.286  1.00  0.00     0.161 A 
ATOM      9  C   UNL     1      79.273  62.531   6.787  1.00  0.00     0.158 A 
ATOM     10  C   UNL     1      79.171  63.032   8.094  1.00  0.00     0.062 A 
ATOM     11  C   UNL     1      80.315  63.130   8.898  1.00  0.00     0.022 A 
ENDROOT
BRANCH   9  12
ATOM     12  O   UNL     1      78.140  62.430   5.982  1.00  0.00    -0.504 OA
ATOM     13  H   UNL     1      77.210  62.594   6.352  1.00  0.00     0.293 HD
ENDBRANCH   9  12
BRANCH   8  14
ATOM     14  O   UNL     1      80.611  61.632   4.986  1.00  0.00    -0.504 OA
ATOM     15  H   UNL     1      81.497  61.332   4.595  1.00  0.00     0.293 HD
ENDBRANCH   8  14
TORSDOF 2
ENDMDL
MODEL 3
REMARK VINA RESULT:    -6.237      1.001      2.213
REMARK INTER + INTRA:          -6.602
REMARK INTER:                  -6.602
REMARK INTRA:                   0.000
REMARK UNBOUND:                 0.000
REMARK SMILES O=c1ccc2cc(O)c(O)cc2o1
REMARK SMILES IDX 4 1 3 2 2 3 1 4 13 5 12 6 11 7 9 8 7 9 6 10 5 11 8 12 10 14
REMARK H PARENT 8 13 10 15
REMARK Flexibility Score: inf
ROOT
ATOM      1  C   UNL     1      82.208  62.279   7.591  1.00  0.00     0.019 A 
ATOM      2  C   UNL     1      80.919  62.126   7.082  1.00  0.00     0.094 A 
ATOM      3  C   UNL     1      79.828  62.499   7.874  1.00  0.00     0.336 A 
ATOM      4  O   UNL     1      78.657  62.368   7.432  1.00  0.00    -0.246 OA
ATOM      5  O   UNL     1      80.020  62.993   9.095  1.00  0.00    -0.423 OA
ATOM      6  C   UNL     1      81.233  63.155   9.619  1.00  0.00     0.142 A 
ATOM      7  C   UNL     1      81.373  63.680  10.907  1.00  0.00     0.098 A 
ATOM      8  C   UNL     1      82.649  63.853  11.464  1.00  0.00     0.161 A 
ATOM      9  C   UNL     1      83.789  63.501  10.727  1.00  0.00     0.158 A 
ATOM     10  C   UNL     1      83.655  62.975   9.434  1.00  0.00     0.062 A 
ATOM     11  C   UNL     1      82.380  62.801   8.877  1.00  0.00     0.022 A 
ENDROOT
BRANCH   9  12
ATOM     12  O   UNL     1      85.053  63.676  11.288  1.00  0.00    -0.504 OA
ATOM     13  H   UNL     1      85.189  63.702  12.292  1.00  0.00     0.293 HD
ENDBRANCH   9  12
BRANCH   8  14
ATOM     14  O   UNL     1      82.792  64.376  12.748  1.00  0.00    -0.504 OA
ATOM     15  H   UNL     1      82.092  64.988  13.151  1.00  0.00     0.293 HD
ENDBRANCH   8  14
TORSDOF 2
ENDMDL
MODEL 4
REMARK VINA RESULT:    -6.117      1.896      3.302
REMARK INTER + INTRA:          -6.475
REMARK INTER:                  -6.475
REMARK INTRA:                   0.000
REMARK UNBOUND:                 0.000
REMARK SMILES O=c1ccc2cc(O)c(O)cc2o1
REMARK SMILES IDX 4 1 3 2 2 3 1 4 13 5 12 6 11 7 9 8 7 9 6 10 5 11 8 12 10 14
REMARK H PARENT 8 13 10 15
REMARK Flexibility Score: inf
ROOT
ATOM      1  C   UNL     1      82.732  62.267   7.674  1.00  0.00     0.019 A 
ATOM      2  C   UNL     1      82.533  61.861   6.355  1.00  0.00     0.094 A 
ATOM      3  C   UNL     1      81.254  61.965   5.799  1.00  0.00     0.336 A 
ATOM      4  O   UNL     1      81.055  61.603   4.610  1.00  0.00    -0.246 OA
ATOM      5  O   UNL     1      80.243  62.444   6.520  1.00  0.00    -0.423 OA
ATOM      6  C   UNL     1      80.390  62.843   7.782  1.00  0.00     0.142 A 
ATOM      7  C   UNL     1      79.291  63.339   8.490  1.00  0.00     0.098 A 
ATOM      8  C   UNL     1      79.440  63.759   9.820  1.00  0.00     0.161 A 
ATOM      9  C   UNL     1      80.694  63.686  10.443  1.00  0.00     0.158 A 
ATOM     10  C   UNL     1      81.800  63.189   9.737  1.00  0.00     0.062 A 
ATOM     11  C   UNL     1      81.652  62.768   8.409  1.00  0.00     0.022 A 
ENDROOT
BRANCH   9  12
ATOM     12  O   UNL     1      80.833  64.106  11.764  1.00  0.00    -0.504 OA
ATOM     13  H   UNL     1      81.738  64.347  12.151  1.00  0.00     0.293 HD
ENDBRANCH   9  12
BRANCH   8  14
ATOM     14  O   UNL     1      78.346  64.255  10.528  1.00  0.00    -0.504 OA
ATOM     15  H   UNL     1      78.467  64.844  11.344  1.00  0.00     0.293 HD
ENDBRANCH   8  14
TORSDOF 2
ENDMDL
MODEL 5
REMARK VINA RESULT:    -6.013      2.022      3.259
REMARK INTER + INTRA:          -6.364
REMARK INTER:                  -6.364
REMARK INTRA:                   0.000
REMARK UNBOUND:                 0.000
REMARK SMILES O=c1ccc2cc(O)c(O)cc2o1
REMARK SMILES IDX 4 1 3 2 2 3 1 4 13 5 12 6 11 7 9 8 7 9 6 10 5 11 8 12 10 14
REMARK H PARENT 8 13 10 15
REMARK Flexibility Score: inf
ROOT
ATOM      1  C   UNL     1      80.596  62.372   6.514  1.00  0.00     0.019 A 
ATOM      2  C   UNL     1      81.759  61.824   5.975  1.00  0.00     0.094 A 
ATOM      3  C   UNL     1      82.902  61.734   6.776  1.00  0.00     0.336 A 
ATOM      4  O   UNL     1      83.961  61.242   6.307  1.00  0.00    -0.246 OA
ATOM      5  O   UNL     1      82.877  62.168   8.035  1.00  0.00    -0.423 OA
ATOM      6  C   UNL     1      81.789  62.698   8.588  1.00  0.00     0.142 A 
ATOM      7  C   UNL     1      81.823  63.136   9.916  1.00  0.00     0.098 A 
ATOM      8  C   UNL     1      80.679  63.696  10.503  1.00  0.00     0.161 A 
ATOM      9  C   UNL     1      79.496  63.817   9.760  1.00  0.00     0.158 A 
ATOM     10  C   UNL     1      79.456  63.379   8.428  1.00  0.00     0.062 A 
ATOM     11  C   UNL     1      80.599  62.819   7.840  1.00  0.00     0.022 A 
ENDROOT
BRANCH   9  12
ATOM     12  O   UNL     1      78.364  64.374  10.352  1.00  0.00    -0.504 OA
ATOM     13  H   UNL     1      77.647  64.831   9.799  1.00  0.00     0.293 HD
ENDBRANCH   9  12
BRANCH   8  14
ATOM     14  O   UNL     1      80.710  64.133  11.826  1.00  0.00    -0.504 OA
ATOM     15  H   UNL     1      81.200  64.980  12.094  1.00  0.00     0.293 HD
ENDBRANCH   8  14
TORSDOF 2
ENDMDL
MODEL 6
REMARK VINA RESULT:    -5.964      1.635      5.194
REMARK INTER + INTRA:          -6.313
REMARK INTER:                  -6.313
REMARK INTRA:                   0.000
REMARK UNBOUND:                 0.000
REMARK SMILES O=c1ccc2cc(O)c(O)cc2o1
REMARK SMILES IDX 4 1 3 2 2 3 1 4 13 5 12 6 11 7 9 8 7 9 6 10 5 11 8 12 10 14
REMARK H PARENT 8 13 10 15
REMARK Flexibility Score: inf
ROOT
ATOM      1  C   UNL     1      82.951  62.787   8.988  1.00  0.00     0.019 A 
ATOM      2  C   UNL     1      82.882  63.228  10.309  1.00  0.00     0.094 A 
ATOM      3  C   UNL     1      81.636  63.567  10.848  1.00  0.00     0.336 A 
ATOM      4  O   UNL     1      81.554  63.968  12.038  1.00  0.00    -0.246 OA
ATOM      5  O   UNL     1      80.534  63.470  10.107  1.00  0.00    -0.423 OA
ATOM      6  C   UNL     1      80.555  63.055   8.843  1.00  0.00     0.142 A 
ATOM      7  C   UNL     1      79.364  62.972   8.115  1.00  0.00     0.098 A 
ATOM      8  C   UNL     1      79.381  62.536   6.782  1.00  0.00     0.161 A 
ATOM      9  C   UNL     1      80.594  62.177   6.176  1.00  0.00     0.158 A 
ATOM     10  C   UNL     1      81.792  62.257   6.902  1.00  0.00     0.062 A 
ATOM     11  C   UNL     1      81.776  62.694   8.234  1.00  0.00     0.022 A 
ENDROOT
BRANCH   9  12
ATOM     12  O   UNL     1      80.601  61.744   4.852  1.00  0.00    -0.504 OA
ATOM     13  H   UNL     1      81.228  62.148   4.165  1.00  0.00     0.293 HD
ENDBRANCH   9  12
BRANCH   8  14
ATOM     14  O   UNL     1      78.196  62.452   6.054  1.00  0.00    -0.504 OA
ATOM     15  H   UNL     1      78.141  61.926   5.189  1.00  0.00     0.293 HD
ENDBRANCH   8  14
TORSDOF 2
ENDMDL
MODEL 7
REMARK VINA RESULT:    -5.626      1.431      2.564
REMARK INTER + INTRA:          -5.955
REMARK INTER:                  -5.955
REMARK INTRA:                   0.000
REMARK UNBOUND:                 0.000
REMARK SMILES O=c1ccc2cc(O)c(O)cc2o1
REMARK SMILES IDX 4 1 3 2 2 3 1 4 13 5 12 6 11 7 9 8 7 9 6 10 5 11 8 12 10 14
REMARK H PARENT 8 13 10 15
REMARK Flexibility Score: inf
ROOT
ATOM      1  C   UNL     1      81.605  62.416   6.659  1.00  0.00     0.019 A 
ATOM      2  C   UNL     1      80.445  62.473   5.887  1.00  0.00     0.094 A 
ATOM      3  C   UNL     1      79.264  62.942   6.471  1.00  0.00     0.336 A 
ATOM      4  O   UNL     1      78.207  63.000   5.791  1.00  0.00    -0.246 OA
ATOM      5  O   UNL     1      79.250  63.327   7.746  1.00  0.00    -0.423 OA
ATOM      6  C   UNL     1      80.334  63.288   8.517  1.00  0.00     0.142 A 
ATOM      7  C   UNL     1      80.259  63.707   9.849  1.00  0.00     0.098 A 
ATOM      8  C   UNL     1      81.398  63.668  10.666  1.00  0.00     0.161 A 
ATOM      9  C   UNL     1      82.618  63.211  10.148  1.00  0.00     0.158 A 
ATOM     10  C   UNL     1      82.700  62.790   8.812  1.00  0.00     0.062 A 
ATOM     11  C   UNL     1      81.562  62.828   7.995  1.00  0.00     0.022 A 
ENDROOT
BRANCH   9  12
ATOM     12  O   UNL     1      83.745  63.175  10.967  1.00  0.00    -0.504 OA
ATOM     13  H   UNL     1      83.859  62.466  11.682  1.00  0.00     0.293 HD
ENDBRANCH   9  12
BRANCH   8  14
ATOM     14  O   UNL     1      81.326  64.085  11.994  1.00  0.00    -0.504 OA
ATOM     15  H   UNL     1      82.127  64.021  12.614  1.00  0.00     0.293 HD
ENDBRANCH   8  14
TORSDOF 2
ENDMDL
MODEL 8
REMARK VINA RESULT:    -5.452      1.257      1.591
REMARK INTER + INTRA:          -5.771
REMARK INTER:                  -5.771
REMARK INTRA:                   0.000
REMARK UNBOUND:                 0.000
REMARK SMILES O=c1ccc2cc(O)c(O)cc2o1
REMARK SMILES IDX 4 1 3 2 2 3 1 4 13 5 12 6 11 7 9 8 7 9 6 10 5 11 8 12 10 14
REMARK H PARENT 8 13 10 15
REMARK Flexibility Score: inf
ROOT
ATOM      1  C   UNL     1      79.273  63.093   7.549  1.00  0.00     0.019 A 
ATOM      2  C   UNL     1      79.498  62.624   6.255  1.00  0.00     0.094 A 
ATOM      3  C   UNL     1      80.787  62.215   5.897  1.00  0.00     0.336 A 
ATOM      4  O   UNL     1      81.010  61.789   4.734  1.00  0.00    -0.246 OA
ATOM      5  O   UNL     1      81.782  62.274   6.779  1.00  0.00    -0.423 OA
ATOM      6  C   UNL     1      81.610  62.715   8.023  1.00  0.00     0.142 A 
ATOM      7  C   UNL     1      82.693  62.753   8.907  1.00  0.00     0.098 A 
ATOM      8  C   UNL     1      82.518  63.217  10.219  1.00  0.00     0.161 A 
ATOM      9  C   UNL     1      81.253  63.643  10.649  1.00  0.00     0.158 A 
ATOM     10  C   UNL     1      80.162  63.607   9.767  1.00  0.00     0.062 A 
ATOM     11  C   UNL     1      80.337  63.143   8.456  1.00  0.00     0.022 A 
ENDROOT
BRANCH   9  12
ATOM     12  O   UNL     1      81.087  64.103  11.954  1.00  0.00    -0.504 OA
ATOM     13  H   UNL     1      81.428  65.013  12.243  1.00  0.00     0.293 HD
ENDBRANCH   9  12
BRANCH   8  14
ATOM     14  O   UNL     1      83.595  63.256  11.102  1.00  0.00    -0.504 OA
ATOM     15  H   UNL     1      84.547  63.375  10.772  1.00  0.00     0.293 HD
ENDBRANCH   8  14
TORSDOF 2
ENDMDL
MODEL 9
REMARK VINA RESULT:    -5.393      2.497      4.399
REMARK INTER + INTRA:          -5.708
REMARK INTER:                  -5.708
REMARK INTRA:                   0.000
REMARK UNBOUND:                 0.000
REMARK SMILES O=c1ccc2cc(O)c(O)cc2o1
REMARK SMILES IDX 4 1 3 2 2 3 1 4 13 5 12 6 11 7 9 8 7 9 6 10 5 11 8 12 10 14
REMARK H PARENT 8 13 10 15
REMARK Flexibility Score: inf
ROOT
ATOM      1  C   UNL     1      81.473  63.350  10.248  1.00  0.00     0.019 A 
ATOM      2  C   UNL     1      80.312  63.745  10.911  1.00  0.00     0.094 A 
ATOM      3  C   UNL     1      79.089  63.679  10.235  1.00  0.00     0.336 A 
ATOM      4  O   UNL     1      78.030  64.031  10.816  1.00  0.00    -0.246 OA
ATOM      5  O   UNL     1      79.037  63.244   8.978  1.00  0.00    -0.423 OA
ATOM      6  C   UNL     1      80.121  62.858   8.309  1.00  0.00     0.142 A 
ATOM      7  C   UNL     1      80.005  62.409   6.989  1.00  0.00     0.098 A 
ATOM      8  C   UNL     1      81.144  62.002   6.280  1.00  0.00     0.161 A 
ATOM      9  C   UNL     1      82.404  62.040   6.894  1.00  0.00     0.158 A 
ATOM     10  C   UNL     1      82.527  62.488   8.218  1.00  0.00     0.062 A 
ATOM     11  C   UNL     1      81.389  62.897   8.927  1.00  0.00     0.022 A 
ENDROOT
BRANCH   9  12
ATOM     12  O   UNL     1      83.531  61.633   6.182  1.00  0.00    -0.504 OA
ATOM     13  H   UNL     1      83.873  60.679   6.230  1.00  0.00     0.293 HD
ENDBRANCH   9  12
BRANCH   8  14
ATOM     14  O   UNL     1      81.031  61.554   4.965  1.00  0.00    -0.504 OA
ATOM     15  H   UNL     1      80.697  62.161   4.225  1.00  0.00     0.293 HD
ENDBRANCH   8  14
TORSDOF 2
ENDMDL
