MODEL 1
REMARK VINA RESULT:     0.884      0.000      0.000
REMARK INTER + INTRA:           2.874
REMARK INTER:                   1.246
REMARK INTRA:                   1.629
REMARK UNBOUND:                 1.629
REMARK SMILES CC1=CCC(=C(C)C)C(=O)CC(C)=CCC1
REMARK SMILES IDX 12 1 14 2 13 3 15 4 16 5 2 6 1 7 3 8 11 10 9 11 10 12 5 13
REMARK SMILES IDX 6 14 7 15 8 16 4 17
REMARK H PARENT
REMARK Flexibility Score: 60.00
ROOT
ATOM      1  C   UNL     1      24.233 -16.637  -0.108  1.00  0.00    -0.070 C 
ATOM      2  C   UNL     1      24.771 -15.881   0.878  1.00  0.00    -0.027 C 
ATOM      3  C   UNL     1      23.253 -15.968  -1.041  1.00  0.00     0.039 C 
ENDROOT
BRANCH   2   4
ATOM      4  C   UNL     1      25.684 -16.367   1.979  1.00  0.00     0.032 C 
BRANCH   4   5
ATOM      5  C   UNL     1      25.064 -16.198   3.379  1.00  0.00     0.034 C 
BRANCH   5   6
ATOM      6  C   UNL     1      23.718 -16.886   3.496  1.00  0.00    -0.077 C 
ATOM      7  C   UNL     1      22.487 -16.030   3.644  1.00  0.00     0.039 C 
ATOM      8  C   UNL     1      23.554 -18.228   3.447  1.00  0.00    -0.023 CG0
ATOM      9  G   UNL     1      24.656 -19.245   3.269  1.00  0.00     0.000 G0
ENDBRANCH   5   6
ENDBRANCH   4   5
ENDBRANCH   2   4
BRANCH   1  10
ATOM     10  C   UNL     1      24.510 -18.122  -0.281  1.00  0.00     0.111 C 
BRANCH  10  11
ATOM     11  C   UNL     1      23.898 -18.933   0.834  1.00  0.00     0.163 C 
ATOM     12  O   UNL     1      22.640 -18.999   0.899  1.00  0.00    -0.294 OA
BRANCH  11  13
ATOM     13  C   UNL     1      24.736 -19.691   1.815  1.00  0.00    -0.002 C 
ATOM     14  C   UNL     1      25.495 -20.763   1.436  1.00  0.00    -0.069 C 
ATOM     15  C   UNL     1      25.471 -21.289   0.018  1.00  0.00     0.039 C 
ATOM     16  C   UNL     1      26.369 -21.499   2.427  1.00  0.00     0.039 C 
BRANCH  13  17
ATOM     17  C   UNL     1      24.652 -19.263   3.269  1.00  0.00     0.066 CG0
ATOM     18  G   UNL     1      23.581 -18.211   3.431  1.00  0.00     0.000 G0
ENDBRANCH  13  17
ENDBRANCH  11  13
ENDBRANCH  10  11
ENDBRANCH   1  10
TORSDOF 0
ENDMDL
MODEL 2
REMARK VINA RESULT:     1.525      1.748      4.367
REMARK INTER + INTRA:           3.777
REMARK INTER:                  -0.257
REMARK INTRA:                   4.034
REMARK UNBOUND:                 1.629
REMARK SMILES CC1=CCC(=C(C)C)C(=O)CC(C)=CCC1
REMARK SMILES IDX 12 1 14 2 13 3 15 4 16 5 2 6 1 7 3 8 11 10 9 11 10 12 5 13
REMARK SMILES IDX 6 14 7 15 8 16 4 17
REMARK H PARENT
REMARK Flexibility Score: 60.00
ROOT
ATOM      1  C   UNL     1      25.405 -20.644   1.041  1.00  0.00    -0.070 C 
ATOM      2  C   UNL     1      25.443 -20.181  -0.231  1.00  0.00    -0.027 C 
ATOM      3  C   UNL     1      25.880 -22.057   1.280  1.00  0.00     0.039 C 
ENDROOT
BRANCH   2   4
ATOM      4  C   UNL     1      24.921 -18.848  -0.712  1.00  0.00     0.032 C 
BRANCH   4   5
ATOM      5  C   UNL     1      23.710 -18.356   0.105  1.00  0.00     0.034 C 
BRANCH   5   6
ATOM      6  C   UNL     1      23.414 -16.889  -0.138  1.00  0.00    -0.077 C 
ATOM      7  C   UNL     1      22.426 -16.528  -1.217  1.00  0.00     0.039 C 
ATOM      8  C   UNL     1      23.966 -15.883   0.578  1.00  0.00    -0.023 CG0
ATOM      9  G   UNL     1      24.945 -16.044   1.717  1.00  0.00     0.000 G0
ENDBRANCH   5   6
ENDBRANCH   4   5
ENDBRANCH   2   4
BRANCH   1  10
ATOM     10  C   UNL     1      24.852 -19.851   2.213  1.00  0.00     0.111 C 
BRANCH  10  11
ATOM     11  C   UNL     1      25.457 -18.471   2.283  1.00  0.00     0.163 C 
ATOM     12  O   UNL     1      26.697 -18.356   2.085  1.00  0.00    -0.294 OA
BRANCH  11  13
ATOM     13  C   UNL     1      24.624 -17.252   2.527  1.00  0.00    -0.002 C 
ATOM     14  C   UNL     1      23.576 -17.260   3.405  1.00  0.00    -0.069 C 
ATOM     15  C   UNL     1      23.156 -18.522   4.125  1.00  0.00     0.039 C 
ATOM     16  C   UNL     1      22.764 -16.013   3.674  1.00  0.00     0.039 C 
BRANCH  13  17
ATOM     17  C   UNL     1      24.945 -16.020   1.699  1.00  0.00     0.066 CG0
ATOM     18  G   UNL     1      23.932 -15.872   0.590  1.00  0.00     0.000 G0
ENDBRANCH  13  17
ENDBRANCH  11  13
ENDBRANCH  10  11
ENDBRANCH   1  10
TORSDOF 0
ENDMDL
MODEL 3
REMARK VINA RESULT:     1.884      1.602      3.773
REMARK INTER + INTRA:           4.283
REMARK INTER:                   3.647
REMARK INTRA:                   0.636
REMARK UNBOUND:                 1.629
REMARK SMILES CC1=CCC(=C(C)C)C(=O)CC(C)=CCC1
REMARK SMILES IDX 12 1 14 2 13 3 15 4 16 5 2 6 1 7 3 8 11 10 9 11 10 12 5 13
REMARK SMILES IDX 6 14 7 15 8 16 4 17
REMARK H PARENT
REMARK Flexibility Score: 60.00
ROOT
ATOM      1  C   UNL     1      24.374 -16.984   0.176  1.00  0.00    -0.070 C 
ATOM      2  C   UNL     1      25.245 -17.942  -0.220  1.00  0.00    -0.027 C 
ATOM      3  C   UNL     1      23.001 -16.992  -0.450  1.00  0.00     0.039 C 
ENDROOT
BRANCH   2   4
ATOM      4  C   UNL     1      26.694 -18.058   0.193  1.00  0.00     0.032 C 
BRANCH   4   5
ATOM      5  C   UNL     1      26.931 -19.193   1.207  1.00  0.00     0.034 C 
BRANCH   5   6
ATOM      6  C   UNL     1      25.681 -20.018   1.445  1.00  0.00    -0.077 C 
ATOM      7  C   UNL     1      25.370 -21.138   0.486  1.00  0.00     0.039 C 
ATOM      8  C   UNL     1      24.841 -19.825   2.487  1.00  0.00    -0.023 CG0
ATOM      9  G   UNL     1      25.000 -18.782   3.568  1.00  0.00     0.000 G0
ENDBRANCH   5   6
ENDBRANCH   4   5
ENDBRANCH   2   4
BRANCH   1  10
ATOM     10  C   UNL     1      24.724 -15.875   1.155  1.00  0.00     0.111 C 
BRANCH  10  11
ATOM     11  C   UNL     1      25.073 -16.426   2.515  1.00  0.00     0.163 C 
ATOM     12  O   UNL     1      26.051 -15.919   3.128  1.00  0.00    -0.294 OA
BRANCH  11  13
ATOM     13  C   UNL     1      24.265 -17.506   3.164  1.00  0.00    -0.002 C 
ATOM     14  C   UNL     1      22.940 -17.337   3.456  1.00  0.00    -0.069 C 
ATOM     15  C   UNL     1      22.236 -16.021   3.207  1.00  0.00     0.039 C 
ATOM     16  C   UNL     1      22.122 -18.447   4.076  1.00  0.00     0.039 C 
BRANCH  13  17
ATOM     17  C   UNL     1      24.998 -18.777   3.553  1.00  0.00     0.066 CG0
ATOM     18  G   UNL     1      24.814 -19.823   2.479  1.00  0.00     0.000 G0
ENDBRANCH  13  17
ENDBRANCH  11  13
ENDBRANCH  10  11
ENDBRANCH   1  10
TORSDOF 0
ENDMDL
MODEL 4
REMARK VINA RESULT:     2.145      1.422      3.083
REMARK INTER + INTRA:           4.652
REMARK INTER:                   3.340
REMARK INTRA:                   1.311
REMARK UNBOUND:                 1.629
REMARK SMILES CC1=CCC(=C(C)C)C(=O)CC(C)=CCC1
REMARK SMILES IDX 12 1 14 2 13 3 15 4 16 5 2 6 1 7 3 8 11 10 9 11 10 12 5 13
REMARK SMILES IDX 6 14 7 15 8 16 4 17
REMARK H PARENT
REMARK Flexibility Score: 60.00
ROOT
ATOM      1  C   UNL     1      23.581 -16.816   3.280  1.00  0.00    -0.070 C 
ATOM      2  C   UNL     1      24.209 -15.908   2.496  1.00  0.00    -0.027 C 
ATOM      3  C   UNL     1      22.398 -16.337   4.087  1.00  0.00     0.039 C 
ENDROOT
BRANCH   2   4
ATOM      4  C   UNL     1      25.467 -16.140   1.692  1.00  0.00     0.032 C 
BRANCH   4   5
ATOM      5  C   UNL     1      25.265 -15.875   0.188  1.00  0.00     0.034 C 
BRANCH   5   6
ATOM      6  C   UNL     1      24.233 -16.803  -0.423  1.00  0.00    -0.077 C 
ATOM      7  C   UNL     1      23.044 -16.191  -1.118  1.00  0.00     0.039 C 
ATOM      8  C   UNL     1      24.331 -18.152  -0.404  1.00  0.00    -0.023 CG0
ATOM      9  G   UNL     1      25.459 -18.946   0.210  1.00  0.00     0.000 G0
ENDBRANCH   5   6
ENDBRANCH   4   5
ENDBRANCH   2   4
BRANCH   1  10
ATOM     10  C   UNL     1      24.040 -18.256   3.441  1.00  0.00     0.111 C 
BRANCH  10  11
ATOM     11  C   UNL     1      23.813 -19.054   2.181  1.00  0.00     0.163 C 
ATOM     12  O   UNL     1      22.636 -19.139   1.737  1.00  0.00    -0.294 OA
BRANCH  11  13
ATOM     13  C   UNL     1      24.941 -19.691   1.433  1.00  0.00    -0.002 C 
ATOM     14  C   UNL     1      25.544 -20.836   1.876  1.00  0.00    -0.069 C 
ATOM     15  C   UNL     1      25.151 -21.480   3.187  1.00  0.00     0.039 C 
ATOM     16  C   UNL     1      26.658 -21.494   1.093  1.00  0.00     0.039 C 
BRANCH  13  17
ATOM     17  C   UNL     1      25.441 -18.971   0.193  1.00  0.00     0.066 CG0
ATOM     18  G   UNL     1      24.338 -18.113  -0.379  1.00  0.00     0.000 G0
ENDBRANCH  13  17
ENDBRANCH  11  13
ENDBRANCH  10  11
ENDBRANCH   1  10
TORSDOF 0
ENDMDL
MODEL 5
REMARK VINA RESULT:     2.538      2.001      4.843
REMARK INTER + INTRA:           5.205
REMARK INTER:                   3.733
REMARK INTRA:                   1.472
REMARK UNBOUND:                 1.629
REMARK SMILES CC1=CCC(=C(C)C)C(=O)CC(C)=CCC1
REMARK SMILES IDX 12 1 14 2 13 3 15 4 16 5 2 6 1 7 3 8 11 10 9 11 10 12 5 13
REMARK SMILES IDX 6 14 7 15 8 16 4 17
REMARK H PARENT
REMARK Flexibility Score: 60.00
ROOT
ATOM      1  C   UNL     1      24.240 -18.982   3.190  1.00  0.00    -0.070 C 
ATOM      2  C   UNL     1      24.854 -20.143   2.863  1.00  0.00    -0.027 C 
ATOM      3  C   UNL     1      22.814 -19.064   3.679  1.00  0.00     0.039 C 
ENDROOT
BRANCH   2   4
ATOM      4  C   UNL     1      26.231 -20.286   2.257  1.00  0.00     0.032 C 
BRANCH   4   5
ATOM      5  C   UNL     1      26.515 -19.225   1.176  1.00  0.00     0.034 C 
BRANCH   5   6
ATOM      6  C   UNL     1      25.519 -19.290   0.035  1.00  0.00    -0.077 C 
ATOM      7  C   UNL     1      25.234 -20.632  -0.591  1.00  0.00     0.039 C 
ATOM      8  C   UNL     1      24.848 -18.215  -0.438  1.00  0.00    -0.023 CG0
ATOM      9  G   UNL     1      24.970 -16.802   0.078  1.00  0.00     0.000 G0
ENDBRANCH   5   6
ENDBRANCH   4   5
ENDBRANCH   2   4
BRANCH   1  10
ATOM     10  C   UNL     1      24.880 -17.612   3.029  1.00  0.00     0.111 C 
BRANCH  10  11
ATOM     11  C   UNL     1      23.913 -16.615   2.440  1.00  0.00     0.163 C 
ATOM     12  O   UNL     1      23.268 -15.875   3.232  1.00  0.00    -0.294 OA
BRANCH  11  13
ATOM     13  C   UNL     1      23.745 -16.451   0.962  1.00  0.00    -0.002 C 
ATOM     14  C   UNL     1      22.551 -16.078   0.411  1.00  0.00    -0.069 C 
ATOM     15  C   UNL     1      21.314 -15.881   1.259  1.00  0.00     0.039 C 
ATOM     16  C   UNL     1      22.400 -15.878  -1.081  1.00  0.00     0.039 C 
BRANCH  13  17
ATOM     17  C   UNL     1      24.941 -16.791   0.090  1.00  0.00     0.066 CG0
ATOM     18  G   UNL     1      24.817 -18.207  -0.418  1.00  0.00     0.000 G0
ENDBRANCH  13  17
ENDBRANCH  11  13
ENDBRANCH  10  11
ENDBRANCH   1  10
TORSDOF 0
ENDMDL
