MODEL 1
REMARK VINA RESULT:    -5.962      0.000      0.000
REMARK INTER + INTRA:          -6.669
REMARK INTER:                  -7.008
REMARK INTRA:                   0.339
REMARK UNBOUND:                 0.339
REMARK SMILES O=c1c(O)c(-c2ccc(O)c(O)c2)oc2cc(O)ccc12
REMARK SMILES IDX 5 1 3 2 2 3 1 4 21 5 15 6 14 7 16 8 17 9 19 10 20 11 6 12
REMARK SMILES IDX 7 13 8 14 9 15 13 16 11 17 10 18 12 20 4 22 18 24
REMARK H PARENT 10 19 12 21 4 23 18 25
REMARK Flexibility Score: inf
ROOT
ATOM      1  C   UNL     1      17.873  41.012   5.919  1.00  0.00     0.180 A 
ATOM      2  C   UNL     1      18.055  41.935   4.868  1.00  0.00     0.208 A 
ATOM      3  C   UNL     1      18.984  41.639   3.859  1.00  0.00     0.235 A 
ATOM      4  O   UNL     1      19.172  42.455   2.916  1.00  0.00    -0.285 OA
ATOM      5  C   UNL     1      19.692  40.427   3.907  1.00  0.00     0.069 A 
ATOM      6  C   UNL     1      19.436  39.545   4.978  1.00  0.00     0.142 A 
ATOM      7  O   UNL     1      18.554  39.867   5.919  1.00  0.00    -0.452 OA
ATOM      8  C   UNL     1      20.114  38.323   5.056  1.00  0.00     0.094 A 
ATOM      9  C   UNL     1      21.050  37.972   4.074  1.00  0.00     0.119 A 
ATOM     10  C   UNL     1      21.306  38.845   3.012  1.00  0.00     0.047 A 
ATOM     11  C   UNL     1      20.633  40.068   2.924  1.00  0.00     0.020 A 
ENDROOT
BRANCH   1  12
ATOM     12  C   UNL     1      16.927  41.260   7.029  1.00  0.00     0.025 A 
ATOM     13  C   UNL     1      17.122  40.690   8.299  1.00  0.00     0.016 A 
ATOM     14  C   UNL     1      16.202  40.918   9.326  1.00  0.00     0.051 A 
ATOM     15  C   UNL     1      15.068  41.709   9.096  1.00  0.00     0.157 A 
ATOM     16  C   UNL     1      15.777  42.034   6.798  1.00  0.00     0.062 A 
ATOM     17  C   UNL     1      14.854  42.266   7.824  1.00  0.00     0.158 A 
BRANCH  15  18
ATOM     18  O   UNL     1      14.153  41.936  10.123  1.00  0.00    -0.504 OA
ATOM     19  H   UNL     1      13.447  41.252  10.365  1.00  0.00     0.293 HD
ENDBRANCH  15  18
BRANCH  17  20
ATOM     20  O   UNL     1      13.731  43.050   7.561  1.00  0.00    -0.504 OA
ATOM     21  H   UNL     1      13.512  43.876   8.105  1.00  0.00     0.293 HD
ENDBRANCH  17  20
ENDBRANCH   1  12
BRANCH   2  22
ATOM     22  O   UNL     1      17.301  43.110   4.822  1.00  0.00    -0.502 OA
ATOM     23  H   UNL     1      17.597  43.963   5.283  1.00  0.00     0.293 HD
ENDBRANCH   2  22
BRANCH   9  24
ATOM     24  O   UNL     1      21.729  36.758   4.144  1.00  0.00    -0.508 OA
ATOM     25  H   UNL     1      22.176  36.449   4.999  1.00  0.00     0.293 HD
ENDBRANCH   9  24
TORSDOF 5
ENDMDL
MODEL 2
REMARK VINA RESULT:    -5.451      2.425      6.497
REMARK INTER + INTRA:          -6.067
REMARK INTER:                  -5.786
REMARK INTRA:                  -0.281
REMARK UNBOUND:                 0.339
REMARK SMILES O=c1c(O)c(-c2ccc(O)c(O)c2)oc2cc(O)ccc12
REMARK SMILES IDX 5 1 3 2 2 3 1 4 21 5 15 6 14 7 16 8 17 9 19 10 20 11 6 12
REMARK SMILES IDX 7 13 8 14 9 15 13 16 11 17 10 18 12 20 4 22 18 24
REMARK H PARENT 10 19 12 21 4 23 18 25
REMARK Flexibility Score: inf
ROOT
ATOM      1  C   UNL     1      18.044  41.812   5.754  1.00  0.00     0.180 A 
ATOM      2  C   UNL     1      18.937  42.342   6.709  1.00  0.00     0.208 A 
ATOM      3  C   UNL     1      18.672  42.136   8.071  1.00  0.00     0.235 A 
ATOM      4  O   UNL     1      19.449  42.609   8.944  1.00  0.00    -0.285 OA
ATOM      5  C   UNL     1      17.541  41.394   8.450  1.00  0.00     0.069 A 
ATOM      6  C   UNL     1      16.709  40.876   7.434  1.00  0.00     0.142 A 
ATOM      7  O   UNL     1      16.991  41.101   6.155  1.00  0.00    -0.452 OA
ATOM      8  C   UNL     1      15.579  40.122   7.770  1.00  0.00     0.094 A 
ATOM      9  C   UNL     1      15.267  39.881   9.115  1.00  0.00     0.119 A 
ATOM     10  C   UNL     1      16.089  40.394  10.123  1.00  0.00     0.047 A 
ATOM     11  C   UNL     1      17.221  41.146   9.798  1.00  0.00     0.020 A 
ENDROOT
BRANCH   1  12
ATOM     12  C   UNL     1      18.244  42.003   4.300  1.00  0.00     0.025 A 
ATOM     13  C   UNL     1      17.495  42.946   3.575  1.00  0.00     0.016 A 
ATOM     14  C   UNL     1      17.684  43.090   2.198  1.00  0.00     0.051 A 
ATOM     15  C   UNL     1      18.614  42.288   1.523  1.00  0.00     0.157 A 
ATOM     16  C   UNL     1      19.160  41.186   3.615  1.00  0.00     0.062 A 
ATOM     17  C   UNL     1      19.353  41.329   2.237  1.00  0.00     0.158 A 
BRANCH  15  18
ATOM     18  O   UNL     1      18.802  42.436   0.150  1.00  0.00    -0.504 OA
ATOM     19  H   UNL     1      18.379  43.201  -0.364  1.00  0.00     0.293 HD
ENDBRANCH  15  18
BRANCH  17  20
ATOM     20  O   UNL     1      20.280  40.510   1.593  1.00  0.00    -0.504 OA
ATOM     21  H   UNL     1      20.699  39.708   2.049  1.00  0.00     0.293 HD
ENDBRANCH  17  20
ENDBRANCH   1  12
BRANCH   2  22
ATOM     22  O   UNL     1      20.079  43.034   6.301  1.00  0.00    -0.502 OA
ATOM     23  H   UNL     1      20.062  43.709   5.544  1.00  0.00     0.293 HD
ENDBRANCH   2  22
BRANCH   9  24
ATOM     24  O   UNL     1      14.144  39.132   9.458  1.00  0.00    -0.508 OA
ATOM     25  H   UNL     1      13.430  38.904   8.777  1.00  0.00     0.293 HD
ENDBRANCH   9  24
TORSDOF 5
ENDMDL
MODEL 3
REMARK VINA RESULT:    -5.445      1.896      6.957
REMARK INTER + INTRA:          -6.061
REMARK INTER:                  -5.811
REMARK INTRA:                  -0.249
REMARK UNBOUND:                 0.339
REMARK SMILES O=c1c(O)c(-c2ccc(O)c(O)c2)oc2cc(O)ccc12
REMARK SMILES IDX 5 1 3 2 2 3 1 4 21 5 15 6 14 7 16 8 17 9 19 10 20 11 6 12
REMARK SMILES IDX 7 13 8 14 9 15 13 16 11 17 10 18 12 20 4 22 18 24
REMARK H PARENT 10 19 12 21 4 23 18 25
REMARK Flexibility Score: inf
ROOT
ATOM      1  C   UNL     1      19.449  40.941   6.101  1.00  0.00     0.180 A 
ATOM      2  C   UNL     1      20.088  41.705   7.099  1.00  0.00     0.208 A 
ATOM      3  C   UNL     1      19.300  42.424   8.010  1.00  0.00     0.235 A 
ATOM      4  O   UNL     1      19.848  43.123   8.905  1.00  0.00    -0.285 OA
ATOM      5  C   UNL     1      17.900  42.351   7.920  1.00  0.00     0.069 A 
ATOM      6  C   UNL     1      17.336  41.546   6.907  1.00  0.00     0.142 A 
ATOM      7  O   UNL     1      18.118  40.887   6.059  1.00  0.00    -0.452 OA
ATOM      8  C   UNL     1      15.946  41.439   6.791  1.00  0.00     0.094 A 
ATOM      9  C   UNL     1      15.109  42.132   7.676  1.00  0.00     0.119 A 
ATOM     10  C   UNL     1      15.665  42.931   8.679  1.00  0.00     0.047 A 
ATOM     11  C   UNL     1      17.053  43.043   8.805  1.00  0.00     0.020 A 
ENDROOT
BRANCH   1  12
ATOM     12  C   UNL     1      20.210  40.171   5.092  1.00  0.00     0.025 A 
ATOM     13  C   UNL     1      20.905  40.812   4.052  1.00  0.00     0.016 A 
ATOM     14  C   UNL     1      21.596  40.062   3.097  1.00  0.00     0.051 A 
ATOM     15  C   UNL     1      21.594  38.662   3.159  1.00  0.00     0.157 A 
ATOM     16  C   UNL     1      20.193  38.766   5.138  1.00  0.00     0.062 A 
ATOM     17  C   UNL     1      20.885  38.012   4.184  1.00  0.00     0.158 A 
BRANCH  15  18
ATOM     18  O   UNL     1      22.287  37.917   2.206  1.00  0.00    -0.504 OA
ATOM     19  H   UNL     1      23.106  37.373   2.450  1.00  0.00     0.293 HD
ENDBRANCH  15  18
BRANCH  17  20
ATOM     20  O   UNL     1      20.857  36.620   4.269  1.00  0.00    -0.504 OA
ATOM     21  H   UNL     1      20.083  36.122   4.690  1.00  0.00     0.293 HD
ENDBRANCH  17  20
ENDBRANCH   1  12
BRANCH   2  22
ATOM     22  O   UNL     1      21.481  41.719   7.194  1.00  0.00    -0.502 OA
ATOM     23  H   UNL     1      22.078  41.843   6.385  1.00  0.00     0.293 HD
ENDBRANCH   2  22
BRANCH   9  24
ATOM     24  O   UNL     1      13.723  42.031   7.567  1.00  0.00    -0.508 OA
ATOM     25  H   UNL     1      13.189  42.670   6.989  1.00  0.00     0.293 HD
ENDBRANCH   9  24
TORSDOF 5
ENDMDL
MODEL 4
REMARK VINA RESULT:    -5.386      1.775      1.843
REMARK INTER + INTRA:          -5.992
REMARK INTER:                  -5.690
REMARK INTRA:                  -0.302
REMARK UNBOUND:                 0.339
REMARK SMILES O=c1c(O)c(-c2ccc(O)c(O)c2)oc2cc(O)ccc12
REMARK SMILES IDX 5 1 3 2 2 3 1 4 21 5 15 6 14 7 16 8 17 9 19 10 20 11 6 12
REMARK SMILES IDX 7 13 8 14 9 15 13 16 11 17 10 18 12 20 4 22 18 24
REMARK H PARENT 10 19 12 21 4 23 18 25
REMARK Flexibility Score: inf
ROOT
ATOM      1  C   UNL     1      18.385  41.316   6.893  1.00  0.00     0.180 A 
ATOM      2  C   UNL     1      19.552  42.093   7.047  1.00  0.00     0.208 A 
ATOM      3  C   UNL     1      20.646  41.847   6.204  1.00  0.00     0.235 A 
ATOM      4  O   UNL     1      21.705  42.521   6.330  1.00  0.00    -0.285 OA
ATOM      5  C   UNL     1      20.547  40.852   5.218  1.00  0.00     0.069 A 
ATOM      6  C   UNL     1      19.337  40.134   5.111  1.00  0.00     0.142 A 
ATOM      7  O   UNL     1      18.327  40.392   5.935  1.00  0.00    -0.452 OA
ATOM      8  C   UNL     1      19.195  39.141   4.134  1.00  0.00     0.094 A 
ATOM      9  C   UNL     1      20.254  38.855   3.262  1.00  0.00     0.119 A 
ATOM     10  C   UNL     1      21.454  39.564   3.367  1.00  0.00     0.047 A 
ATOM     11  C   UNL     1      21.605  40.559   4.337  1.00  0.00     0.020 A 
ENDROOT
BRANCH   1  12
ATOM     12  C   UNL     1      17.196  41.503   7.755  1.00  0.00     0.025 A 
ATOM     13  C   UNL     1      17.134  40.949   9.046  1.00  0.00     0.016 A 
ATOM     14  C   UNL     1      15.991  41.118   9.832  1.00  0.00     0.051 A 
ATOM     15  C   UNL     1      14.891  41.830   9.337  1.00  0.00     0.157 A 
ATOM     16  C   UNL     1      16.082  42.198   7.255  1.00  0.00     0.062 A 
ATOM     17  C   UNL     1      14.937  42.369   8.040  1.00  0.00     0.158 A 
BRANCH  15  18
ATOM     18  O   UNL     1      13.753  41.998  10.125  1.00  0.00    -0.504 OA
ATOM     19  H   UNL     1      13.807  42.027  11.136  1.00  0.00     0.293 HD
ENDBRANCH  15  18
BRANCH  17  20
ATOM     20  O   UNL     1      13.855  43.077   7.516  1.00  0.00    -0.504 OA
ATOM     21  H   UNL     1      13.807  44.087   7.546  1.00  0.00     0.293 HD
ENDBRANCH  17  20
ENDBRANCH   1  12
BRANCH   2  22
ATOM     22  O   UNL     1      19.603  43.109   8.005  1.00  0.00    -0.502 OA
ATOM     23  H   UNL     1      18.829  43.305   8.629  1.00  0.00     0.293 HD
ENDBRANCH   2  22
BRANCH   9  24
ATOM     24  O   UNL     1      20.121  37.869   2.287  1.00  0.00    -0.508 OA
ATOM     25  H   UNL     1      20.931  37.426   1.867  1.00  0.00     0.293 HD
ENDBRANCH   9  24
TORSDOF 5
ENDMDL
MODEL 5
REMARK VINA RESULT:    -5.340      1.225      6.677
REMARK INTER + INTRA:          -5.938
REMARK INTER:                  -6.399
REMARK INTRA:                   0.461
REMARK UNBOUND:                 0.339
REMARK SMILES O=c1c(O)c(-c2ccc(O)c(O)c2)oc2cc(O)ccc12
REMARK SMILES IDX 5 1 3 2 2 3 1 4 21 5 15 6 14 7 16 8 17 9 19 10 20 11 6 12
REMARK SMILES IDX 7 13 8 14 9 15 13 16 11 17 10 18 12 20 4 22 18 24
REMARK H PARENT 10 19 12 21 4 23 18 25
REMARK Flexibility Score: inf
ROOT
ATOM      1  C   UNL     1      18.756  40.292   5.180  1.00  0.00     0.180 A 
ATOM      2  C   UNL     1      18.228  41.419   4.515  1.00  0.00     0.208 A 
ATOM      3  C   UNL     1      17.169  42.122   5.109  1.00  0.00     0.235 A 
ATOM      4  O   UNL     1      16.673  43.125   4.528  1.00  0.00    -0.285 OA
ATOM      5  C   UNL     1      16.675  41.702   6.354  1.00  0.00     0.069 A 
ATOM      6  C   UNL     1      17.273  40.580   6.968  1.00  0.00     0.142 A 
ATOM      7  O   UNL     1      18.269  39.936   6.368  1.00  0.00    -0.452 OA
ATOM      8  C   UNL     1      16.816  40.137   8.214  1.00  0.00     0.094 A 
ATOM      9  C   UNL     1      15.763  40.803   8.856  1.00  0.00     0.119 A 
ATOM     10  C   UNL     1      15.169  41.914   8.250  1.00  0.00     0.047 A 
ATOM     11  C   UNL     1      15.619  42.365   7.006  1.00  0.00     0.020 A 
ENDROOT
BRANCH   1  12
ATOM     12  C   UNL     1      19.860  39.488   4.610  1.00  0.00     0.025 A 
ATOM     13  C   UNL     1      20.532  39.889   3.443  1.00  0.00     0.016 A 
ATOM     14  C   UNL     1      21.555  39.101   2.910  1.00  0.00     0.051 A 
ATOM     15  C   UNL     1      21.914  37.896   3.527  1.00  0.00     0.157 A 
ATOM     16  C   UNL     1      20.209  38.268   5.214  1.00  0.00     0.062 A 
ATOM     17  C   UNL     1      21.234  37.476   4.684  1.00  0.00     0.158 A 
BRANCH  15  18
ATOM     18  O   UNL     1      22.937  37.112   2.994  1.00  0.00    -0.504 OA
ATOM     19  H   UNL     1      23.763  37.528   2.580  1.00  0.00     0.293 HD
ENDBRANCH  15  18
BRANCH  17  20
ATOM     20  O   UNL     1      21.563  36.278   5.317  1.00  0.00    -0.504 OA
ATOM     21  H   UNL     1      22.519  35.956   5.398  1.00  0.00     0.293 HD
ENDBRANCH  17  20
ENDBRANCH   1  12
BRANCH   2  22
ATOM     22  O   UNL     1      18.773  41.841   3.300  1.00  0.00    -0.502 OA
ATOM     23  H   UNL     1      19.198  41.196   2.644  1.00  0.00     0.293 HD
ENDBRANCH   2  22
BRANCH   9  24
ATOM     24  O   UNL     1      15.302  40.368  10.097  1.00  0.00    -0.508 OA
ATOM     25  H   UNL     1      15.890  39.830  10.723  1.00  0.00     0.293 HD
ENDBRANCH   9  24
TORSDOF 5
ENDMDL
MODEL 6
REMARK VINA RESULT:    -5.263      2.424      3.529
REMARK INTER + INTRA:          -5.846
REMARK INTER:                  -5.541
REMARK INTRA:                  -0.305
REMARK UNBOUND:                 0.339
REMARK SMILES O=c1c(O)c(-c2ccc(O)c(O)c2)oc2cc(O)ccc12
REMARK SMILES IDX 5 1 3 2 2 3 1 4 21 5 15 6 14 7 16 8 17 9 19 10 20 11 6 12
REMARK SMILES IDX 7 13 8 14 9 15 13 16 11 17 10 18 12 20 4 22 18 24
REMARK H PARENT 10 19 12 21 4 23 18 25
REMARK Flexibility Score: inf
ROOT
ATOM      1  C   UNL     1      18.025  42.123   5.775  1.00  0.00     0.180 A 
ATOM      2  C   UNL     1      19.415  41.979   5.963  1.00  0.00     0.208 A 
ATOM      3  C   UNL     1      20.263  42.075   4.849  1.00  0.00     0.235 A 
ATOM      4  O   UNL     1      21.509  41.938   4.990  1.00  0.00    -0.285 OA
ATOM      5  C   UNL     1      19.712  42.330   3.582  1.00  0.00     0.069 A 
ATOM      6  C   UNL     1      18.313  42.485   3.480  1.00  0.00     0.142 A 
ATOM      7  O   UNL     1      17.544  42.380   4.559  1.00  0.00    -0.452 OA
ATOM      8  C   UNL     1      17.726  42.751   2.237  1.00  0.00     0.094 A 
ATOM      9  C   UNL     1      18.524  42.861   1.091  1.00  0.00     0.119 A 
ATOM     10  C   UNL     1      19.911  42.706   1.189  1.00  0.00     0.047 A 
ATOM     11  C   UNL     1      20.506  42.442   2.426  1.00  0.00     0.020 A 
ENDROOT
BRANCH   1  12
ATOM     12  C   UNL     1      17.064  42.018   6.896  1.00  0.00     0.025 A 
ATOM     13  C   UNL     1      16.787  43.115   7.729  1.00  0.00     0.016 A 
ATOM     14  C   UNL     1      15.895  42.985   8.796  1.00  0.00     0.051 A 
ATOM     15  C   UNL     1      15.276  41.755   9.054  1.00  0.00     0.157 A 
ATOM     16  C   UNL     1      16.457  40.781   7.172  1.00  0.00     0.062 A 
ATOM     17  C   UNL     1      15.562  40.647   8.239  1.00  0.00     0.158 A 
BRANCH  15  18
ATOM     18  O   UNL     1      14.384  41.629  10.119  1.00  0.00    -0.504 OA
ATOM     19  H   UNL     1      14.210  42.395  10.759  1.00  0.00     0.293 HD
ENDBRANCH  15  18
BRANCH  17  20
ATOM     20  O   UNL     1      14.968  39.407   8.475  1.00  0.00    -0.504 OA
ATOM     21  H   UNL     1      13.984  39.314   8.693  1.00  0.00     0.293 HD
ENDBRANCH  17  20
ENDBRANCH   1  12
BRANCH   2  22
ATOM     22  O   UNL     1      19.938  41.775   7.242  1.00  0.00    -0.502 OA
ATOM     23  H   UNL     1      20.933  41.809   7.432  1.00  0.00     0.293 HD
ENDBRANCH   2  22
BRANCH   9  24
ATOM     24  O   UNL     1      17.949  43.125  -0.150  1.00  0.00    -0.508 OA
ATOM     25  H   UNL     1      16.946  43.091  -0.288  1.00  0.00     0.293 HD
ENDBRANCH   9  24
TORSDOF 5
ENDMDL
MODEL 7
REMARK VINA RESULT:    -4.685      2.912      6.855
REMARK INTER + INTRA:          -5.167
REMARK INTER:                  -4.846
REMARK INTRA:                  -0.320
REMARK UNBOUND:                 0.339
REMARK SMILES O=c1c(O)c(-c2ccc(O)c(O)c2)oc2cc(O)ccc12
REMARK SMILES IDX 5 1 3 2 2 3 1 4 21 5 15 6 14 7 16 8 17 9 19 10 20 11 6 12
REMARK SMILES IDX 7 13 8 14 9 15 13 16 11 17 10 18 12 20 4 22 18 24
REMARK H PARENT 10 19 12 21 4 23 18 25
REMARK Flexibility Score: inf
ROOT
ATOM      1  C   UNL     1      19.859  42.336   5.286  1.00  0.00     0.180 A 
ATOM      2  C   UNL     1      21.106  42.596   5.892  1.00  0.00     0.208 A 
ATOM      3  C   UNL     1      21.147  42.871   7.267  1.00  0.00     0.235 A 
ATOM      4  O   UNL     1      22.249  43.118   7.829  1.00  0.00    -0.285 OA
ATOM      5  C   UNL     1      19.954  42.862   8.008  1.00  0.00     0.069 A 
ATOM      6  C   UNL     1      18.749  42.570   7.333  1.00  0.00     0.142 A 
ATOM      7  O   UNL     1      18.753  42.322   6.028  1.00  0.00    -0.452 OA
ATOM      8  C   UNL     1      17.541  42.540   8.039  1.00  0.00     0.094 A 
ATOM      9  C   UNL     1      17.522  42.804   9.415  1.00  0.00     0.119 A 
ATOM     10  C   UNL     1      18.714  43.095  10.085  1.00  0.00     0.047 A 
ATOM     11  C   UNL     1      19.926  43.125   9.390  1.00  0.00     0.020 A 
ENDROOT
BRANCH   1  12
ATOM     12  C   UNL     1      19.731  42.055   3.838  1.00  0.00     0.025 A 
ATOM     13  C   UNL     1      19.606  43.094   2.899  1.00  0.00     0.016 A 
ATOM     14  C   UNL     1      19.462  42.804   1.540  1.00  0.00     0.051 A 
ATOM     15  C   UNL     1      19.428  41.474   1.100  1.00  0.00     0.157 A 
ATOM     16  C   UNL     1      19.675  40.723   3.395  1.00  0.00     0.062 A 
ATOM     17  C   UNL     1      19.532  40.429   2.034  1.00  0.00     0.158 A 
BRANCH  15  18
ATOM     18  O   UNL     1      19.286  41.188  -0.257  1.00  0.00    -0.504 OA
ATOM     19  H   UNL     1      18.475  40.697  -0.614  1.00  0.00     0.293 HD
ENDBRANCH  15  18
BRANCH  17  20
ATOM     20  O   UNL     1      19.495  39.095   1.629  1.00  0.00    -0.504 OA
ATOM     21  H   UNL     1      19.161  38.357   2.236  1.00  0.00     0.293 HD
ENDBRANCH  17  20
ENDBRANCH   1  12
BRANCH   2  22
ATOM     22  O   UNL     1      22.281  42.550   5.138  1.00  0.00    -0.502 OA
ATOM     23  H   UNL     1      22.356  42.982   4.224  1.00  0.00     0.293 HD
ENDBRANCH   2  22
BRANCH   9  24
ATOM     24  O   UNL     1      16.323  42.777  10.125  1.00  0.00    -0.508 OA
ATOM     25  H   UNL     1      16.282  43.031  11.105  1.00  0.00     0.293 HD
ENDBRANCH   9  24
TORSDOF 5
ENDMDL
MODEL 8
REMARK VINA RESULT:    -4.415      2.222      7.029
REMARK INTER + INTRA:          -4.850
REMARK INTER:                  -4.527
REMARK INTRA:                  -0.323
REMARK UNBOUND:                 0.339
REMARK SMILES O=c1c(O)c(-c2ccc(O)c(O)c2)oc2cc(O)ccc12
REMARK SMILES IDX 5 1 3 2 2 3 1 4 21 5 15 6 14 7 16 8 17 9 19 10 20 11 6 12
REMARK SMILES IDX 7 13 8 14 9 15 13 16 11 17 10 18 12 20 4 22 18 24
REMARK H PARENT 10 19 12 21 4 23 18 25
REMARK Flexibility Score: inf
ROOT
ATOM      1  C   UNL     1      18.690  42.146   6.244  1.00  0.00     0.180 A 
ATOM      2  C   UNL     1      19.586  42.353   7.313  1.00  0.00     0.208 A 
ATOM      3  C   UNL     1      19.070  42.670   8.578  1.00  0.00     0.235 A 
ATOM      4  O   UNL     1      19.852  42.871   9.548  1.00  0.00    -0.285 OA
ATOM      5  C   UNL     1      17.679  42.753   8.755  1.00  0.00     0.069 A 
ATOM      6  C   UNL     1      16.848  42.509   7.641  1.00  0.00     0.142 A 
ATOM      7  O   UNL     1      17.377  42.220   6.457  1.00  0.00    -0.452 OA
ATOM      8  C   UNL     1      15.456  42.572   7.779  1.00  0.00     0.094 A 
ATOM      9  C   UNL     1      14.884  42.880   9.020  1.00  0.00     0.119 A 
ATOM     10  C   UNL     1      15.706  43.124  10.125  1.00  0.00     0.047 A 
ATOM     11  C   UNL     1      17.097  43.062   9.998  1.00  0.00     0.020 A 
ENDROOT
BRANCH   1  12
ATOM     12  C   UNL     1      19.157  41.827   4.876  1.00  0.00     0.025 A 
ATOM     13  C   UNL     1      19.462  42.840   3.952  1.00  0.00     0.016 A 
ATOM     14  C   UNL     1      19.878  42.514   2.658  1.00  0.00     0.051 A 
ATOM     15  C   UNL     1      19.984  41.173   2.266  1.00  0.00     0.157 A 
ATOM     16  C   UNL     1      19.244  40.484   4.472  1.00  0.00     0.062 A 
ATOM     17  C   UNL     1      19.661  40.154   3.177  1.00  0.00     0.158 A 
BRANCH  15  18
ATOM     18  O   UNL     1      20.401  40.851   0.975  1.00  0.00    -0.504 OA
ATOM     19  H   UNL     1      20.007  40.066   0.470  1.00  0.00     0.293 HD
ENDBRANCH  15  18
BRANCH  17  20
ATOM     20  O   UNL     1      19.749  38.810   2.815  1.00  0.00    -0.504 OA
ATOM     21  H   UNL     1      18.954  38.184   2.871  1.00  0.00     0.293 HD
ENDBRANCH  17  20
ENDBRANCH   1  12
BRANCH   2  22
ATOM     22  O   UNL     1      20.963  42.215   7.118  1.00  0.00    -0.502 OA
ATOM     23  H   UNL     1      21.399  41.316   6.951  1.00  0.00     0.293 HD
ENDBRANCH   2  22
BRANCH   9  24
ATOM     24  O   UNL     1      13.500  42.946   9.166  1.00  0.00    -0.508 OA
ATOM     25  H   UNL     1      13.025  43.826   9.327  1.00  0.00     0.293 HD
ENDBRANCH   9  24
TORSDOF 5
ENDMDL
