MODEL 1
REMARK VINA RESULT:    -6.532      0.000      0.000
REMARK INTER + INTRA:          -6.532
REMARK INTER:                  -6.532
REMARK INTRA:                   0.000
REMARK UNBOUND:                 0.000
REMARK SMILES Cc1cc2cc3c(C)cc(=O)oc3c(C)c2o1
REMARK SMILES IDX 8 1 7 2 9 3 10 4 11 5 12 6 13 7 6 8 5 9 4 10 3 11 2 12 17 13
REMARK SMILES IDX 16 14 14 15 15 16 1 17
REMARK H PARENT
REMARK Flexibility Score: inf
ROOT
ATOM      1  C   UNL     1     179.796 172.159 171.758  1.00  0.00     0.045 C 
ATOM      2  C   UNL     1     178.437 172.140 172.409  1.00  0.00    -0.033 A 
ATOM      3  C   UNL     1     178.141 173.079 173.406  1.00  0.00     0.098 A 
ATOM      4  C   UNL     1     176.884 173.070 174.012  1.00  0.00     0.336 A 
ATOM      5  O   UNL     1     176.612 173.913 174.907  1.00  0.00    -0.246 OA
ATOM      6  O   UNL     1     175.969 172.179 173.653  1.00  0.00    -0.422 OA
ATOM      7  C   UNL     1     176.182 171.259 172.716  1.00  0.00     0.145 A 
ATOM      8  C   UNL     1     177.444 171.203 172.043  1.00  0.00     0.022 A 
ATOM      9  C   UNL     1     177.660 170.227 171.040  1.00  0.00     0.024 A 
ATOM     10  C   UNL     1     176.620 169.352 170.744  1.00  0.00     0.022 A 
ATOM     11  C   UNL     1     176.547 168.332 169.825  1.00  0.00     0.054 A 
ATOM     12  C   UNL     1     175.262 167.824 169.979  1.00  0.00     0.102 A 
ATOM     13  O   UNL     1     174.608 168.483 170.920  1.00  0.00    -0.461 OA
ATOM     14  C   UNL     1     175.414 169.407 171.388  1.00  0.00     0.140 A 
ATOM     15  C   UNL     1     175.154 170.342 172.393  1.00  0.00     0.036 A 
ATOM     16  C   UNL     1     173.814 170.403 173.069  1.00  0.00     0.052 C 
ATOM     17  C   UNL     1     174.688 166.683 169.211  1.00  0.00     0.087 C 
ENDROOT
TORSDOF 0
ENDMDL
MODEL 2
REMARK VINA RESULT:    -6.495      1.778      3.237
REMARK INTER + INTRA:          -6.495
REMARK INTER:                  -6.495
REMARK INTRA:                   0.000
REMARK UNBOUND:                 0.000
REMARK SMILES Cc1cc2cc3c(C)cc(=O)oc3c(C)c2o1
REMARK SMILES IDX 8 1 7 2 9 3 10 4 11 5 12 6 13 7 6 8 5 9 4 10 3 11 2 12 17 13
REMARK SMILES IDX 16 14 14 15 15 16 1 17
REMARK H PARENT
REMARK Flexibility Score: inf
ROOT
ATOM      1  C   UNL     1     176.638 173.624 174.739  1.00  0.00     0.045 C 
ATOM      2  C   UNL     1     177.143 172.704 173.658  1.00  0.00    -0.033 A 
ATOM      3  C   UNL     1     178.446 172.869 173.171  1.00  0.00     0.098 A 
ATOM      4  C   UNL     1     178.923 172.020 172.172  1.00  0.00     0.336 A 
ATOM      5  O   UNL     1     180.094 172.163 171.732  1.00  0.00    -0.246 OA
ATOM      6  O   UNL     1     178.151 171.060 171.678  1.00  0.00    -0.422 OA
ATOM      7  C   UNL     1     176.905 170.848 172.092  1.00  0.00     0.145 A 
ATOM      8  C   UNL     1     176.342 171.673 173.118  1.00  0.00     0.022 A 
ATOM      9  C   UNL     1     175.018 171.434 173.560  1.00  0.00     0.024 A 
ATOM     10  C   UNL     1     174.311 170.390 172.974  1.00  0.00     0.022 A 
ATOM     11  C   UNL     1     173.035 169.933 173.210  1.00  0.00     0.054 A 
ATOM     12  C   UNL     1     172.887 168.866 172.332  1.00  0.00     0.102 A 
ATOM     13  O   UNL     1     173.984 168.692 171.616  1.00  0.00    -0.461 OA
ATOM     14  C   UNL     1     174.849 169.602 171.993  1.00  0.00     0.140 A 
ATOM     15  C   UNL     1     176.146 169.804 171.512  1.00  0.00     0.036 A 
ATOM     16  C   UNL     1     176.729 168.910 170.455  1.00  0.00     0.052 C 
ATOM     17  C   UNL     1     171.659 168.031 172.190  1.00  0.00     0.087 C 
ENDROOT
TORSDOF 0
ENDMDL
MODEL 3
REMARK VINA RESULT:    -6.253      1.991      2.333
REMARK INTER + INTRA:          -6.253
REMARK INTER:                  -6.253
REMARK INTRA:                   0.000
REMARK UNBOUND:                 0.000
REMARK SMILES Cc1cc2cc3c(C)cc(=O)oc3c(C)c2o1
REMARK SMILES IDX 8 1 7 2 9 3 10 4 11 5 12 6 13 7 6 8 5 9 4 10 3 11 2 12 17 13
REMARK SMILES IDX 16 14 14 15 15 16 1 17
REMARK H PARENT
REMARK Flexibility Score: inf
ROOT
ATOM      1  C   UNL     1     177.377 174.377 171.746  1.00  0.00     0.045 C 
ATOM      2  C   UNL     1     177.435 173.034 172.427  1.00  0.00    -0.033 A 
ATOM      3  C   UNL     1     178.355 172.830 173.463  1.00  0.00     0.098 A 
ATOM      4  C   UNL     1     178.414 171.591 174.101  1.00  0.00     0.336 A 
ATOM      5  O   UNL     1     179.239 171.403 175.034  1.00  0.00    -0.246 OA
ATOM      6  O   UNL     1     177.607 170.604 173.732  1.00  0.00    -0.422 OA
ATOM      7  C   UNL     1     176.712 170.727 172.757  1.00  0.00     0.145 A 
ATOM      8  C   UNL     1     176.585 171.968 172.055  1.00  0.00     0.022 A 
ATOM      9  C   UNL     1     175.622 172.094 171.024  1.00  0.00     0.024 A 
ATOM     10  C   UNL     1     174.825 170.991 170.735  1.00  0.00     0.022 A 
ATOM     11  C   UNL     1     173.820 170.835 169.809  1.00  0.00     0.054 A 
ATOM     12  C   UNL     1     173.389 169.526 169.992  1.00  0.00     0.102 A 
ATOM     13  O   UNL     1     174.080 168.934 170.949  1.00  0.00    -0.461 OA
ATOM     14  C   UNL     1     174.947 169.806 171.406  1.00  0.00     0.140 A 
ATOM     15  C   UNL     1     175.890 169.625 172.422  1.00  0.00     0.036 A 
ATOM     16  C   UNL     1     175.990 168.324 173.166  1.00  0.00     0.052 C 
ATOM     17  C   UNL     1     172.308 168.859 169.211  1.00  0.00     0.087 C 
ENDROOT
TORSDOF 0
ENDMDL
MODEL 4
REMARK VINA RESULT:    -6.105      1.946      2.250
REMARK INTER + INTRA:          -6.105
REMARK INTER:                  -6.105
REMARK INTRA:                   0.000
REMARK UNBOUND:                 0.000
REMARK SMILES Cc1cc2cc3c(C)cc(=O)oc3c(C)c2o1
REMARK SMILES IDX 8 1 7 2 9 3 10 4 11 5 12 6 13 7 6 8 5 9 4 10 3 11 2 12 17 13
REMARK SMILES IDX 16 14 14 15 15 16 1 17
REMARK H PARENT
REMARK Flexibility Score: inf
ROOT
ATOM      1  C   UNL     1     178.893 171.394 174.633  1.00  0.00     0.045 C 
ATOM      2  C   UNL     1     177.987 171.795 173.498  1.00  0.00    -0.033 A 
ATOM      3  C   UNL     1     178.088 173.087 172.964  1.00  0.00     0.098 A 
ATOM      4  C   UNL     1     177.255 173.467 171.912  1.00  0.00     0.336 A 
ATOM      5  O   UNL     1     177.343 174.626 171.428  1.00  0.00    -0.246 OA
ATOM      6  O   UNL     1     176.367 172.615 171.414  1.00  0.00    -0.422 OA
ATOM      7  C   UNL     1     176.216 171.376 171.872  1.00  0.00     0.145 A 
ATOM      8  C   UNL     1     177.036 170.907 172.948  1.00  0.00     0.022 A 
ATOM      9  C   UNL     1     176.876 169.582 173.424  1.00  0.00     0.024 A 
ATOM     10  C   UNL     1     175.918 168.779 172.814  1.00  0.00     0.022 A 
ATOM     11  C   UNL     1     175.561 167.474 173.058  1.00  0.00     0.054 A 
ATOM     12  C   UNL     1     174.558 167.215 172.131  1.00  0.00     0.102 A 
ATOM     13  O   UNL     1     174.323 168.280 171.386  1.00  0.00    -0.461 OA
ATOM     14  C   UNL     1     175.136 169.229 171.785  1.00  0.00     0.140 A 
ATOM     15  C   UNL     1     175.244 170.530 171.287  1.00  0.00     0.036 A 
ATOM     16  C   UNL     1     174.395 170.996 170.139  1.00  0.00     0.052 C 
ATOM     17  C   UNL     1     173.825 165.924 171.993  1.00  0.00     0.087 C 
ENDROOT
TORSDOF 0
ENDMDL
MODEL 5
REMARK VINA RESULT:    -5.582      1.240      5.353
REMARK INTER + INTRA:          -5.582
REMARK INTER:                  -5.582
REMARK INTRA:                   0.000
REMARK UNBOUND:                 0.000
REMARK SMILES Cc1cc2cc3c(C)cc(=O)oc3c(C)c2o1
REMARK SMILES IDX 8 1 7 2 9 3 10 4 11 5 12 6 13 7 6 8 5 9 4 10 3 11 2 12 17 13
REMARK SMILES IDX 16 14 14 15 15 16 1 17
REMARK H PARENT
REMARK Flexibility Score: inf
ROOT
ATOM      1  C   UNL     1     176.467 167.494 169.118  1.00  0.00     0.045 C 
ATOM      2  C   UNL     1     175.370 167.849 170.088  1.00  0.00    -0.033 A 
ATOM      3  C   UNL     1     174.186 167.100 170.088  1.00  0.00     0.098 A 
ATOM      4  C   UNL     1     173.166 167.421 170.984  1.00  0.00     0.336 A 
ATOM      5  O   UNL     1     172.101 166.750 170.990  1.00  0.00    -0.246 OA
ATOM      6  O   UNL     1     173.308 168.431 171.834  1.00  0.00    -0.422 OA
ATOM      7  C   UNL     1     174.403 169.184 171.887  1.00  0.00     0.145 A 
ATOM      8  C   UNL     1     175.498 168.917 171.004  1.00  0.00     0.022 A 
ATOM      9  C   UNL     1     176.664 169.718 171.074  1.00  0.00     0.024 A 
ATOM     10  C   UNL     1     176.699 170.742 172.014  1.00  0.00     0.022 A 
ATOM     11  C   UNL     1     177.689 171.651 172.306  1.00  0.00     0.054 A 
ATOM     12  C   UNL     1     177.157 172.414 173.339  1.00  0.00     0.102 A 
ATOM     13  O   UNL     1     175.940 172.003 173.647  1.00  0.00    -0.461 OA
ATOM     14  C   UNL     1     175.653 170.995 172.858  1.00  0.00     0.140 A 
ATOM     15  C   UNL     1     174.475 170.244 172.822  1.00  0.00     0.036 A 
ATOM     16  C   UNL     1     173.348 170.521 173.775  1.00  0.00     0.052 C 
ATOM     17  C   UNL     1     177.844 173.556 174.009  1.00  0.00     0.087 C 
ENDROOT
TORSDOF 0
ENDMDL
MODEL 6
REMARK VINA RESULT:    -5.516      1.740      5.874
REMARK INTER + INTRA:          -5.516
REMARK INTER:                  -5.516
REMARK INTRA:                   0.000
REMARK UNBOUND:                 0.000
REMARK SMILES Cc1cc2cc3c(C)cc(=O)oc3c(C)c2o1
REMARK SMILES IDX 8 1 7 2 9 3 10 4 11 5 12 6 13 7 6 8 5 9 4 10 3 11 2 12 17 13
REMARK SMILES IDX 16 14 14 15 15 16 1 17
REMARK H PARENT
REMARK Flexibility Score: inf
ROOT
ATOM      1  C   UNL     1     171.663 169.655 173.230  1.00  0.00     0.045 C 
ATOM      2  C   UNL     1     172.608 169.070 172.213  1.00  0.00    -0.033 A 
ATOM      3  C   UNL     1     172.168 168.026 171.389  1.00  0.00     0.098 A 
ATOM      4  C   UNL     1     173.036 167.479 170.443  1.00  0.00     0.336 A 
ATOM      5  O   UNL     1     172.645 166.542 169.699  1.00  0.00    -0.246 OA
ATOM      6  O   UNL     1     174.275 167.939 170.320  1.00  0.00    -0.422 OA
ATOM      7  C   UNL     1     174.759 168.925 171.069  1.00  0.00     0.145 A 
ATOM      8  C   UNL     1     173.931 169.543 172.060  1.00  0.00     0.022 A 
ATOM      9  C   UNL     1     174.451 170.599 172.847  1.00  0.00     0.024 A 
ATOM     10  C   UNL     1     175.763 171.001 172.618  1.00  0.00     0.022 A 
ATOM     11  C   UNL     1     176.510 171.990 173.215  1.00  0.00     0.054 A 
ATOM     12  C   UNL     1     177.738 171.928 172.566  1.00  0.00     0.102 A 
ATOM     13  O   UNL     1     177.737 170.975 171.651  1.00  0.00    -0.461 OA
ATOM     14  C   UNL     1     176.553 170.410 171.671  1.00  0.00     0.140 A 
ATOM     15  C   UNL     1     176.093 169.356 170.877  1.00  0.00     0.036 A 
ATOM     16  C   UNL     1     176.968 168.739 169.823  1.00  0.00     0.052 C 
ATOM     17  C   UNL     1     178.913 172.798 172.861  1.00  0.00     0.087 C 
ENDROOT
TORSDOF 0
ENDMDL
MODEL 7
REMARK VINA RESULT:    -5.442      1.917      5.658
REMARK INTER + INTRA:          -5.442
REMARK INTER:                  -5.442
REMARK INTRA:                   0.000
REMARK UNBOUND:                 0.000
REMARK SMILES Cc1cc2cc3c(C)cc(=O)oc3c(C)c2o1
REMARK SMILES IDX 8 1 7 2 9 3 10 4 11 5 12 6 13 7 6 8 5 9 4 10 3 11 2 12 17 13
REMARK SMILES IDX 16 14 14 15 15 16 1 17
REMARK H PARENT
REMARK Flexibility Score: inf
ROOT
ATOM      1  C   UNL     1     173.221 170.623 168.484  1.00  0.00     0.045 C 
ATOM      2  C   UNL     1     173.646 169.547 169.450  1.00  0.00    -0.033 A 
ATOM      3  C   UNL     1     173.112 168.259 169.319  1.00  0.00     0.098 A 
ATOM      4  C   UNL     1     173.502 167.256 170.208  1.00  0.00     0.336 A 
ATOM      5  O   UNL     1     173.027 166.096 170.094  1.00  0.00    -0.246 OA
ATOM      6  O   UNL     1     174.373 167.514 171.176  1.00  0.00    -0.422 OA
ATOM      7  C   UNL     1     174.917 168.714 171.359  1.00  0.00     0.145 A 
ATOM      8  C   UNL     1     174.573 169.796 170.487  1.00  0.00     0.022 A 
ATOM      9  C   UNL     1     175.165 171.068 170.683  1.00  0.00     0.024 A 
ATOM     10  C   UNL     1     176.073 171.213 171.727  1.00  0.00     0.022 A 
ATOM     11  C   UNL     1     176.795 172.311 172.134  1.00  0.00     0.054 A 
ATOM     12  C   UNL     1     177.534 171.849 173.217  1.00  0.00     0.102 A 
ATOM     13  O   UNL     1     177.278 170.574 173.451  1.00  0.00    -0.461 OA
ATOM     14  C   UNL     1     176.401 170.178 172.559  1.00  0.00     0.140 A 
ATOM     15  C   UNL     1     175.836 168.908 172.418  1.00  0.00     0.036 A 
ATOM     16  C   UNL     1     176.230 167.777 173.325  1.00  0.00     0.052 C 
ATOM     17  C   UNL     1     178.479 172.670 174.028  1.00  0.00     0.087 C 
ENDROOT
TORSDOF 0
ENDMDL
MODEL 8
REMARK VINA RESULT:    -5.371      1.781      5.364
REMARK INTER + INTRA:          -5.371
REMARK INTER:                  -5.371
REMARK INTRA:                   0.000
REMARK UNBOUND:                 0.000
REMARK SMILES Cc1cc2cc3c(C)cc(=O)oc3c(C)c2o1
REMARK SMILES IDX 8 1 7 2 9 3 10 4 11 5 12 6 13 7 6 8 5 9 4 10 3 11 2 12 17 13
REMARK SMILES IDX 16 14 14 15 15 16 1 17
REMARK H PARENT
REMARK Flexibility Score: inf
ROOT
ATOM      1  C   UNL     1     174.851 168.195 168.370  1.00  0.00     0.045 C 
ATOM      2  C   UNL     1     174.058 168.583 169.591  1.00  0.00    -0.033 A 
ATOM      3  C   UNL     1     172.728 168.158 169.708  1.00  0.00     0.098 A 
ATOM      4  C   UNL     1     171.987 168.512 170.836  1.00  0.00     0.336 A 
ATOM      5  O   UNL     1     170.792 168.131 170.947  1.00  0.00    -0.246 OA
ATOM      6  O   UNL     1     172.531 169.249 171.796  1.00  0.00    -0.422 OA
ATOM      7  C   UNL     1     173.785 169.687 171.750  1.00  0.00     0.145 A 
ATOM      8  C   UNL     1     174.615 169.365 170.628  1.00  0.00     0.022 A 
ATOM      9  C   UNL     1     175.953 169.828 170.591  1.00  0.00     0.024 A 
ATOM     10  C   UNL     1     176.413 170.584 171.663  1.00  0.00     0.022 A 
ATOM     11  C   UNL     1     177.648 171.144 171.895  1.00  0.00     0.054 A 
ATOM     12  C   UNL     1     177.513 171.769 173.129  1.00  0.00     0.102 A 
ATOM     13  O   UNL     1     176.292 171.605 173.607  1.00  0.00    -0.461 OA
ATOM     14  C   UNL     1     175.620 170.892 172.735  1.00  0.00     0.140 A 
ATOM     15  C   UNL     1     174.290 170.471 172.815  1.00  0.00     0.036 A 
ATOM     16  C   UNL     1     173.443 170.796 174.012  1.00  0.00     0.052 C 
ATOM     17  C   UNL     1     178.582 172.540 173.826  1.00  0.00     0.087 C 
ENDROOT
TORSDOF 0
ENDMDL
MODEL 9
REMARK VINA RESULT:    -5.334      2.131      5.698
REMARK INTER + INTRA:          -5.334
REMARK INTER:                  -5.334
REMARK INTRA:                   0.000
REMARK UNBOUND:                 0.000
REMARK SMILES Cc1cc2cc3c(C)cc(=O)oc3c(C)c2o1
REMARK SMILES IDX 8 1 7 2 9 3 10 4 11 5 12 6 13 7 6 8 5 9 4 10 3 11 2 12 17 13
REMARK SMILES IDX 16 14 14 15 15 16 1 17
REMARK H PARENT
REMARK Flexibility Score: inf
ROOT
ATOM      1  C   UNL     1     174.777 166.130 173.322  1.00  0.00     0.045 C 
ATOM      2  C   UNL     1     174.207 167.080 172.301  1.00  0.00    -0.033 A 
ATOM      3  C   UNL     1     173.119 166.672 171.517  1.00  0.00     0.098 A 
ATOM      4  C   UNL     1     172.584 167.546 170.571  1.00  0.00     0.336 A 
ATOM      5  O   UNL     1     171.606 167.185 169.865  1.00  0.00    -0.246 OA
ATOM      6  O   UNL     1     173.097 168.759 170.407  1.00  0.00    -0.422 OA
ATOM      7  C   UNL     1     174.128 169.211 171.114  1.00  0.00     0.145 A 
ATOM      8  C   UNL     1     174.733 168.377 172.108  1.00  0.00     0.022 A 
ATOM      9  C   UNL     1     175.825 168.869 172.864  1.00  0.00     0.024 A 
ATOM     10  C   UNL     1     176.268 170.162 172.608  1.00  0.00     0.022 A 
ATOM     11  C   UNL     1     177.283 170.888 173.187  1.00  0.00     0.054 A 
ATOM     12  C   UNL     1     177.245 172.112 172.529  1.00  0.00     0.102 A 
ATOM     13  O   UNL     1     176.286 172.126 171.619  1.00  0.00    -0.461 OA
ATOM     14  C   UNL     1     175.690 170.958 171.658  1.00  0.00     0.140 A 
ATOM     15  C   UNL     1     174.619 170.517 170.876  1.00  0.00     0.036 A 
ATOM     16  C   UNL     1     173.979 171.415 169.856  1.00  0.00     0.052 C 
ATOM     17  C   UNL     1     178.163 173.258 172.786  1.00  0.00     0.087 C 
ENDROOT
TORSDOF 0
ENDMDL
