MODEL 1
REMARK VINA RESULT:    -5.609      0.000      0.000
REMARK INTER + INTRA:          -5.609
REMARK INTER:                  -5.609
REMARK INTRA:                   0.000
REMARK UNBOUND:                 0.000
REMARK SMILES Cc1cc2cc3c(C)cc(=O)oc3c(C)c2o1
REMARK SMILES IDX 8 1 7 2 9 3 10 4 11 5 12 6 13 7 6 8 5 9 4 10 3 11 2 12 17 13
REMARK SMILES IDX 16 14 14 15 15 16 1 17
REMARK H PARENT
REMARK Flexibility Score: inf
ROOT
ATOM      1  C   UNL     1      22.183  29.263  22.432  1.00  0.00     0.045 C 
ATOM      2  C   UNL     1      22.281  28.245  23.538  1.00  0.00    -0.033 A 
ATOM      3  C   UNL     1      22.792  26.972  23.254  1.00  0.00     0.098 A 
ATOM      4  C   UNL     1      22.888  26.024  24.273  1.00  0.00     0.336 A 
ATOM      5  O   UNL     1      23.348  24.878  24.024  1.00  0.00    -0.246 OA
ATOM      6  O   UNL     1      22.499  26.318  25.508  1.00  0.00    -0.422 OA
ATOM      7  C   UNL     1      22.004  27.504  25.848  1.00  0.00     0.145 A 
ATOM      8  C   UNL     1      21.875  28.534  24.861  1.00  0.00     0.022 A 
ATOM      9  C   UNL     1      21.356  29.798  25.233  1.00  0.00     0.024 A 
ATOM     10  C   UNL     1      20.992  29.991  26.561  1.00  0.00     0.022 A 
ATOM     11  C   UNL     1      20.479  31.099  27.193  1.00  0.00     0.054 A 
ATOM     12  C   UNL     1      20.325  30.696  28.516  1.00  0.00     0.102 A 
ATOM     13  O   UNL     1      20.710  29.443  28.672  1.00  0.00    -0.461 OA
ATOM     14  C   UNL     1      21.115  29.006  27.503  1.00  0.00     0.140 A 
ATOM     15  C   UNL     1      21.609  27.738  27.186  1.00  0.00     0.036 A 
ATOM     16  C   UNL     1      21.762  26.678  28.240  1.00  0.00     0.052 C 
ATOM     17  C   UNL     1      19.784  31.545  29.616  1.00  0.00     0.087 C 
ENDROOT
TORSDOF 0
ENDMDL
MODEL 2
REMARK VINA RESULT:    -5.495      1.653      5.967
REMARK INTER + INTRA:          -5.495
REMARK INTER:                  -5.495
REMARK INTRA:                   0.000
REMARK UNBOUND:                 0.000
REMARK SMILES Cc1cc2cc3c(C)cc(=O)oc3c(C)c2o1
REMARK SMILES IDX 8 1 7 2 9 3 10 4 11 5 12 6 13 7 6 8 5 9 4 10 3 11 2 12 17 13
REMARK SMILES IDX 16 14 14 15 15 16 1 17
REMARK H PARENT
REMARK Flexibility Score: inf
ROOT
ATOM      1  C   UNL     1      22.172  28.627  30.999  1.00  0.00     0.045 C 
ATOM      2  C   UNL     1      21.406  29.212  29.840  1.00  0.00    -0.033 A 
ATOM      3  C   UNL     1      20.575  30.319  30.057  1.00  0.00     0.098 A 
ATOM      4  C   UNL     1      19.865  30.867  28.989  1.00  0.00     0.336 A 
ATOM      5  O   UNL     1      19.118  31.863  29.177  1.00  0.00    -0.246 OA
ATOM      6  O   UNL     1      19.969  30.349  27.771  1.00  0.00    -0.422 OA
ATOM      7  C   UNL     1      20.737  29.299  27.495  1.00  0.00     0.145 A 
ATOM      8  C   UNL     1      21.501  28.679  28.535  1.00  0.00     0.022 A 
ATOM      9  C   UNL     1      22.324  27.567  28.230  1.00  0.00     0.024 A 
ATOM     10  C   UNL     1      22.359  27.120  26.915  1.00  0.00     0.022 A 
ATOM     11  C   UNL     1      23.064  26.087  26.341  1.00  0.00     0.054 A 
ATOM     12  C   UNL     1      22.701  26.130  24.999  1.00  0.00     0.102 A 
ATOM     13  O   UNL     1      21.842  27.107  24.777  1.00  0.00    -0.461 OA
ATOM     14  C   UNL     1      21.627  27.712  25.921  1.00  0.00     0.140 A 
ATOM     15  C   UNL     1      20.791  28.803  26.170  1.00  0.00     0.036 A 
ATOM     16  C   UNL     1      20.016  29.458  25.062  1.00  0.00     0.052 C 
ATOM     17  C   UNL     1      23.192  25.197  23.945  1.00  0.00     0.087 C 
ENDROOT
TORSDOF 0
ENDMDL
MODEL 3
REMARK VINA RESULT:    -5.413      1.250      1.459
REMARK INTER + INTRA:          -5.413
REMARK INTER:                  -5.413
REMARK INTRA:                   0.000
REMARK UNBOUND:                 0.000
REMARK SMILES Cc1cc2cc3c(C)cc(=O)oc3c(C)c2o1
REMARK SMILES IDX 8 1 7 2 9 3 10 4 11 5 12 6 13 7 6 8 5 9 4 10 3 11 2 12 17 13
REMARK SMILES IDX 16 14 14 15 15 16 1 17
REMARK H PARENT
REMARK Flexibility Score: inf
ROOT
ATOM      1  C   UNL     1      20.203  28.886  23.629  1.00  0.00     0.045 C 
ATOM      2  C   UNL     1      21.080  28.208  24.649  1.00  0.00    -0.033 A 
ATOM      3  C   UNL     1      21.924  27.166  24.242  1.00  0.00     0.098 A 
ATOM      4  C   UNL     1      22.741  26.534  25.181  1.00  0.00     0.336 A 
ATOM      5  O   UNL     1      23.503  25.599  24.820  1.00  0.00    -0.246 OA
ATOM      6  O   UNL     1      22.724  26.910  26.454  1.00  0.00    -0.422 OA
ATOM      7  C   UNL     1      21.948  27.889  26.908  1.00  0.00     0.145 A 
ATOM      8  C   UNL     1      21.082  28.591  26.010  1.00  0.00     0.022 A 
ATOM      9  C   UNL     1      20.265  29.638  26.501  1.00  0.00     0.024 A 
ATOM     10  C   UNL     1      20.342  29.950  27.853  1.00  0.00     0.022 A 
ATOM     11  C   UNL     1      19.683  30.908  28.587  1.00  0.00     0.054 A 
ATOM     12  C   UNL     1      20.175  30.746  29.878  1.00  0.00     0.102 A 
ATOM     13  O   UNL     1      21.058  29.766  29.925  1.00  0.00    -0.461 OA
ATOM     14  C   UNL     1      21.169  29.278  28.712  1.00  0.00     0.140 A 
ATOM     15  C   UNL     1      21.985  28.229  28.282  1.00  0.00     0.036 A 
ATOM     16  C   UNL     1      22.908  27.521  29.234  1.00  0.00     0.052 C 
ATOM     17  C   UNL     1      19.760  31.550  31.064  1.00  0.00     0.087 C 
ENDROOT
TORSDOF 0
ENDMDL
MODEL 4
REMARK VINA RESULT:    -5.404      4.920      8.079
REMARK INTER + INTRA:          -5.404
REMARK INTER:                  -5.404
REMARK INTRA:                   0.000
REMARK UNBOUND:                 0.000
REMARK SMILES Cc1cc2cc3c(C)cc(=O)oc3c(C)c2o1
REMARK SMILES IDX 8 1 7 2 9 3 10 4 11 5 12 6 13 7 6 8 5 9 4 10 3 11 2 12 17 13
REMARK SMILES IDX 16 14 14 15 15 16 1 17
REMARK H PARENT
REMARK Flexibility Score: inf
ROOT
ATOM      1  C   UNL     1      24.124  24.268  20.310  1.00  0.00     0.045 C 
ATOM      2  C   UNL     1      23.931  25.639  20.907  1.00  0.00    -0.033 A 
ATOM      3  C   UNL     1      24.027  25.800  22.295  1.00  0.00     0.098 A 
ATOM      4  C   UNL     1      23.852  27.067  22.855  1.00  0.00     0.336 A 
ATOM      5  O   UNL     1      23.939  27.218  24.102  1.00  0.00    -0.246 OA
ATOM      6  O   UNL     1      23.595  28.117  22.085  1.00  0.00    -0.422 OA
ATOM      7  C   UNL     1      23.489  28.035  20.762  1.00  0.00     0.145 A 
ATOM      8  C   UNL     1      23.659  26.772  20.108  1.00  0.00     0.022 A 
ATOM      9  C   UNL     1      23.554  26.696  18.698  1.00  0.00     0.024 A 
ATOM     10  C   UNL     1      23.292  27.866  17.996  1.00  0.00     0.022 A 
ATOM     11  C   UNL     1      23.151  28.085  16.645  1.00  0.00     0.054 A 
ATOM     12  C   UNL     1      22.908  29.451  16.545  1.00  0.00     0.102 A 
ATOM     13  O   UNL     1      22.899  30.015  17.738  1.00  0.00    -0.461 OA
ATOM     14  C   UNL     1      23.129  29.073  18.622  1.00  0.00     0.140 A 
ATOM     15  C   UNL     1      23.210  29.201  20.011  1.00  0.00     0.036 A 
ATOM     16  C   UNL     1      23.056  30.539  20.678  1.00  0.00     0.052 C 
ATOM     17  C   UNL     1      22.671  30.192  15.272  1.00  0.00     0.087 C 
ENDROOT
TORSDOF 0
ENDMDL
MODEL 5
REMARK VINA RESULT:    -5.346      1.888      3.477
REMARK INTER + INTRA:          -5.346
REMARK INTER:                  -5.346
REMARK INTRA:                   0.000
REMARK UNBOUND:                 0.000
REMARK SMILES Cc1cc2cc3c(C)cc(=O)oc3c(C)c2o1
REMARK SMILES IDX 8 1 7 2 9 3 10 4 11 5 12 6 13 7 6 8 5 9 4 10 3 11 2 12 17 13
REMARK SMILES IDX 16 14 14 15 15 16 1 17
REMARK H PARENT
REMARK Flexibility Score: inf
ROOT
ATOM      1  C   UNL     1      23.421  26.612  29.856  1.00  0.00     0.045 C 
ATOM      2  C   UNL     1      22.796  26.972  28.533  1.00  0.00    -0.033 A 
ATOM      3  C   UNL     1      23.085  26.193  27.405  1.00  0.00     0.098 A 
ATOM      4  C   UNL     1      22.508  26.518  26.176  1.00  0.00     0.336 A 
ATOM      5  O   UNL     1      22.762  25.820  25.159  1.00  0.00    -0.246 OA
ATOM      6  O   UNL     1      21.691  27.559  26.068  1.00  0.00    -0.422 OA
ATOM      7  C   UNL     1      21.376  28.341  27.096  1.00  0.00     0.145 A 
ATOM      8  C   UNL     1      21.922  28.073  28.392  1.00  0.00     0.022 A 
ATOM      9  C   UNL     1      21.574  28.906  29.483  1.00  0.00     0.024 A 
ATOM     10  C   UNL     1      20.699  29.961  29.249  1.00  0.00     0.022 A 
ATOM     11  C   UNL     1      20.189  30.905  30.109  1.00  0.00     0.054 A 
ATOM     12  C   UNL     1      19.367  31.689  29.305  1.00  0.00     0.102 A 
ATOM     13  O   UNL     1      19.381  31.258  28.058  1.00  0.00    -0.461 OA
ATOM     14  C   UNL     1      20.178  30.217  28.009  1.00  0.00     0.140 A 
ATOM     15  C   UNL     1      20.499  29.435  26.897  1.00  0.00     0.036 A 
ATOM     16  C   UNL     1      19.895  29.714  25.550  1.00  0.00     0.052 C 
ATOM     17  C   UNL     1      18.584  32.870  29.769  1.00  0.00     0.087 C 
ENDROOT
TORSDOF 0
ENDMDL
MODEL 6
REMARK VINA RESULT:    -5.244      1.702      6.116
REMARK INTER + INTRA:          -5.244
REMARK INTER:                  -5.244
REMARK INTRA:                   0.000
REMARK UNBOUND:                 0.000
REMARK SMILES Cc1cc2cc3c(C)cc(=O)oc3c(C)c2o1
REMARK SMILES IDX 8 1 7 2 9 3 10 4 11 5 12 6 13 7 6 8 5 9 4 10 3 11 2 12 17 13
REMARK SMILES IDX 16 14 14 15 15 16 1 17
REMARK H PARENT
REMARK Flexibility Score: inf
ROOT
ATOM      1  C   UNL     1      21.865  26.615  28.287  1.00  0.00     0.045 C 
ATOM      2  C   UNL     1      21.854  27.689  27.230  1.00  0.00    -0.033 A 
ATOM      3  C   UNL     1      21.483  28.993  27.583  1.00  0.00     0.098 A 
ATOM      4  C   UNL     1      21.473  29.994  26.611  1.00  0.00     0.336 A 
ATOM      5  O   UNL     1      21.142  31.168  26.923  1.00  0.00    -0.246 OA
ATOM      6  O   UNL     1      21.809  29.721  25.356  1.00  0.00    -0.422 OA
ATOM      7  C   UNL     1      22.169  28.506  24.952  1.00  0.00     0.145 A 
ATOM      8  C   UNL     1      22.209  27.423  25.888  1.00  0.00     0.022 A 
ATOM      9  C   UNL     1      22.603  26.135  25.451  1.00  0.00     0.024 A 
ATOM     10  C   UNL     1      22.943  25.973  24.113  1.00  0.00     0.022 A 
ATOM     11  C   UNL     1      23.364  24.857  23.428  1.00  0.00     0.054 A 
ATOM     12  C   UNL     1      23.558  25.310  22.127  1.00  0.00     0.102 A 
ATOM     13  O   UNL     1      23.274  26.595  22.029  1.00  0.00    -0.461 OA
ATOM     14  C   UNL     1      22.903  27.008  23.218  1.00  0.00     0.140 A 
ATOM     15  C   UNL     1      22.510  28.295  23.594  1.00  0.00     0.036 A 
ATOM     16  C   UNL     1      22.499  29.425  22.604  1.00  0.00     0.052 C 
ATOM     17  C   UNL     1      24.009  24.467  20.982  1.00  0.00     0.087 C 
ENDROOT
TORSDOF 0
ENDMDL
MODEL 7
REMARK VINA RESULT:    -5.197      5.042      7.650
REMARK INTER + INTRA:          -5.197
REMARK INTER:                  -5.197
REMARK INTRA:                   0.000
REMARK UNBOUND:                 0.000
REMARK SMILES Cc1cc2cc3c(C)cc(=O)oc3c(C)c2o1
REMARK SMILES IDX 8 1 7 2 9 3 10 4 11 5 12 6 13 7 6 8 5 9 4 10 3 11 2 12 17 13
REMARK SMILES IDX 16 14 14 15 15 16 1 17
REMARK H PARENT
REMARK Flexibility Score: inf
ROOT
ATOM      1  C   UNL     1      21.124  31.877  17.042  1.00  0.00     0.045 C 
ATOM      2  C   UNL     1      21.871  30.569  16.996  1.00  0.00    -0.033 A 
ATOM      3  C   UNL     1      22.202  30.013  15.753  1.00  0.00     0.098 A 
ATOM      4  C   UNL     1      22.896  28.803  15.702  1.00  0.00     0.336 A 
ATOM      5  O   UNL     1      23.198  28.300  14.588  1.00  0.00    -0.246 OA
ATOM      6  O   UNL     1      23.242  28.175  16.819  1.00  0.00    -0.422 OA
ATOM      7  C   UNL     1      22.958  28.644  18.031  1.00  0.00     0.145 A 
ATOM      8  C   UNL     1      22.252  29.882  18.171  1.00  0.00     0.022 A 
ATOM      9  C   UNL     1      21.962  30.379  19.465  1.00  0.00     0.024 A 
ATOM     10  C   UNL     1      22.385  29.637  20.561  1.00  0.00     0.022 A 
ATOM     11  C   UNL     1      22.253  29.880  21.908  1.00  0.00     0.054 A 
ATOM     12  C   UNL     1      22.878  28.795  22.514  1.00  0.00     0.102 A 
ATOM     13  O   UNL     1      23.349  27.959  21.607  1.00  0.00    -0.461 OA
ATOM     14  C   UNL     1      23.060  28.453  20.427  1.00  0.00     0.140 A 
ATOM     15  C   UNL     1      23.359  27.912  19.174  1.00  0.00     0.036 A 
ATOM     16  C   UNL     1      24.125  26.626  19.046  1.00  0.00     0.052 C 
ATOM     17  C   UNL     1      22.996  28.580  23.985  1.00  0.00     0.087 C 
ENDROOT
TORSDOF 0
ENDMDL
MODEL 8
REMARK VINA RESULT:    -5.039      2.276      5.688
REMARK INTER + INTRA:          -5.039
REMARK INTER:                  -5.039
REMARK INTRA:                   0.000
REMARK UNBOUND:                 0.000
REMARK SMILES Cc1cc2cc3c(C)cc(=O)oc3c(C)c2o1
REMARK SMILES IDX 8 1 7 2 9 3 10 4 11 5 12 6 13 7 6 8 5 9 4 10 3 11 2 12 17 13
REMARK SMILES IDX 16 14 14 15 15 16 1 17
REMARK H PARENT
REMARK Flexibility Score: inf
ROOT
ATOM      1  C   UNL     1      22.881  32.857  28.427  1.00  0.00     0.045 C 
ATOM      2  C   UNL     1      21.750  31.901  28.152  1.00  0.00    -0.033 A 
ATOM      3  C   UNL     1      20.710  31.784  29.083  1.00  0.00     0.098 A 
ATOM      4  C   UNL     1      19.658  30.902  28.834  1.00  0.00     0.336 A 
ATOM      5  O   UNL     1      18.719  30.794  29.666  1.00  0.00    -0.246 OA
ATOM      6  O   UNL     1      19.635  30.173  27.725  1.00  0.00    -0.422 OA
ATOM      7  C   UNL     1      20.589  30.233  26.800  1.00  0.00     0.145 A 
ATOM      8  C   UNL     1      21.702  31.115  26.978  1.00  0.00     0.022 A 
ATOM      9  C   UNL     1      22.709  31.180  25.983  1.00  0.00     0.024 A 
ATOM     10  C   UNL     1      22.570  30.375  24.858  1.00  0.00     0.022 A 
ATOM     11  C   UNL     1      23.375  30.243  23.751  1.00  0.00     0.054 A 
ATOM     12  C   UNL     1      22.721  29.301  22.964  1.00  0.00     0.102 A 
ATOM     13  O   UNL     1      21.610  28.892  23.549  1.00  0.00    -0.461 OA
ATOM     14  C   UNL     1      21.506  29.531  24.690  1.00  0.00     0.140 A 
ATOM     15  C   UNL     1      20.493  29.420  25.645  1.00  0.00     0.036 A 
ATOM     16  C   UNL     1      19.318  28.508  25.430  1.00  0.00     0.052 C 
ATOM     17  C   UNL     1      23.202  28.798  21.645  1.00  0.00     0.087 C 
ENDROOT
TORSDOF 0
ENDMDL
MODEL 9
REMARK VINA RESULT:    -4.953      2.873      5.077
REMARK INTER + INTRA:          -4.953
REMARK INTER:                  -4.953
REMARK INTRA:                   0.000
REMARK UNBOUND:                 0.000
REMARK SMILES Cc1cc2cc3c(C)cc(=O)oc3c(C)c2o1
REMARK SMILES IDX 8 1 7 2 9 3 10 4 11 5 12 6 13 7 6 8 5 9 4 10 3 11 2 12 17 13
REMARK SMILES IDX 16 14 14 15 15 16 1 17
REMARK H PARENT
REMARK Flexibility Score: inf
ROOT
ATOM      1  C   UNL     1      24.125  24.115  20.455  1.00  0.00     0.045 C 
ATOM      2  C   UNL     1      23.881  25.595  20.602  1.00  0.00    -0.033 A 
ATOM      3  C   UNL     1      23.982  26.421  19.475  1.00  0.00     0.098 A 
ATOM      4  C   UNL     1      23.755  27.792  19.602  1.00  0.00     0.336 A 
ATOM      5  O   UNL     1      23.843  28.539  18.592  1.00  0.00    -0.246 OA
ATOM      6  O   UNL     1      23.446  28.319  20.780  1.00  0.00    -0.422 OA
ATOM      7  C   UNL     1      23.335  27.595  21.890  1.00  0.00     0.145 A 
ATOM      8  C   UNL     1      23.549  26.180  21.845  1.00  0.00     0.022 A 
ATOM      9  C   UNL     1      23.419  25.415  23.030  1.00  0.00     0.024 A 
ATOM     10  C   UNL     1      23.080  26.079  24.203  1.00  0.00     0.022 A 
ATOM     11  C   UNL     1      22.881  25.596  25.476  1.00  0.00     0.054 A 
ATOM     12  C   UNL     1      22.558  26.725  26.222  1.00  0.00     0.102 A 
ATOM     13  O   UNL     1      22.565  27.805  25.464  1.00  0.00    -0.461 OA
ATOM     14  C   UNL     1      22.877  27.432  24.246  1.00  0.00     0.140 A 
ATOM     15  C   UNL     1      23.005  28.234  23.110  1.00  0.00     0.036 A 
ATOM     16  C   UNL     1      22.751  29.713  23.170  1.00  0.00     0.052 C 
ATOM     17  C   UNL     1      22.258  26.734  27.683  1.00  0.00     0.087 C 
ENDROOT
TORSDOF 0
ENDMDL
