MODEL 1
REMARK VINA RESULT:    -5.206      0.000      0.000
REMARK INTER + INTRA:          -5.510
REMARK INTER:                  -5.510
REMARK INTRA:                   0.000
REMARK UNBOUND:                 0.000
REMARK SMILES Cc1cc(O)c(C)c(C)c1O
REMARK SMILES IDX 1 1 2 2 3 3 4 4 6 5 8 6 10 7 9 8 7 9 11 10 5 12
REMARK H PARENT 11 11 5 13
REMARK Flexibility Score: inf
ROOT
ATOM      1  C   UNL     1      22.489  30.066 -19.661  1.00  0.00     0.048 C 
ATOM      2  C   UNL     1      22.374  29.658 -18.217  1.00  0.00    -0.005 A 
ATOM      3  C   UNL     1      23.130  30.335 -17.253  1.00  0.00     0.053 A 
ATOM      4  C   UNL     1      23.046  29.996 -15.904  1.00  0.00     0.119 A 
ATOM      5  C   UNL     1      22.170  28.970 -15.481  1.00  0.00    -0.003 A 
ATOM      6  C   UNL     1      21.445  28.232 -16.457  1.00  0.00    -0.002 A 
ATOM      7  C   UNL     1      21.531  28.599 -17.821  1.00  0.00     0.121 A 
ATOM      8  C   UNL     1      20.560  27.074 -16.054  1.00  0.00     0.049 C 
ATOM      9  C   UNL     1      22.050  28.663 -14.004  1.00  0.00     0.049 C 
ENDROOT
BRANCH   7  10
ATOM     10  O   UNL     1      20.770  27.898 -18.764  1.00  0.00    -0.507 OA
ATOM     11  H   UNL     1      20.645  26.894 -18.745  1.00  0.00     0.293 HD
ENDBRANCH   7  10
BRANCH   4  12
ATOM     12  O   UNL     1      23.857  30.701 -15.009  1.00  0.00    -0.508 OA
ATOM     13  H   UNL     1      24.072  31.684 -15.102  1.00  0.00     0.293 HD
ENDBRANCH   4  12
TORSDOF 2
ENDMDL
MODEL 2
REMARK VINA RESULT:    -5.147      1.991      3.550
REMARK INTER + INTRA:          -5.448
REMARK INTER:                  -5.448
REMARK INTRA:                   0.000
REMARK UNBOUND:                 0.000
REMARK SMILES Cc1cc(O)c(C)c(C)c1O
REMARK SMILES IDX 1 1 2 2 3 3 4 4 6 5 8 6 10 7 9 8 7 9 11 10 5 12
REMARK H PARENT 11 11 5 13
REMARK Flexibility Score: inf
ROOT
ATOM      1  C   UNL     1      20.430  28.178 -14.504  1.00  0.00     0.048 C 
ATOM      2  C   UNL     1      21.449  28.226 -15.610  1.00  0.00    -0.005 A 
ATOM      3  C   UNL     1      22.714  27.668 -15.398  1.00  0.00     0.053 A 
ATOM      4  C   UNL     1      23.685  27.682 -16.398  1.00  0.00     0.119 A 
ATOM      5  C   UNL     1      23.395  28.243 -17.663  1.00  0.00    -0.003 A 
ATOM      6  C   UNL     1      22.135  28.871 -17.870  1.00  0.00    -0.002 A 
ATOM      7  C   UNL     1      21.157  28.834 -16.849  1.00  0.00     0.121 A 
ATOM      8  C   UNL     1      21.815  29.554 -19.181  1.00  0.00     0.049 C 
ATOM      9  C   UNL     1      24.443  28.191 -18.753  1.00  0.00     0.049 C 
ENDROOT
BRANCH   7  10
ATOM     10  O   UNL     1      19.902  29.408 -17.086  1.00  0.00    -0.507 OA
ATOM     11  H   UNL     1      19.252  29.062 -17.780  1.00  0.00     0.293 HD
ENDBRANCH   7  10
BRANCH   4  12
ATOM     12  O   UNL     1      24.934  27.131 -16.095  1.00  0.00    -0.508 OA
ATOM     13  H   UNL     1      25.157  26.703 -15.208  1.00  0.00     0.293 HD
ENDBRANCH   4  12
TORSDOF 2
ENDMDL
MODEL 3
REMARK VINA RESULT:    -5.117      3.093      5.613
REMARK INTER + INTRA:          -5.416
REMARK INTER:                  -5.416
REMARK INTRA:                   0.000
REMARK UNBOUND:                 0.000
REMARK SMILES Cc1cc(O)c(C)c(C)c1O
REMARK SMILES IDX 1 1 2 2 3 3 4 4 6 5 8 6 10 7 9 8 7 9 11 10 5 12
REMARK H PARENT 11 11 5 13
REMARK Flexibility Score: inf
ROOT
ATOM      1  C   UNL     1      22.875  29.761 -18.220  1.00  0.00     0.048 C 
ATOM      2  C   UNL     1      22.471  29.472 -19.640  1.00  0.00    -0.005 A 
ATOM      3  C   UNL     1      21.729  30.426 -20.346  1.00  0.00     0.053 A 
ATOM      4  C   UNL     1      21.342  30.205 -21.667  1.00  0.00     0.119 A 
ATOM      5  C   UNL     1      21.717  29.012 -22.328  1.00  0.00    -0.003 A 
ATOM      6  C   UNL     1      22.415  28.007 -21.601  1.00  0.00    -0.002 A 
ATOM      7  C   UNL     1      22.812  28.255 -20.266  1.00  0.00     0.121 A 
ATOM      8  C   UNL     1      22.763  26.685 -22.246  1.00  0.00     0.049 C 
ATOM      9  C   UNL     1      21.339  28.821 -23.780  1.00  0.00     0.049 C 
ENDROOT
BRANCH   7  10
ATOM     10  O   UNL     1      23.545  27.279 -19.581  1.00  0.00    -0.507 OA
ATOM     11  H   UNL     1      24.228  27.494 -18.865  1.00  0.00     0.293 HD
ENDBRANCH   7  10
BRANCH   4  12
ATOM     12  O   UNL     1      20.577  31.195 -22.291  1.00  0.00    -0.508 OA
ATOM     13  H   UNL     1      19.647  31.039 -22.653  1.00  0.00     0.293 HD
ENDBRANCH   4  12
TORSDOF 2
ENDMDL
MODEL 4
REMARK VINA RESULT:    -5.096      1.162      4.320
REMARK INTER + INTRA:          -5.393
REMARK INTER:                  -5.393
REMARK INTRA:                   0.000
REMARK UNBOUND:                 0.000
REMARK SMILES Cc1cc(O)c(C)c(C)c1O
REMARK SMILES IDX 1 1 2 2 3 3 4 4 6 5 8 6 10 7 9 8 7 9 11 10 5 12
REMARK H PARENT 11 11 5 13
REMARK Flexibility Score: inf
ROOT
ATOM      1  C   UNL     1      22.579  28.995 -13.107  1.00  0.00     0.048 C 
ATOM      2  C   UNL     1      22.269  28.889 -14.576  1.00  0.00    -0.005 A 
ATOM      3  C   UNL     1      21.366  27.915 -15.015  1.00  0.00     0.053 A 
ATOM      4  C   UNL     1      21.043  27.788 -16.365  1.00  0.00     0.119 A 
ATOM      5  C   UNL     1      21.608  28.667 -17.317  1.00  0.00    -0.003 A 
ATOM      6  C   UNL     1      22.577  29.619 -16.893  1.00  0.00    -0.002 A 
ATOM      7  C   UNL     1      22.882  29.743 -15.517  1.00  0.00     0.121 A 
ATOM      8  C   UNL     1      23.266  30.522 -17.891  1.00  0.00     0.049 C 
ATOM      9  C   UNL     1      21.195  28.550 -18.768  1.00  0.00     0.049 C 
ENDROOT
BRANCH   7  10
ATOM     10  O   UNL     1      23.796  30.721 -15.107  1.00  0.00    -0.507 OA
ATOM     11  H   UNL     1      23.711  31.236 -14.240  1.00  0.00     0.293 HD
ENDBRANCH   7  10
BRANCH   4  12
ATOM     12  O   UNL     1      20.155  26.769 -16.725  1.00  0.00    -0.508 OA
ATOM     13  H   UNL     1      19.824  26.622 -17.668  1.00  0.00     0.293 HD
ENDBRANCH   4  12
TORSDOF 2
ENDMDL
MODEL 5
REMARK VINA RESULT:    -5.004     12.850     14.641
REMARK INTER + INTRA:          -5.296
REMARK INTER:                  -5.296
REMARK INTRA:                   0.000
REMARK UNBOUND:                 0.000
REMARK SMILES Cc1cc(O)c(C)c(C)c1O
REMARK SMILES IDX 1 1 2 2 3 3 4 4 6 5 8 6 10 7 9 8 7 9 11 10 5 12
REMARK H PARENT 11 11 5 13
REMARK Flexibility Score: inf
ROOT
ATOM      1  C   UNL     1      33.671  38.623 -24.626  1.00  0.00     0.048 C 
ATOM      2  C   UNL     1      32.350  38.548 -23.910  1.00  0.00    -0.005 A 
ATOM      3  C   UNL     1      32.308  38.050 -22.603  1.00  0.00     0.053 A 
ATOM      4  C   UNL     1      31.108  37.971 -21.899  1.00  0.00     0.119 A 
ATOM      5  C   UNL     1      29.905  38.421 -22.491  1.00  0.00    -0.003 A 
ATOM      6  C   UNL     1      29.923  38.868 -23.842  1.00  0.00    -0.002 A 
ATOM      7  C   UNL     1      31.153  38.955 -24.536  1.00  0.00     0.121 A 
ATOM      8  C   UNL     1      28.646  39.280 -24.539  1.00  0.00     0.049 C 
ATOM      9  C   UNL     1      28.625  38.383 -21.685  1.00  0.00     0.049 C 
ENDROOT
BRANCH   7  10
ATOM     10  O   UNL     1      31.163  39.448 -25.846  1.00  0.00    -0.507 OA
ATOM     11  H   UNL     1      31.989  39.819 -26.296  1.00  0.00     0.293 HD
ENDBRANCH   7  10
BRANCH   4  12
ATOM     12  O   UNL     1      31.149  37.434 -20.608  1.00  0.00    -0.508 OA
ATOM     13  H   UNL     1      31.975  37.434 -20.027  1.00  0.00     0.293 HD
ENDBRANCH   4  12
TORSDOF 2
ENDMDL
MODEL 6
REMARK VINA RESULT:    -5.003      3.994      6.399
REMARK INTER + INTRA:          -5.295
REMARK INTER:                  -5.295
REMARK INTRA:                   0.000
REMARK UNBOUND:                 0.000
REMARK SMILES Cc1cc(O)c(C)c(C)c1O
REMARK SMILES IDX 1 1 2 2 3 3 4 4 6 5 8 6 10 7 9 8 7 9 11 10 5 12
REMARK H PARENT 11 11 5 13
REMARK Flexibility Score: inf
ROOT
ATOM      1  C   UNL     1      20.869  28.553 -10.320  1.00  0.00     0.048 C 
ATOM      2  C   UNL     1      20.011  28.176 -11.497  1.00  0.00    -0.005 A 
ATOM      3  C   UNL     1      18.840  27.441 -11.282  1.00  0.00     0.053 A 
ATOM      4  C   UNL     1      18.011  27.079 -12.342  1.00  0.00     0.119 A 
ATOM      5  C   UNL     1      18.331  27.474 -13.662  1.00  0.00    -0.003 A 
ATOM      6  C   UNL     1      19.552  28.164 -13.902  1.00  0.00    -0.002 A 
ATOM      7  C   UNL     1      20.373  28.536 -12.812  1.00  0.00     0.121 A 
ATOM      8  C   UNL     1      19.971  28.533 -15.308  1.00  0.00     0.049 C 
ATOM      9  C   UNL     1      17.384  27.123 -14.789  1.00  0.00     0.049 C 
ENDROOT
BRANCH   7  10
ATOM     10  O   UNL     1      21.544  29.263 -13.058  1.00  0.00    -0.507 OA
ATOM     11  H   UNL     1      21.816  30.080 -12.526  1.00  0.00     0.293 HD
ENDBRANCH   7  10
BRANCH   4  12
ATOM     12  O   UNL     1      16.875  26.319 -12.046  1.00  0.00    -0.508 OA
ATOM     13  H   UNL     1      16.885  25.509 -11.442  1.00  0.00     0.293 HD
ENDBRANCH   4  12
TORSDOF 2
ENDMDL
MODEL 7
REMARK VINA RESULT:    -4.963     11.581     13.079
REMARK INTER + INTRA:          -5.253
REMARK INTER:                  -5.253
REMARK INTRA:                   0.000
REMARK UNBOUND:                 0.000
REMARK SMILES Cc1cc(O)c(C)c(C)c1O
REMARK SMILES IDX 1 1 2 2 3 3 4 4 6 5 8 6 10 7 9 8 7 9 11 10 5 12
REMARK H PARENT 11 11 5 13
REMARK Flexibility Score: inf
ROOT
ATOM      1  C   UNL     1      34.844  31.025 -13.378  1.00  0.00     0.048 C 
ATOM      2  C   UNL     1      33.999  30.786 -12.156  1.00  0.00    -0.005 A 
ATOM      3  C   UNL     1      32.966  29.844 -12.213  1.00  0.00     0.053 A 
ATOM      4  C   UNL     1      32.166  29.583 -11.102  1.00  0.00     0.119 A 
ATOM      5  C   UNL     1      32.403  30.255  -9.881  1.00  0.00    -0.003 A 
ATOM      6  C   UNL     1      33.408  31.262  -9.828  1.00  0.00    -0.002 A 
ATOM      7  C   UNL     1      34.220  31.503 -10.961  1.00  0.00     0.121 A 
ATOM      8  C   UNL     1      33.639  32.061  -8.565  1.00  0.00     0.049 C 
ATOM      9  C   UNL     1      31.562  29.911  -8.671  1.00  0.00     0.049 C 
ENDROOT
BRANCH   7  10
ATOM     10  O   UNL     1      35.240  32.457 -10.877  1.00  0.00    -0.507 OA
ATOM     11  H   UNL     1      35.693  32.862 -11.687  1.00  0.00     0.293 HD
ENDBRANCH   7  10
BRANCH   4  12
ATOM     12  O   UNL     1      31.136  28.649 -11.251  1.00  0.00    -0.508 OA
ATOM     13  H   UNL     1      30.906  27.953 -10.556  1.00  0.00     0.293 HD
ENDBRANCH   4  12
TORSDOF 2
ENDMDL
MODEL 8
REMARK VINA RESULT:    -4.938      7.455      9.546
REMARK INTER + INTRA:          -5.226
REMARK INTER:                  -5.226
REMARK INTRA:                   0.000
REMARK UNBOUND:                 0.000
REMARK SMILES Cc1cc(O)c(C)c(C)c1O
REMARK SMILES IDX 1 1 2 2 3 3 4 4 6 5 8 6 10 7 9 8 7 9 11 10 5 12
REMARK H PARENT 11 11 5 13
REMARK Flexibility Score: inf
ROOT
ATOM      1  C   UNL     1      24.334  23.377 -23.880  1.00  0.00     0.048 C 
ATOM      2  C   UNL     1      22.915  23.836 -24.081  1.00  0.00    -0.005 A 
ATOM      3  C   UNL     1      22.039  23.039 -24.827  1.00  0.00     0.053 A 
ATOM      4  C   UNL     1      20.714  23.420 -25.030  1.00  0.00     0.119 A 
ATOM      5  C   UNL     1      20.222  24.617 -24.459  1.00  0.00    -0.003 A 
ATOM      6  C   UNL     1      21.119  25.468 -23.754  1.00  0.00    -0.002 A 
ATOM      7  C   UNL     1      22.457  25.058 -23.545  1.00  0.00     0.121 A 
ATOM      8  C   UNL     1      20.654  26.795 -23.199  1.00  0.00     0.049 C 
ATOM      9  C   UNL     1      18.765  24.979 -24.641  1.00  0.00     0.049 C 
ENDROOT
BRANCH   7  10
ATOM     10  O   UNL     1      23.313  25.879 -22.803  1.00  0.00    -0.507 OA
ATOM     11  H   UNL     1      24.321  25.866 -22.899  1.00  0.00     0.293 HD
ENDBRANCH   7  10
BRANCH   4  12
ATOM     12  O   UNL     1      19.912  22.583 -25.812  1.00  0.00    -0.508 OA
ATOM     13  H   UNL     1      19.874  21.579 -25.700  1.00  0.00     0.293 HD
ENDBRANCH   4  12
TORSDOF 2
ENDMDL
MODEL 9
REMARK VINA RESULT:    -4.927      4.943      6.898
REMARK INTER + INTRA:          -5.215
REMARK INTER:                  -5.215
REMARK INTRA:                   0.000
REMARK UNBOUND:                 0.000
REMARK SMILES Cc1cc(O)c(C)c(C)c1O
REMARK SMILES IDX 1 1 2 2 3 3 4 4 6 5 8 6 10 7 9 8 7 9 11 10 5 12
REMARK H PARENT 11 11 5 13
REMARK Flexibility Score: inf
ROOT
ATOM      1  C   UNL     1      19.527  28.788 -12.983  1.00  0.00     0.048 C 
ATOM      2  C   UNL     1      20.341  28.699 -11.721  1.00  0.00    -0.005 A 
ATOM      3  C   UNL     1      19.719  28.299 -10.533  1.00  0.00     0.053 A 
ATOM      4  C   UNL     1      20.437  28.193  -9.344  1.00  0.00     0.119 A 
ATOM      5  C   UNL     1      21.825  28.467  -9.323  1.00  0.00    -0.003 A 
ATOM      6  C   UNL     1      22.456  28.936 -10.509  1.00  0.00    -0.002 A 
ATOM      7  C   UNL     1      21.714  29.023 -11.711  1.00  0.00     0.121 A 
ATOM      8  C   UNL     1      23.919  29.317 -10.510  1.00  0.00     0.049 C 
ATOM      9  C   UNL     1      22.596  28.285  -8.034  1.00  0.00     0.049 C 
ENDROOT
BRANCH   7  10
ATOM     10  O   UNL     1      22.361  29.434 -12.882  1.00  0.00    -0.507 OA
ATOM     11  H   UNL     1      23.217  29.975 -12.887  1.00  0.00     0.293 HD
ENDBRANCH   7  10
BRANCH   4  12
ATOM     12  O   UNL     1      19.734  27.817  -8.194  1.00  0.00    -0.508 OA
ATOM     13  H   UNL     1      19.496  28.457  -7.449  1.00  0.00     0.293 HD
ENDBRANCH   4  12
TORSDOF 2
ENDMDL
