MODEL 1
REMARK VINA RESULT:    -3.603      0.000      0.000
REMARK INTER + INTRA:          -4.236
REMARK INTER:                  -4.024
REMARK INTRA:                  -0.211
REMARK UNBOUND:                -0.211
REMARK SMILES CC(C)c1ccc(C(=O)[O-])cc1
REMARK SMILES IDX 7 1 6 2 11 3 5 4 12 5 4 6 8 7 9 8 10 9 2 10 1 11 3 12
REMARK H PARENT
REMARK Flexibility Score: inf
ROOT
ATOM      1  C   UNL     1    -109.446  43.695  -1.058  1.00  0.00    -0.003 A 
ATOM      2  C   UNL     1    -109.407  44.711  -2.029  1.00  0.00     0.010 A 
ATOM      3  C   UNL     1    -110.681  43.102  -0.744  1.00  0.00     0.010 A 
ATOM      4  C   UNL     1    -110.577  45.125  -2.671  1.00  0.00     0.004 A 
ATOM      5  C   UNL     1    -111.851  43.517  -1.385  1.00  0.00     0.004 A 
ATOM      6  C   UNL     1    -111.811  44.533  -2.358  1.00  0.00    -0.045 A 
ENDROOT
BRANCH   1   7
ATOM      7  C   UNL     1    -108.210  43.254  -0.376  1.00  0.00     0.071 C 
ATOM      8  O   UNL     1    -107.555  42.270  -0.810  1.00  0.00    -0.545 OA
ATOM      9  O   UNL     1    -107.753  43.922   0.755  1.00  0.00    -0.545 OA
ENDBRANCH   1   7
BRANCH   6  10
ATOM     10  C   UNL     1    -113.075  44.992  -3.063  1.00  0.00     0.013 C 
ATOM     11  C   UNL     1    -112.848  45.121  -4.573  1.00  0.00     0.012 C 
ATOM     12  C   UNL     1    -114.250  44.056  -2.758  1.00  0.00     0.012 C 
ENDBRANCH   6  10
TORSDOF 2
ENDMDL
MODEL 2
REMARK VINA RESULT:    -3.562      0.256      1.420
REMARK INTER + INTRA:          -4.190
REMARK INTER:                  -3.977
REMARK INTRA:                  -0.213
REMARK UNBOUND:                -0.211
REMARK SMILES CC(C)c1ccc(C(=O)[O-])cc1
REMARK SMILES IDX 7 1 6 2 11 3 5 4 12 5 4 6 8 7 9 8 10 9 2 10 1 11 3 12
REMARK H PARENT
REMARK Flexibility Score: inf
ROOT
ATOM      1  C   UNL     1    -109.648  43.772  -1.121  1.00  0.00    -0.003 A 
ATOM      2  C   UNL     1    -110.889  43.226  -0.747  1.00  0.00     0.010 A 
ATOM      3  C   UNL     1    -109.607  44.726  -2.151  1.00  0.00     0.010 A 
ATOM      4  C   UNL     1    -112.063  43.626  -1.390  1.00  0.00     0.004 A 
ATOM      5  C   UNL     1    -110.781  45.125  -2.796  1.00  0.00     0.004 A 
ATOM      6  C   UNL     1    -112.023  44.579  -2.421  1.00  0.00    -0.045 A 
ENDROOT
BRANCH   1   7
ATOM      7  C   UNL     1    -108.403  43.351  -0.441  1.00  0.00     0.071 C 
ATOM      8  O   UNL     1    -107.867  42.244  -0.714  1.00  0.00    -0.545 OA
ATOM      9  O   UNL     1    -107.806  44.174   0.507  1.00  0.00    -0.545 OA
ENDBRANCH   1   7
BRANCH   6  10
ATOM     10  C   UNL     1    -113.306  45.005  -3.113  1.00  0.00     0.013 C 
ATOM     11  C   UNL     1    -113.104  45.122  -4.627  1.00  0.00     0.012 C 
ATOM     12  C   UNL     1    -114.457  44.047  -2.782  1.00  0.00     0.012 C 
ENDBRANCH   6  10
TORSDOF 2
ENDMDL
MODEL 3
REMARK VINA RESULT:    -3.391     12.665     14.250
REMARK INTER + INTRA:          -3.999
REMARK INTER:                  -3.785
REMARK INTRA:                  -0.214
REMARK UNBOUND:                -0.211
REMARK SMILES CC(C)c1ccc(C(=O)[O-])cc1
REMARK SMILES IDX 7 1 6 2 11 3 5 4 12 5 4 6 8 7 9 8 10 9 2 10 1 11 3 12
REMARK H PARENT
REMARK Flexibility Score: inf
ROOT
ATOM      1  C   UNL     1    -104.916  33.112   3.366  1.00  0.00    -0.003 A 
ATOM      2  C   UNL     1    -104.569  31.869   3.924  1.00  0.00     0.010 A 
ATOM      3  C   UNL     1    -106.254  33.349   3.013  1.00  0.00     0.010 A 
ATOM      4  C   UNL     1    -105.541  30.885   4.125  1.00  0.00     0.004 A 
ATOM      5  C   UNL     1    -107.226  32.366   3.213  1.00  0.00     0.004 A 
ATOM      6  C   UNL     1    -106.880  31.122   3.772  1.00  0.00    -0.045 A 
ENDROOT
BRANCH   1   7
ATOM      7  C   UNL     1    -103.889  34.156   3.152  1.00  0.00     0.071 C 
ATOM      8  O   UNL     1    -103.239  34.624   4.124  1.00  0.00    -0.545 OA
ATOM      9  O   UNL     1    -103.628  34.635   1.874  1.00  0.00    -0.545 OA
ENDBRANCH   1   7
BRANCH   6  10
ATOM     10  C   UNL     1    -107.926  30.044   3.995  1.00  0.00     0.013 C 
ATOM     11  C   UNL     1    -108.996  30.079   2.898  1.00  0.00     0.012 C 
ATOM     12  C   UNL     1    -107.280  28.658   4.092  1.00  0.00     0.012 C 
ENDBRANCH   6  10
TORSDOF 2
ENDMDL
MODEL 4
REMARK VINA RESULT:    -3.375     12.525     13.855
REMARK INTER + INTRA:          -3.981
REMARK INTER:                  -3.767
REMARK INTRA:                  -0.215
REMARK UNBOUND:                -0.211
REMARK SMILES CC(C)c1ccc(C(=O)[O-])cc1
REMARK SMILES IDX 7 1 6 2 11 3 5 4 12 5 4 6 8 7 9 8 10 9 2 10 1 11 3 12
REMARK H PARENT
REMARK Flexibility Score: inf
ROOT
ATOM      1  C   UNL     1    -115.697  35.057  -9.178  1.00  0.00    -0.003 A 
ATOM      2  C   UNL     1    -115.394  33.886  -9.895  1.00  0.00     0.010 A 
ATOM      3  C   UNL     1    -115.997  36.231  -9.889  1.00  0.00     0.010 A 
ATOM      4  C   UNL     1    -115.391  33.890 -11.292  1.00  0.00     0.004 A 
ATOM      5  C   UNL     1    -115.994  36.236 -11.286  1.00  0.00     0.004 A 
ATOM      6  C   UNL     1    -115.691  35.064 -12.004  1.00  0.00    -0.045 A 
ENDROOT
BRANCH   1   7
ATOM      7  C   UNL     1    -115.701  35.057  -7.699  1.00  0.00     0.071 C 
ATOM      8  O   UNL     1    -114.692  34.665  -7.055  1.00  0.00    -0.545 OA
ATOM      9  O   UNL     1    -116.820  35.492  -6.998  1.00  0.00    -0.545 OA
ENDBRANCH   1   7
BRANCH   6  10
ATOM     10  C   UNL     1    -115.684  35.054 -13.522  1.00  0.00     0.013 C 
ATOM     11  C   UNL     1    -114.967  36.289 -14.078  1.00  0.00     0.012 C 
ATOM     12  C   UNL     1    -115.061  33.763 -14.065  1.00  0.00     0.012 C 
ENDBRANCH   6  10
TORSDOF 2
ENDMDL
MODEL 5
REMARK VINA RESULT:    -3.371     12.529     13.826
REMARK INTER + INTRA:          -3.976
REMARK INTER:                  -3.762
REMARK INTRA:                  -0.214
REMARK UNBOUND:                -0.211
REMARK SMILES CC(C)c1ccc(C(=O)[O-])cc1
REMARK SMILES IDX 7 1 6 2 11 3 5 4 12 5 4 6 8 7 9 8 10 9 2 10 1 11 3 12
REMARK H PARENT
REMARK Flexibility Score: inf
ROOT
ATOM      1  C   UNL     1    -115.710  35.060  -9.195  1.00  0.00    -0.003 A 
ATOM      2  C   UNL     1    -116.007  36.239  -9.901  1.00  0.00     0.010 A 
ATOM      3  C   UNL     1    -115.406  33.893  -9.916  1.00  0.00     0.010 A 
ATOM      4  C   UNL     1    -116.000  36.250 -11.298  1.00  0.00     0.004 A 
ATOM      5  C   UNL     1    -115.399  33.904 -11.313  1.00  0.00     0.004 A 
ATOM      6  C   UNL     1    -115.696  35.084 -12.020  1.00  0.00    -0.045 A 
ENDROOT
BRANCH   1   7
ATOM      7  C   UNL     1    -115.716  35.044  -7.715  1.00  0.00     0.071 C 
ATOM      8  O   UNL     1    -114.702  34.660  -7.074  1.00  0.00    -0.545 OA
ATOM      9  O   UNL     1    -116.842  35.455  -7.012  1.00  0.00    -0.545 OA
ENDBRANCH   1   7
BRANCH   6  10
ATOM     10  C   UNL     1    -115.692  35.109 -13.538  1.00  0.00     0.013 C 
ATOM     11  C   UNL     1    -114.913  36.318 -14.068  1.00  0.00     0.012 C 
ATOM     12  C   UNL     1    -115.138  33.801 -14.112  1.00  0.00     0.012 C 
ENDBRANCH   6  10
TORSDOF 2
ENDMDL
MODEL 6
REMARK VINA RESULT:    -3.359     13.049     14.568
REMARK INTER + INTRA:          -3.963
REMARK INTER:                  -3.753
REMARK INTRA:                  -0.210
REMARK UNBOUND:                -0.211
REMARK SMILES CC(C)c1ccc(C(=O)[O-])cc1
REMARK SMILES IDX 7 1 6 2 11 3 5 4 12 5 4 6 8 7 9 8 10 9 2 10 1 11 3 12
REMARK H PARENT
REMARK Flexibility Score: inf
ROOT
ATOM      1  C   UNL     1    -115.580  34.922 -12.501  1.00  0.00    -0.003 A 
ATOM      2  C   UNL     1    -115.414  33.791 -11.683  1.00  0.00     0.010 A 
ATOM      3  C   UNL     1    -115.877  36.158 -11.902  1.00  0.00     0.010 A 
ATOM      4  C   UNL     1    -115.544  33.894 -10.295  1.00  0.00     0.004 A 
ATOM      5  C   UNL     1    -116.008  36.260 -10.514  1.00  0.00     0.004 A 
ATOM      6  C   UNL     1    -115.842  35.128  -9.695  1.00  0.00    -0.045 A 
ENDROOT
BRANCH   1   7
ATOM      7  C   UNL     1    -115.443  34.818 -13.971  1.00  0.00     0.071 C 
ATOM      8  O   UNL     1    -116.462  34.825 -14.711  1.00  0.00    -0.545 OA
ATOM      9  O   UNL     1    -114.186  34.712 -14.555  1.00  0.00    -0.545 OA
ENDBRANCH   1   7
BRANCH   6  10
ATOM     10  C   UNL     1    -115.981  35.226  -8.187  1.00  0.00     0.013 C 
ATOM     11  C   UNL     1    -114.752  34.641  -7.480  1.00  0.00     0.012 C 
ATOM     12  C   UNL     1    -116.234  36.672  -7.747  1.00  0.00     0.012 C 
ENDBRANCH   6  10
TORSDOF 2
ENDMDL
MODEL 7
REMARK VINA RESULT:    -3.255     13.249     14.871
REMARK INTER + INTRA:          -3.847
REMARK INTER:                  -3.628
REMARK INTRA:                  -0.219
REMARK UNBOUND:                -0.211
REMARK SMILES CC(C)c1ccc(C(=O)[O-])cc1
REMARK SMILES IDX 7 1 6 2 11 3 5 4 12 5 4 6 8 7 9 8 10 9 2 10 1 11 3 12
REMARK H PARENT
REMARK Flexibility Score: inf
ROOT
ATOM      1  C   UNL     1    -110.738  37.152 -15.218  1.00  0.00    -0.003 A 
ATOM      2  C   UNL     1    -111.421  37.896 -14.239  1.00  0.00     0.010 A 
ATOM      3  C   UNL     1    -109.703  37.768 -15.941  1.00  0.00     0.010 A 
ATOM      4  C   UNL     1    -111.075  39.226 -13.990  1.00  0.00     0.004 A 
ATOM      5  C   UNL     1    -109.357  39.099 -15.692  1.00  0.00     0.004 A 
ATOM      6  C   UNL     1    -110.040  39.843 -14.712  1.00  0.00    -0.045 A 
ENDROOT
BRANCH   1   7
ATOM      7  C   UNL     1    -111.101  35.743 -15.485  1.00  0.00     0.071 C 
ATOM      8  O   UNL     1    -112.273  35.333 -15.275  1.00  0.00    -0.545 OA
ATOM      9  O   UNL     1    -110.153  34.852 -15.974  1.00  0.00    -0.545 OA
ENDBRANCH   1   7
BRANCH   6  10
ATOM     10  C   UNL     1    -109.675  41.289 -14.431  1.00  0.00     0.013 C 
ATOM     11  C   UNL     1    -109.288  42.021 -15.721  1.00  0.00     0.012 C 
ATOM     12  C   UNL     1    -110.811  42.016 -13.704  1.00  0.00     0.012 C 
ENDBRANCH   6  10
TORSDOF 2
ENDMDL
MODEL 8
REMARK VINA RESULT:    -3.175     12.523     13.714
REMARK INTER + INTRA:          -3.757
REMARK INTER:                  -3.545
REMARK INTRA:                  -0.212
REMARK UNBOUND:                -0.211
REMARK SMILES CC(C)c1ccc(C(=O)[O-])cc1
REMARK SMILES IDX 7 1 6 2 11 3 5 4 12 5 4 6 8 7 9 8 10 9 2 10 1 11 3 12
REMARK H PARENT
REMARK Flexibility Score: inf
ROOT
ATOM      1  C   UNL     1    -109.016  39.986 -14.719  1.00  0.00    -0.003 A 
ATOM      2  C   UNL     1    -109.587  38.943 -15.469  1.00  0.00     0.010 A 
ATOM      3  C   UNL     1    -109.670  40.424 -13.555  1.00  0.00     0.010 A 
ATOM      4  C   UNL     1    -110.786  38.352 -15.064  1.00  0.00     0.004 A 
ATOM      5  C   UNL     1    -110.870  39.833 -13.151  1.00  0.00     0.004 A 
ATOM      6  C   UNL     1    -111.442  38.789 -13.901  1.00  0.00    -0.045 A 
ENDROOT
BRANCH   1   7
ATOM      7  C   UNL     1    -107.746  40.614 -15.144  1.00  0.00     0.071 C 
ATOM      8  O   UNL     1    -106.647  40.225 -14.667  1.00  0.00    -0.545 OA
ATOM      9  O   UNL     1    -107.748  41.644 -16.078  1.00  0.00    -0.545 OA
ENDBRANCH   1   7
BRANCH   6  10
ATOM     10  C   UNL     1    -112.745  38.139 -13.473  1.00  0.00     0.013 C 
ATOM     11  C   UNL     1    -113.569  39.083 -12.592  1.00  0.00     0.012 C 
ATOM     12  C   UNL     1    -113.554  37.669 -14.687  1.00  0.00     0.012 C 
ENDBRANCH   6  10
TORSDOF 2
ENDMDL
MODEL 9
REMARK VINA RESULT:    -3.106     13.059     14.188
REMARK INTER + INTRA:          -3.680
REMARK INTER:                  -3.468
REMARK INTRA:                  -0.212
REMARK UNBOUND:                -0.211
REMARK SMILES CC(C)c1ccc(C(=O)[O-])cc1
REMARK SMILES IDX 7 1 6 2 11 3 5 4 12 5 4 6 8 7 9 8 10 9 2 10 1 11 3 12
REMARK H PARENT
REMARK Flexibility Score: inf
ROOT
ATOM      1  C   UNL     1    -108.868  39.868 -14.953  1.00  0.00    -0.003 A 
ATOM      2  C   UNL     1    -109.731  40.246 -13.909  1.00  0.00     0.010 A 
ATOM      3  C   UNL     1    -109.202  38.755 -15.742  1.00  0.00     0.010 A 
ATOM      4  C   UNL     1    -110.902  39.527 -13.661  1.00  0.00     0.004 A 
ATOM      5  C   UNL     1    -110.373  38.035 -15.494  1.00  0.00     0.004 A 
ATOM      6  C   UNL     1    -111.238  38.414 -14.450  1.00  0.00    -0.045 A 
ENDROOT
BRANCH   1   7
ATOM      7  C   UNL     1    -107.626  40.627 -15.218  1.00  0.00     0.071 C 
ATOM      8  O   UNL     1    -106.554  40.329 -14.628  1.00  0.00    -0.545 OA
ATOM      9  O   UNL     1    -107.625  41.681 -16.125  1.00  0.00    -0.545 OA
ENDBRANCH   1   7
BRANCH   6  10
ATOM     10  C   UNL     1    -112.514  37.641 -14.170  1.00  0.00     0.013 C 
ATOM     11  C   UNL     1    -113.655  38.584 -13.776  1.00  0.00     0.012 C 
ATOM     12  C   UNL     1    -112.906  36.768 -15.367  1.00  0.00     0.012 C 
ENDBRANCH   6  10
TORSDOF 2
ENDMDL
