MODEL 1
REMARK VINA RESULT:    -3.268      0.000      0.000
REMARK INTER + INTRA:          -5.894
REMARK INTER:                  -4.988
REMARK INTRA:                  -0.907
REMARK UNBOUND:                -0.907
REMARK SMILES O=C([O-])CCCCCCCCC(=O)[O-]
REMARK SMILES IDX 7 1 6 2 5 3 4 4 2 5 1 6 3 7 8 8 9 9 10 10 11 11 12 12 13 13
REMARK SMILES IDX 14 14
REMARK H PARENT
REMARK Flexibility Score: inf
ROOT
ATOM      1  C   UNL     1       4.879 106.224 180.342  1.00  0.00     0.000 C 
ENDROOT
BRANCH   1   2
ATOM      2  C   UNL     1       4.026 106.577 181.570  1.00  0.00     0.000 C 
BRANCH   2   3
ATOM      3  C   UNL     1       4.086 108.074 181.920  1.00  0.00     0.006 C 
BRANCH   3   4
ATOM      4  C   UNL     1       2.716 108.754 181.790  1.00  0.00     0.053 C 
BRANCH   4   5
ATOM      5  C   UNL     1       2.259 109.335 183.093  1.00  0.00     0.041 C 
ATOM      6  O   UNL     1       1.562 108.646 183.883  1.00  0.00    -0.550 OA
ATOM      7  O   UNL     1       2.573 110.648 183.419  1.00  0.00    -0.550 OA
ENDBRANCH   4   5
ENDBRANCH   3   4
ENDBRANCH   2   3
ENDBRANCH   1   2
BRANCH   1   8
ATOM      8  C   UNL     1       4.115 105.365 179.319  1.00  0.00     0.000 C 
BRANCH   8   9
ATOM      9  C   UNL     1       2.667 105.084 179.749  1.00  0.00     0.000 C 
BRANCH   9  10
ATOM     10  C   UNL     1       1.636 105.609 178.735  1.00  0.00     0.006 C 
BRANCH  10  11
ATOM     11  C   UNL     1       0.889 106.844 179.254  1.00  0.00     0.053 C 
BRANCH  11  12
ATOM     12  C   UNL     1       1.240 108.073 178.473  1.00  0.00     0.041 C 
ATOM     13  O   UNL     1       0.331 108.796 177.988  1.00  0.00    -0.550 OA
ATOM     14  O   UNL     1       2.572 108.401 178.253  1.00  0.00    -0.550 OA
ENDBRANCH  11  12
ENDBRANCH  10  11
ENDBRANCH   9  10
ENDBRANCH   8   9
ENDBRANCH   1   8
TORSDOF 9
ENDMDL
MODEL 2
REMARK VINA RESULT:    -3.142      3.299      4.959
REMARK INTER + INTRA:          -5.701
REMARK INTER:                  -5.149
REMARK INTRA:                  -0.552
REMARK UNBOUND:                -0.907
REMARK SMILES O=C([O-])CCCCCCCCC(=O)[O-]
REMARK SMILES IDX 7 1 6 2 5 3 4 4 2 5 1 6 3 7 8 8 9 9 10 10 11 11 12 12 13 13
REMARK SMILES IDX 14 14
REMARK H PARENT
REMARK Flexibility Score: inf
ROOT
ATOM      1  C   UNL     1       3.952 110.710 182.550  1.00  0.00     0.000 C 
ENDROOT
BRANCH   1   2
ATOM      2  C   UNL     1       5.100 110.885 183.557  1.00  0.00     0.000 C 
BRANCH   2   3
ATOM      3  C   UNL     1       5.428 112.364 183.827  1.00  0.00     0.006 C 
BRANCH   3   4
ATOM      4  C   UNL     1       4.701 112.901 185.068  1.00  0.00     0.053 C 
BRANCH   4   5
ATOM      5  C   UNL     1       3.643 113.897 184.704  1.00  0.00     0.041 C 
ATOM      6  O   UNL     1       2.426 113.588 184.796  1.00  0.00    -0.550 OA
ATOM      7  O   UNL     1       4.001 115.153 184.231  1.00  0.00    -0.550 OA
ENDBRANCH   4   5
ENDBRANCH   3   4
ENDBRANCH   2   3
ENDBRANCH   1   2
BRANCH   1   8
ATOM      8  C   UNL     1       2.626 110.324 183.228  1.00  0.00     0.000 C 
BRANCH   8   9
ATOM      9  C   UNL     1       2.280 108.837 183.044  1.00  0.00     0.000 C 
BRANCH   9  10
ATOM     10  C   UNL     1       2.969 108.219 181.815  1.00  0.00     0.006 C 
BRANCH  10  11
ATOM     11  C   UNL     1       3.836 107.008 182.185  1.00  0.00     0.053 C 
BRANCH  11  12
ATOM     12  C   UNL     1       4.088 106.124 181.002  1.00  0.00     0.041 C 
ATOM     13  O   UNL     1       3.135 105.504 180.462  1.00  0.00    -0.550 OA
ATOM     14  O   UNL     1       5.379 105.959 180.519  1.00  0.00    -0.550 OA
ENDBRANCH  11  12
ENDBRANCH  10  11
ENDBRANCH   9  10
ENDBRANCH   8   9
ENDBRANCH   1   8
TORSDOF 9
ENDMDL
MODEL 3
REMARK VINA RESULT:    -3.131      3.088      4.939
REMARK INTER + INTRA:          -5.685
REMARK INTER:                  -4.889
REMARK INTRA:                  -0.796
REMARK UNBOUND:                -0.907
REMARK SMILES O=C([O-])CCCCCCCCC(=O)[O-]
REMARK SMILES IDX 7 1 6 2 5 3 4 4 2 5 1 6 3 7 8 8 9 9 10 10 11 11 12 12 13 13
REMARK SMILES IDX 14 14
REMARK H PARENT
REMARK Flexibility Score: inf
ROOT
ATOM      1  C   UNL     1       6.204 110.933 183.500  1.00  0.00     0.000 C 
ENDROOT
BRANCH   1   2
ATOM      2  C   UNL     1       4.781 111.506 183.591  1.00  0.00     0.000 C 
BRANCH   2   3
ATOM      3  C   UNL     1       3.770 110.716 182.742  1.00  0.00     0.006 C 
BRANCH   3   4
ATOM      4  C   UNL     1       2.450 110.475 183.487  1.00  0.00     0.053 C 
BRANCH   4   5
ATOM      5  C   UNL     1       1.874 109.128 183.175  1.00  0.00     0.041 C 
ATOM      6  O   UNL     1       1.278 108.472 184.070  1.00  0.00    -0.550 OA
ATOM      7  O   UNL     1       2.026 108.582 181.907  1.00  0.00    -0.550 OA
ENDBRANCH   4   5
ENDBRANCH   3   4
ENDBRANCH   2   3
ENDBRANCH   1   2
BRANCH   1   8
ATOM      8  C   UNL     1       6.511 109.931 184.626  1.00  0.00     0.000 C 
BRANCH   8   9
ATOM      9  C   UNL     1       6.780 108.513 184.098  1.00  0.00     0.000 C 
BRANCH   9  10
ATOM     10  C   UNL     1       5.485 107.726 183.833  1.00  0.00     0.006 C 
BRANCH  10  11
ATOM     11  C   UNL     1       5.693 106.590 182.823  1.00  0.00     0.053 C 
BRANCH  11  12
ATOM     12  C   UNL     1       5.044 106.892 181.507  1.00  0.00     0.041 C 
ATOM     13  O   UNL     1       5.262 107.990 180.931  1.00  0.00    -0.550 OA
ATOM     14  O   UNL     1       4.172 105.975 180.934  1.00  0.00    -0.550 OA
ENDBRANCH  11  12
ENDBRANCH  10  11
ENDBRANCH   9  10
ENDBRANCH   8   9
ENDBRANCH   1   8
TORSDOF 9
ENDMDL
MODEL 4
REMARK VINA RESULT:    -3.113      2.027      5.224
REMARK INTER + INTRA:          -5.657
REMARK INTER:                  -4.925
REMARK INTRA:                  -0.732
REMARK UNBOUND:                -0.907
REMARK SMILES O=C([O-])CCCCCCCCC(=O)[O-]
REMARK SMILES IDX 7 1 6 2 5 3 4 4 2 5 1 6 3 7 8 8 9 9 10 10 11 11 12 12 13 13
REMARK SMILES IDX 14 14
REMARK H PARENT
REMARK Flexibility Score: inf
ROOT
ATOM      1  C   UNL     1       5.348 107.449 180.874  1.00  0.00     0.000 C 
ENDROOT
BRANCH   1   2
ATOM      2  C   UNL     1       4.398 106.845 179.827  1.00  0.00     0.000 C 
BRANCH   2   3
ATOM      3  C   UNL     1       3.609 105.641 180.371  1.00  0.00     0.006 C 
BRANCH   3   4
ATOM      4  C   UNL     1       2.369 105.330 179.520  1.00  0.00     0.053 C 
BRANCH   4   5
ATOM      5  C   UNL     1       2.730 104.612 178.256  1.00  0.00     0.041 C 
ATOM      6  O   UNL     1       3.764 103.894 178.209  1.00  0.00    -0.550 OA
ATOM      7  O   UNL     1       1.944 104.762 177.121  1.00  0.00    -0.550 OA
ENDBRANCH   4   5
ENDBRANCH   3   4
ENDBRANCH   2   3
ENDBRANCH   1   2
BRANCH   1   8
ATOM      8  C   UNL     1       5.113 106.878 182.283  1.00  0.00     0.000 C 
BRANCH   8   9
ATOM      9  C   UNL     1       4.699 107.957 183.295  1.00  0.00     0.000 C 
BRANCH   9  10
ATOM     10  C   UNL     1       4.609 109.357 182.663  1.00  0.00     0.006 C 
BRANCH  10  11
ATOM     11  C   UNL     1       3.264 110.038 182.950  1.00  0.00     0.053 C 
BRANCH  11  12
ATOM     12  C   UNL     1       2.116 109.092 182.777  1.00  0.00     0.041 C 
ATOM     13  O   UNL     1       1.404 108.774 183.765  1.00  0.00    -0.550 OA
ATOM     14  O   UNL     1       1.854 108.535 181.531  1.00  0.00    -0.550 OA
ENDBRANCH  11  12
ENDBRANCH  10  11
ENDBRANCH   9  10
ENDBRANCH   8   9
ENDBRANCH   1   8
TORSDOF 9
ENDMDL
MODEL 5
REMARK VINA RESULT:    -3.108      1.754      2.171
REMARK INTER + INTRA:          -5.649
REMARK INTER:                  -4.948
REMARK INTRA:                  -0.702
REMARK UNBOUND:                -0.907
REMARK SMILES O=C([O-])CCCCCCCCC(=O)[O-]
REMARK SMILES IDX 7 1 6 2 5 3 4 4 2 5 1 6 3 7 8 8 9 9 10 10 11 11 12 12 13 13
REMARK SMILES IDX 14 14
REMARK H PARENT
REMARK Flexibility Score: inf
ROOT
ATOM      1  C   UNL     1       4.643 105.686 179.230  1.00  0.00     0.000 C 
ENDROOT
BRANCH   1   2
ATOM      2  C   UNL     1       4.414 105.996 180.717  1.00  0.00     0.000 C 
BRANCH   2   3
ATOM      3  C   UNL     1       5.609 106.720 181.361  1.00  0.00     0.006 C 
BRANCH   3   4
ATOM      4  C   UNL     1       5.550 106.685 182.895  1.00  0.00     0.053 C 
BRANCH   4   5
ATOM      5  C   UNL     1       5.078 107.988 183.463  1.00  0.00     0.041 C 
ATOM      6  O   UNL     1       3.873 108.333 183.336  1.00  0.00    -0.550 OA
ATOM      7  O   UNL     1       5.973 108.836 184.100  1.00  0.00    -0.550 OA
ENDBRANCH   4   5
ENDBRANCH   3   4
ENDBRANCH   2   3
ENDBRANCH   1   2
BRANCH   1   8
ATOM      8  C   UNL     1       3.589 104.722 178.659  1.00  0.00     0.000 C 
BRANCH   8   9
ATOM      9  C   UNL     1       2.184 104.981 179.223  1.00  0.00     0.000 C 
BRANCH   9  10
ATOM     10  C   UNL     1       1.335 105.879 178.306  1.00  0.00     0.006 C 
BRANCH  10  11
ATOM     11  C   UNL     1       0.611 106.985 179.085  1.00  0.00     0.053 C 
BRANCH  11  12
ATOM     12  C   UNL     1       1.572 107.987 179.647  1.00  0.00     0.041 C 
ATOM     13  O   UNL     1       1.576 108.236 180.881  1.00  0.00    -0.550 OA
ATOM     14  O   UNL     1       2.439 108.669 178.804  1.00  0.00    -0.550 OA
ENDBRANCH  11  12
ENDBRANCH  10  11
ENDBRANCH   9  10
ENDBRANCH   8   9
ENDBRANCH   1   8
TORSDOF 9
ENDMDL
MODEL 6
REMARK VINA RESULT:    -3.023      1.058      4.246
REMARK INTER + INTRA:          -5.520
REMARK INTER:                  -4.615
REMARK INTRA:                  -0.905
REMARK UNBOUND:                -0.907
REMARK SMILES O=C([O-])CCCCCCCCC(=O)[O-]
REMARK SMILES IDX 7 1 6 2 5 3 4 4 2 5 1 6 3 7 8 8 9 9 10 10 11 11 12 12 13 13
REMARK SMILES IDX 14 14
REMARK H PARENT
REMARK Flexibility Score: inf
ROOT
ATOM      1  C   UNL     1       4.028 104.955 178.451  1.00  0.00     0.000 C 
ENDROOT
BRANCH   1   2
ATOM      2  C   UNL     1       2.508 104.759 178.558  1.00  0.00     0.000 C 
BRANCH   2   3
ATOM      3  C   UNL     1       1.729 105.612 177.542  1.00  0.00     0.006 C 
BRANCH   3   4
ATOM      4  C   UNL     1       0.603 106.417 178.205  1.00  0.00     0.053 C 
BRANCH   4   5
ATOM      5  C   UNL     1       1.120 107.660 178.862  1.00  0.00     0.041 C 
ATOM      6  O   UNL     1       0.600 108.073 179.933  1.00  0.00    -0.550 OA
ATOM      7  O   UNL     1       2.152 108.380 178.276  1.00  0.00    -0.550 OA
ENDBRANCH   4   5
ENDBRANCH   3   4
ENDBRANCH   2   3
ENDBRANCH   1   2
BRANCH   1   8
ATOM      8  C   UNL     1       4.606 105.751 179.634  1.00  0.00     0.000 C 
BRANCH   8   9
ATOM      9  C   UNL     1       3.591 105.934 180.774  1.00  0.00     0.000 C 
BRANCH   9  10
ATOM     10  C   UNL     1       4.062 106.952 181.827  1.00  0.00     0.006 C 
BRANCH  10  11
ATOM     11  C   UNL     1       3.856 108.401 181.366  1.00  0.00     0.053 C 
BRANCH  11  12
ATOM     12  C   UNL     1       3.065 109.192 182.363  1.00  0.00     0.041 C 
ATOM     13  O   UNL     1       2.059 108.680 182.922  1.00  0.00    -0.550 OA
ATOM     14  O   UNL     1       3.418 110.504 182.648  1.00  0.00    -0.550 OA
ENDBRANCH  11  12
ENDBRANCH  10  11
ENDBRANCH   9  10
ENDBRANCH   8   9
ENDBRANCH   1   8
TORSDOF 9
ENDMDL
MODEL 7
REMARK VINA RESULT:    -3.014      2.053      3.028
REMARK INTER + INTRA:          -5.506
REMARK INTER:                  -4.477
REMARK INTRA:                  -1.029
REMARK UNBOUND:                -0.907
REMARK SMILES O=C([O-])CCCCCCCCC(=O)[O-]
REMARK SMILES IDX 7 1 6 2 5 3 4 4 2 5 1 6 3 7 8 8 9 9 10 10 11 11 12 12 13 13
REMARK SMILES IDX 14 14
REMARK H PARENT
REMARK Flexibility Score: inf
ROOT
ATOM      1  C   UNL     1       2.389 108.372 179.238  1.00  0.00     0.000 C 
ENDROOT
BRANCH   1   2
ATOM      2  C   UNL     1       3.678 107.935 179.952  1.00  0.00     0.000 C 
BRANCH   2   3
ATOM      3  C   UNL     1       3.454 106.746 180.901  1.00  0.00     0.006 C 
BRANCH   3   4
ATOM      4  C   UNL     1       4.118 106.962 182.268  1.00  0.00     0.053 C 
BRANCH   4   5
ATOM      5  C   UNL     1       3.645 108.226 182.921  1.00  0.00     0.041 C 
ATOM      6  O   UNL     1       2.429 108.368 183.216  1.00  0.00    -0.550 OA
ATOM      7  O   UNL     1       4.540 109.258 183.170  1.00  0.00    -0.550 OA
ENDBRANCH   4   5
ENDBRANCH   3   4
ENDBRANCH   2   3
ENDBRANCH   1   2
BRANCH   1   8
ATOM      8  C   UNL     1       1.130 107.733 179.849  1.00  0.00     0.000 C 
BRANCH   8   9
ATOM      9  C   UNL     1       0.317 106.931 178.821  1.00  0.00     0.000 C 
BRANCH   9  10
ATOM     10  C   UNL     1       1.189 106.375 177.682  1.00  0.00     0.006 C 
BRANCH  10  11
ATOM     11  C   UNL     1       1.728 104.973 177.995  1.00  0.00     0.053 C 
BRANCH  11  12
ATOM     12  C   UNL     1       3.200 104.874 177.737  1.00  0.00     0.041 C 
ATOM     13  O   UNL     1       3.858 103.901 178.188  1.00  0.00    -0.550 OA
ATOM     14  O   UNL     1       3.850 105.875 177.026  1.00  0.00    -0.550 OA
ENDBRANCH  11  12
ENDBRANCH  10  11
ENDBRANCH   9  10
ENDBRANCH   8   9
ENDBRANCH   1   8
TORSDOF 9
ENDMDL
MODEL 8
REMARK VINA RESULT:    -2.989      1.393      1.704
REMARK INTER + INTRA:          -5.469
REMARK INTER:                  -4.764
REMARK INTRA:                  -0.704
REMARK UNBOUND:                -0.907
REMARK SMILES O=C([O-])CCCCCCCCC(=O)[O-]
REMARK SMILES IDX 7 1 6 2 5 3 4 4 2 5 1 6 3 7 8 8 9 9 10 10 11 11 12 12 13 13
REMARK SMILES IDX 14 14
REMARK H PARENT
REMARK Flexibility Score: inf
ROOT
ATOM      1  C   UNL     1       4.124 105.590 179.277  1.00  0.00     0.000 C 
ENDROOT
BRANCH   1   2
ATOM      2  C   UNL     1       3.201 105.817 180.485  1.00  0.00     0.000 C 
BRANCH   2   3
ATOM      3  C   UNL     1       3.598 107.054 181.308  1.00  0.00     0.006 C 
BRANCH   3   4
ATOM      4  C   UNL     1       2.579 108.194 181.168  1.00  0.00     0.053 C 
BRANCH   4   5
ATOM      5  C   UNL     1       2.516 109.037 182.404  1.00  0.00     0.041 C 
ATOM      6  O   UNL     1       1.587 108.868 183.238  1.00  0.00    -0.550 OA
ATOM      7  O   UNL     1       3.461 110.032 182.620  1.00  0.00    -0.550 OA
ENDBRANCH   4   5
ENDBRANCH   3   4
ENDBRANCH   2   3
ENDBRANCH   1   2
BRANCH   1   8
ATOM      8  C   UNL     1       3.661 104.420 178.392  1.00  0.00     0.000 C 
BRANCH   8   9
ATOM      9  C   UNL     1       2.918 104.890 177.132  1.00  0.00     0.000 C 
BRANCH   9  10
ATOM     10  C   UNL     1       1.389 104.810 177.284  1.00  0.00     0.006 C 
BRANCH  10  11
ATOM     11  C   UNL     1       0.696 106.116 176.873  1.00  0.00     0.053 C 
BRANCH  11  12
ATOM     12  C   UNL     1       0.725 107.129 177.976  1.00  0.00     0.041 C 
ATOM     13  O   UNL     1       1.470 108.140 177.886  1.00  0.00    -0.550 OA
ATOM     14  O   UNL     1      -0.043 106.939 179.117  1.00  0.00    -0.550 OA
ENDBRANCH  11  12
ENDBRANCH  10  11
ENDBRANCH   9  10
ENDBRANCH   8   9
ENDBRANCH   1   8
TORSDOF 9
ENDMDL
