MODEL 1
REMARK VINA RESULT:    -6.040      0.000      0.000
REMARK INTER + INTRA:         -13.219
REMARK INTER:                 -10.984
REMARK INTRA:                  -2.235
REMARK UNBOUND:                -2.235
REMARK SMILES CCCCCC=CCC=CCCCCCCCC(=O)[O-]
REMARK SMILES IDX 11 1 12 2 13 3 14 4 15 5 16 6 17 7 18 8 19 9 20 10 10 11
REMARK SMILES IDX 9 12 8 13 7 14 6 15 5 16 4 17 3 18 2 19 1 20
REMARK H PARENT
REMARK Flexibility Score: inf
ROOT
ATOM      1  C   UNL     1       2.348   4.769  20.356  1.00  0.00     0.027 C 
ENDROOT
BRANCH   1   2
ATOM      2  C   UNL     1       2.280   4.636  18.827  1.00  0.00     0.004 C 
BRANCH   2   3
ATOM      3  C   UNL     1       0.831   4.671  18.310  1.00  0.00     0.000 C 
BRANCH   3   4
ATOM      4  C   UNL     1       0.523   5.923  17.470  1.00  0.00     0.000 C 
BRANCH   4   5
ATOM      5  C   UNL     1       0.226   7.203  18.281  1.00  0.00     0.000 C 
BRANCH   5   6
ATOM      6  C   UNL     1       1.005   8.455  17.837  1.00  0.00     0.006 C 
BRANCH   6   7
ATOM      7  C   UNL     1       2.520   8.231  17.793  1.00  0.00     0.053 C 
BRANCH   7   8
ATOM      8  C   UNL     1       3.082   8.728  16.499  1.00  0.00     0.041 C 
ATOM      9  O   UNL     1       3.184   9.964  16.286  1.00  0.00    -0.550 OA
ATOM     10  O   UNL     1       3.541   7.826  15.548  1.00  0.00    -0.550 OA
ENDBRANCH   7   8
ENDBRANCH   6   7
ENDBRANCH   5   6
ENDBRANCH   4   5
ENDBRANCH   3   4
ENDBRANCH   2   3
ENDBRANCH   1   2
BRANCH   1  11
ATOM     11  C   UNL     1       3.124   5.988  20.784  1.00  0.00    -0.031 C 
ATOM     12  C   UNL     1       3.588   6.124  22.035  1.00  0.00    -0.027 C 
BRANCH  12  13
ATOM     13  C   UNL     1       4.415   7.312  22.440  1.00  0.00     0.054 C 
BRANCH  13  14
ATOM     14  C   UNL     1       5.813   6.898  22.830  1.00  0.00    -0.027 C 
ATOM     15  C   UNL     1       6.913   7.251  22.141  1.00  0.00    -0.031 C 
BRANCH  15  16
ATOM     16  C   UNL     1       6.896   8.066  20.870  1.00  0.00     0.027 C 
BRANCH  16  17
ATOM     17  C   UNL     1       8.032   7.673  19.903  1.00  0.00     0.004 C 
BRANCH  17  18
ATOM     18  C   UNL     1       7.541   7.272  18.502  1.00  0.00     0.000 C 
BRANCH  18  19
ATOM     19  C   UNL     1       6.011   7.249  18.389  1.00  0.00    -0.003 C 
ATOM     20  C   UNL     1       5.521   5.919  17.826  1.00  0.00     0.004 C 
ENDBRANCH  18  19
ENDBRANCH  17  18
ENDBRANCH  16  17
ENDBRANCH  15  16
ENDBRANCH  13  14
ENDBRANCH  12  13
ENDBRANCH   1  11
TORSDOF 14
ENDMDL
MODEL 2
REMARK VINA RESULT:    -5.976      2.002      5.321
REMARK INTER + INTRA:         -13.102
REMARK INTER:                 -10.701
REMARK INTRA:                  -2.401
REMARK UNBOUND:                -2.235
REMARK SMILES CCCCCC=CCC=CCCCCCCCC(=O)[O-]
REMARK SMILES IDX 11 1 12 2 13 3 14 4 15 5 16 6 17 7 18 8 19 9 20 10 10 11
REMARK SMILES IDX 9 12 8 13 7 14 6 15 5 16 4 17 3 18 2 19 1 20
REMARK H PARENT
REMARK Flexibility Score: inf
ROOT
ATOM      1  C   UNL     1       5.552   6.998  23.398  1.00  0.00     0.027 C 
ENDROOT
BRANCH   1   2
ATOM      2  C   UNL     1       6.946   7.105  22.760  1.00  0.00     0.004 C 
BRANCH   2   3
ATOM      3  C   UNL     1       6.979   8.136  21.619  1.00  0.00     0.000 C 
BRANCH   3   4
ATOM      4  C   UNL     1       7.404   7.528  20.271  1.00  0.00     0.000 C 
BRANCH   4   5
ATOM      5  C   UNL     1       6.347   7.611  19.148  1.00  0.00     0.000 C 
BRANCH   5   6
ATOM      6  C   UNL     1       5.226   8.641  19.378  1.00  0.00     0.006 C 
BRANCH   6   7
ATOM      7  C   UNL     1       5.405   9.912  18.541  1.00  0.00     0.053 C 
BRANCH   7   8
ATOM      8  C   UNL     1       5.372  11.122  19.419  1.00  0.00     0.041 C 
ATOM      9  O   UNL     1       4.436  11.957  19.313  1.00  0.00    -0.550 OA
ATOM     10  O   UNL     1       6.350  11.304  20.389  1.00  0.00    -0.550 OA
ENDBRANCH   7   8
ENDBRANCH   6   7
ENDBRANCH   5   6
ENDBRANCH   4   5
ENDBRANCH   3   4
ENDBRANCH   2   3
ENDBRANCH   1   2
BRANCH   1  11
ATOM     11  C   UNL     1       4.455   6.988  22.364  1.00  0.00    -0.031 C 
ATOM     12  C   UNL     1       3.936   5.842  21.900  1.00  0.00    -0.027 C 
BRANCH  12  13
ATOM     13  C   UNL     1       2.799   5.837  20.917  1.00  0.00     0.054 C 
BRANCH  13  14
ATOM     14  C   UNL     1       2.707   4.517  20.192  1.00  0.00    -0.027 C 
ATOM     15  C   UNL     1       1.803   4.258  19.230  1.00  0.00    -0.031 C 
BRANCH  15  16
ATOM     16  C   UNL     1       0.739   5.230  18.778  1.00  0.00     0.027 C 
BRANCH  16  17
ATOM     17  C   UNL     1       1.113   5.941  17.462  1.00  0.00     0.004 C 
BRANCH  17  18
ATOM     18  C   UNL     1       1.971   7.201  17.661  1.00  0.00     0.000 C 
BRANCH  18  19
ATOM     19  C   UNL     1       3.154   7.279  16.686  1.00  0.00    -0.003 C 
ATOM     20  C   UNL     1       3.978   5.995  16.718  1.00  0.00     0.004 C 
ENDBRANCH  18  19
ENDBRANCH  17  18
ENDBRANCH  16  17
ENDBRANCH  15  16
ENDBRANCH  13  14
ENDBRANCH  12  13
ENDBRANCH   1  11
TORSDOF 14
ENDMDL
MODEL 3
REMARK VINA RESULT:    -5.960      1.598      5.615
REMARK INTER + INTRA:         -13.073
REMARK INTER:                 -10.781
REMARK INTRA:                  -2.292
REMARK UNBOUND:                -2.235
REMARK SMILES CCCCCC=CCC=CCCCCCCCC(=O)[O-]
REMARK SMILES IDX 11 1 12 2 13 3 14 4 15 5 16 6 17 7 18 8 19 9 20 10 10 11
REMARK SMILES IDX 9 12 8 13 7 14 6 15 5 16 4 17 3 18 2 19 1 20
REMARK H PARENT
REMARK Flexibility Score: inf
ROOT
ATOM      1  C   UNL     1       3.762   7.048  22.600  1.00  0.00     0.027 C 
ENDROOT
BRANCH   1   2
ATOM      2  C   UNL     1       5.034   6.860  23.440  1.00  0.00     0.004 C 
BRANCH   2   3
ATOM      3  C   UNL     1       6.301   6.826  22.568  1.00  0.00     0.000 C 
BRANCH   3   4
ATOM      4  C   UNL     1       6.537   8.139  21.800  1.00  0.00     0.000 C 
BRANCH   4   5
ATOM      5  C   UNL     1       7.181   7.979  20.406  1.00  0.00     0.000 C 
BRANCH   5   6
ATOM      6  C   UNL     1       6.214   8.111  19.217  1.00  0.00     0.006 C 
BRANCH   6   7
ATOM      7  C   UNL     1       6.215   6.878  18.307  1.00  0.00     0.053 C 
BRANCH   7   8
ATOM      8  C   UNL     1       7.158   7.075  17.163  1.00  0.00     0.041 C 
ATOM      9  O   UNL     1       7.577   8.227  16.880  1.00  0.00    -0.550 OA
ATOM     10  O   UNL     1       7.613   5.980  16.440  1.00  0.00    -0.550 OA
ENDBRANCH   7   8
ENDBRANCH   6   7
ENDBRANCH   5   6
ENDBRANCH   4   5
ENDBRANCH   3   4
ENDBRANCH   2   3
ENDBRANCH   1   2
BRANCH   1  11
ATOM     11  C   UNL     1       3.541   5.904  21.643  1.00  0.00    -0.031 C 
ATOM     12  C   UNL     1       3.224   6.115  20.356  1.00  0.00    -0.027 C 
BRANCH  12  13
ATOM     13  C   UNL     1       3.067   4.973  19.391  1.00  0.00     0.054 C 
BRANCH  13  14
ATOM     14  C   UNL     1       1.686   4.370  19.477  1.00  0.00    -0.027 C 
ATOM     15  C   UNL     1       0.660   4.747  18.693  1.00  0.00    -0.031 C 
BRANCH  15  16
ATOM     16  C   UNL     1       0.737   5.846  17.660  1.00  0.00     0.027 C 
BRANCH  16  17
ATOM     17  C   UNL     1       0.103   7.163  18.153  1.00  0.00     0.004 C 
BRANCH  17  18
ATOM     18  C   UNL     1       0.933   8.413  17.819  1.00  0.00     0.000 C 
BRANCH  18  19
ATOM     19  C   UNL     1       2.383   8.084  17.442  1.00  0.00    -0.003 C 
ATOM     20  C   UNL     1       3.066   9.279  16.783  1.00  0.00     0.004 C 
ENDBRANCH  18  19
ENDBRANCH  17  18
ENDBRANCH  16  17
ENDBRANCH  15  16
ENDBRANCH  13  14
ENDBRANCH  12  13
ENDBRANCH   1  11
TORSDOF 14
ENDMDL
MODEL 4
REMARK VINA RESULT:    -5.922      1.882      2.937
REMARK INTER + INTRA:         -13.004
REMARK INTER:                 -10.427
REMARK INTRA:                  -2.577
REMARK UNBOUND:                -2.235
REMARK SMILES CCCCCC=CCC=CCCCCCCCC(=O)[O-]
REMARK SMILES IDX 11 1 12 2 13 3 14 4 15 5 16 6 17 7 18 8 19 9 20 10 10 11
REMARK SMILES IDX 9 12 8 13 7 14 6 15 5 16 4 17 3 18 2 19 1 20
REMARK H PARENT
REMARK Flexibility Score: inf
ROOT
ATOM      1  C   UNL     1       2.710   4.676  20.222  1.00  0.00     0.027 C 
ENDROOT
BRANCH   1   2
ATOM      2  C   UNL     1       1.818   4.927  18.997  1.00  0.00     0.004 C 
BRANCH   2   3
ATOM      3  C   UNL     1       2.096   6.296  18.352  1.00  0.00     0.000 C 
BRANCH   3   4
ATOM      4  C   UNL     1       2.762   6.185  16.969  1.00  0.00     0.000 C 
BRANCH   4   5
ATOM      5  C   UNL     1       4.223   6.680  16.900  1.00  0.00     0.000 C 
BRANCH   5   6
ATOM      6  C   UNL     1       5.227   5.881  17.749  1.00  0.00     0.006 C 
BRANCH   6   7
ATOM      7  C   UNL     1       6.564   6.607  17.931  1.00  0.00     0.053 C 
BRANCH   7   8
ATOM      8  C   UNL     1       7.159   6.945  16.601  1.00  0.00     0.041 C 
ATOM      9  O   UNL     1       7.412   8.141  16.306  1.00  0.00    -0.550 OA
ATOM     10  O   UNL     1       7.480   5.933  15.705  1.00  0.00    -0.550 OA
ENDBRANCH   7   8
ENDBRANCH   6   7
ENDBRANCH   5   6
ENDBRANCH   4   5
ENDBRANCH   3   4
ENDBRANCH   2   3
ENDBRANCH   1   2
BRANCH   1  11
ATOM     11  C   UNL     1       3.197   5.962  20.841  1.00  0.00    -0.031 C 
ATOM     12  C   UNL     1       3.775   5.985  22.052  1.00  0.00    -0.027 C 
BRANCH  12  13
ATOM     13  C   UNL     1       4.316   7.259  22.637  1.00  0.00     0.054 C 
BRANCH  13  14
ATOM     14  C   UNL     1       5.595   7.012  23.400  1.00  0.00    -0.027 C 
ATOM     15  C   UNL     1       6.818   7.094  22.847  1.00  0.00    -0.031 C 
BRANCH  15  16
ATOM     16  C   UNL     1       7.075   7.400  21.390  1.00  0.00     0.027 C 
BRANCH  16  17
ATOM     17  C   UNL     1       7.672   8.807  21.182  1.00  0.00     0.004 C 
BRANCH  17  18
ATOM     18  C   UNL     1       6.983   9.614  20.068  1.00  0.00     0.000 C 
BRANCH  18  19
ATOM     19  C   UNL     1       5.552  10.032  20.433  1.00  0.00    -0.003 C 
ATOM     20  C   UNL     1       4.528   9.305  19.566  1.00  0.00     0.004 C 
ENDBRANCH  18  19
ENDBRANCH  17  18
ENDBRANCH  16  17
ENDBRANCH  15  16
ENDBRANCH  13  14
ENDBRANCH  12  13
ENDBRANCH   1  11
TORSDOF 14
ENDMDL
MODEL 5
REMARK VINA RESULT:    -5.890      1.576      2.035
REMARK INTER + INTRA:         -12.946
REMARK INTER:                 -10.381
REMARK INTRA:                  -2.565
REMARK UNBOUND:                -2.235
REMARK SMILES CCCCCC=CCC=CCCCCCCCC(=O)[O-]
REMARK SMILES IDX 11 1 12 2 13 3 14 4 15 5 16 6 17 7 18 8 19 9 20 10 10 11
REMARK SMILES IDX 9 12 8 13 7 14 6 15 5 16 4 17 3 18 2 19 1 20
REMARK H PARENT
REMARK Flexibility Score: inf
ROOT
ATOM      1  C   UNL     1       2.699   4.544  20.169  1.00  0.00     0.027 C 
ENDROOT
BRANCH   1   2
ATOM      2  C   UNL     1       1.868   4.789  18.900  1.00  0.00     0.004 C 
BRANCH   2   3
ATOM      3  C   UNL     1       1.420   6.257  18.779  1.00  0.00     0.000 C 
BRANCH   3   4
ATOM      4  C   UNL     1       1.980   6.954  17.526  1.00  0.00     0.000 C 
BRANCH   4   5
ATOM      5  C   UNL     1       3.073   6.169  16.768  1.00  0.00     0.000 C 
BRANCH   5   6
ATOM      6  C   UNL     1       4.218   7.024  16.197  1.00  0.00     0.006 C 
BRANCH   6   7
ATOM      7  C   UNL     1       3.742   8.382  15.669  1.00  0.00     0.053 C 
BRANCH   7   8
ATOM      8  C   UNL     1       4.292   8.629  14.300  1.00  0.00     0.041 C 
ATOM      9  O   UNL     1       3.894   9.615  13.627  1.00  0.00    -0.550 OA
ATOM     10  O   UNL     1       5.279   7.798  13.786  1.00  0.00    -0.550 OA
ENDBRANCH   7   8
ENDBRANCH   6   7
ENDBRANCH   5   6
ENDBRANCH   4   5
ENDBRANCH   3   4
ENDBRANCH   2   3
ENDBRANCH   1   2
BRANCH   1  11
ATOM     11  C   UNL     1       3.342   5.809  20.678  1.00  0.00    -0.031 C 
ATOM     12  C   UNL     1       3.459   6.060  21.991  1.00  0.00    -0.027 C 
BRANCH  12  13
ATOM     13  C   UNL     1       4.158   7.292  22.494  1.00  0.00     0.054 C 
BRANCH  13  14
ATOM     14  C   UNL     1       5.402   6.936  23.271  1.00  0.00    -0.027 C 
ATOM     15  C   UNL     1       6.633   7.365  22.940  1.00  0.00    -0.031 C 
BRANCH  15  16
ATOM     16  C   UNL     1       6.942   8.218  21.732  1.00  0.00     0.027 C 
BRANCH  16  17
ATOM     17  C   UNL     1       7.260   7.372  20.481  1.00  0.00     0.004 C 
BRANCH  17  18
ATOM     18  C   UNL     1       6.306   7.626  19.302  1.00  0.00     0.000 C 
BRANCH  18  19
ATOM     19  C   UNL     1       5.809   9.076  19.238  1.00  0.00    -0.003 C 
ATOM     20  C   UNL     1       4.285   9.138  19.268  1.00  0.00     0.004 C 
ENDBRANCH  18  19
ENDBRANCH  17  18
ENDBRANCH  16  17
ENDBRANCH  15  16
ENDBRANCH  13  14
ENDBRANCH  12  13
ENDBRANCH   1  11
TORSDOF 14
ENDMDL
MODEL 6
REMARK VINA RESULT:    -5.819      1.793      4.784
REMARK INTER + INTRA:         -12.817
REMARK INTER:                 -10.406
REMARK INTRA:                  -2.411
REMARK UNBOUND:                -2.235
REMARK SMILES CCCCCC=CCC=CCCCCCCCC(=O)[O-]
REMARK SMILES IDX 11 1 12 2 13 3 14 4 15 5 16 6 17 7 18 8 19 9 20 10 10 11
REMARK SMILES IDX 9 12 8 13 7 14 6 15 5 16 4 17 3 18 2 19 1 20
REMARK H PARENT
REMARK Flexibility Score: inf
ROOT
ATOM      1  C   UNL     1       3.555   6.651  15.911  1.00  0.00     0.027 C 
ENDROOT
BRANCH   1   2
ATOM      2  C   UNL     1       5.060   6.567  16.208  1.00  0.00     0.004 C 
BRANCH   2   3
ATOM      3  C   UNL     1       5.339   6.026  17.620  1.00  0.00     0.000 C 
BRANCH   3   4
ATOM      4  C   UNL     1       6.267   6.939  18.441  1.00  0.00     0.000 C 
BRANCH   4   5
ATOM      5  C   UNL     1       5.879   8.433  18.451  1.00  0.00     0.000 C 
BRANCH   5   6
ATOM      6  C   UNL     1       4.481   8.744  19.016  1.00  0.00     0.006 C 
BRANCH   6   7
ATOM      7  C   UNL     1       3.703   9.750  18.161  1.00  0.00     0.053 C 
BRANCH   7   8
ATOM      8  C   UNL     1       3.773  11.114  18.769  1.00  0.00     0.041 C 
ATOM      9  O   UNL     1       2.830  11.931  18.605  1.00  0.00    -0.550 OA
ATOM     10  O   UNL     1       4.860  11.468  19.559  1.00  0.00    -0.550 OA
ENDBRANCH   7   8
ENDBRANCH   6   7
ENDBRANCH   5   6
ENDBRANCH   4   5
ENDBRANCH   3   4
ENDBRANCH   2   3
ENDBRANCH   1   2
BRANCH   1  11
ATOM     11  C   UNL     1       2.735   5.888  16.920  1.00  0.00    -0.031 C 
ATOM     12  C   UNL     1       1.691   6.450  17.548  1.00  0.00    -0.027 C 
BRANCH  12  13
ATOM     13  C   UNL     1       0.838   5.666  18.506  1.00  0.00     0.054 C 
BRANCH  13  14
ATOM     14  C   UNL     1       1.616   4.534  19.131  1.00  0.00    -0.027 C 
ATOM     15  C   UNL     1       2.477   4.697  20.152  1.00  0.00    -0.031 C 
BRANCH  15  16
ATOM     16  C   UNL     1       2.812   6.030  20.778  1.00  0.00     0.027 C 
BRANCH  16  17
ATOM     17  C   UNL     1       3.689   5.884  22.038  1.00  0.00     0.004 C 
BRANCH  17  18
ATOM     18  C   UNL     1       4.342   7.200  22.494  1.00  0.00     0.000 C 
BRANCH  18  19
ATOM     19  C   UNL     1       5.749   6.998  23.073  1.00  0.00    -0.003 C 
ATOM     20  C   UNL     1       6.822   7.368  22.053  1.00  0.00     0.004 C 
ENDBRANCH  18  19
ENDBRANCH  17  18
ENDBRANCH  16  17
ENDBRANCH  15  16
ENDBRANCH  13  14
ENDBRANCH  12  13
ENDBRANCH   1  11
TORSDOF 14
ENDMDL
MODEL 7
REMARK VINA RESULT:    -5.807      1.883      4.781
REMARK INTER + INTRA:         -12.796
REMARK INTER:                 -10.290
REMARK INTRA:                  -2.506
REMARK UNBOUND:                -2.235
REMARK SMILES CCCCCC=CCC=CCCCCCCCC(=O)[O-]
REMARK SMILES IDX 11 1 12 2 13 3 14 4 15 5 16 6 17 7 18 8 19 9 20 10 10 11
REMARK SMILES IDX 9 12 8 13 7 14 6 15 5 16 4 17 3 18 2 19 1 20
REMARK H PARENT
REMARK Flexibility Score: inf
ROOT
ATOM      1  C   UNL     1       6.956   7.452  22.628  1.00  0.00     0.027 C 
ENDROOT
BRANCH   1   2
ATOM      2  C   UNL     1       5.676   7.004  23.349  1.00  0.00     0.004 C 
BRANCH   2   3
ATOM      3  C   UNL     1       4.409   7.372  22.557  1.00  0.00     0.000 C 
BRANCH   3   4
ATOM      4  C   UNL     1       3.564   6.145  22.170  1.00  0.00     0.000 C 
BRANCH   4   5
ATOM      5  C   UNL     1       3.387   5.920  20.653  1.00  0.00     0.000 C 
BRANCH   5   6
ATOM      6  C   UNL     1       2.375   4.827  20.266  1.00  0.00     0.006 C 
BRANCH   6   7
ATOM      7  C   UNL     1       2.257   4.632  18.751  1.00  0.00     0.053 C 
BRANCH   7   8
ATOM      8  C   UNL     1       1.408   5.708  18.152  1.00  0.00     0.041 C 
ATOM      9  O   UNL     1       0.192   5.801  18.461  1.00  0.00    -0.550 OA
ATOM     10  O   UNL     1       1.972   6.641  17.290  1.00  0.00    -0.550 OA
ENDBRANCH   7   8
ENDBRANCH   6   7
ENDBRANCH   5   6
ENDBRANCH   4   5
ENDBRANCH   3   4
ENDBRANCH   2   3
ENDBRANCH   1   2
BRANCH   1  11
ATOM     11  C   UNL     1       6.781   7.482  21.131  1.00  0.00    -0.031 C 
ATOM     12  C   UNL     1       7.821   7.678  20.305  1.00  0.00    -0.027 C 
BRANCH  12  13
ATOM     13  C   UNL     1       7.652   7.644  18.812  1.00  0.00     0.054 C 
BRANCH  13  14
ATOM     14  C   UNL     1       6.444   6.832  18.416  1.00  0.00    -0.027 C 
ATOM     15  C   UNL     1       5.346   7.360  17.847  1.00  0.00    -0.031 C 
BRANCH  15  16
ATOM     16  C   UNL     1       5.156   8.833  17.569  1.00  0.00     0.027 C 
BRANCH  16  17
ATOM     17  C   UNL     1       3.896   9.403  18.253  1.00  0.00     0.004 C 
BRANCH  17  18
ATOM     18  C   UNL     1       4.167  10.653  19.107  1.00  0.00     0.000 C 
BRANCH  18  19
ATOM     19  C   UNL     1       4.993  10.349  20.364  1.00  0.00    -0.003 C 
ATOM     20  C   UNL     1       6.352  11.042  20.310  1.00  0.00     0.004 C 
ENDBRANCH  18  19
ENDBRANCH  17  18
ENDBRANCH  16  17
ENDBRANCH  15  16
ENDBRANCH  13  14
ENDBRANCH  12  13
ENDBRANCH   1  11
TORSDOF 14
ENDMDL
MODEL 8
REMARK VINA RESULT:    -5.769      1.936      5.417
REMARK INTER + INTRA:         -12.726
REMARK INTER:                 -10.597
REMARK INTRA:                  -2.129
REMARK UNBOUND:                -2.235
REMARK SMILES CCCCCC=CCC=CCCCCCCCC(=O)[O-]
REMARK SMILES IDX 11 1 12 2 13 3 14 4 15 5 16 6 17 7 18 8 19 9 20 10 10 11
REMARK SMILES IDX 9 12 8 13 7 14 6 15 5 16 4 17 3 18 2 19 1 20
REMARK H PARENT
REMARK Flexibility Score: inf
ROOT
ATOM      1  C   UNL     1       3.476   6.233  22.337  1.00  0.00     0.027 C 
ENDROOT
BRANCH   1   2
ATOM      2  C   UNL     1       4.445   7.425  22.371  1.00  0.00     0.004 C 
BRANCH   2   3
ATOM      3  C   UNL     1       5.736   7.096  23.140  1.00  0.00     0.000 C 
BRANCH   3   4
ATOM      4  C   UNL     1       6.987   7.744  22.520  1.00  0.00     0.000 C 
BRANCH   4   5
ATOM      5  C   UNL     1       7.235   7.406  21.034  1.00  0.00     0.000 C 
BRANCH   5   6
ATOM      6  C   UNL     1       7.551   8.611  20.131  1.00  0.00     0.006 C 
BRANCH   6   7
ATOM      7  C   UNL     1       6.328   9.114  19.356  1.00  0.00     0.053 C 
BRANCH   7   8
ATOM      8  C   UNL     1       5.790  10.360  19.984  1.00  0.00     0.041 C 
ATOM      9  O   UNL     1       4.557  10.608  19.945  1.00  0.00    -0.550 OA
ATOM     10  O   UNL     1       6.645  11.225  20.656  1.00  0.00    -0.550 OA
ENDBRANCH   7   8
ENDBRANCH   6   7
ENDBRANCH   5   6
ENDBRANCH   4   5
ENDBRANCH   3   4
ENDBRANCH   2   3
ENDBRANCH   1   2
BRANCH   1  11
ATOM     11  C   UNL     1       3.440   5.571  20.984  1.00  0.00    -0.031 C 
ATOM     12  C   UNL     1       2.373   4.870  20.571  1.00  0.00    -0.027 C 
BRANCH  12  13
ATOM     13  C   UNL     1       2.317   4.265  19.197  1.00  0.00     0.054 C 
BRANCH  13  14
ATOM     14  C   UNL     1       1.058   4.672  18.470  1.00  0.00    -0.027 C 
ATOM     15  C   UNL     1       0.948   5.803  17.750  1.00  0.00    -0.031 C 
BRANCH  15  16
ATOM     16  C   UNL     1       2.045   6.831  17.607  1.00  0.00     0.027 C 
BRANCH  16  17
ATOM     17  C   UNL     1       3.074   6.446  16.525  1.00  0.00     0.004 C 
BRANCH  17  18
ATOM     18  C   UNL     1       4.499   6.945  16.819  1.00  0.00     0.000 C 
BRANCH  18  19
ATOM     19  C   UNL     1       5.279   6.008  17.750  1.00  0.00    -0.003 C 
ATOM     20  C   UNL     1       6.768   6.014  17.416  1.00  0.00     0.004 C 
ENDBRANCH  18  19
ENDBRANCH  17  18
ENDBRANCH  16  17
ENDBRANCH  15  16
ENDBRANCH  13  14
ENDBRANCH  12  13
ENDBRANCH   1  11
TORSDOF 14
ENDMDL
MODEL 9
REMARK VINA RESULT:    -5.758      1.238      4.672
REMARK INTER + INTRA:         -12.706
REMARK INTER:                  -9.938
REMARK INTRA:                  -2.768
REMARK UNBOUND:                -2.235
REMARK SMILES CCCCCC=CCC=CCCCCCCCC(=O)[O-]
REMARK SMILES IDX 11 1 12 2 13 3 14 4 15 5 16 6 17 7 18 8 19 9 20 10 10 11
REMARK SMILES IDX 9 12 8 13 7 14 6 15 5 16 4 17 3 18 2 19 1 20
REMARK H PARENT
REMARK Flexibility Score: inf
ROOT
ATOM      1  C   UNL     1       7.466   8.980  20.236  1.00  0.00     0.027 C 
ENDROOT
BRANCH   1   2
ATOM      2  C   UNL     1       8.013   7.841  19.363  1.00  0.00     0.004 C 
BRANCH   2   3
ATOM      3  C   UNL     1       7.636   8.018  17.882  1.00  0.00     0.000 C 
BRANCH   3   4
ATOM      4  C   UNL     1       6.790   6.855  17.334  1.00  0.00     0.000 C 
BRANCH   4   5
ATOM      5  C   UNL     1       5.576   6.458  18.201  1.00  0.00     0.000 C 
BRANCH   5   6
ATOM      6  C   UNL     1       4.258   7.171  17.850  1.00  0.00     0.006 C 
BRANCH   6   7
ATOM      7  C   UNL     1       3.947   8.344  18.785  1.00  0.00     0.053 C 
BRANCH   7   8
ATOM      8  C   UNL     1       3.810   9.612  18.003  1.00  0.00     0.041 C 
ATOM      9  O   UNL     1       3.285  10.627  18.529  1.00  0.00    -0.550 OA
ATOM     10  O   UNL     1       4.305   9.686  16.707  1.00  0.00    -0.550 OA
ENDBRANCH   7   8
ENDBRANCH   6   7
ENDBRANCH   5   6
ENDBRANCH   4   5
ENDBRANCH   3   4
ENDBRANCH   2   3
ENDBRANCH   1   2
BRANCH   1  11
ATOM     11  C   UNL     1       6.571   8.470  21.337  1.00  0.00    -0.031 C 
ATOM     12  C   UNL     1       6.634   7.200  21.764  1.00  0.00    -0.027 C 
BRANCH  12  13
ATOM     13  C   UNL     1       5.785   6.713  22.904  1.00  0.00     0.054 C 
BRANCH  13  14
ATOM     14  C   UNL     1       4.405   7.322  22.858  1.00  0.00    -0.027 C 
ATOM     15  C   UNL     1       3.380   6.791  22.168  1.00  0.00    -0.031 C 
BRANCH  15  16
ATOM     16  C   UNL     1       3.481   5.547  21.317  1.00  0.00     0.027 C 
BRANCH  16  17
ATOM     17  C   UNL     1       2.267   5.375  20.380  1.00  0.00     0.004 C 
BRANCH  17  18
ATOM     18  C   UNL     1       2.448   4.267  19.330  1.00  0.00     0.000 C 
BRANCH  18  19
ATOM     19  C   UNL     1       1.311   4.230  18.299  1.00  0.00    -0.003 C 
ATOM     20  C   UNL     1       0.798   5.635  17.995  1.00  0.00     0.004 C 
ENDBRANCH  18  19
ENDBRANCH  17  18
ENDBRANCH  16  17
ENDBRANCH  15  16
ENDBRANCH  13  14
ENDBRANCH  12  13
ENDBRANCH   1  11
TORSDOF 14
ENDMDL
