MODEL 1
REMARK VINA RESULT:    -4.638      0.000      0.000
REMARK INTER + INTRA:          -4.638
REMARK INTER:                  -4.638
REMARK INTRA:                   0.000
REMARK UNBOUND:                 0.000
REMARK SMILES CC1=CC(=O)[C@@H]2C[C@H]1C2(C)C
REMARK SMILES IDX 1 1 2 2 3 3 4 4 5 5 6 6 7 7 8 8 9 9 10 10 11 11
REMARK H PARENT
REMARK Flexibility Score: inf
ROOT
ATOM      1  C   UNL     1       8.763  34.308 -10.381  1.00  0.00     0.040 C 
ATOM      2  C   UNL     1       9.333  34.708 -11.704  1.00  0.00    -0.066 C 
ATOM      3  C   UNL     1       8.824  35.758 -12.407  1.00  0.00     0.047 C 
ATOM      4  C   UNL     1       9.502  36.078 -13.705  1.00  0.00     0.159 C 
ATOM      5  O   UNL     1       9.151  37.049 -14.425  1.00  0.00    -0.295 OA
ATOM      6  C   UNL     1      10.650  35.146 -14.091  1.00  0.00     0.067 C 
ATOM      7  C   UNL     1      10.095  33.730 -13.822  1.00  0.00     0.021 C 
ATOM      8  C   UNL     1      10.509  33.943 -12.348  1.00  0.00     0.022 C 
ATOM      9  C   UNL     1      11.574  34.958 -12.853  1.00  0.00    -0.019 C 
ATOM     10  C   UNL     1      11.883  36.199 -11.969  1.00  0.00     0.012 C 
ATOM     11  C   UNL     1      12.916  34.275 -13.218  1.00  0.00     0.012 C 
ENDROOT
TORSDOF 0
ENDMDL
MODEL 2
REMARK VINA RESULT:    -4.539      1.245      2.602
REMARK INTER + INTRA:          -4.539
REMARK INTER:                  -4.539
REMARK INTRA:                   0.000
REMARK UNBOUND:                 0.000
REMARK SMILES CC1=CC(=O)[C@@H]2C[C@H]1C2(C)C
REMARK SMILES IDX 1 1 2 2 3 3 4 4 5 5 6 6 7 7 8 8 9 9 10 10 11 11
REMARK H PARENT
REMARK Flexibility Score: inf
ROOT
ATOM      1  C   UNL     1      12.547  37.032 -11.907  1.00  0.00     0.040 C 
ATOM      2  C   UNL     1      11.292  36.589 -12.590  1.00  0.00    -0.066 C 
ATOM      3  C   UNL     1      10.568  37.445 -13.364  1.00  0.00     0.047 C 
ATOM      4  C   UNL     1       9.347  36.872 -14.019  1.00  0.00     0.159 C 
ATOM      5  O   UNL     1       8.618  37.550 -14.790  1.00  0.00    -0.295 OA
ATOM      6  C   UNL     1       9.050  35.410 -13.687  1.00  0.00     0.067 C 
ATOM      7  C   UNL     1       9.235  35.325 -12.156  1.00  0.00     0.021 C 
ATOM      8  C   UNL     1      10.745  35.155 -12.436  1.00  0.00     0.022 C 
ATOM      9  C   UNL     1      10.364  34.592 -13.836  1.00  0.00    -0.019 C 
ATOM     10  C   UNL     1      11.300  34.911 -15.035  1.00  0.00     0.012 C 
ATOM     11  C   UNL     1      10.113  33.063 -13.809  1.00  0.00     0.012 C 
ENDROOT
TORSDOF 0
ENDMDL
MODEL 3
REMARK VINA RESULT:    -4.435      1.685      2.990
REMARK INTER + INTRA:          -4.435
REMARK INTER:                  -4.435
REMARK INTRA:                   0.000
REMARK UNBOUND:                 0.000
REMARK SMILES CC1=CC(=O)[C@@H]2C[C@H]1C2(C)C
REMARK SMILES IDX 1 1 2 2 3 3 4 4 5 5 6 6 7 7 8 8 9 9 10 10 11 11
REMARK H PARENT
REMARK Flexibility Score: inf
ROOT
ATOM      1  C   UNL     1       9.052  37.146 -14.205  1.00  0.00     0.040 C 
ATOM      2  C   UNL     1       9.614  36.158 -13.234  1.00  0.00    -0.066 C 
ATOM      3  C   UNL     1       8.840  35.603 -12.260  1.00  0.00     0.047 C 
ATOM      4  C   UNL     1       9.512  34.602 -11.369  1.00  0.00     0.159 C 
ATOM      5  O   UNL     1       8.894  33.991 -10.459  1.00  0.00    -0.295 OA
ATOM      6  C   UNL     1      10.999  34.376 -11.643  1.00  0.00     0.067 C 
ATOM      7  C   UNL     1      11.575  35.800 -11.803  1.00  0.00     0.021 C 
ATOM      8  C   UNL     1      11.097  35.734 -13.272  1.00  0.00     0.022 C 
ATOM      9  C   UNL     1      11.197  34.184 -13.174  1.00  0.00    -0.019 C 
ATOM     10  C   UNL     1      10.154  33.331 -13.951  1.00  0.00     0.012 C 
ATOM     11  C   UNL     1      12.612  33.659 -13.524  1.00  0.00     0.012 C 
ENDROOT
TORSDOF 0
ENDMDL
MODEL 4
REMARK VINA RESULT:    -4.427      1.478      3.179
REMARK INTER + INTRA:          -4.427
REMARK INTER:                  -4.427
REMARK INTRA:                   0.000
REMARK UNBOUND:                 0.000
REMARK SMILES CC1=CC(=O)[C@@H]2C[C@H]1C2(C)C
REMARK SMILES IDX 1 1 2 2 3 3 4 4 5 5 6 6 7 7 8 8 9 9 10 10 11 11
REMARK H PARENT
REMARK Flexibility Score: inf
ROOT
ATOM      1  C   UNL     1      13.111  35.264 -12.674  1.00  0.00     0.040 C 
ATOM      2  C   UNL     1      11.713  34.905 -12.283  1.00  0.00    -0.066 C 
ATOM      3  C   UNL     1      10.662  35.715 -12.593  1.00  0.00     0.047 C 
ATOM      4  C   UNL     1       9.307  35.230 -12.173  1.00  0.00     0.159 C 
ATOM      5  O   UNL     1       8.253  35.867 -12.437  1.00  0.00    -0.295 OA
ATOM      6  C   UNL     1       9.293  33.908 -11.405  1.00  0.00     0.067 C 
ATOM      7  C   UNL     1      10.430  34.060 -10.370  1.00  0.00     0.021 C 
ATOM      8  C   UNL     1      11.394  33.618 -11.495  1.00  0.00     0.022 C 
ATOM      9  C   UNL     1      10.191  32.887 -12.160  1.00  0.00    -0.019 C 
ATOM     10  C   UNL     1      10.123  32.850 -13.713  1.00  0.00     0.012 C 
ATOM     11  C   UNL     1      10.013  31.442 -11.632  1.00  0.00     0.012 C 
ENDROOT
TORSDOF 0
ENDMDL
MODEL 5
REMARK VINA RESULT:    -4.406      3.169      4.376
REMARK INTER + INTRA:          -4.406
REMARK INTER:                  -4.406
REMARK INTRA:                   0.000
REMARK UNBOUND:                 0.000
REMARK SMILES CC1=CC(=O)[C@@H]2C[C@H]1C2(C)C
REMARK SMILES IDX 1 1 2 2 3 3 4 4 5 5 6 6 7 7 8 8 9 9 10 10 11 11
REMARK H PARENT
REMARK Flexibility Score: inf
ROOT
ATOM      1  C   UNL     1       7.621  31.744  -9.617  1.00  0.00     0.040 C 
ATOM      2  C   UNL     1       8.981  32.088 -10.136  1.00  0.00    -0.066 C 
ATOM      3  C   UNL     1      10.057  31.290  -9.887  1.00  0.00     0.047 C 
ATOM      4  C   UNL     1      11.359  31.727 -10.488  1.00  0.00     0.159 C 
ATOM      5  O   UNL     1      12.416  31.054 -10.364  1.00  0.00    -0.295 OA
ATOM      6  C   UNL     1      11.313  33.045 -11.262  1.00  0.00     0.067 C 
ATOM      7  C   UNL     1      10.511  33.994 -10.345  1.00  0.00     0.021 C 
ATOM      8  C   UNL     1       9.237  33.368 -10.958  1.00  0.00     0.022 C 
ATOM      9  C   UNL     1      10.084  33.017 -12.215  1.00  0.00    -0.019 C 
ATOM     10  C   UNL     1       9.766  31.695 -12.969  1.00  0.00     0.012 C 
ATOM     11  C   UNL     1      10.114  34.170 -13.249  1.00  0.00     0.012 C 
ENDROOT
TORSDOF 0
ENDMDL
MODEL 6
REMARK VINA RESULT:    -4.347      2.211      3.158
REMARK INTER + INTRA:          -4.347
REMARK INTER:                  -4.347
REMARK INTRA:                   0.000
REMARK UNBOUND:                 0.000
REMARK SMILES CC1=CC(=O)[C@@H]2C[C@H]1C2(C)C
REMARK SMILES IDX 1 1 2 2 3 3 4 4 5 5 6 6 7 7 8 8 9 9 10 10 11 11
REMARK H PARENT
REMARK Flexibility Score: inf
ROOT
ATOM      1  C   UNL     1       8.258  35.044 -10.782  1.00  0.00     0.040 C 
ATOM      2  C   UNL     1       9.613  34.694 -11.312  1.00  0.00    -0.066 C 
ATOM      3  C   UNL     1      10.249  33.552 -10.929  1.00  0.00     0.047 C 
ATOM      4  C   UNL     1      11.588  33.300 -11.554  1.00  0.00     0.159 C 
ATOM      5  O   UNL     1      12.257  32.260 -11.313  1.00  0.00    -0.295 OA
ATOM      6  C   UNL     1      12.084  34.390 -12.504  1.00  0.00     0.067 C 
ATOM      7  C   UNL     1      11.804  35.707 -11.747  1.00  0.00     0.021 C 
ATOM      8  C   UNL     1      10.363  35.615 -12.297  1.00  0.00     0.022 C 
ATOM      9  C   UNL     1      10.927  34.766 -13.473  1.00  0.00    -0.019 C 
ATOM     10  C   UNL     1      10.041  33.623 -14.044  1.00  0.00     0.012 C 
ATOM     11  C   UNL     1      11.410  35.642 -14.656  1.00  0.00     0.012 C 
ENDROOT
TORSDOF 0
ENDMDL
MODEL 7
REMARK VINA RESULT:    -4.269      1.850      3.561
REMARK INTER + INTRA:          -4.269
REMARK INTER:                  -4.269
REMARK INTRA:                   0.000
REMARK UNBOUND:                 0.000
REMARK SMILES CC1=CC(=O)[C@@H]2C[C@H]1C2(C)C
REMARK SMILES IDX 1 1 2 2 3 3 4 4 5 5 6 6 7 7 8 8 9 9 10 10 11 11
REMARK H PARENT
REMARK Flexibility Score: inf
ROOT
ATOM      1  C   UNL     1      10.153  31.636 -13.739  1.00  0.00     0.040 C 
ATOM      2  C   UNL     1      10.486  32.773 -12.826  1.00  0.00    -0.066 C 
ATOM      3  C   UNL     1      11.543  33.595 -13.077  1.00  0.00     0.047 C 
ATOM      4  C   UNL     1      11.754  34.716 -12.105  1.00  0.00     0.159 C 
ATOM      5  O   UNL     1      12.671  35.567 -12.249  1.00  0.00    -0.295 OA
ATOM      6  C   UNL     1      10.780  34.755 -10.928  1.00  0.00     0.067 C 
ATOM      7  C   UNL     1      10.718  33.291 -10.440  1.00  0.00     0.021 C 
ATOM      8  C   UNL     1       9.668  33.058 -11.550  1.00  0.00     0.022 C 
ATOM      9  C   UNL     1       9.335  34.576 -11.475  1.00  0.00    -0.019 C 
ATOM     10  C   UNL     1       8.948  35.308 -12.791  1.00  0.00     0.012 C 
ATOM     11  C   UNL     1       8.257  34.893 -10.408  1.00  0.00     0.012 C 
ENDROOT
TORSDOF 0
ENDMDL
MODEL 8
REMARK VINA RESULT:    -4.092      3.910      5.267
REMARK INTER + INTRA:          -4.092
REMARK INTER:                  -4.092
REMARK INTRA:                   0.000
REMARK UNBOUND:                 0.000
REMARK SMILES CC1=CC(=O)[C@@H]2C[C@H]1C2(C)C
REMARK SMILES IDX 1 1 2 2 3 3 4 4 5 5 6 6 7 7 8 8 9 9 10 10 11 11
REMARK H PARENT
REMARK Flexibility Score: inf
ROOT
ATOM      1  C   UNL     1       8.243  29.478 -12.447  1.00  0.00     0.040 C 
ATOM      2  C   UNL     1       9.205  30.269 -11.619  1.00  0.00    -0.066 C 
ATOM      3  C   UNL     1      10.536  29.980 -11.611  1.00  0.00     0.047 C 
ATOM      4  C   UNL     1      11.402  30.865 -10.765  1.00  0.00     0.159 C 
ATOM      5  O   UNL     1      12.651  30.725 -10.706  1.00  0.00    -0.295 OA
ATOM      6  C   UNL     1      10.662  31.948  -9.982  1.00  0.00     0.067 C 
ATOM      7  C   UNL     1       9.451  31.212  -9.367  1.00  0.00     0.021 C 
ATOM      8  C   UNL     1       8.739  31.435 -10.721  1.00  0.00     0.022 C 
ATOM      9  C   UNL     1       9.668  32.663 -10.942  1.00  0.00    -0.019 C 
ATOM     10  C   UNL     1      10.139  32.977 -12.391  1.00  0.00     0.012 C 
ATOM     11  C   UNL     1       9.087  33.962 -10.329  1.00  0.00     0.012 C 
ENDROOT
TORSDOF 0
ENDMDL
MODEL 9
REMARK VINA RESULT:    -4.022      1.845      3.657
REMARK INTER + INTRA:          -4.022
REMARK INTER:                  -4.022
REMARK INTRA:                   0.000
REMARK UNBOUND:                 0.000
REMARK SMILES CC1=CC(=O)[C@@H]2C[C@H]1C2(C)C
REMARK SMILES IDX 1 1 2 2 3 3 4 4 5 5 6 6 7 7 8 8 9 9 10 10 11 11
REMARK H PARENT
REMARK Flexibility Score: inf
ROOT
ATOM      1  C   UNL     1      12.380  35.597 -16.200  1.00  0.00     0.040 C 
ATOM      2  C   UNL     1      12.114  35.863 -14.753  1.00  0.00    -0.066 C 
ATOM      3  C   UNL     1      12.261  37.110 -14.223  1.00  0.00     0.047 C 
ATOM      4  C   UNL     1      11.934  37.253 -12.768  1.00  0.00     0.159 C 
ATOM      5  O   UNL     1      11.991  38.361 -12.172  1.00  0.00    -0.295 OA
ATOM      6  C   UNL     1      11.526  35.963 -12.058  1.00  0.00     0.067 C 
ATOM      7  C   UNL     1      12.566  34.924 -12.532  1.00  0.00     0.021 C 
ATOM      8  C   UNL     1      11.682  34.741 -13.786  1.00  0.00     0.022 C 
ATOM      9  C   UNL     1      10.473  35.226 -12.935  1.00  0.00    -0.019 C 
ATOM     10  C   UNL     1       9.374  36.074 -13.637  1.00  0.00     0.012 C 
ATOM     11  C   UNL     1       9.781  34.066 -12.176  1.00  0.00     0.012 C 
ENDROOT
TORSDOF 0
ENDMDL
