MODEL 1
REMARK VINA RESULT:    10.139      0.000      0.000
REMARK INTER + INTRA:          13.565
REMARK INTER:                  14.289
REMARK INTRA:                  -0.724
REMARK UNBOUND:                -0.724
REMARK SMILES O=C(C=Cc1ccc(O)cc1)CC(=O)C=Cc1ccc(O)cc1
REMARK SMILES IDX 12 1 2 2 1 3 3 4 4 5 5 6 6 7 7 8 8 9 11 10 10 11 9 12 13 14
REMARK SMILES IDX 14 15 15 16 16 17 17 18 18 19 23 20 19 21 22 22 20 23 21 24
REMARK H PARENT 9 13 21 25
REMARK Flexibility Score: inf
ROOT
ATOM      1  C   UNL     1      -6.138  -8.213  16.929  1.00  0.00     0.160 C 
ENDROOT
BRANCH   1   2
ATOM      2  C   UNL     1      -5.875  -6.761  16.659  1.00  0.00     0.163 C 
ATOM      3  O   UNL     1      -4.686  -6.368  16.517  1.00  0.00    -0.294 OA
BRANCH   2   4
ATOM      4  C   UNL     1      -6.997  -5.802  16.609  1.00  0.00     0.048 C 
ATOM      5  C   UNL     1      -7.432  -5.155  17.699  1.00  0.00     0.012 C 
BRANCH   5   6
ATOM      6  C   UNL     1      -8.557  -4.186  17.685  1.00  0.00    -0.025 A 
ATOM      7  C   UNL     1      -9.869  -4.676  17.784  1.00  0.00     0.012 A 
ATOM      8  C   UNL     1     -10.959  -3.799  17.764  1.00  0.00     0.047 A 
ATOM      9  C   UNL     1     -10.750  -2.421  17.634  1.00  0.00     0.115 A 
ATOM     10  C   UNL     1      -8.357  -2.797  17.538  1.00  0.00     0.012 A 
ATOM     11  C   UNL     1      -9.450  -1.924  17.518  1.00  0.00     0.047 A 
BRANCH   9  12
ATOM     12  O   UNL     1     -11.828  -1.538  17.613  1.00  0.00    -0.508 OA
ATOM     13  H   UNL     1     -12.464  -1.459  18.399  1.00  0.00     0.293 HD
ENDBRANCH   9  12
ENDBRANCH   5   6
ENDBRANCH   2   4
ENDBRANCH   1   2
BRANCH   1  14
ATOM     14  C   UNL     1      -6.936  -8.809  15.810  1.00  0.00     0.163 C 
ATOM     15  O   UNL     1      -6.802  -8.342  14.648  1.00  0.00    -0.294 OA
BRANCH  14  16
ATOM     16  C   UNL     1      -7.781  -9.999  16.059  1.00  0.00     0.048 C 
ATOM     17  C   UNL     1      -7.443 -11.266  15.777  1.00  0.00     0.012 C 
BRANCH  17  18
ATOM     18  C   UNL     1      -6.255 -11.680  15.001  1.00  0.00    -0.025 A 
ATOM     19  C   UNL     1      -6.339 -11.758  13.603  1.00  0.00     0.012 A 
ATOM     20  C   UNL     1      -5.017 -11.905  15.628  1.00  0.00     0.012 A 
ATOM     21  C   UNL     1      -5.217 -12.107  12.846  1.00  0.00     0.047 A 
ATOM     22  C   UNL     1      -3.895 -12.253  14.871  1.00  0.00     0.047 A 
ATOM     23  C   UNL     1      -3.992 -12.361  13.479  1.00  0.00     0.115 A 
BRANCH  23  24
ATOM     24  O   UNL     1      -2.869 -12.715  12.736  1.00  0.00    -0.508 OA
ATOM     25  H   UNL     1      -2.726 -13.664  12.411  1.00  0.00     0.293 HD
ENDBRANCH  23  24
ENDBRANCH  17  18
ENDBRANCH  14  16
ENDBRANCH   1  14
TORSDOF 8
ENDMDL
